MODEL 1
REMARK VINA RESULT:     -11.6      0.000      0.000
REMARK SMILES O=C(C[C@@H]1C(=O)NCC[N@@H+]1Cc1ccc(F)c(F)c1)OCCOCCOCCOC(=O)c1ccc(-c2c3nc(c(-c4c(F)c(F)c(F)c(F)c4F)c4ccc([nH]4)c(-c4c(F)c(F)c(F)c(F)c4F)c4nc(c(-c5c(F)c(F)c(F)c(F)c5F)c5ccc2[nH]5)C=C4)C=C3)cc1
REMARK SMILES IDX 24 1 23 2 22 3 21 4 20 5 2 6 1 7 3 8 4 9 5 10 10 11 6 12
REMARK SMILES IDX 7 13 9 14 8 16 11 18 12 19 13 20 19 21 14 22 17 23 15 24
REMARK SMILES IDX 18 25 16 26 25 27 26 28 27 29 28 30 29 31 30 32 31 33 32 34
REMARK SMILES IDX 33 35 94 36 34 37 93 38 35 39 36 40 37 41 87 42 38 43 92 44
REMARK SMILES IDX 86 45 88 46 39 47 91 48 85 49 84 50 40 52 72 53 52 54 71 55
REMARK SMILES IDX 53 56 56 57 70 58 89 59 54 60 55 61 69 63 90 64 57 65 41 66
REMARK SMILES IDX 42 67 50 68 43 69 44 70 48 71 51 72 45 73 46 74 49 75 47 76
REMARK SMILES IDX 73 77 74 78 82 79 75 80 76 81 80 82 83 83 77 84 78 85 81 86
REMARK SMILES IDX 79 87 58 88 59 89 67 90 60 91 61 92 65 93 68 94 62 95 63 96
REMARK SMILES IDX 66 97 64 98
REMARK H PARENT 10 15 7 17 88 51 56 62
REMARK Flexibility Score: inf
ROOT
ATOM      1  C   UNL A   1      40.363  22.026  26.094  1.00  0.00     0.188 C 
ENDROOT
BRANCH   1   2
ATOM      2  O   UNL A   1      38.980  22.189  26.400  1.00  0.00    -0.376 OA
BRANCH   2   3
ATOM      3  C   UNL A   1      38.464  23.494  26.170  1.00  0.00     0.202 C 
BRANCH   3   4
ATOM      4  C   UNL A   1      37.124  23.421  25.437  1.00  0.00     0.261 C 
BRANCH   4   5
ATOM      5  O   UNL A   1      36.027  23.488  26.362  1.00  0.00    -0.463 OA
BRANCH   5   6
ATOM      6  C   UNL A   1      35.202  22.408  26.403  1.00  0.00     0.312 C 
ATOM      7  O   UNL A   1      35.577  21.306  26.013  1.00  0.00    -0.252 OA
BRANCH   6   8
ATOM      8  C   UNL A   1      33.763  22.702  26.752  1.00  0.00     0.198 C 
BRANCH   8   9
ATOM      9  C   UNL A   1      32.936  23.116  25.531  1.00  0.00     0.285 C 
ATOM     10  C   UNL A   1      31.631  23.829  25.945  1.00  0.00     0.279 C 
ATOM     11  N   UNL A   1      32.686  22.067  24.512  1.00  0.00    -0.319 N 
ATOM     12  O   UNL A   1      31.413  24.253  27.078  1.00  0.00    -0.268 OA
ATOM     13  N   UNL A   1      30.719  24.067  24.947  1.00  0.00    -0.345 N 
ATOM     14  C   UNL A   1      32.041  22.658  23.334  1.00  0.00     0.284 C 
ATOM     15  H   UNL A   1      33.620  21.740  24.267  1.00  0.00     0.349 HD
ATOM     16  C   UNL A   1      30.761  23.452  23.634  1.00  0.00     0.177 C 
ATOM     17  H   UNL A   1      29.986  24.696  25.136  1.00  0.00     0.163 HD
BRANCH  11  18
ATOM     18  C   UNL A   1      32.150  20.770  24.924  1.00  0.00     0.299 C 
BRANCH  18  19
ATOM     19  C   UNL A   1      32.678  19.482  24.342  1.00  0.00     0.009 A 
ATOM     20  C   UNL A   1      32.137  18.976  23.147  1.00  0.00     0.013 A 
ATOM     21  C   UNL A   1      33.807  18.849  24.891  1.00  0.00     0.052 A 
ATOM     22  C   UNL A   1      32.711  17.869  22.513  1.00  0.00     0.043 A 
ATOM     23  C   UNL A   1      34.377  17.751  24.251  1.00  0.00     0.159 A 
ATOM     24  C   UNL A   1      33.833  17.268  23.068  1.00  0.00     0.158 A 
ATOM     25  F   UNL A   1      35.478  17.187  24.766  1.00  0.00    -0.204 F 
ATOM     26  F   UNL A   1      34.401  16.230  22.437  1.00  0.00    -0.204 F 
ENDBRANCH  18  19
ENDBRANCH  11  18
ENDBRANCH   8   9
ENDBRANCH   6   8
ENDBRANCH   5   6
ENDBRANCH   4   5
ENDBRANCH   3   4
ENDBRANCH   2   3
ENDBRANCH   1   2
BRANCH   1  27
ATOM     27  C   UNL A   1      40.929  20.672  26.530  1.00  0.00     0.188 C 
BRANCH  27  28
ATOM     28  O   UNL A   1      42.323  20.628  26.824  1.00  0.00    -0.376 OA
BRANCH  28  29
ATOM     29  C   UNL A   1      43.243  20.420  25.753  1.00  0.00     0.202 C 
BRANCH  29  30
ATOM     30  C   UNL A   1      43.954  21.672  25.247  1.00  0.00     0.261 C 
BRANCH  30  31
ATOM     31  O   UNL A   1      43.698  22.804  26.099  1.00  0.00    -0.460 OA
BRANCH  31  32
ATOM     32  C   UNL A   1      43.836  24.013  25.526  1.00  0.00     0.338 C 
ATOM     33  O   UNL A   1      44.493  24.301  24.531  1.00  0.00    -0.246 OA
BRANCH  32  34
ATOM     34  C   UNL A   1      43.016  25.004  26.229  1.00  0.00     0.060 A 
ATOM     35  C   UNL A   1      43.366  26.356  26.134  1.00  0.00     0.016 A 
ATOM     36  C   UNL A   1      42.025  24.579  27.118  1.00  0.00     0.016 A 
ATOM     37  C   UNL A   1      42.773  27.284  26.988  1.00  0.00     0.010 A 
ATOM     38  C   UNL A   1      41.443  25.508  27.980  1.00  0.00     0.010 A 
ATOM     39  C   UNL A   1      41.853  26.852  27.953  1.00  0.00    -0.014 A 
BRANCH  39  40
ATOM     40  C   UNL A   1      41.465  27.747  29.068  1.00  0.00     0.031 A 
ATOM     41  C   UNL A   1      42.253  27.685  30.347  1.00  0.00     0.074 A 
ATOM     42  C   UNL A   1      40.423  28.587  28.949  1.00  0.00     0.049 A 
ATOM     43  N   UNL A   1      42.024  28.267  31.495  1.00  0.00    -0.248 NA
ATOM     44  C   UNL A   1      43.467  26.849  30.328  1.00  0.00     0.031 C 
ATOM     45  C   UNL A   1      39.621  28.771  27.743  1.00  0.00     0.029 A 
ATOM     46  N   UNL A   1      39.856  29.431  29.870  1.00  0.00    -0.354 N 
ATOM     47  C   UNL A   1      43.054  27.863  32.334  1.00  0.00     0.074 A 
ATOM     48  C   UNL A   1      43.901  26.971  31.574  1.00  0.00     0.031 C 
ATOM     49  C   UNL A   1      38.651  29.665  28.001  1.00  0.00     0.029 A 
ATOM     50  C   UNL A   1      38.741  30.079  29.402  1.00  0.00     0.049 A 
ATOM     51  H   UNL A   1      40.215  29.560  30.777  1.00  0.00     0.167 HD
ATOM     52  C   UNL A   1      43.272  28.209  33.624  1.00  0.00     0.037 A 
ATOM     53  C   UNL A   1      37.876  30.887  30.044  1.00  0.00     0.037 A 
ATOM     54  C   UNL A   1      42.425  29.095  34.378  1.00  0.00     0.049 A 
ATOM     55  C   UNL A   1      38.093  31.189  31.504  1.00  0.00     0.074 A 
ATOM     56  C   UNL A   1      42.560  29.509  35.690  1.00  0.00     0.029 A 
ATOM     57  N   UNL A   1      41.283  29.703  33.879  1.00  0.00    -0.354 N 
ATOM     58  N   UNL A   1      39.058  30.795  32.299  1.00  0.00    -0.248 NA
ATOM     59  C   UNL A   1      37.090  32.042  32.162  1.00  0.00     0.031 C 
ATOM     60  C   UNL A   1      41.476  30.336  35.999  1.00  0.00     0.029 A 
ATOM     61  C   UNL A   1      40.692  30.473  34.866  1.00  0.00     0.049 A 
ATOM     62  H   UNL A   1      40.943  29.602  32.960  1.00  0.00     0.167 HD
ATOM     63  C   UNL A   1      38.792  31.362  33.538  1.00  0.00     0.074 A 
ATOM     64  C   UNL A   1      37.581  32.141  33.389  1.00  0.00     0.031 C 
ATOM     65  C   UNL A   1      39.487  31.245  34.696  1.00  0.00     0.037 A 
BRANCH  52  66
ATOM     66  C   UNL A   1      44.464  27.618  34.316  1.00  0.00     0.064 A 
ATOM     67  C   UNL A   1      44.355  26.406  35.013  1.00  0.00     0.173 A 
ATOM     68  C   UNL A   1      45.697  28.286  34.345  1.00  0.00     0.173 A 
ATOM     69  F   UNL A   1      43.195  25.731  35.018  1.00  0.00    -0.203 F 
ATOM     70  C   UNL A   1      45.432  25.891  35.726  1.00  0.00     0.198 A 
ATOM     71  C   UNL A   1      46.781  27.755  35.040  1.00  0.00     0.198 A 
ATOM     72  F   UNL A   1      45.855  29.441  33.682  1.00  0.00    -0.203 F 
ATOM     73  F   UNL A   1      45.296  24.746  36.410  1.00  0.00    -0.200 F 
ATOM     74  C   UNL A   1      46.645  26.564  35.738  1.00  0.00     0.200 A 
ATOM     75  F   UNL A   1      47.957  28.397  35.035  1.00  0.00    -0.200 F 
ATOM     76  F   UNL A   1      47.683  26.064  36.422  1.00  0.00    -0.200 F 
ENDBRANCH  52  66
BRANCH  53  77
ATOM     77  C   UNL A   1      36.715  31.453  29.313  1.00  0.00     0.064 A 
ATOM     78  C   UNL A   1      36.656  32.815  28.979  1.00  0.00     0.173 A 
ATOM     79  C   UNL A   1      35.639  30.640  28.934  1.00  0.00     0.173 A 
ATOM     80  F   UNL A   1      37.666  33.632  29.309  1.00  0.00    -0.203 F 
ATOM     81  C   UNL A   1      35.554  33.343  28.311  1.00  0.00     0.198 A 
ATOM     82  C   UNL A   1      34.549  31.166  28.243  1.00  0.00     0.198 A 
ATOM     83  F   UNL A   1      35.665  29.326  29.204  1.00  0.00    -0.203 F 
ATOM     84  F   UNL A   1      35.512  34.652  28.023  1.00  0.00    -0.200 F 
ATOM     85  C   UNL A   1      34.504  32.519  27.938  1.00  0.00     0.200 A 
ATOM     86  F   UNL A   1      33.551  30.360  27.857  1.00  0.00    -0.200 F 
ATOM     87  F   UNL A   1      33.453  33.024  27.278  1.00  0.00    -0.200 F 
ENDBRANCH  53  77
BRANCH  65  88
ATOM     88  C   UNL A   1      38.970  31.986  35.894  1.00  0.00     0.064 A 
ATOM     89  C   UNL A   1      39.343  33.320  36.120  1.00  0.00     0.173 A 
ATOM     90  C   UNL A   1      38.172  31.353  36.856  1.00  0.00     0.173 A 
ATOM     91  F   UNL A   1      40.114  33.966  35.232  1.00  0.00    -0.203 F 
ATOM     92  C   UNL A   1      38.944  33.989  37.273  1.00  0.00     0.198 A 
ATOM     93  C   UNL A   1      37.753  32.033  37.996  1.00  0.00     0.198 A 
ATOM     94  F   UNL A   1      37.781  30.082  36.679  1.00  0.00    -0.203 F 
ATOM     95  F   UNL A   1      39.338  35.253  37.484  1.00  0.00    -0.200 F 
ATOM     96  C   UNL A   1      38.147  33.346  38.209  1.00  0.00     0.200 A 
ATOM     97  F   UNL A   1      36.965  31.419  38.889  1.00  0.00    -0.200 F 
ATOM     98  F   UNL A   1      37.756  33.994  39.315  1.00  0.00    -0.200 F 
ENDBRANCH  65  88
ENDBRANCH  39  40
ENDBRANCH  32  34
ENDBRANCH  31  32
ENDBRANCH  30  31
ENDBRANCH  29  30
ENDBRANCH  28  29
ENDBRANCH  27  28
ENDBRANCH   1  27
TORSDOF 20
ENDMDL
MODEL 2
REMARK VINA RESULT:     -11.2      2.271      3.466
REMARK SMILES O=C(C[C@@H]1C(=O)NCC[N@@H+]1Cc1ccc(F)c(F)c1)OCCOCCOCCOC(=O)c1ccc(-c2c3nc(c(-c4c(F)c(F)c(F)c(F)c4F)c4ccc([nH]4)c(-c4c(F)c(F)c(F)c(F)c4F)c4nc(c(-c5c(F)c(F)c(F)c(F)c5F)c5ccc2[nH]5)C=C4)C=C3)cc1
REMARK SMILES IDX 24 1 23 2 22 3 21 4 20 5 2 6 1 7 3 8 4 9 5 10 10 11 6 12
REMARK SMILES IDX 7 13 9 14 8 16 11 18 12 19 13 20 19 21 14 22 17 23 15 24
REMARK SMILES IDX 18 25 16 26 25 27 26 28 27 29 28 30 29 31 30 32 31 33 32 34
REMARK SMILES IDX 33 35 94 36 34 37 93 38 35 39 36 40 37 41 87 42 38 43 92 44
REMARK SMILES IDX 86 45 88 46 39 47 91 48 85 49 84 50 40 52 72 53 52 54 71 55
REMARK SMILES IDX 53 56 56 57 70 58 89 59 54 60 55 61 69 63 90 64 57 65 41 66
REMARK SMILES IDX 42 67 50 68 43 69 44 70 48 71 51 72 45 73 46 74 49 75 47 76
REMARK SMILES IDX 73 77 74 78 82 79 75 80 76 81 80 82 83 83 77 84 78 85 81 86
REMARK SMILES IDX 79 87 58 88 59 89 67 90 60 91 61 92 65 93 68 94 62 95 63 96
REMARK SMILES IDX 66 97 64 98
REMARK H PARENT 10 15 7 17 88 51 56 62
REMARK Flexibility Score: inf
ROOT
ATOM      1  C   UNL A   1      40.772  21.901  27.710  1.00  0.00     0.188 C 
ENDROOT
BRANCH   1   2
ATOM      2  O   UNL A   1      39.722  22.680  27.140  1.00  0.00    -0.376 OA
BRANCH   2   3
ATOM      3  C   UNL A   1      38.983  22.032  26.113  1.00  0.00     0.202 C 
BRANCH   3   4
ATOM      4  C   UNL A   1      37.546  22.549  26.076  1.00  0.00     0.261 C 
BRANCH   4   5
ATOM      5  O   UNL A   1      36.963  22.362  24.777  1.00  0.00    -0.463 OA
BRANCH   5   6
ATOM      6  C   UNL A   1      35.867  21.560  24.714  1.00  0.00     0.312 C 
ATOM      7  O   UNL A   1      35.949  20.353  24.919  1.00  0.00    -0.252 OA
BRANCH   6   8
ATOM      8  C   UNL A   1      34.616  22.212  24.175  1.00  0.00     0.198 C 
BRANCH   8   9
ATOM      9  C   UNL A   1      33.562  22.447  25.260  1.00  0.00     0.285 C 
ATOM     10  C   UNL A   1      32.333  21.533  25.067  1.00  0.00     0.279 C 
ATOM     11  N   UNL A   1      33.163  23.856  25.504  1.00  0.00    -0.319 N 
ATOM     12  O   UNL A   1      32.316  20.561  24.314  1.00  0.00    -0.268 OA
ATOM     13  N   UNL A   1      31.243  21.794  25.859  1.00  0.00    -0.345 N 
ATOM     14  C   UNL A   1      32.289  23.931  26.681  1.00  0.00     0.284 C 
ATOM     15  H   UNL A   1      34.045  24.327  25.698  1.00  0.00     0.349 HD
ATOM     16  C   UNL A   1      31.060  23.010  26.628  1.00  0.00     0.177 C 
ATOM     17  H   UNL A   1      30.538  21.110  25.908  1.00  0.00     0.163 HD
BRANCH  11  18
ATOM     18  C   UNL A   1      32.757  24.698  24.379  1.00  0.00     0.299 C 
BRANCH  18  19
ATOM     19  C   UNL A   1      32.682  26.199  24.511  1.00  0.00     0.009 A 
ATOM     20  C   UNL A   1      31.505  26.879  24.150  1.00  0.00     0.013 A 
ATOM     21  C   UNL A   1      33.716  26.924  25.130  1.00  0.00     0.052 A 
ATOM     22  C   UNL A   1      31.362  28.247  24.405  1.00  0.00     0.043 A 
ATOM     23  C   UNL A   1      33.563  28.285  25.385  1.00  0.00     0.159 A 
ATOM     24  C   UNL A   1      32.392  28.939  25.028  1.00  0.00     0.158 A 
ATOM     25  F   UNL A   1      34.542  28.950  26.014  1.00  0.00    -0.204 F 
ATOM     26  F   UNL A   1      32.234  30.242  25.302  1.00  0.00    -0.204 F 
ENDBRANCH  18  19
ENDBRANCH  11  18
ENDBRANCH   8   9
ENDBRANCH   6   8
ENDBRANCH   5   6
ENDBRANCH   4   5
ENDBRANCH   3   4
ENDBRANCH   2   3
ENDBRANCH   1   2
BRANCH   1  27
ATOM     27  C   UNL A   1      41.567  21.098  26.676  1.00  0.00     0.188 C 
BRANCH  27  28
ATOM     28  O   UNL A   1      42.966  21.360  26.603  1.00  0.00    -0.376 OA
BRANCH  28  29
ATOM     29  C   UNL A   1      43.638  21.150  25.362  1.00  0.00     0.202 C 
BRANCH  29  30
ATOM     30  C   UNL A   1      43.999  22.416  24.589  1.00  0.00     0.261 C 
BRANCH  30  31
ATOM     31  O   UNL A   1      43.181  23.530  24.992  1.00  0.00    -0.460 OA
BRANCH  31  32
ATOM     32  C   UNL A   1      43.823  24.701  25.151  1.00  0.00     0.338 C 
ATOM     33  O   UNL A   1      44.923  25.020  24.712  1.00  0.00    -0.246 OA
BRANCH  32  34
ATOM     34  C   UNL A   1      42.986  25.639  25.906  1.00  0.00     0.060 A 
ATOM     35  C   UNL A   1      43.282  27.006  25.843  1.00  0.00     0.016 A 
ATOM     36  C   UNL A   1      42.036  25.151  26.808  1.00  0.00     0.016 A 
ATOM     37  C   UNL A   1      42.679  27.885  26.739  1.00  0.00     0.010 A 
ATOM     38  C   UNL A   1      41.445  26.031  27.713  1.00  0.00     0.010 A 
ATOM     39  C   UNL A   1      41.804  27.391  27.715  1.00  0.00    -0.014 A 
BRANCH  39  40
ATOM     40  C   UNL A   1      41.413  28.236  28.867  1.00  0.00     0.031 A 
ATOM     41  C   UNL A   1      42.232  28.159  30.125  1.00  0.00     0.074 A 
ATOM     42  C   UNL A   1      40.343  29.046  28.798  1.00  0.00     0.049 A 
ATOM     43  N   UNL A   1      42.012  28.698  31.296  1.00  0.00    -0.248 NA
ATOM     44  C   UNL A   1      43.470  27.364  30.053  1.00  0.00     0.031 C 
ATOM     45  C   UNL A   1      39.508  29.243  27.616  1.00  0.00     0.029 A 
ATOM     46  N   UNL A   1      39.771  29.842  29.758  1.00  0.00    -0.354 N 
ATOM     47  C   UNL A   1      43.073  28.300  32.100  1.00  0.00     0.074 A 
ATOM     48  C   UNL A   1      43.929  27.460  31.292  1.00  0.00     0.031 C 
ATOM     49  C   UNL A   1      38.517  30.097  27.925  1.00  0.00     0.029 A 
ATOM     50  C   UNL A   1      38.626  30.469  29.336  1.00  0.00     0.049 A 
ATOM     51  H   UNL A   1      40.147  29.954  30.661  1.00  0.00     0.167 HD
ATOM     52  C   UNL A   1      43.309  28.611  33.395  1.00  0.00     0.037 A 
ATOM     53  C   UNL A   1      37.751  31.228  30.023  1.00  0.00     0.037 A 
ATOM     54  C   UNL A   1      42.452  29.446  34.195  1.00  0.00     0.049 A 
ATOM     55  C   UNL A   1      37.992  31.491  31.487  1.00  0.00     0.074 A 
ATOM     56  C   UNL A   1      42.604  29.822  35.517  1.00  0.00     0.029 A 
ATOM     57  N   UNL A   1      41.281  30.033  33.741  1.00  0.00    -0.354 N 
ATOM     58  N   UNL A   1      38.987  31.103  32.247  1.00  0.00    -0.248 NA
ATOM     59  C   UNL A   1      36.979  32.289  32.193  1.00  0.00     0.031 C 
ATOM     60  C   UNL A   1      41.503  30.604  35.876  1.00  0.00     0.029 A 
ATOM     61  C   UNL A   1      40.689  30.752  34.766  1.00  0.00     0.049 A 
ATOM     62  H   UNL A   1      40.923  29.950  32.828  1.00  0.00     0.167 HD
ATOM     63  C   UNL A   1      38.733  31.621  33.509  1.00  0.00     0.074 A 
ATOM     64  C   UNL A   1      37.495  32.365  33.412  1.00  0.00     0.031 C 
ATOM     65  C   UNL A   1      39.457  31.489  34.647  1.00  0.00     0.037 A 
BRANCH  52  66
ATOM     66  C   UNL A   1      44.535  28.038  34.041  1.00  0.00     0.064 A 
ATOM     67  C   UNL A   1      44.481  26.798  34.693  1.00  0.00     0.173 A 
ATOM     68  C   UNL A   1      45.745  28.746  34.071  1.00  0.00     0.173 A 
ATOM     69  F   UNL A   1      43.346  26.083  34.695  1.00  0.00    -0.203 F 
ATOM     70  C   UNL A   1      45.590  26.294  35.366  1.00  0.00     0.198 A 
ATOM     71  C   UNL A   1      46.860  28.228  34.725  1.00  0.00     0.198 A 
ATOM     72  F   UNL A   1      45.850  29.930  33.450  1.00  0.00    -0.203 F 
ATOM     73  F   UNL A   1      45.507  25.120  36.009  1.00  0.00    -0.200 F 
ATOM     74  C   UNL A   1      46.779  27.008  35.380  1.00  0.00     0.200 A 
ATOM     75  F   UNL A   1      48.013  28.911  34.721  1.00  0.00    -0.200 F 
ATOM     76  F   UNL A   1      47.847  26.520  36.024  1.00  0.00    -0.200 F 
ENDBRANCH  52  66
BRANCH  53  77
ATOM     77  C   UNL A   1      36.557  31.779  29.336  1.00  0.00     0.064 A 
ATOM     78  C   UNL A   1      35.470  30.960  28.991  1.00  0.00     0.173 A 
ATOM     79  C   UNL A   1      36.478  33.139  29.011  1.00  0.00     0.173 A 
ATOM     80  F   UNL A   1      35.492  29.653  29.290  1.00  0.00    -0.203 F 
ATOM     81  C   UNL A   1      34.361  31.479  28.329  1.00  0.00     0.198 A 
ATOM     82  C   UNL A   1      35.356  33.663  28.371  1.00  0.00     0.198 A 
ATOM     83  F   UNL A   1      37.478  33.967  29.349  1.00  0.00    -0.203 F 
ATOM     84  F   UNL A   1      33.346  30.672  27.990  1.00  0.00    -0.200 F 
ATOM     85  C   UNL A   1      34.301  32.830  28.024  1.00  0.00     0.200 A 
ATOM     86  F   UNL A   1      35.289  34.974  28.107  1.00  0.00    -0.200 F 
ATOM     87  F   UNL A   1      33.225  33.333  27.404  1.00  0.00    -0.200 F 
ENDBRANCH  53  77
BRANCH  65  88
ATOM     88  C   UNL A   1      38.945  32.175  35.879  1.00  0.00     0.064 A 
ATOM     89  C   UNL A   1      39.305  33.504  36.155  1.00  0.00     0.173 A 
ATOM     90  C   UNL A   1      38.165  31.495  36.824  1.00  0.00     0.173 A 
ATOM     91  F   UNL A   1      40.059  34.194  35.287  1.00  0.00    -0.203 F 
ATOM     92  C   UNL A   1      38.911  34.121  37.338  1.00  0.00     0.198 A 
ATOM     93  C   UNL A   1      37.752  32.123  37.995  1.00  0.00     0.198 A 
ATOM     94  F   UNL A   1      37.787  30.227  36.599  1.00  0.00    -0.203 F 
ATOM     95  F   UNL A   1      39.293  35.380  37.597  1.00  0.00    -0.200 F 
ATOM     96  C   UNL A   1      38.133  33.431  38.256  1.00  0.00     0.200 A 
ATOM     97  F   UNL A   1      36.980  31.464  38.871  1.00  0.00    -0.200 F 
ATOM     98  F   UNL A   1      37.746  34.029  39.391  1.00  0.00    -0.200 F 
ENDBRANCH  65  88
ENDBRANCH  39  40
ENDBRANCH  32  34
ENDBRANCH  31  32
ENDBRANCH  30  31
ENDBRANCH  29  30
ENDBRANCH  28  29
ENDBRANCH  27  28
ENDBRANCH   1  27
TORSDOF 20
ENDMDL
MODEL 3
REMARK VINA RESULT:     -10.9      0.908      2.159
REMARK SMILES O=C(C[C@@H]1C(=O)NCC[N@@H+]1Cc1ccc(F)c(F)c1)OCCOCCOCCOC(=O)c1ccc(-c2c3nc(c(-c4c(F)c(F)c(F)c(F)c4F)c4ccc([nH]4)c(-c4c(F)c(F)c(F)c(F)c4F)c4nc(c(-c5c(F)c(F)c(F)c(F)c5F)c5ccc2[nH]5)C=C4)C=C3)cc1
REMARK SMILES IDX 24 1 23 2 22 3 21 4 20 5 2 6 1 7 3 8 4 9 5 10 10 11 6 12
REMARK SMILES IDX 7 13 9 14 8 16 11 18 12 19 13 20 19 21 14 22 17 23 15 24
REMARK SMILES IDX 18 25 16 26 25 27 26 28 27 29 28 30 29 31 30 32 31 33 32 34
REMARK SMILES IDX 33 35 94 36 34 37 93 38 35 39 36 40 37 41 87 42 38 43 92 44
REMARK SMILES IDX 86 45 88 46 39 47 91 48 85 49 84 50 40 52 72 53 52 54 71 55
REMARK SMILES IDX 53 56 56 57 70 58 89 59 54 60 55 61 69 63 90 64 57 65 41 66
REMARK SMILES IDX 42 67 50 68 43 69 44 70 48 71 51 72 45 73 46 74 49 75 47 76
REMARK SMILES IDX 73 77 74 78 82 79 75 80 76 81 80 82 83 83 77 84 78 85 81 86
REMARK SMILES IDX 79 87 58 88 59 89 67 90 60 91 61 92 65 93 68 94 62 95 63 96
REMARK SMILES IDX 66 97 64 98
REMARK H PARENT 10 15 7 17 88 51 56 62
REMARK Flexibility Score: inf
ROOT
ATOM      1  C   UNL A   1      40.952  20.311  27.598  1.00  0.00     0.188 C 
ENDROOT
BRANCH   1   2
ATOM      2  O   UNL A   1      39.811  20.712  26.842  1.00  0.00    -0.376 OA
BRANCH   2   3
ATOM      3  C   UNL A   1      39.945  21.958  26.169  1.00  0.00     0.202 C 
BRANCH   3   4
ATOM      4  C   UNL A   1      38.588  22.650  26.045  1.00  0.00     0.261 C 
BRANCH   4   5
ATOM      5  O   UNL A   1      37.560  21.710  25.693  1.00  0.00    -0.463 OA
BRANCH   5   6
ATOM      6  C   UNL A   1      36.640  22.131  24.784  1.00  0.00     0.312 C 
ATOM      7  O   UNL A   1      36.981  22.694  23.748  1.00  0.00    -0.252 OA
BRANCH   6   8
ATOM      8  C   UNL A   1      35.201  22.052  25.233  1.00  0.00     0.198 C 
BRANCH   8   9
ATOM      9  C   UNL A   1      34.265  22.888  24.355  1.00  0.00     0.285 C 
ATOM     10  C   UNL A   1      33.697  24.101  25.123  1.00  0.00     0.279 C 
ATOM     11  N   UNL A   1      33.198  22.151  23.632  1.00  0.00    -0.319 N 
ATOM     12  O   UNL A   1      34.144  24.499  26.197  1.00  0.00    -0.268 OA
ATOM     13  N   UNL A   1      32.697  24.806  24.503  1.00  0.00    -0.345 N 
ATOM     14  C   UNL A   1      32.506  23.054  22.706  1.00  0.00     0.284 C 
ATOM     15  H   UNL A   1      33.708  21.441  23.108  1.00  0.00     0.349 HD
ATOM     16  C   UNL A   1      31.954  24.335  23.350  1.00  0.00     0.177 C 
ATOM     17  H   UNL A   1      32.467  25.692  24.866  1.00  0.00     0.163 HD
BRANCH  11  18
ATOM     18  C   UNL A   1      32.327  21.234  24.367  1.00  0.00     0.299 C 
BRANCH  18  19
ATOM     19  C   UNL A   1      32.475  19.738  24.235  1.00  0.00     0.009 A 
ATOM     20  C   UNL A   1      32.488  19.142  22.962  1.00  0.00     0.013 A 
ATOM     21  C   UNL A   1      32.749  18.936  25.358  1.00  0.00     0.052 A 
ATOM     22  C   UNL A   1      32.773  17.781  22.812  1.00  0.00     0.043 A 
ATOM     23  C   UNL A   1      33.038  17.583  25.200  1.00  0.00     0.159 A 
ATOM     24  C   UNL A   1      33.053  17.011  23.934  1.00  0.00     0.158 A 
ATOM     25  F   UNL A   1      33.338  16.844  26.277  1.00  0.00    -0.204 F 
ATOM     26  F   UNL A   1      33.361  15.716  23.781  1.00  0.00    -0.204 F 
ENDBRANCH  18  19
ENDBRANCH  11  18
ENDBRANCH   8   9
ENDBRANCH   6   8
ENDBRANCH   5   6
ENDBRANCH   4   5
ENDBRANCH   3   4
ENDBRANCH   2   3
ENDBRANCH   1   2
BRANCH   1  27
ATOM     27  C   UNL A   1      42.269  20.887  27.068  1.00  0.00     0.188 C 
BRANCH  27  28
ATOM     28  O   UNL A   1      42.997  20.076  26.151  1.00  0.00    -0.376 OA
BRANCH  28  29
ATOM     29  C   UNL A   1      43.755  20.714  25.124  1.00  0.00     0.202 C 
BRANCH  29  30
ATOM     30  C   UNL A   1      44.289  22.102  25.468  1.00  0.00     0.261 C 
BRANCH  30  31
ATOM     31  O   UNL A   1      43.364  23.134  25.078  1.00  0.00    -0.460 OA
BRANCH  31  32
ATOM     32  C   UNL A   1      43.861  24.383  25.042  1.00  0.00     0.338 C 
ATOM     33  O   UNL A   1      44.842  24.784  24.423  1.00  0.00    -0.246 OA
BRANCH  32  34
ATOM     34  C   UNL A   1      43.013  25.288  25.825  1.00  0.00     0.060 A 
ATOM     35  C   UNL A   1      43.167  26.669  25.654  1.00  0.00     0.016 A 
ATOM     36  C   UNL A   1      42.209  24.775  26.846  1.00  0.00     0.016 A 
ATOM     37  C   UNL A   1      42.571  27.547  26.557  1.00  0.00     0.010 A 
ATOM     38  C   UNL A   1      41.625  25.655  27.756  1.00  0.00     0.010 A 
ATOM     39  C   UNL A   1      41.847  27.039  27.644  1.00  0.00    -0.014 A 
BRANCH  39  40
ATOM     40  C   UNL A   1      41.490  27.920  28.780  1.00  0.00     0.031 A 
ATOM     41  C   UNL A   1      42.327  27.859  30.028  1.00  0.00     0.074 A 
ATOM     42  C   UNL A   1      40.434  28.747  28.708  1.00  0.00     0.049 A 
ATOM     43  N   UNL A   1      42.134  28.429  31.189  1.00  0.00    -0.248 NA
ATOM     44  C   UNL A   1      43.550  27.039  29.956  1.00  0.00     0.031 C 
ATOM     45  C   UNL A   1      39.584  28.930  27.535  1.00  0.00     0.029 A 
ATOM     46  N   UNL A   1      39.891  29.576  29.656  1.00  0.00    -0.354 N 
ATOM     47  C   UNL A   1      43.201  28.032  31.985  1.00  0.00     0.074 A 
ATOM     48  C   UNL A   1      44.030  27.157  31.186  1.00  0.00     0.031 C 
ATOM     49  C   UNL A   1      38.613  29.808  27.837  1.00  0.00     0.029 A 
ATOM     50  C   UNL A   1      38.751  30.213  29.236  1.00  0.00     0.049 A 
ATOM     51  H   UNL A   1      40.282  29.704  30.551  1.00  0.00     0.167 HD
ATOM     52  C   UNL A   1      43.463  28.371  33.269  1.00  0.00     0.037 A 
ATOM     53  C   UNL A   1      37.900  31.004  29.918  1.00  0.00     0.037 A 
ATOM     54  C   UNL A   1      42.633  29.240  34.061  1.00  0.00     0.049 A 
ATOM     55  C   UNL A   1      38.168  31.298  31.371  1.00  0.00     0.074 A 
ATOM     56  C   UNL A   1      42.813  29.646  35.371  1.00  0.00     0.029 A 
ATOM     57  N   UNL A   1      41.465  29.837  33.611  1.00  0.00    -0.354 N 
ATOM     58  N   UNL A   1      39.168  30.911  32.125  1.00  0.00    -0.248 NA
ATOM     59  C   UNL A   1      37.181  32.132  32.073  1.00  0.00     0.031 C 
ATOM     60  C   UNL A   1      41.731  30.457  35.727  1.00  0.00     0.029 A 
ATOM     61  C   UNL A   1      40.902  30.592  34.626  1.00  0.00     0.049 A 
ATOM     62  H   UNL A   1      41.092  29.738  32.705  1.00  0.00     0.167 HD
ATOM     63  C   UNL A   1      38.942  31.465  33.378  1.00  0.00     0.074 A 
ATOM     64  C   UNL A   1      37.716  32.229  33.281  1.00  0.00     0.031 C 
ATOM     65  C   UNL A   1      39.682  31.348  34.508  1.00  0.00     0.037 A 
BRANCH  52  66
ATOM     66  C   UNL A   1      44.688  27.791  33.910  1.00  0.00     0.064 A 
ATOM     67  C   UNL A   1      45.941  28.392  33.722  1.00  0.00     0.173 A 
ATOM     68  C   UNL A   1      44.632  26.605  34.655  1.00  0.00     0.173 A 
ATOM     69  F   UNL A   1      46.048  29.527  33.015  1.00  0.00    -0.203 F 
ATOM     70  C   UNL A   1      47.096  27.817  34.243  1.00  0.00     0.198 A 
ATOM     71  C   UNL A   1      45.786  26.044  35.195  1.00  0.00     0.198 A 
ATOM     72  F   UNL A   1      43.455  26.000  34.874  1.00  0.00    -0.203 F 
ATOM     73  F   UNL A   1      48.287  28.393  34.026  1.00  0.00    -0.200 F 
ATOM     74  C   UNL A   1      47.018  26.645  34.981  1.00  0.00     0.200 A 
ATOM     75  F   UNL A   1      45.707  24.923  35.925  1.00  0.00    -0.200 F 
ATOM     76  F   UNL A   1      48.130  26.096  35.487  1.00  0.00    -0.200 F 
ENDBRANCH  52  66
BRANCH  53  77
ATOM     77  C   UNL A   1      36.704  31.560  29.236  1.00  0.00     0.064 A 
ATOM     78  C   UNL A   1      35.617  30.743  28.888  1.00  0.00     0.173 A 
ATOM     79  C   UNL A   1      36.626  32.921  28.919  1.00  0.00     0.173 A 
ATOM     80  F   UNL A   1      35.638  29.435  29.180  1.00  0.00    -0.203 F 
ATOM     81  C   UNL A   1      34.507  31.267  28.230  1.00  0.00     0.198 A 
ATOM     82  C   UNL A   1      35.504  33.449  28.283  1.00  0.00     0.198 A 
ATOM     83  F   UNL A   1      37.627  33.747  29.260  1.00  0.00    -0.203 F 
ATOM     84  F   UNL A   1      33.492  30.462  27.888  1.00  0.00    -0.200 F 
ATOM     85  C   UNL A   1      34.448  32.620  27.933  1.00  0.00     0.200 A 
ATOM     86  F   UNL A   1      35.437  34.762  28.026  1.00  0.00    -0.200 F 
ATOM     87  F   UNL A   1      33.370  33.127  27.318  1.00  0.00    -0.200 F 
ENDBRANCH  53  77
BRANCH  65  88
ATOM     88  C   UNL A   1      39.202  32.073  35.730  1.00  0.00     0.064 A 
ATOM     89  C   UNL A   1      38.346  31.438  36.644  1.00  0.00     0.173 A 
ATOM     90  C   UNL A   1      39.524  33.418  35.956  1.00  0.00     0.173 A 
ATOM     91  F   UNL A   1      38.000  30.154  36.465  1.00  0.00    -0.203 F 
ATOM     92  C   UNL A   1      37.821  32.127  37.732  1.00  0.00     0.198 A 
ATOM     93  C   UNL A   1      39.018  34.098  37.060  1.00  0.00     0.198 A 
ATOM     94  F   UNL A   1      40.347  34.065  35.117  1.00  0.00    -0.203 F 
ATOM     95  F   UNL A   1      36.980  31.510  38.574  1.00  0.00    -0.200 F 
ATOM     96  C   UNL A   1      38.160  33.456  37.941  1.00  0.00     0.200 A 
ATOM     97  F   UNL A   1      39.363  35.375  37.275  1.00  0.00    -0.200 F 
ATOM     98  F   UNL A   1      37.661  34.117  38.995  1.00  0.00    -0.200 F 
ENDBRANCH  65  88
ENDBRANCH  39  40
ENDBRANCH  32  34
ENDBRANCH  31  32
ENDBRANCH  30  31
ENDBRANCH  29  30
ENDBRANCH  28  29
ENDBRANCH  27  28
ENDBRANCH   1  27
TORSDOF 20
ENDMDL
