MODEL 1
REMARK VINA RESULT:     -10.8      0.000      0.000
REMARK SMILES COc1ccc(C(=O)OCCOCCOCCOC(=O)c2ccc(-c3c4nc(c(-c5c(F)c(F)c(F)c(F)c5F)c5ccc([nH]5)c(-c5c(F)c(F)c(F)c(F)c5F)c5nc(c(-c6c(F)c(F)c(F)c(F)c6F)c6ccc3[nH]6)C=C5)C=C4)cc2)cc1Oc1nc(C(C)(C)C)ns1
REMARK SMILES IDX 13 1 12 2 11 3 10 4 9 5 7 6 8 7 6 8 3 9 4 10 85 11 5 12
REMARK SMILES IDX 84 13 2 14 1 15 86 16 87 17 88 18 95 19 89 20 94 21 90 22
REMARK SMILES IDX 91 23 92 24 93 25 14 26 15 27 16 28 17 29 18 30 19 31 20 32
REMARK SMILES IDX 21 33 22 34 83 35 23 36 82 37 24 38 25 39 26 40 76 41 27 42
REMARK SMILES IDX 81 43 75 44 77 45 28 46 80 47 74 48 73 49 29 51 61 52 41 53
REMARK SMILES IDX 60 54 42 55 45 56 59 57 78 58 43 59 44 60 58 62 79 63 46 64
REMARK SMILES IDX 30 65 31 66 39 67 32 68 33 69 37 70 40 71 34 72 35 73 38 74
REMARK SMILES IDX 36 75 62 76 63 77 71 78 64 79 65 80 69 81 72 82 66 83 67 84
REMARK SMILES IDX 70 85 68 86 47 87 48 88 56 89 49 90 50 91 54 92 57 93 51 94
REMARK SMILES IDX 52 95 55 96 53 97
REMARK H PARENT 77 50 45 61
REMARK Flexibility Score: inf
ROOT
ATOM      1  C   UNL A   1      35.543  31.913  28.218  1.00  0.00     0.188 C 
ENDROOT
BRANCH   1   2
ATOM      2  O   UNL A   1      34.843  30.693  28.086  1.00  0.00    -0.376 OA
BRANCH   2   3
ATOM      3  C   UNL A   1      33.819  30.557  27.114  1.00  0.00     0.202 C 
BRANCH   3   4
ATOM      4  C   UNL A   1      32.992  29.273  26.951  1.00  0.00     0.261 C 
BRANCH   4   5
ATOM      5  O   UNL A   1      33.715  28.114  26.508  1.00  0.00    -0.460 OA
BRANCH   5   6
ATOM      6  C   UNL A   1      32.968  26.987  26.433  1.00  0.00     0.338 C 
ATOM      7  O   UNL A   1      31.875  26.793  26.941  1.00  0.00    -0.246 OA
BRANCH   6   8
ATOM      8  C   UNL A   1      33.538  26.029  25.466  1.00  0.00     0.064 A 
ATOM      9  C   UNL A   1      34.202  24.205  23.485  1.00  0.00     0.161 A 
ATOM     10  C   UNL A   1      33.878  25.518  23.135  1.00  0.00     0.051 A 
ATOM     11  C   UNL A   1      34.310  23.817  24.832  1.00  0.00     0.173 A 
ATOM     12  C   UNL A   1      33.519  26.422  24.123  1.00  0.00     0.020 A 
ATOM     13  C   UNL A   1      33.977  24.749  25.831  1.00  0.00     0.067 A 
BRANCH   9  14
ATOM     14  O   UNL A   1      34.380  23.329  22.448  1.00  0.00    -0.493 OA
ATOM     15  C   UNL A   1      33.124  23.126  21.787  1.00  0.00     0.278 C 
ENDBRANCH   9  14
BRANCH  11  16
ATOM     16  O   UNL A   1      34.661  22.563  25.293  1.00  0.00    -0.426 OA
BRANCH  16  17
ATOM     17  C   UNL A   1      33.856  21.509  25.163  1.00  0.00     0.298 A 
ATOM     18  N   UNL A   1      34.271  20.337  24.727  1.00  0.00    -0.185 NA
ATOM     19  S   UNL A   1      32.166  21.541  25.442  1.00  0.00     0.025 S 
ATOM     20  C   UNL A   1      33.188  19.453  24.745  1.00  0.00     0.151 A 
ATOM     21  N   UNL A   1      31.976  19.921  25.071  1.00  0.00    -0.172 NA
BRANCH  20  22
ATOM     22  C   UNL A   1      33.386  17.996  24.346  1.00  0.00     0.023 C 
ATOM     23  C   UNL A   1      32.849  17.777  22.921  1.00  0.00     0.019 C 
ATOM     24  C   UNL A   1      34.881  17.614  24.370  1.00  0.00     0.019 C 
ATOM     25  C   UNL A   1      32.652  17.032  25.305  1.00  0.00     0.019 C 
ENDBRANCH  20  22
ENDBRANCH  16  17
ENDBRANCH  11  16
ENDBRANCH   6   8
ENDBRANCH   5   6
ENDBRANCH   4   5
ENDBRANCH   3   4
ENDBRANCH   2   3
ENDBRANCH   1   2
BRANCH   1  26
ATOM     26  C   UNL A   1      35.064  32.991  29.211  1.00  0.00     0.188 C 
BRANCH  26  27
ATOM     27  O   UNL A   1      35.050  34.345  28.823  1.00  0.00    -0.376 OA
BRANCH  27  28
ATOM     28  C   UNL A   1      33.837  35.021  28.541  1.00  0.00     0.202 C 
BRANCH  28  29
ATOM     29  C   UNL A   1      32.970  35.772  29.564  1.00  0.00     0.261 C 
BRANCH  29  30
ATOM     30  O   UNL A   1      32.533  35.053  30.716  1.00  0.00    -0.460 OA
BRANCH  30  31
ATOM     31  C   UNL A   1      32.833  35.630  31.900  1.00  0.00     0.338 C 
ATOM     32  O   UNL A   1      32.198  36.498  32.494  1.00  0.00    -0.246 OA
BRANCH  31  33
ATOM     33  C   UNL A   1      33.992  34.949  32.487  1.00  0.00     0.060 A 
ATOM     34  C   UNL A   1      35.239  35.584  32.440  1.00  0.00     0.016 A 
ATOM     35  C   UNL A   1      33.857  33.672  33.032  1.00  0.00     0.016 A 
ATOM     36  C   UNL A   1      36.369  34.929  32.925  1.00  0.00     0.010 A 
ATOM     37  C   UNL A   1      34.993  33.009  33.500  1.00  0.00     0.010 A 
ATOM     38  C   UNL A   1      36.257  33.625  33.423  1.00  0.00    -0.014 A 
BRANCH  38  39
ATOM     39  C   UNL A   1      37.480  32.839  33.709  1.00  0.00     0.031 A 
ATOM     40  C   UNL A   1      38.235  33.119  34.977  1.00  0.00     0.074 A 
ATOM     41  C   UNL A   1      37.907  31.890  32.860  1.00  0.00     0.049 A 
ATOM     42  N   UNL A   1      39.356  32.602  35.410  1.00  0.00    -0.248 NA
ATOM     43  C   UNL A   1      37.643  34.121  35.879  1.00  0.00     0.031 C 
ATOM     44  C   UNL A   1      37.237  31.502  31.622  1.00  0.00     0.029 A 
ATOM     45  N   UNL A   1      39.018  31.088  32.913  1.00  0.00    -0.354 N 
ATOM     46  C   UNL A   1      39.608  33.220  36.627  1.00  0.00     0.074 A 
ATOM     47  C   UNL A   1      38.540  34.172  36.851  1.00  0.00     0.031 C 
ATOM     48  C   UNL A   1      37.961  30.541  31.022  1.00  0.00     0.029 A 
ATOM     49  C   UNL A   1      39.159  30.274  31.816  1.00  0.00     0.049 A 
ATOM     50  H   UNL A   1      39.655  31.094  33.665  1.00  0.00     0.167 HD
ATOM     51  C   UNL A   1      40.634  33.009  37.485  1.00  0.00     0.037 A 
ATOM     52  C   UNL A   1      40.155  29.431  31.486  1.00  0.00     0.037 A 
ATOM     53  C   UNL A   1      41.699  32.067  37.254  1.00  0.00     0.049 A 
ATOM     54  C   UNL A   1      41.331  29.272  32.416  1.00  0.00     0.074 A 
ATOM     55  C   UNL A   1      42.776  31.766  38.070  1.00  0.00     0.029 A 
ATOM     56  N   UNL A   1      41.828  31.285  36.116  1.00  0.00    -0.354 N 
ATOM     57  N   UNL A   1      41.551  29.837  33.579  1.00  0.00    -0.248 NA
ATOM     58  C   UNL A   1      42.396  28.355  31.986  1.00  0.00     0.031 C 
ATOM     59  C   UNL A   1      43.587  30.844  37.398  1.00  0.00     0.029 A 
ATOM     60  C   UNL A   1      42.982  30.524  36.192  1.00  0.00     0.049 A 
ATOM     61  H   UNL A   1      41.192  31.273  35.363  1.00  0.00     0.167 HD
ATOM     62  C   UNL A   1      42.760  29.323  34.033  1.00  0.00     0.074 A 
ATOM     63  C   UNL A   1      43.221  28.391  33.024  1.00  0.00     0.031 C 
ATOM     64  C   UNL A   1      43.426  29.595  35.183  1.00  0.00     0.037 A 
BRANCH  51  65
ATOM     65  C   UNL A   1      40.670  33.839  38.735  1.00  0.00     0.064 A 
ATOM     66  C   UNL A   1      41.426  35.019  38.818  1.00  0.00     0.173 A 
ATOM     67  C   UNL A   1      39.928  33.455  39.862  1.00  0.00     0.173 A 
ATOM     68  F   UNL A   1      42.166  35.422  37.774  1.00  0.00    -0.203 F 
ATOM     69  C   UNL A   1      41.462  35.765  39.994  1.00  0.00     0.198 A 
ATOM     70  C   UNL A   1      39.940  34.221  41.024  1.00  0.00     0.198 A 
ATOM     71  F   UNL A   1      39.185  32.339  39.835  1.00  0.00    -0.203 F 
ATOM     72  F   UNL A   1      42.236  36.856  40.069  1.00  0.00    -0.200 F 
ATOM     73  C   UNL A   1      40.716  35.369  41.094  1.00  0.00     0.200 A 
ATOM     74  F   UNL A   1      39.208  33.844  42.081  1.00  0.00    -0.200 F 
ATOM     75  F   UNL A   1      40.749  36.089  42.222  1.00  0.00    -0.200 F 
ENDBRANCH  51  65
BRANCH  52  76
ATOM     76  C   UNL A   1      40.091  28.673  30.209  1.00  0.00     0.064 A 
ATOM     77  C   UNL A   1      39.450  27.429  30.139  1.00  0.00     0.173 A 
ATOM     78  C   UNL A   1      40.679  29.170  29.036  1.00  0.00     0.173 A 
ATOM     79  F   UNL A   1      38.896  26.899  31.240  1.00  0.00    -0.203 F 
ATOM     80  C   UNL A   1      39.410  26.705  28.950  1.00  0.00     0.198 A 
ATOM     81  C   UNL A   1      40.615  28.458  27.840  1.00  0.00     0.198 A 
ATOM     82  F   UNL A   1      41.310  30.354  29.050  1.00  0.00    -0.203 F 
ATOM     83  F   UNL A   1      38.828  25.498  28.922  1.00  0.00    -0.200 F 
ATOM     84  C   UNL A   1      39.986  27.224  27.800  1.00  0.00     0.200 A 
ATOM     85  F   UNL A   1      41.163  28.968  26.729  1.00  0.00    -0.200 F 
ATOM     86  F   UNL A   1      39.943  26.528  26.655  1.00  0.00    -0.200 F 
ENDBRANCH  52  76
BRANCH  64  87
ATOM     87  C   UNL A   1      44.705  28.846  35.438  1.00  0.00     0.064 A 
ATOM     88  C   UNL A   1      44.718  27.603  36.086  1.00  0.00     0.173 A 
ATOM     89  C   UNL A   1      45.930  29.363  34.985  1.00  0.00     0.173 A 
ATOM     90  F   UNL A   1      43.577  27.070  36.549  1.00  0.00    -0.203 F 
ATOM     91  C   UNL A   1      45.912  26.917  36.295  1.00  0.00     0.198 A 
ATOM     92  C   UNL A   1      47.117  28.660  35.167  1.00  0.00     0.198 A 
ATOM     93  F   UNL A   1      45.973  30.544  34.353  1.00  0.00    -0.203 F 
ATOM     94  F   UNL A   1      45.907  25.753  36.960  1.00  0.00    -0.200 F 
ATOM     95  C   UNL A   1      47.108  27.441  35.828  1.00  0.00     0.200 A 
ATOM     96  F   UNL A   1      48.269  29.161  34.700  1.00  0.00    -0.200 F 
ATOM     97  F   UNL A   1      48.255  26.775  36.022  1.00  0.00    -0.200 F 
ENDBRANCH  64  87
ENDBRANCH  38  39
ENDBRANCH  31  33
ENDBRANCH  30  31
ENDBRANCH  29  30
ENDBRANCH  28  29
ENDBRANCH  27  28
ENDBRANCH  26  27
ENDBRANCH   1  26
TORSDOF 21
ENDMDL
MODEL 2
REMARK VINA RESULT:     -10.7      5.347     10.017
REMARK SMILES COc1ccc(C(=O)OCCOCCOCCOC(=O)c2ccc(-c3c4nc(c(-c5c(F)c(F)c(F)c(F)c5F)c5ccc([nH]5)c(-c5c(F)c(F)c(F)c(F)c5F)c5nc(c(-c6c(F)c(F)c(F)c(F)c6F)c6ccc3[nH]6)C=C5)C=C4)cc2)cc1Oc1nc(C(C)(C)C)ns1
REMARK SMILES IDX 13 1 12 2 11 3 10 4 9 5 7 6 8 7 6 8 3 9 4 10 85 11 5 12
REMARK SMILES IDX 84 13 2 14 1 15 86 16 87 17 88 18 95 19 89 20 94 21 90 22
REMARK SMILES IDX 91 23 92 24 93 25 14 26 15 27 16 28 17 29 18 30 19 31 20 32
REMARK SMILES IDX 21 33 22 34 83 35 23 36 82 37 24 38 25 39 26 40 76 41 27 42
REMARK SMILES IDX 81 43 75 44 77 45 28 46 80 47 74 48 73 49 29 51 61 52 41 53
REMARK SMILES IDX 60 54 42 55 45 56 59 57 78 58 43 59 44 60 58 62 79 63 46 64
REMARK SMILES IDX 30 65 31 66 39 67 32 68 33 69 37 70 40 71 34 72 35 73 38 74
REMARK SMILES IDX 36 75 62 76 63 77 71 78 64 79 65 80 69 81 72 82 66 83 67 84
REMARK SMILES IDX 70 85 68 86 47 87 48 88 56 89 49 90 50 91 54 92 57 93 51 94
REMARK SMILES IDX 52 95 55 96 53 97
REMARK H PARENT 77 50 45 61
REMARK Flexibility Score: inf
ROOT
ATOM      1  C   UNL A   1      32.337  19.384  24.657  1.00  0.00     0.188 C 
ENDROOT
BRANCH   1   2
ATOM      2  O   UNL A   1      31.808  20.624  25.078  1.00  0.00    -0.376 OA
BRANCH   2   3
ATOM      3  C   UNL A   1      32.096  21.809  24.353  1.00  0.00     0.202 C 
BRANCH   3   4
ATOM      4  C   UNL A   1      32.806  21.798  22.991  1.00  0.00     0.261 C 
BRANCH   4   5
ATOM      5  O   UNL A   1      33.188  23.081  22.473  1.00  0.00    -0.460 OA
BRANCH   5   6
ATOM      6  C   UNL A   1      34.341  23.570  22.989  1.00  0.00     0.338 C 
ATOM      7  O   UNL A   1      35.469  23.143  22.802  1.00  0.00    -0.246 OA
BRANCH   6   8
ATOM      8  C   UNL A   1      34.119  24.854  23.681  1.00  0.00     0.064 A 
ATOM      9  C   UNL A   1      33.375  27.058  25.190  1.00  0.00     0.161 A 
ATOM     10  C   UNL A   1      33.980  25.965  25.816  1.00  0.00     0.051 A 
ATOM     11  C   UNL A   1      33.238  27.112  23.792  1.00  0.00     0.173 A 
ATOM     12  C   UNL A   1      34.327  24.852  25.065  1.00  0.00     0.020 A 
ATOM     13  C   UNL A   1      33.623  25.993  23.033  1.00  0.00     0.067 A 
BRANCH   9  14
ATOM     14  O   UNL A   1      32.909  28.046  26.016  1.00  0.00    -0.493 OA
ATOM     15  C   UNL A   1      31.892  27.501  26.868  1.00  0.00     0.278 C 
ENDBRANCH   9  14
BRANCH  11  16
ATOM     16  O   UNL A   1      32.695  28.155  23.066  1.00  0.00    -0.426 OA
BRANCH  16  17
ATOM     17  C   UNL A   1      31.387  28.408  23.062  1.00  0.00     0.298 A 
ATOM     18  N   UNL A   1      30.892  29.630  23.084  1.00  0.00    -0.185 NA
ATOM     19  S   UNL A   1      30.167  27.208  23.126  1.00  0.00     0.025 S 
ATOM     20  C   UNL A   1      29.498  29.540  23.037  1.00  0.00     0.151 A 
ATOM     21  N   UNL A   1      28.926  28.329  23.082  1.00  0.00    -0.172 NA
BRANCH  20  22
ATOM     22  C   UNL A   1      28.652  30.806  22.989  1.00  0.00     0.023 C 
ATOM     23  C   UNL A   1      27.230  30.493  23.486  1.00  0.00     0.019 C 
ATOM     24  C   UNL A   1      29.254  31.907  23.889  1.00  0.00     0.019 C 
ATOM     25  C   UNL A   1      28.561  31.384  21.559  1.00  0.00     0.019 C 
ENDBRANCH  20  22
ENDBRANCH  16  17
ENDBRANCH  11  16
ENDBRANCH   6   8
ENDBRANCH   5   6
ENDBRANCH   4   5
ENDBRANCH   3   4
ENDBRANCH   2   3
ENDBRANCH   1   2
BRANCH   1  26
ATOM     26  C   UNL A   1      33.695  18.887  25.190  1.00  0.00     0.188 C 
BRANCH  26  27
ATOM     27  O   UNL A   1      34.890  19.323  24.583  1.00  0.00    -0.376 OA
BRANCH  27  28
ATOM     28  C   UNL A   1      35.659  20.376  25.137  1.00  0.00     0.202 C 
BRANCH  28  29
ATOM     29  C   UNL A   1      37.150  20.635  24.867  1.00  0.00     0.261 C 
BRANCH  29  30
ATOM     30  O   UNL A   1      37.770  21.716  25.563  1.00  0.00    -0.460 OA
BRANCH  30  31
ATOM     31  C   UNL A   1      38.993  21.445  26.068  1.00  0.00     0.338 C 
ATOM     32  O   UNL A   1      39.622  20.393  25.988  1.00  0.00    -0.246 OA
BRANCH  31  33
ATOM     33  C   UNL A   1      39.568  22.676  26.623  1.00  0.00     0.060 A 
ATOM     34  C   UNL A   1      39.089  23.908  26.162  1.00  0.00     0.016 A 
ATOM     35  C   UNL A   1      40.607  22.612  27.552  1.00  0.00     0.016 A 
ATOM     36  C   UNL A   1      39.666  25.091  26.618  1.00  0.00     0.010 A 
ATOM     37  C   UNL A   1      41.197  23.797  27.993  1.00  0.00     0.010 A 
ATOM     38  C   UNL A   1      40.747  25.039  27.507  1.00  0.00    -0.014 A 
BRANCH  38  39
ATOM     39  C   UNL A   1      41.516  26.270  27.802  1.00  0.00     0.031 A 
ATOM     40  C   UNL A   1      40.845  27.371  28.573  1.00  0.00     0.074 A 
ATOM     41  C   UNL A   1      42.790  26.404  27.398  1.00  0.00     0.049 A 
ATOM     42  N   UNL A   1      41.296  28.556  28.897  1.00  0.00    -0.248 NA
ATOM     43  C   UNL A   1      39.477  27.097  29.040  1.00  0.00     0.031 C 
ATOM     44  C   UNL A   1      43.559  25.391  26.680  1.00  0.00     0.029 A 
ATOM     45  N   UNL A   1      43.656  27.460  27.529  1.00  0.00    -0.354 N 
ATOM     46  C   UNL A   1      40.267  29.170  29.597  1.00  0.00     0.074 A 
ATOM     47  C   UNL A   1      39.157  28.241  29.625  1.00  0.00     0.031 C 
ATOM     48  C   UNL A   1      44.784  25.880  26.420  1.00  0.00     0.029 A 
ATOM     49  C   UNL A   1      44.869  27.251  26.922  1.00  0.00     0.049 A 
ATOM     50  H   UNL A   1      43.430  28.289  28.010  1.00  0.00     0.167 HD
ATOM     51  C   UNL A   1      40.251  30.397  30.171  1.00  0.00     0.037 A 
ATOM     52  C   UNL A   1      45.918  28.083  26.772  1.00  0.00     0.037 A 
ATOM     53  C   UNL A   1      41.354  31.321  30.133  1.00  0.00     0.049 A 
ATOM     54  C   UNL A   1      45.846  29.476  27.346  1.00  0.00     0.074 A 
ATOM     55  C   UNL A   1      41.444  32.581  30.699  1.00  0.00     0.029 A 
ATOM     56  N   UNL A   1      42.556  31.089  29.479  1.00  0.00    -0.354 N 
ATOM     57  N   UNL A   1      44.883  30.042  28.032  1.00  0.00    -0.248 NA
ATOM     58  C   UNL A   1      47.013  30.342  27.127  1.00  0.00     0.031 C 
ATOM     59  C   UNL A   1      42.678  33.134  30.338  1.00  0.00     0.029 A 
ATOM     60  C   UNL A   1      43.382  32.194  29.601  1.00  0.00     0.049 A 
ATOM     61  H   UNL A   1      42.787  30.261  29.000  1.00  0.00     0.167 HD
ATOM     62  C   UNL A   1      45.336  31.316  28.351  1.00  0.00     0.074 A 
ATOM     63  C   UNL A   1      46.668  31.435  27.794  1.00  0.00     0.031 C 
ATOM     64  C   UNL A   1      44.709  32.297  29.046  1.00  0.00     0.037 A 
BRANCH  51  65
ATOM     65  C   UNL A   1      38.984  30.820  30.857  1.00  0.00     0.064 A 
ATOM     66  C   UNL A   1      37.937  31.441  30.160  1.00  0.00     0.173 A 
ATOM     67  C   UNL A   1      38.811  30.589  32.230  1.00  0.00     0.173 A 
ATOM     68  F   UNL A   1      38.058  31.699  28.848  1.00  0.00    -0.203 F 
ATOM     69  C   UNL A   1      36.778  31.845  30.817  1.00  0.00     0.198 A 
ATOM     70  C   UNL A   1      37.638  30.964  32.878  1.00  0.00     0.198 A 
ATOM     71  F   UNL A   1      39.779  29.995  32.944  1.00  0.00    -0.203 F 
ATOM     72  F   UNL A   1      35.815  32.487  30.143  1.00  0.00    -0.200 F 
ATOM     73  C   UNL A   1      36.627  31.601  32.175  1.00  0.00     0.200 A 
ATOM     74  F   UNL A   1      37.488  30.716  34.186  1.00  0.00    -0.200 F 
ATOM     75  F   UNL A   1      35.510  31.987  32.806  1.00  0.00    -0.200 F 
ENDBRANCH  51  65
BRANCH  52  76
ATOM     76  C   UNL A   1      47.126  27.627  26.037  1.00  0.00     0.064 A 
ATOM     77  C   UNL A   1      47.198  27.717  24.640  1.00  0.00     0.173 A 
ATOM     78  C   UNL A   1      48.229  27.083  26.713  1.00  0.00     0.173 A 
ATOM     79  F   UNL A   1      46.158  28.205  23.947  1.00  0.00    -0.203 F 
ATOM     80  C   UNL A   1      48.319  27.267  23.946  1.00  0.00     0.198 A 
ATOM     81  C   UNL A   1      49.361  26.659  26.020  1.00  0.00     0.198 A 
ATOM     82  F   UNL A   1      48.209  26.970  28.049  1.00  0.00    -0.203 F 
ATOM     83  F   UNL A   1      48.343  27.324  22.608  1.00  0.00    -0.200 F 
ATOM     84  C   UNL A   1      49.402  26.746  24.638  1.00  0.00     0.200 A 
ATOM     85  F   UNL A   1      50.410  26.165  26.693  1.00  0.00    -0.200 F 
ATOM     86  F   UNL A   1      50.483  26.317  23.969  1.00  0.00    -0.200 F 
ENDBRANCH  52  76
BRANCH  64  87
ATOM     87  C   UNL A   1      45.467  33.574  29.283  1.00  0.00     0.064 A 
ATOM     88  C   UNL A   1      46.303  33.742  30.397  1.00  0.00     0.173 A 
ATOM     89  C   UNL A   1      45.387  34.626  28.357  1.00  0.00     0.173 A 
ATOM     90  F   UNL A   1      46.404  32.772  31.318  1.00  0.00    -0.203 F 
ATOM     91  C   UNL A   1      47.012  34.926  30.587  1.00  0.00     0.198 A 
ATOM     92  C   UNL A   1      46.123  35.795  28.534  1.00  0.00     0.198 A 
ATOM     93  F   UNL A   1      44.609  34.515  27.272  1.00  0.00    -0.203 F 
ATOM     94  F   UNL A   1      47.767  35.083  31.683  1.00  0.00    -0.200 F 
ATOM     95  C   UNL A   1      46.928  35.947  29.653  1.00  0.00     0.200 A 
ATOM     96  F   UNL A   1      46.052  36.774  27.621  1.00  0.00    -0.200 F 
ATOM     97  F   UNL A   1      47.617  37.082  29.833  1.00  0.00    -0.200 F 
ENDBRANCH  64  87
ENDBRANCH  38  39
ENDBRANCH  31  33
ENDBRANCH  30  31
ENDBRANCH  29  30
ENDBRANCH  28  29
ENDBRANCH  27  28
ENDBRANCH  26  27
ENDBRANCH   1  26
TORSDOF 21
ENDMDL
MODEL 3
REMARK VINA RESULT:     -10.6      6.544     11.006
REMARK SMILES COc1ccc(C(=O)OCCOCCOCCOC(=O)c2ccc(-c3c4nc(c(-c5c(F)c(F)c(F)c(F)c5F)c5ccc([nH]5)c(-c5c(F)c(F)c(F)c(F)c5F)c5nc(c(-c6c(F)c(F)c(F)c(F)c6F)c6ccc3[nH]6)C=C5)C=C4)cc2)cc1Oc1nc(C(C)(C)C)ns1
REMARK SMILES IDX 13 1 12 2 11 3 10 4 9 5 7 6 8 7 6 8 3 9 4 10 85 11 5 12
REMARK SMILES IDX 84 13 2 14 1 15 86 16 87 17 88 18 95 19 89 20 94 21 90 22
REMARK SMILES IDX 91 23 92 24 93 25 14 26 15 27 16 28 17 29 18 30 19 31 20 32
REMARK SMILES IDX 21 33 22 34 83 35 23 36 82 37 24 38 25 39 26 40 76 41 27 42
REMARK SMILES IDX 81 43 75 44 77 45 28 46 80 47 74 48 73 49 29 51 61 52 41 53
REMARK SMILES IDX 60 54 42 55 45 56 59 57 78 58 43 59 44 60 58 62 79 63 46 64
REMARK SMILES IDX 30 65 31 66 39 67 32 68 33 69 37 70 40 71 34 72 35 73 38 74
REMARK SMILES IDX 36 75 62 76 63 77 71 78 64 79 65 80 69 81 72 82 66 83 67 84
REMARK SMILES IDX 70 85 68 86 47 87 48 88 56 89 49 90 50 91 54 92 57 93 51 94
REMARK SMILES IDX 52 95 55 96 53 97
REMARK H PARENT 77 50 45 61
REMARK Flexibility Score: inf
ROOT
ATOM      1  C   UNL A   1      36.084  23.268  25.473  1.00  0.00     0.188 C 
ENDROOT
BRANCH   1   2
ATOM      2  O   UNL A   1      35.402  23.168  26.705  1.00  0.00    -0.376 OA
BRANCH   2   3
ATOM      3  C   UNL A   1      34.732  21.968  27.057  1.00  0.00     0.202 C 
BRANCH   3   4
ATOM      4  C   UNL A   1      33.207  21.810  26.966  1.00  0.00     0.261 C 
BRANCH   4   5
ATOM      5  O   UNL A   1      32.696  21.384  25.694  1.00  0.00    -0.460 OA
BRANCH   5   6
ATOM      6  C   UNL A   1      31.573  22.029  25.300  1.00  0.00     0.338 C 
ATOM      7  O   UNL A   1      30.501  22.064  25.884  1.00  0.00    -0.246 OA
BRANCH   6   8
ATOM      8  C   UNL A   1      31.831  22.894  24.133  1.00  0.00     0.064 A 
ATOM      9  C   UNL A   1      32.726  24.550  22.096  1.00  0.00     0.161 A 
ATOM     10  C   UNL A   1      33.185  23.232  22.167  1.00  0.00     0.051 A 
ATOM     11  C   UNL A   1      31.731  25.022  22.970  1.00  0.00     0.173 A 
ATOM     12  C   UNL A   1      32.758  22.413  23.202  1.00  0.00     0.020 A 
ATOM     13  C   UNL A   1      31.278  24.174  23.996  1.00  0.00     0.067 A 
BRANCH   9  14
ATOM     14  O   UNL A   1      33.318  25.345  21.152  1.00  0.00    -0.493 OA
ATOM     15  C   UNL A   1      32.526  25.319  19.957  1.00  0.00     0.278 C 
ENDBRANCH   9  14
BRANCH  11  16
ATOM     16  O   UNL A   1      31.176  26.287  22.966  1.00  0.00    -0.426 OA
BRANCH  16  17
ATOM     17  C   UNL A   1      31.734  27.307  23.616  1.00  0.00     0.298 A 
ATOM     18  N   UNL A   1      31.555  27.523  24.904  1.00  0.00    -0.185 NA
ATOM     19  S   UNL A   1      32.674  28.532  22.874  1.00  0.00     0.025 S 
ATOM     20  C   UNL A   1      32.303  28.646  25.270  1.00  0.00     0.151 A 
ATOM     21  N   UNL A   1      32.945  29.334  24.317  1.00  0.00    -0.172 NA
BRANCH  20  22
ATOM     22  C   UNL A   1      32.335  29.100  26.724  1.00  0.00     0.023 C 
ATOM     23  C   UNL A   1      33.783  29.053  27.243  1.00  0.00     0.019 C 
ATOM     24  C   UNL A   1      31.812  30.545  26.864  1.00  0.00     0.019 C 
ATOM     25  C   UNL A   1      31.456  28.206  27.626  1.00  0.00     0.019 C 
ENDBRANCH  20  22
ENDBRANCH  16  17
ENDBRANCH  11  16
ENDBRANCH   6   8
ENDBRANCH   5   6
ENDBRANCH   4   5
ENDBRANCH   3   4
ENDBRANCH   2   3
ENDBRANCH   1   2
BRANCH   1  26
ATOM     26  C   UNL A   1      36.171  22.058  24.521  1.00  0.00     0.188 C 
BRANCH  26  27
ATOM     27  O   UNL A   1      37.425  21.487  24.224  1.00  0.00    -0.376 OA
BRANCH  27  28
ATOM     28  C   UNL A   1      38.077  20.620  25.135  1.00  0.00     0.202 C 
BRANCH  28  29
ATOM     29  C   UNL A   1      39.441  20.875  25.797  1.00  0.00     0.261 C 
BRANCH  29  30
ATOM     30  O   UNL A   1      40.038  19.798  26.518  1.00  0.00    -0.460 OA
BRANCH  30  31
ATOM     31  C   UNL A   1      41.346  19.587  26.253  1.00  0.00     0.338 C 
ATOM     32  O   UNL A   1      41.858  18.589  25.753  1.00  0.00    -0.246 OA
BRANCH  31  33
ATOM     33  C   UNL A   1      42.095  20.820  26.515  1.00  0.00     0.060 A 
ATOM     34  C   UNL A   1      42.258  21.239  27.842  1.00  0.00     0.016 A 
ATOM     35  C   UNL A   1      42.587  21.584  25.457  1.00  0.00     0.016 A 
ATOM     36  C   UNL A   1      42.901  22.443  28.115  1.00  0.00     0.010 A 
ATOM     37  C   UNL A   1      43.215  22.800  25.730  1.00  0.00     0.010 A 
ATOM     38  C   UNL A   1      43.350  23.247  27.058  1.00  0.00    -0.014 A 
BRANCH  38  39
ATOM     39  C   UNL A   1      43.810  24.628  27.330  1.00  0.00     0.031 A 
ATOM     40  C   UNL A   1      42.802  25.649  27.775  1.00  0.00     0.074 A 
ATOM     41  C   UNL A   1      45.103  24.968  27.190  1.00  0.00     0.049 A 
ATOM     42  N   UNL A   1      42.959  26.926  28.014  1.00  0.00    -0.248 NA
ATOM     43  C   UNL A   1      41.428  25.161  27.975  1.00  0.00     0.031 C 
ATOM     44  C   UNL A   1      46.177  24.057  26.805  1.00  0.00     0.029 A 
ATOM     45  N   UNL A   1      45.723  26.180  27.349  1.00  0.00    -0.354 N 
ATOM     46  C   UNL A   1      41.706  27.394  28.384  1.00  0.00     0.074 A 
ATOM     47  C   UNL A   1      40.792  26.274  28.309  1.00  0.00     0.031 C 
ATOM     48  C   UNL A   1      47.328  24.748  26.743  1.00  0.00     0.029 A 
ATOM     49  C   UNL A   1      47.063  26.152  27.049  1.00  0.00     0.049 A 
ATOM     50  H   UNL A   1      45.254  26.993  27.647  1.00  0.00     0.167 HD
ATOM     51  C   UNL A   1      41.349  28.646  28.760  1.00  0.00     0.037 A 
ATOM     52  C   UNL A   1      47.962  27.154  27.007  1.00  0.00     0.037 A 
ATOM     53  C   UNL A   1      42.259  29.760  28.824  1.00  0.00     0.049 A 
ATOM     54  C   UNL A   1      47.525  28.557  27.348  1.00  0.00     0.074 A 
ATOM     55  C   UNL A   1      42.001  31.064  29.209  1.00  0.00     0.029 A 
ATOM     56  N   UNL A   1      43.602  29.703  28.480  1.00  0.00    -0.354 N 
ATOM     57  N   UNL A   1      46.346  28.990  27.725  1.00  0.00    -0.248 NA
ATOM     58  C   UNL A   1      48.548  29.609  27.258  1.00  0.00     0.031 C 
ATOM     59  C   UNL A   1      43.174  31.808  29.043  1.00  0.00     0.029 A 
ATOM     60  C   UNL A   1      44.179  30.955  28.615  1.00  0.00     0.049 A 
ATOM     61  H   UNL A   1      44.076  28.891  28.184  1.00  0.00     0.167 HD
ATOM     62  C   UNL A   1      46.492  30.354  27.946  1.00  0.00     0.074 A 
ATOM     63  C   UNL A   1      47.877  30.675  27.673  1.00  0.00     0.031 C 
ATOM     64  C   UNL A   1      45.563  31.258  28.345  1.00  0.00     0.037 A 
BRANCH  51  65
ATOM     65  C   UNL A   1      39.905  28.880  29.093  1.00  0.00     0.064 A 
ATOM     66  C   UNL A   1      39.413  28.730  30.399  1.00  0.00     0.173 A 
ATOM     67  C   UNL A   1      39.002  29.274  28.094  1.00  0.00     0.173 A 
ATOM     68  F   UNL A   1      40.232  28.340  31.389  1.00  0.00    -0.203 F 
ATOM     69  C   UNL A   1      38.065  28.932  30.685  1.00  0.00     0.198 A 
ATOM     70  C   UNL A   1      37.662  29.507  28.390  1.00  0.00     0.198 A 
ATOM     71  F   UNL A   1      39.420  29.437  26.831  1.00  0.00    -0.203 F 
ATOM     72  F   UNL A   1      37.607  28.726  31.927  1.00  0.00    -0.200 F 
ATOM     73  C   UNL A   1      37.192  29.325  29.682  1.00  0.00     0.200 A 
ATOM     74  F   UNL A   1      36.822  29.900  27.423  1.00  0.00    -0.200 F 
ATOM     75  F   UNL A   1      35.896  29.522  29.959  1.00  0.00    -0.200 F 
ENDBRANCH  51  65
BRANCH  52  76
ATOM     76  C   UNL A   1      49.368  26.872  26.618  1.00  0.00     0.064 A 
ATOM     77  C   UNL A   1      50.332  26.548  27.582  1.00  0.00     0.173 A 
ATOM     78  C   UNL A   1      49.780  26.930  25.278  1.00  0.00     0.173 A 
ATOM     79  F   UNL A   1      49.993  26.505  28.879  1.00  0.00    -0.203 F 
ATOM     80  C   UNL A   1      51.657  26.306  27.224  1.00  0.00     0.198 A 
ATOM     81  C   UNL A   1      51.099  26.662  24.918  1.00  0.00     0.198 A 
ATOM     82  F   UNL A   1      48.898  27.241  24.317  1.00  0.00    -0.203 F 
ATOM     83  F   UNL A   1      52.567  26.042  28.171  1.00  0.00    -0.200 F 
ATOM     84  C   UNL A   1      52.037  26.357  25.891  1.00  0.00     0.200 A 
ATOM     85  F   UNL A   1      51.460  26.701  23.627  1.00  0.00    -0.200 F 
ATOM     86  F   UNL A   1      53.311  26.121  25.547  1.00  0.00    -0.200 F 
ENDBRANCH  52  76
BRANCH  64  87
ATOM     87  C   UNL A   1      46.018  32.676  28.551  1.00  0.00     0.064 A 
ATOM     88  C   UNL A   1      45.949  33.633  27.528  1.00  0.00     0.173 A 
ATOM     89  C   UNL A   1      46.489  33.093  29.807  1.00  0.00     0.173 A 
ATOM     90  F   UNL A   1      45.519  33.284  26.306  1.00  0.00    -0.203 F 
ATOM     91  C   UNL A   1      46.358  34.946  27.746  1.00  0.00     0.198 A 
ATOM     92  C   UNL A   1      46.866  34.414  30.031  1.00  0.00     0.198 A 
ATOM     93  F   UNL A   1      46.568  32.221  30.823  1.00  0.00    -0.203 F 
ATOM     94  F   UNL A   1      46.329  35.831  26.740  1.00  0.00    -0.200 F 
ATOM     95  C   UNL A   1      46.808  35.337  28.998  1.00  0.00     0.200 A 
ATOM     96  F   UNL A   1      47.285  34.793  31.246  1.00  0.00    -0.200 F 
ATOM     97  F   UNL A   1      47.192  36.604  29.209  1.00  0.00    -0.200 F 
ENDBRANCH  64  87
ENDBRANCH  38  39
ENDBRANCH  31  33
ENDBRANCH  30  31
ENDBRANCH  29  30
ENDBRANCH  28  29
ENDBRANCH  27  28
ENDBRANCH  26  27
ENDBRANCH   1  26
TORSDOF 21
ENDMDL
