MODEL 1
REMARK VINA RESULT:     -11.1      0.000      0.000
REMARK SMILES [H]/N=C1\C=CC2=NC(C(=O)OCCOCCOCCOC(=O)c3ccc(-c4c5nc(c(-c6c(F)c(F)c(F)c(F)c6F)c6ccc([nH]6)c(-c6c(F)c(F)c(F)c(F)c6F)c6nc(c(-c7c(F)c(F)c(F)c(F)c7F)c7ccc4[nH]7)C=C6)C=C5)cc3)=C[C@@H]2C1
REMARK SMILES IDX 16 1 15 2 14 3 13 4 12 5 11 6 9 7 10 8 8 9 2 10 3 11 1 12
REMARK SMILES IDX 4 13 88 14 5 15 87 16 6 17 86 18 7 19 17 20 18 21 19 22
REMARK SMILES IDX 20 23 21 24 22 25 23 26 24 27 85 28 25 29 84 30 26 31 27 32
REMARK SMILES IDX 28 33 78 34 29 35 83 36 77 37 79 38 30 39 82 40 76 41 75 42
REMARK SMILES IDX 31 44 63 45 43 46 62 47 44 48 47 49 61 50 80 51 45 52 46 53
REMARK SMILES IDX 60 55 81 56 48 57 32 58 33 59 41 60 34 61 35 62 39 63 42 64
REMARK SMILES IDX 36 65 37 66 40 67 38 68 64 69 65 70 73 71 66 72 67 73 71 74
REMARK SMILES IDX 74 75 68 76 69 77 72 78 70 79 49 80 50 81 58 82 51 83 52 84
REMARK SMILES IDX 56 85 59 86 53 87 54 88 57 89 55 90
REMARK H PARENT 79 43 47 54
REMARK Flexibility Score: inf
ROOT
ATOM      1  C   UNL A   1      39.814  22.095  26.490  1.00  0.00     0.188 C 
ENDROOT
BRANCH   1   2
ATOM      2  C   UNL A   1      38.550  21.462  25.871  1.00  0.00     0.188 C 
BRANCH   2   3
ATOM      3  O   UNL A   1      37.953  22.195  24.813  1.00  0.00    -0.376 OA
BRANCH   3   4
ATOM      4  C   UNL A   1      37.230  23.355  25.228  1.00  0.00     0.202 C 
BRANCH   4   5
ATOM      5  C   UNL A   1      35.780  23.457  24.716  1.00  0.00     0.261 C 
BRANCH   5   6
ATOM      6  O   UNL A   1      34.832  23.834  25.731  1.00  0.00    -0.459 OA
BRANCH   6   7
ATOM      7  C   UNL A   1      34.357  22.836  26.511  1.00  0.00     0.356 C 
ATOM      8  O   UNL A   1      34.180  22.898  27.718  1.00  0.00    -0.244 OA
BRANCH   7   9
ATOM      9  C   UNL A   1      33.950  21.668  25.673  1.00  0.00     0.145 C 
ATOM     10  N   UNL A   1      32.006  17.716  21.961  1.00  0.00    -0.305 NA
ATOM     11  C   UNL A   1      32.583  18.252  22.985  1.00  0.00     0.032 C 
ATOM     12  H   UNL A   1      32.387  16.908  21.549  1.00  0.00     0.187 HD
ATOM     13  C   UNL A   1      33.813  17.674  23.592  1.00  0.00     0.025 C 
ATOM     14  C   UNL A   1      31.983  19.503  23.615  1.00  0.00     0.069 C 
ATOM     15  C   UNL A   1      34.540  18.381  24.465  1.00  0.00     0.026 C 
ATOM     16  C   UNL A   1      33.125  20.459  23.890  1.00  0.00     0.069 C 
ATOM     17  C   UNL A   1      34.157  19.772  24.757  1.00  0.00     0.049 C 
ATOM     18  C   UNL A   1      32.973  21.675  24.751  1.00  0.00     0.019 C 
ATOM     19  N   UNL A   1      34.660  20.484  25.715  1.00  0.00    -0.245 NA
ENDBRANCH   7   9
ENDBRANCH   6   7
ENDBRANCH   5   6
ENDBRANCH   4   5
ENDBRANCH   3   4
ENDBRANCH   2   3
ENDBRANCH   1   2
BRANCH   1  20
ATOM     20  O   UNL A   1      40.451  21.579  27.656  1.00  0.00    -0.376 OA
BRANCH  20  21
ATOM     21  C   UNL A   1      41.801  21.139  27.653  1.00  0.00     0.202 C 
BRANCH  21  22
ATOM     22  C   UNL A   1      42.232  20.002  26.735  1.00  0.00     0.261 C 
BRANCH  22  23
ATOM     23  O   UNL A   1      42.619  20.438  25.443  1.00  0.00    -0.460 OA
BRANCH  23  24
ATOM     24  C   UNL A   1      43.945  20.608  25.316  1.00  0.00     0.338 C 
ATOM     25  O   UNL A   1      44.808  19.735  25.248  1.00  0.00    -0.246 OA
BRANCH  24  26
ATOM     26  C   UNL A   1      44.260  22.035  25.333  1.00  0.00     0.060 A 
ATOM     27  C   UNL A   1      45.243  22.441  26.240  1.00  0.00     0.016 A 
ATOM     28  C   UNL A   1      43.417  22.951  24.688  1.00  0.00     0.016 A 
ATOM     29  C   UNL A   1      45.209  23.735  26.698  1.00  0.00     0.010 A 
ATOM     30  C   UNL A   1      43.380  24.246  25.152  1.00  0.00     0.010 A 
ATOM     31  C   UNL A   1      44.203  24.581  26.226  1.00  0.00    -0.014 A 
BRANCH  31  32
ATOM     32  C   UNL A   1      43.961  25.787  26.985  1.00  0.00     0.031 A 
ATOM     33  C   UNL A   1      44.927  26.882  26.780  1.00  0.00     0.074 A 
ATOM     34  C   UNL A   1      42.876  25.901  27.772  1.00  0.00     0.049 A 
ATOM     35  N   UNL A   1      45.651  27.489  27.662  1.00  0.00    -0.248 NA
ATOM     36  C   UNL A   1      45.156  27.316  25.393  1.00  0.00     0.031 C 
ATOM     37  C   UNL A   1      41.703  25.023  27.831  1.00  0.00     0.029 A 
ATOM     38  N   UNL A   1      42.547  26.916  28.614  1.00  0.00    -0.354 N 
ATOM     39  C   UNL A   1      46.311  28.496  26.968  1.00  0.00     0.074 A 
ATOM     40  C   UNL A   1      46.064  28.275  25.566  1.00  0.00     0.031 C 
ATOM     41  C   UNL A   1      40.710  25.661  28.487  1.00  0.00     0.029 A 
ATOM     42  C   UNL A   1      41.214  26.930  28.986  1.00  0.00     0.049 A 
ATOM     43  H   UNL A   1      43.200  27.581  28.932  1.00  0.00     0.167 HD
ATOM     44  C   UNL A   1      46.834  29.578  27.603  1.00  0.00     0.037 A 
ATOM     45  C   UNL A   1      40.564  27.968  29.565  1.00  0.00     0.037 A 
ATOM     46  C   UNL A   1      47.113  29.321  28.988  1.00  0.00     0.049 A 
ATOM     47  C   UNL A   1      41.587  28.880  30.139  1.00  0.00     0.074 A 
ATOM     48  C   UNL A   1      47.886  28.385  29.652  1.00  0.00     0.029 A 
ATOM     49  N   UNL A   1      46.305  29.868  29.952  1.00  0.00    -0.354 N 
ATOM     50  N   UNL A   1      42.320  28.610  31.183  1.00  0.00    -0.248 NA
ATOM     51  C   UNL A   1      42.083  29.956  29.291  1.00  0.00     0.031 C 
ATOM     52  C   UNL A   1      47.157  28.071  30.837  1.00  0.00     0.029 A 
ATOM     53  C   UNL A   1      46.003  28.853  30.827  1.00  0.00     0.049 A 
ATOM     54  H   UNL A   1      46.003  30.804  30.007  1.00  0.00     0.167 HD
ATOM     55  C   UNL A   1      43.552  29.184  30.910  1.00  0.00     0.074 A 
ATOM     56  C   UNL A   1      43.317  30.080  29.784  1.00  0.00     0.031 C 
ATOM     57  C   UNL A   1      44.706  28.676  31.432  1.00  0.00     0.037 A 
BRANCH  44  58
ATOM     58  C   UNL A   1      46.790  30.951  26.999  1.00  0.00     0.064 A 
ATOM     59  C   UNL A   1      47.943  31.752  26.981  1.00  0.00     0.173 A 
ATOM     60  C   UNL A   1      45.580  31.605  26.670  1.00  0.00     0.173 A 
ATOM     61  F   UNL A   1      49.132  31.241  27.333  1.00  0.00    -0.203 F 
ATOM     62  C   UNL A   1      47.884  33.114  26.675  1.00  0.00     0.198 A 
ATOM     63  C   UNL A   1      45.532  32.946  26.308  1.00  0.00     0.198 A 
ATOM     64  F   UNL A   1      44.393  30.994  26.790  1.00  0.00    -0.203 F 
ATOM     65  F   UNL A   1      48.990  33.864  26.769  1.00  0.00    -0.200 F 
ATOM     66  C   UNL A   1      46.681  33.708  26.333  1.00  0.00     0.200 A 
ATOM     67  F   UNL A   1      44.353  33.507  26.006  1.00  0.00    -0.200 F 
ATOM     68  F   UNL A   1      46.618  35.021  26.079  1.00  0.00    -0.200 F 
ENDBRANCH  44  58
BRANCH  45  69
ATOM     69  C   UNL A   1      39.154  28.383  29.370  1.00  0.00     0.064 A 
ATOM     70  C   UNL A   1      38.296  28.535  30.471  1.00  0.00     0.173 A 
ATOM     71  C   UNL A   1      38.691  28.894  28.141  1.00  0.00     0.173 A 
ATOM     72  F   UNL A   1      38.678  28.118  31.687  1.00  0.00    -0.203 F 
ATOM     73  C   UNL A   1      37.062  29.182  30.354  1.00  0.00     0.198 A 
ATOM     74  C   UNL A   1      37.453  29.525  28.023  1.00  0.00     0.198 A 
ATOM     75  F   UNL A   1      39.467  28.885  27.048  1.00  0.00    -0.203 F 
ATOM     76  F   UNL A   1      36.302  29.370  31.442  1.00  0.00    -0.200 F 
ATOM     77  C   UNL A   1      36.644  29.682  29.132  1.00  0.00     0.200 A 
ATOM     78  F   UNL A   1      37.077  30.033  26.840  1.00  0.00    -0.200 F 
ATOM     79  F   UNL A   1      35.489  30.353  29.031  1.00  0.00    -0.200 F 
ENDBRANCH  45  69
BRANCH  57  80
ATOM     80  C   UNL A   1      44.592  27.646  32.519  1.00  0.00     0.064 A 
ATOM     81  C   UNL A   1      44.463  27.965  33.883  1.00  0.00     0.173 A 
ATOM     82  C   UNL A   1      44.470  26.296  32.161  1.00  0.00     0.173 A 
ATOM     83  F   UNL A   1      44.451  29.240  34.293  1.00  0.00    -0.203 F 
ATOM     84  C   UNL A   1      44.286  26.972  34.845  1.00  0.00     0.198 A 
ATOM     85  C   UNL A   1      44.254  25.310  33.120  1.00  0.00     0.198 A 
ATOM     86  F   UNL A   1      44.519  25.937  30.867  1.00  0.00    -0.203 F 
ATOM     87  F   UNL A   1      44.187  27.302  36.141  1.00  0.00    -0.200 F 
ATOM     88  C   UNL A   1      44.176  25.646  34.461  1.00  0.00     0.200 A 
ATOM     89  F   UNL A   1      44.095  24.034  32.741  1.00  0.00    -0.200 F 
ATOM     90  F   UNL A   1      43.967  24.695  35.382  1.00  0.00    -0.200 F 
ENDBRANCH  57  80
ENDBRANCH  31  32
ENDBRANCH  24  26
ENDBRANCH  23  24
ENDBRANCH  22  23
ENDBRANCH  21  22
ENDBRANCH  20  21
ENDBRANCH   1  20
TORSDOF 17
ENDMDL
MODEL 2
REMARK VINA RESULT:     -11.0      2.370      3.360
REMARK SMILES [H]/N=C1\C=CC2=NC(C(=O)OCCOCCOCCOC(=O)c3ccc(-c4c5nc(c(-c6c(F)c(F)c(F)c(F)c6F)c6ccc([nH]6)c(-c6c(F)c(F)c(F)c(F)c6F)c6nc(c(-c7c(F)c(F)c(F)c(F)c7F)c7ccc4[nH]7)C=C6)C=C5)cc3)=C[C@@H]2C1
REMARK SMILES IDX 16 1 15 2 14 3 13 4 12 5 11 6 9 7 10 8 8 9 2 10 3 11 1 12
REMARK SMILES IDX 4 13 88 14 5 15 87 16 6 17 86 18 7 19 17 20 18 21 19 22
REMARK SMILES IDX 20 23 21 24 22 25 23 26 24 27 85 28 25 29 84 30 26 31 27 32
REMARK SMILES IDX 28 33 78 34 29 35 83 36 77 37 79 38 30 39 82 40 76 41 75 42
REMARK SMILES IDX 31 44 63 45 43 46 62 47 44 48 47 49 61 50 80 51 45 52 46 53
REMARK SMILES IDX 60 55 81 56 48 57 32 58 33 59 41 60 34 61 35 62 39 63 42 64
REMARK SMILES IDX 36 65 37 66 40 67 38 68 64 69 65 70 73 71 66 72 67 73 71 74
REMARK SMILES IDX 74 75 68 76 69 77 72 78 70 79 49 80 50 81 58 82 51 83 52 84
REMARK SMILES IDX 56 85 59 86 53 87 54 88 57 89 55 90
REMARK H PARENT 79 43 47 54
REMARK Flexibility Score: inf
ROOT
ATOM      1  C   UNL A   1      40.198  21.616  26.512  1.00  0.00     0.188 C 
ENDROOT
BRANCH   1   2
ATOM      2  C   UNL A   1      38.856  21.714  25.756  1.00  0.00     0.188 C 
BRANCH   2   3
ATOM      3  O   UNL A   1      37.998  22.768  26.163  1.00  0.00    -0.376 OA
BRANCH   3   4
ATOM      4  C   UNL A   1      36.681  22.707  25.614  1.00  0.00     0.202 C 
BRANCH   4   5
ATOM      5  C   UNL A   1      35.932  24.051  25.525  1.00  0.00     0.261 C 
BRANCH   5   6
ATOM      6  O   UNL A   1      34.595  23.937  25.005  1.00  0.00    -0.459 OA
BRANCH   6   7
ATOM      7  C   UNL A   1      34.394  24.411  23.755  1.00  0.00     0.356 C 
ATOM      8  O   UNL A   1      34.828  23.914  22.726  1.00  0.00    -0.244 OA
BRANCH   7   9
ATOM      9  C   UNL A   1      33.451  25.569  23.781  1.00  0.00     0.145 C 
ATOM     10  N   UNL A   1      30.430  30.453  24.232  1.00  0.00    -0.305 NA
ATOM     11  C   UNL A   1      30.736  29.225  23.977  1.00  0.00     0.032 C 
ATOM     12  H   UNL A   1      29.804  30.935  23.645  1.00  0.00     0.187 HD
ATOM     13  C   UNL A   1      30.154  28.487  22.822  1.00  0.00     0.025 C 
ATOM     14  C   UNL A   1      31.706  28.487  24.892  1.00  0.00     0.069 C 
ATOM     15  C   UNL A   1      30.680  27.324  22.420  1.00  0.00     0.026 C 
ATOM     16  C   UNL A   1      32.672  27.729  24.007  1.00  0.00     0.069 C 
ATOM     17  C   UNL A   1      31.896  26.821  23.079  1.00  0.00     0.049 C 
ATOM     18  C   UNL A   1      33.596  26.674  24.532  1.00  0.00     0.019 C 
ATOM     19  N   UNL A   1      32.381  25.631  22.911  1.00  0.00    -0.245 NA
ENDBRANCH   7   9
ENDBRANCH   6   7
ENDBRANCH   5   6
ENDBRANCH   4   5
ENDBRANCH   3   4
ENDBRANCH   2   3
ENDBRANCH   1   2
BRANCH   1  20
ATOM     20  O   UNL A   1      40.550  20.505  27.332  1.00  0.00    -0.376 OA
BRANCH  20  21
ATOM     21  C   UNL A   1      41.868  19.980  27.377  1.00  0.00     0.202 C 
BRANCH  21  22
ATOM     22  C   UNL A   1      42.419  19.197  26.191  1.00  0.00     0.261 C 
BRANCH  22  23
ATOM     23  O   UNL A   1      42.859  20.022  25.127  1.00  0.00    -0.460 OA
BRANCH  23  24
ATOM     24  C   UNL A   1      44.181  20.257  25.149  1.00  0.00     0.338 C 
ATOM     25  O   UNL A   1      45.087  19.428  25.219  1.00  0.00    -0.246 OA
BRANCH  24  26
ATOM     26  C   UNL A   1      44.423  21.698  25.146  1.00  0.00     0.060 A 
ATOM     27  C   UNL A   1      45.496  22.147  25.920  1.00  0.00     0.016 A 
ATOM     28  C   UNL A   1      43.456  22.575  24.633  1.00  0.00     0.016 A 
ATOM     29  C   UNL A   1      45.459  23.434  26.399  1.00  0.00     0.010 A 
ATOM     30  C   UNL A   1      43.417  23.862  25.117  1.00  0.00     0.010 A 
ATOM     31  C   UNL A   1      44.358  24.230  26.077  1.00  0.00    -0.014 A 
BRANCH  31  32
ATOM     32  C   UNL A   1      44.159  25.416  26.880  1.00  0.00     0.031 A 
ATOM     33  C   UNL A   1      45.177  26.473  26.732  1.00  0.00     0.074 A 
ATOM     34  C   UNL A   1      43.067  25.549  27.655  1.00  0.00     0.049 A 
ATOM     35  N   UNL A   1      45.914  27.010  27.647  1.00  0.00    -0.248 NA
ATOM     36  C   UNL A   1      45.448  26.948  25.367  1.00  0.00     0.031 C 
ATOM     37  C   UNL A   1      41.854  24.724  27.662  1.00  0.00     0.029 A 
ATOM     38  N   UNL A   1      42.771  26.545  28.532  1.00  0.00    -0.354 N 
ATOM     39  C   UNL A   1      46.629  28.012  27.004  1.00  0.00     0.074 A 
ATOM     40  C   UNL A   1      46.395  27.857  25.590  1.00  0.00     0.031 C 
ATOM     41  C   UNL A   1      40.881  25.382  28.329  1.00  0.00     0.029 A 
ATOM     42  C   UNL A   1      41.434  26.605  28.885  1.00  0.00     0.049 A 
ATOM     43  H   UNL A   1      43.448  27.166  28.885  1.00  0.00     0.167 HD
ATOM     44  C   UNL A   1      47.191  29.043  27.688  1.00  0.00     0.037 A 
ATOM     45  C   UNL A   1      40.823  27.649  29.495  1.00  0.00     0.037 A 
ATOM     46  C   UNL A   1      47.436  28.720  29.065  1.00  0.00     0.049 A 
ATOM     47  C   UNL A   1      41.877  28.490  30.119  1.00  0.00     0.074 A 
ATOM     48  C   UNL A   1      48.154  27.725  29.703  1.00  0.00     0.029 A 
ATOM     49  N   UNL A   1      46.638  29.266  30.039  1.00  0.00    -0.354 N 
ATOM     50  N   UNL A   1      42.581  28.146  31.162  1.00  0.00    -0.248 NA
ATOM     51  C   UNL A   1      42.435  29.575  29.322  1.00  0.00     0.031 C 
ATOM     52  C   UNL A   1      47.393  27.398  30.864  1.00  0.00     0.029 A 
ATOM     53  C   UNL A   1      46.276  28.232  30.868  1.00  0.00     0.049 A 
ATOM     54  H   UNL A   1      46.378  30.212  30.127  1.00  0.00     0.167 HD
ATOM     55  C   UNL A   1      43.842  28.673  30.929  1.00  0.00     0.074 A 
ATOM     56  C   UNL A   1      43.665  29.622  29.837  1.00  0.00     0.031 C 
ATOM     57  C   UNL A   1      44.963  28.092  31.448  1.00  0.00     0.037 A 
BRANCH  44  58
ATOM     58  C   UNL A   1      47.219  30.439  27.139  1.00  0.00     0.064 A 
ATOM     59  C   UNL A   1      48.416  31.174  27.139  1.00  0.00     0.173 A 
ATOM     60  C   UNL A   1      46.045  31.172  26.848  1.00  0.00     0.173 A 
ATOM     61  F   UNL A   1      49.577  30.584  27.458  1.00  0.00    -0.203 F 
ATOM     62  C   UNL A   1      48.430  32.548  26.887  1.00  0.00     0.198 A 
ATOM     63  C   UNL A   1      46.070  32.527  26.539  1.00  0.00     0.198 A 
ATOM     64  F   UNL A   1      44.826  30.625  26.957  1.00  0.00    -0.203 F 
ATOM     65  F   UNL A   1      49.577  33.231  26.997  1.00  0.00    -0.200 F 
ATOM     66  C   UNL A   1      47.260  33.223  26.581  1.00  0.00     0.200 A 
ATOM     67  F   UNL A   1      44.922  33.165  26.271  1.00  0.00    -0.200 F 
ATOM     68  F   UNL A   1      47.269  34.546  26.379  1.00  0.00    -0.200 F 
ENDBRANCH  44  58
BRANCH  45  69
ATOM     69  C   UNL A   1      39.437  28.136  29.297  1.00  0.00     0.064 A 
ATOM     70  C   UNL A   1      38.557  28.247  30.385  1.00  0.00     0.173 A 
ATOM     71  C   UNL A   1      39.029  28.751  28.096  1.00  0.00     0.173 A 
ATOM     72  F   UNL A   1      38.889  27.731  31.577  1.00  0.00    -0.203 F 
ATOM     73  C   UNL A   1      37.354  28.952  30.285  1.00  0.00     0.198 A 
ATOM     74  C   UNL A   1      37.820  29.440  27.993  1.00  0.00     0.198 A 
ATOM     75  F   UNL A   1      39.832  28.785  27.024  1.00  0.00    -0.203 F 
ATOM     76  F   UNL A   1      36.573  29.096  31.365  1.00  0.00    -0.200 F 
ATOM     77  C   UNL A   1      36.989  29.554  29.092  1.00  0.00     0.200 A 
ATOM     78  F   UNL A   1      37.497  30.045  26.841  1.00  0.00    -0.200 F 
ATOM     79  F   UNL A   1      35.866  30.278  29.011  1.00  0.00    -0.200 F 
ENDBRANCH  45  69
BRANCH  57  80
ATOM     80  C   UNL A   1      44.784  27.027  32.492  1.00  0.00     0.064 A 
ATOM     81  C   UNL A   1      44.586  25.668  32.190  1.00  0.00     0.173 A 
ATOM     82  C   UNL A   1      44.953  27.368  33.840  1.00  0.00     0.173 A 
ATOM     83  F   UNL A   1      44.532  25.246  30.919  1.00  0.00    -0.203 F 
ATOM     84  C   UNL A   1      44.499  24.708  33.196  1.00  0.00     0.198 A 
ATOM     85  C   UNL A   1      44.905  26.401  34.842  1.00  0.00     0.198 A 
ATOM     86  F   UNL A   1      45.211  28.640  34.186  1.00  0.00    -0.203 F 
ATOM     87  F   UNL A   1      44.289  23.421  32.882  1.00  0.00    -0.200 F 
ATOM     88  C   UNL A   1      44.664  25.075  34.521  1.00  0.00     0.200 A 
ATOM     89  F   UNL A   1      45.118  26.752  36.118  1.00  0.00    -0.200 F 
ATOM     90  F   UNL A   1      44.618  24.147  35.487  1.00  0.00    -0.200 F 
ENDBRANCH  57  80
ENDBRANCH  31  32
ENDBRANCH  24  26
ENDBRANCH  23  24
ENDBRANCH  22  23
ENDBRANCH  21  22
ENDBRANCH  20  21
ENDBRANCH   1  20
TORSDOF 17
ENDMDL
MODEL 3
REMARK VINA RESULT:     -10.9      3.661      8.623
REMARK SMILES [H]/N=C1\C=CC2=NC(C(=O)OCCOCCOCCOC(=O)c3ccc(-c4c5nc(c(-c6c(F)c(F)c(F)c(F)c6F)c6ccc([nH]6)c(-c6c(F)c(F)c(F)c(F)c6F)c6nc(c(-c7c(F)c(F)c(F)c(F)c7F)c7ccc4[nH]7)C=C6)C=C5)cc3)=C[C@@H]2C1
REMARK SMILES IDX 16 1 15 2 14 3 13 4 12 5 11 6 9 7 10 8 8 9 2 10 3 11 1 12
REMARK SMILES IDX 4 13 88 14 5 15 87 16 6 17 86 18 7 19 17 20 18 21 19 22
REMARK SMILES IDX 20 23 21 24 22 25 23 26 24 27 85 28 25 29 84 30 26 31 27 32
REMARK SMILES IDX 28 33 78 34 29 35 83 36 77 37 79 38 30 39 82 40 76 41 75 42
REMARK SMILES IDX 31 44 63 45 43 46 62 47 44 48 47 49 61 50 80 51 45 52 46 53
REMARK SMILES IDX 60 55 81 56 48 57 32 58 33 59 41 60 34 61 35 62 39 63 42 64
REMARK SMILES IDX 36 65 37 66 40 67 38 68 64 69 65 70 73 71 66 72 67 73 71 74
REMARK SMILES IDX 74 75 68 76 69 77 72 78 70 79 49 80 50 81 58 82 51 83 52 84
REMARK SMILES IDX 56 85 59 86 53 87 54 88 57 89 55 90
REMARK H PARENT 79 43 47 54
REMARK Flexibility Score: inf
ROOT
ATOM      1  C   UNL A   1      32.728  29.296  24.624  1.00  0.00     0.188 C 
ENDROOT
BRANCH   1   2
ATOM      2  C   UNL A   1      32.008  27.980  24.257  1.00  0.00     0.188 C 
BRANCH   2   3
ATOM      3  O   UNL A   1      30.710  27.818  24.804  1.00  0.00    -0.376 OA
BRANCH   3   4
ATOM      4  C   UNL A   1      29.995  26.684  24.312  1.00  0.00     0.202 C 
BRANCH   4   5
ATOM      5  C   UNL A   1      29.821  25.521  25.307  1.00  0.00     0.261 C 
BRANCH   5   6
ATOM      6  O   UNL A   1      30.822  25.487  26.341  1.00  0.00    -0.459 OA
BRANCH   6   7
ATOM      7  C   UNL A   1      31.292  24.265  26.683  1.00  0.00     0.356 C 
ATOM      8  O   UNL A   1      30.729  23.465  27.416  1.00  0.00    -0.244 OA
BRANCH   7   9
ATOM      9  C   UNL A   1      32.549  23.962  25.936  1.00  0.00     0.145 C 
ATOM     10  N   UNL A   1      36.994  23.046  22.389  1.00  0.00    -0.305 NA
ATOM     11  C   UNL A   1      36.274  23.089  23.460  1.00  0.00     0.032 C 
ATOM     12  H   UNL A   1      37.964  23.202  22.442  1.00  0.00     0.187 HD
ATOM     13  C   UNL A   1      36.866  23.350  24.802  1.00  0.00     0.025 C 
ATOM     14  C   UNL A   1      34.773  22.845  23.367  1.00  0.00     0.069 C 
ATOM     15  C   UNL A   1      36.086  23.658  25.844  1.00  0.00     0.026 C 
ATOM     16  C   UNL A   1      34.094  23.893  24.224  1.00  0.00     0.069 C 
ATOM     17  C   UNL A   1      34.639  23.820  25.634  1.00  0.00     0.049 C 
ATOM     18  C   UNL A   1      32.647  23.814  24.605  1.00  0.00     0.019 C 
ATOM     19  N   UNL A   1      33.767  23.925  26.586  1.00  0.00    -0.245 NA
ENDBRANCH   7   9
ENDBRANCH   6   7
ENDBRANCH   5   6
ENDBRANCH   4   5
ENDBRANCH   3   4
ENDBRANCH   2   3
ENDBRANCH   1   2
BRANCH   1  20
ATOM     20  O   UNL A   1      32.182  30.254  25.526  1.00  0.00    -0.376 OA
BRANCH  20  21
ATOM     21  C   UNL A   1      32.471  30.241  26.916  1.00  0.00     0.202 C 
BRANCH  21  22
ATOM     22  C   UNL A   1      33.447  31.255  27.503  1.00  0.00     0.261 C 
BRANCH  22  23
ATOM     23  O   UNL A   1      34.789  30.799  27.521  1.00  0.00    -0.460 OA
BRANCH  23  24
ATOM     24  C   UNL A   1      35.658  31.727  27.953  1.00  0.00     0.338 C 
ATOM     25  O   UNL A   1      35.735  32.903  27.599  1.00  0.00    -0.246 OA
BRANCH  24  26
ATOM     26  C   UNL A   1      36.593  31.121  28.898  1.00  0.00     0.060 A 
ATOM     27  C   UNL A   1      37.698  31.897  29.260  1.00  0.00     0.016 A 
ATOM     28  C   UNL A   1      36.523  29.749  29.178  1.00  0.00     0.016 A 
ATOM     29  C   UNL A   1      38.840  31.253  29.667  1.00  0.00     0.010 A 
ATOM     30  C   UNL A   1      37.669  29.103  29.581  1.00  0.00     0.010 A 
ATOM     31  C   UNL A   1      38.834  29.857  29.710  1.00  0.00    -0.014 A 
BRANCH  31  32
ATOM     32  C   UNL A   1      40.124  29.205  29.771  1.00  0.00     0.031 A 
ATOM     33  C   UNL A   1      40.716  29.073  31.115  1.00  0.00     0.074 A 
ATOM     34  C   UNL A   1      40.695  28.700  28.662  1.00  0.00     0.049 A 
ATOM     35  N   UNL A   1      41.863  29.500  31.531  1.00  0.00    -0.248 NA
ATOM     36  C   UNL A   1      39.889  28.430  32.146  1.00  0.00     0.031 C 
ATOM     37  C   UNL A   1      40.088  28.499  27.342  1.00  0.00     0.029 A 
ATOM     38  N   UNL A   1      41.927  28.144  28.526  1.00  0.00    -0.354 N 
ATOM     39  C   UNL A   1      41.978  29.036  32.836  1.00  0.00     0.074 A 
ATOM     40  C   UNL A   1      40.697  28.488  33.203  1.00  0.00     0.031 C 
ATOM     41  C   UNL A   1      40.874  27.670  26.620  1.00  0.00     0.029 A 
ATOM     42  C   UNL A   1      42.078  27.381  27.381  1.00  0.00     0.049 A 
ATOM     43  H   UNL A   1      42.649  28.274  29.184  1.00  0.00     0.167 HD
ATOM     44  C   UNL A   1      43.182  28.931  33.455  1.00  0.00     0.037 A 
ATOM     45  C   UNL A   1      43.077  26.497  27.144  1.00  0.00     0.037 A 
ATOM     46  C   UNL A   1      44.172  29.801  32.884  1.00  0.00     0.049 A 
ATOM     47  C   UNL A   1      44.192  26.813  28.075  1.00  0.00     0.074 A 
ATOM     48  C   UNL A   1      44.242  31.167  32.678  1.00  0.00     0.029 A 
ATOM     49  N   UNL A   1      45.172  29.270  32.109  1.00  0.00    -0.354 N 
ATOM     50  N   UNL A   1      44.953  27.868  27.990  1.00  0.00    -0.248 NA
ATOM     51  C   UNL A   1      44.205  26.138  29.365  1.00  0.00     0.031 C 
ATOM     52  C   UNL A   1      44.920  31.325  31.434  1.00  0.00     0.029 A 
ATOM     53  C   UNL A   1      45.239  30.047  30.978  1.00  0.00     0.049 A 
ATOM     54  H   UNL A   1      45.732  28.488  32.322  1.00  0.00     0.167 HD
ATOM     55  C   UNL A   1      45.216  28.223  29.304  1.00  0.00     0.074 A 
ATOM     56  C   UNL A   1      44.815  27.069  30.100  1.00  0.00     0.031 C 
ATOM     57  C   UNL A   1      45.469  29.518  29.655  1.00  0.00     0.037 A 
BRANCH  44  58
ATOM     58  C   UNL A   1      43.503  27.795  34.382  1.00  0.00     0.064 A 
ATOM     59  C   UNL A   1      43.487  26.472  33.910  1.00  0.00     0.173 A 
ATOM     60  C   UNL A   1      43.574  27.949  35.786  1.00  0.00     0.173 A 
ATOM     61  F   UNL A   1      43.364  26.218  32.600  1.00  0.00    -0.203 F 
ATOM     62  C   UNL A   1      43.518  25.383  34.785  1.00  0.00     0.198 A 
ATOM     63  C   UNL A   1      43.665  26.864  36.650  1.00  0.00     0.198 A 
ATOM     64  F   UNL A   1      43.451  29.148  36.371  1.00  0.00    -0.203 F 
ATOM     65  F   UNL A   1      43.397  24.140  34.302  1.00  0.00    -0.200 F 
ATOM     66  C   UNL A   1      43.613  25.579  36.153  1.00  0.00     0.200 A 
ATOM     67  F   UNL A   1      43.730  27.077  37.972  1.00  0.00    -0.200 F 
ATOM     68  F   UNL A   1      43.602  24.537  36.993  1.00  0.00    -0.200 F 
ENDBRANCH  44  58
BRANCH  45  69
ATOM     69  C   UNL A   1      43.002  25.214  26.406  1.00  0.00     0.064 A 
ATOM     70  C   UNL A   1      43.866  24.958  25.330  1.00  0.00     0.173 A 
ATOM     71  C   UNL A   1      42.273  24.113  26.899  1.00  0.00     0.173 A 
ATOM     72  F   UNL A   1      44.632  25.939  24.831  1.00  0.00    -0.203 F 
ATOM     73  C   UNL A   1      44.012  23.674  24.797  1.00  0.00     0.198 A 
ATOM     74  C   UNL A   1      42.407  22.835  26.355  1.00  0.00     0.198 A 
ATOM     75  F   UNL A   1      41.490  24.226  27.980  1.00  0.00    -0.203 F 
ATOM     76  F   UNL A   1      44.899  23.454  23.817  1.00  0.00    -0.200 F 
ATOM     77  C   UNL A   1      43.287  22.612  25.314  1.00  0.00     0.200 A 
ATOM     78  F   UNL A   1      41.723  21.812  26.888  1.00  0.00    -0.200 F 
ATOM     79  F   UNL A   1      43.469  21.372  24.843  1.00  0.00    -0.200 F 
ENDBRANCH  45  69
BRANCH  57  80
ATOM     80  C   UNL A   1      45.719  30.509  28.554  1.00  0.00     0.064 A 
ATOM     81  C   UNL A   1      44.693  31.154  27.841  1.00  0.00     0.173 A 
ATOM     82  C   UNL A   1      47.034  30.922  28.303  1.00  0.00     0.173 A 
ATOM     83  F   UNL A   1      43.405  30.899  28.107  1.00  0.00    -0.203 F 
ATOM     84  C   UNL A   1      44.978  32.120  26.878  1.00  0.00     0.198 A 
ATOM     85  C   UNL A   1      47.314  31.916  27.368  1.00  0.00     0.198 A 
ATOM     86  F   UNL A   1      48.051  30.389  29.000  1.00  0.00    -0.203 F 
ATOM     87  F   UNL A   1      43.982  32.705  26.198  1.00  0.00    -0.200 F 
ATOM     88  C   UNL A   1      46.288  32.504  26.648  1.00  0.00     0.200 A 
ATOM     89  F   UNL A   1      48.578  32.322  27.185  1.00  0.00    -0.200 F 
ATOM     90  F   UNL A   1      46.560  33.461  25.749  1.00  0.00    -0.200 F 
ENDBRANCH  57  80
ENDBRANCH  31  32
ENDBRANCH  24  26
ENDBRANCH  23  24
ENDBRANCH  22  23
ENDBRANCH  21  22
ENDBRANCH  20  21
ENDBRANCH   1  20
TORSDOF 17
ENDMDL
