MODEL 1
REMARK VINA RESULT:     -10.1      0.000      0.000
REMARK SMILES [NH3+][C@@H](CCCCC(=O)OCCOCCOCCOC(=O)c1ccc(-c2c3nc(c(-c4c(F)c(F)c(F)c(F)c4F)c4ccc([nH]4)c(-c4c(F)c(F)c(F)c(F)c4F)c4nc(c(-c5c(F)c(F)c(F)c(F)c5F)c5ccc2[nH]5)C=C4)C=C3)cc1)c1ccc(-c2ccccc2)cc1
REMARK SMILES IDX 11 1 10 2 9 3 7 4 8 5 6 6 5 7 4 8 3 9 2 10 1 11 84 15 85 16
REMARK SMILES IDX 95 17 86 18 94 19 87 20 88 21 89 22 93 23 90 24 92 25 91 26
REMARK SMILES IDX 12 27 13 28 14 29 15 30 16 31 17 32 18 33 19 34 20 35 21 36
REMARK SMILES IDX 22 37 83 38 23 39 82 40 24 41 25 42 26 43 76 44 27 45 81 46
REMARK SMILES IDX 75 47 77 48 28 49 80 50 74 51 73 52 29 54 61 55 41 56 60 57
REMARK SMILES IDX 42 58 45 59 59 60 78 61 43 62 44 63 58 65 79 66 46 67 30 68
REMARK SMILES IDX 31 69 39 70 32 71 33 72 37 73 40 74 34 75 35 76 38 77 36 78
REMARK SMILES IDX 62 79 63 80 71 81 64 82 65 83 69 84 72 85 66 86 67 87 70 88
REMARK SMILES IDX 68 89 47 90 48 91 56 92 49 93 50 94 54 95 57 96 51 97 52 98
REMARK SMILES IDX 55 99 53 100
REMARK H PARENT 1 12 1 13 1 14 77 53 45 64
REMARK Flexibility Score: inf
ROOT
ATOM      1  C   UNL A   1      40.628  21.378  26.627  1.00  0.00     0.202 C 
ENDROOT
BRANCH   1   2
ATOM      2  C   UNL A   1      39.277  21.954  26.178  1.00  0.00     0.261 C 
BRANCH   2   3
ATOM      3  O   UNL A   1      38.470  21.004  25.463  1.00  0.00    -0.463 OA
BRANCH   3   4
ATOM      4  C   UNL A   1      37.181  21.365  25.236  1.00  0.00     0.305 C 
ATOM      5  O   UNL A   1      36.239  20.588  25.127  1.00  0.00    -0.252 OA
BRANCH   4   6
ATOM      6  C   UNL A   1      36.974  22.863  25.247  1.00  0.00     0.123 C 
BRANCH   6   7
ATOM      7  C   UNL A   1      35.563  23.387  25.513  1.00  0.00     0.012 C 
BRANCH   7   8
ATOM      8  C   UNL A   1      34.636  23.490  24.297  1.00  0.00     0.007 C 
BRANCH   8   9
ATOM      9  C   UNL A   1      33.456  24.474  24.385  1.00  0.00     0.070 C 
BRANCH   9  10
ATOM     10  C   UNL A   1      32.153  24.125  23.620  1.00  0.00     0.211 C 
BRANCH  10  11
ATOM     11  N   UNL A   1      32.445  23.250  22.479  1.00  0.00    -0.351 N 
ATOM     12  H   UNL A   1      33.130  22.546  22.756  1.00  0.00     0.345 HD
ATOM     13  H   UNL A   1      32.822  23.806  21.711  1.00  0.00     0.345 HD
ATOM     14  H   UNL A   1      31.588  22.789  22.174  1.00  0.00     0.345 HD
ENDBRANCH  10  11
BRANCH  10  15
ATOM     15  C   UNL A   1      31.318  25.340  23.253  1.00  0.00     0.009 A 
ATOM     16  C   UNL A   1      31.715  26.263  22.276  1.00  0.00     0.010 A 
ATOM     17  C   UNL A   1      30.137  25.610  23.963  1.00  0.00     0.010 A 
ATOM     18  C   UNL A   1      31.016  27.461  22.091  1.00  0.00     0.009 A 
ATOM     19  C   UNL A   1      29.437  26.810  23.773  1.00  0.00     0.009 A 
ATOM     20  C   UNL A   1      29.882  27.774  22.857  1.00  0.00    -0.018 A 
BRANCH  20  21
ATOM     21  C   UNL A   1      29.216  29.085  22.718  1.00  0.00    -0.018 A 
ATOM     22  C   UNL A   1      28.110  29.427  23.516  1.00  0.00     0.009 A 
ATOM     23  C   UNL A   1      29.635  30.020  21.753  1.00  0.00     0.009 A 
ATOM     24  C   UNL A   1      27.442  30.643  23.350  1.00  0.00     0.001 A 
ATOM     25  C   UNL A   1      28.971  31.240  21.588  1.00  0.00     0.001 A 
ATOM     26  C   UNL A   1      27.873  31.549  22.385  1.00  0.00     0.000 A 
ENDBRANCH  20  21
ENDBRANCH  10  15
ENDBRANCH   9  10
ENDBRANCH   8   9
ENDBRANCH   7   8
ENDBRANCH   6   7
ENDBRANCH   4   6
ENDBRANCH   3   4
ENDBRANCH   2   3
ENDBRANCH   1   2
BRANCH   1  27
ATOM     27  O   UNL A   1      41.669  21.358  25.651  1.00  0.00    -0.376 OA
BRANCH  27  28
ATOM     28  C   UNL A   1      42.996  21.181  26.131  1.00  0.00     0.188 C 
BRANCH  28  29
ATOM     29  C   UNL A   1      43.473  22.142  27.222  1.00  0.00     0.188 C 
BRANCH  29  30
ATOM     30  O   UNL A   1      44.812  22.608  27.090  1.00  0.00    -0.376 OA
BRANCH  30  31
ATOM     31  C   UNL A   1      45.144  23.172  25.813  1.00  0.00     0.202 C 
BRANCH  31  32
ATOM     32  C   UNL A   1      45.580  24.652  25.812  1.00  0.00     0.261 C 
BRANCH  32  33
ATOM     33  O   UNL A   1      44.731  25.527  25.039  1.00  0.00    -0.460 OA
BRANCH  33  34
ATOM     34  C   UNL A   1      43.400  25.281  25.055  1.00  0.00     0.338 C 
ATOM     35  O   UNL A   1      42.811  24.428  24.411  1.00  0.00    -0.246 OA
BRANCH  34  36
ATOM     36  C   UNL A   1      42.794  26.043  26.182  1.00  0.00     0.060 A 
ATOM     37  C   UNL A   1      43.185  27.378  26.368  1.00  0.00     0.016 A 
ATOM     38  C   UNL A   1      41.802  25.493  27.001  1.00  0.00     0.016 A 
ATOM     39  C   UNL A   1      42.630  28.142  27.399  1.00  0.00     0.010 A 
ATOM     40  C   UNL A   1      41.250  26.256  28.037  1.00  0.00     0.010 A 
ATOM     41  C   UNL A   1      41.688  27.572  28.267  1.00  0.00    -0.014 A 
BRANCH  41  42
ATOM     42  C   UNL A   1      41.325  28.266  29.531  1.00  0.00     0.031 A 
ATOM     43  C   UNL A   1      40.131  29.184  29.520  1.00  0.00     0.074 A 
ATOM     44  C   UNL A   1      42.011  28.085  30.675  1.00  0.00     0.049 A 
ATOM     45  N   UNL A   1      39.642  29.933  30.475  1.00  0.00    -0.248 NA
ATOM     46  C   UNL A   1      39.390  29.268  28.251  1.00  0.00     0.031 C 
ATOM     47  C   UNL A   1      43.160  27.201  30.846  1.00  0.00     0.029 A 
ATOM     48  N   UNL A   1      41.835  28.656  31.915  1.00  0.00    -0.354 N 
ATOM     49  C   UNL A   1      38.540  30.573  29.924  1.00  0.00     0.074 A 
ATOM     50  C   UNL A   1      38.454  30.157  28.541  1.00  0.00     0.031 C 
ATOM     51  C   UNL A   1      43.598  27.298  32.115  1.00  0.00     0.029 A 
ATOM     52  C   UNL A   1      42.778  28.272  32.837  1.00  0.00     0.049 A 
ATOM     53  H   UNL A   1      41.103  29.280  32.121  1.00  0.00     0.167 HD
ATOM     54  C   UNL A   1      37.666  31.422  30.517  1.00  0.00     0.037 A 
ATOM     55  C   UNL A   1      42.970  28.679  34.109  1.00  0.00     0.037 A 
ATOM     56  C   UNL A   1      37.744  31.846  31.888  1.00  0.00     0.049 A 
ATOM     57  C   UNL A   1      42.033  29.691  34.724  1.00  0.00     0.074 A 
ATOM     58  C   UNL A   1      36.896  32.696  32.576  1.00  0.00     0.029 A 
ATOM     59  N   UNL A   1      38.733  31.461  32.779  1.00  0.00    -0.354 N 
ATOM     60  N   UNL A   1      40.977  30.269  34.205  1.00  0.00    -0.248 NA
ATOM     61  C   UNL A   1      42.316  30.104  36.108  1.00  0.00     0.031 C 
ATOM     62  C   UNL A   1      37.401  32.867  33.868  1.00  0.00     0.029 A 
ATOM     63  C   UNL A   1      38.530  32.077  34.004  1.00  0.00     0.049 A 
ATOM     64  H   UNL A   1      39.470  30.841  32.573  1.00  0.00     0.167 HD
ATOM     65  C   UNL A   1      40.455  31.085  35.203  1.00  0.00     0.074 A 
ATOM     66  C   UNL A   1      41.302  30.919  36.364  1.00  0.00     0.031 C 
ATOM     67  C   UNL A   1      39.370  31.897  35.161  1.00  0.00     0.037 A 
BRANCH  54  68
ATOM     68  C   UNL A   1      36.557  31.968  29.667  1.00  0.00     0.064 A 
ATOM     69  C   UNL A   1      35.506  31.155  29.216  1.00  0.00     0.173 A 
ATOM     70  C   UNL A   1      36.530  33.328  29.324  1.00  0.00     0.173 A 
ATOM     71  F   UNL A   1      35.494  29.845  29.503  1.00  0.00    -0.203 F 
ATOM     72  C   UNL A   1      34.484  31.678  28.429  1.00  0.00     0.198 A 
ATOM     73  C   UNL A   1      35.491  33.854  28.563  1.00  0.00     0.198 A 
ATOM     74  F   UNL A   1      37.510  34.148  29.732  1.00  0.00    -0.203 F 
ATOM     75  F   UNL A   1      33.517  30.874  27.966  1.00  0.00    -0.200 F 
ATOM     76  C   UNL A   1      34.474  33.028  28.109  1.00  0.00     0.200 A 
ATOM     77  F   UNL A   1      35.476  35.161  28.265  1.00  0.00    -0.200 F 
ATOM     78  F   UNL A   1      33.485  33.532  27.356  1.00  0.00    -0.200 F 
ENDBRANCH  54  68
BRANCH  55  79
ATOM     79  C   UNL A   1      44.113  28.145  34.898  1.00  0.00     0.064 A 
ATOM     80  C   UNL A   1      44.027  26.910  35.557  1.00  0.00     0.173 A 
ATOM     81  C   UNL A   1      45.297  28.883  35.049  1.00  0.00     0.173 A 
ATOM     82  F   UNL A   1      42.904  26.182  35.471  1.00  0.00    -0.203 F 
ATOM     83  C   UNL A   1      45.073  26.443  36.351  1.00  0.00     0.198 A 
ATOM     84  C   UNL A   1      46.353  28.401  35.819  1.00  0.00     0.198 A 
ATOM     85  F   UNL A   1      45.425  30.075  34.450  1.00  0.00    -0.203 F 
ATOM     86  F   UNL A   1      44.942  25.286  37.014  1.00  0.00    -0.200 F 
ATOM     87  C   UNL A   1      46.237  27.186  36.477  1.00  0.00     0.200 A 
ATOM     88  F   UNL A   1      47.478  29.120  35.934  1.00  0.00    -0.200 F 
ATOM     89  F   UNL A   1      47.241  26.738  37.244  1.00  0.00    -0.200 F 
ENDBRANCH  55  79
BRANCH  67  90
ATOM     90  C   UNL A   1      39.000  32.639  36.415  1.00  0.00     0.064 A 
ATOM     91  C   UNL A   1      38.225  32.048  37.424  1.00  0.00     0.173 A 
ATOM     92  C   UNL A   1      39.474  33.943  36.633  1.00  0.00     0.173 A 
ATOM     93  F   UNL A   1      37.737  30.809  37.262  1.00  0.00    -0.203 F 
ATOM     94  C   UNL A   1      37.918  32.743  38.592  1.00  0.00     0.198 A 
ATOM     95  C   UNL A   1      39.191  34.622  37.814  1.00  0.00     0.198 A 
ATOM     96  F   UNL A   1      40.228  34.551  35.706  1.00  0.00    -0.203 F 
ATOM     97  F   UNL A   1      37.138  32.174  39.523  1.00  0.00    -0.200 F 
ATOM     98  C   UNL A   1      38.408  34.024  38.790  1.00  0.00     0.200 A 
ATOM     99  F   UNL A   1      39.679  35.855  38.010  1.00  0.00    -0.200 F 
ATOM    100  F   UNL A   1      38.120  34.687  39.919  1.00  0.00    -0.200 F 
ENDBRANCH  67  90
ENDBRANCH  41  42
ENDBRANCH  34  36
ENDBRANCH  33  34
ENDBRANCH  32  33
ENDBRANCH  31  32
ENDBRANCH  30  31
ENDBRANCH  29  30
ENDBRANCH  28  29
ENDBRANCH  27  28
ENDBRANCH   1  27
TORSDOF 24
ENDMDL
MODEL 2
REMARK VINA RESULT:      -9.7      5.511      8.870
REMARK SMILES [NH3+][C@@H](CCCCC(=O)OCCOCCOCCOC(=O)c1ccc(-c2c3nc(c(-c4c(F)c(F)c(F)c(F)c4F)c4ccc([nH]4)c(-c4c(F)c(F)c(F)c(F)c4F)c4nc(c(-c5c(F)c(F)c(F)c(F)c5F)c5ccc2[nH]5)C=C4)C=C3)cc1)c1ccc(-c2ccccc2)cc1
REMARK SMILES IDX 11 1 10 2 9 3 7 4 8 5 6 6 5 7 4 8 3 9 2 10 1 11 84 15 85 16
REMARK SMILES IDX 95 17 86 18 94 19 87 20 88 21 89 22 93 23 90 24 92 25 91 26
REMARK SMILES IDX 12 27 13 28 14 29 15 30 16 31 17 32 18 33 19 34 20 35 21 36
REMARK SMILES IDX 22 37 83 38 23 39 82 40 24 41 25 42 26 43 76 44 27 45 81 46
REMARK SMILES IDX 75 47 77 48 28 49 80 50 74 51 73 52 29 54 61 55 41 56 60 57
REMARK SMILES IDX 42 58 45 59 59 60 78 61 43 62 44 63 58 65 79 66 46 67 30 68
REMARK SMILES IDX 31 69 39 70 32 71 33 72 37 73 40 74 34 75 35 76 38 77 36 78
REMARK SMILES IDX 62 79 63 80 71 81 64 82 65 83 69 84 72 85 66 86 67 87 70 88
REMARK SMILES IDX 68 89 47 90 48 91 56 92 49 93 50 94 54 95 57 96 51 97 52 98
REMARK SMILES IDX 55 99 53 100
REMARK H PARENT 1 12 1 13 1 14 77 53 45 64
REMARK Flexibility Score: inf
ROOT
ATOM      1  C   UNL A   1      39.151  22.215  26.165  1.00  0.00     0.202 C 
ENDROOT
BRANCH   1   2
ATOM      2  C   UNL A   1      37.815  22.373  25.422  1.00  0.00     0.261 C 
BRANCH   2   3
ATOM      3  O   UNL A   1      36.744  21.630  26.027  1.00  0.00    -0.463 OA
BRANCH   3   4
ATOM      4  C   UNL A   1      35.523  22.224  26.015  1.00  0.00     0.305 C 
ATOM      5  O   UNL A   1      34.629  22.020  26.828  1.00  0.00    -0.252 OA
BRANCH   4   6
ATOM      6  C   UNL A   1      35.391  23.287  24.946  1.00  0.00     0.123 C 
BRANCH   6   7
ATOM      7  C   UNL A   1      34.766  24.624  25.341  1.00  0.00     0.012 C 
BRANCH   7   8
ATOM      8  C   UNL A   1      33.886  25.301  24.284  1.00  0.00     0.007 C 
BRANCH   8   9
ATOM      9  C   UNL A   1      32.406  25.534  24.636  1.00  0.00     0.070 C 
BRANCH   9  10
ATOM     10  C   UNL A   1      31.334  24.708  23.877  1.00  0.00     0.211 C 
BRANCH  10  11
ATOM     11  N   UNL A   1      29.985  25.148  24.252  1.00  0.00    -0.351 N 
ATOM     12  H   UNL A   1      29.373  24.337  24.334  1.00  0.00     0.345 HD
ATOM     13  H   UNL A   1      29.622  25.778  23.535  1.00  0.00     0.345 HD
ATOM     14  H   UNL A   1      30.024  25.638  25.145  1.00  0.00     0.345 HD
ENDBRANCH  10  11
BRANCH  10  15
ATOM     15  C   UNL A   1      31.534  23.206  23.985  1.00  0.00     0.009 A 
ATOM     16  C   UNL A   1      31.468  22.521  25.205  1.00  0.00     0.010 A 
ATOM     17  C   UNL A   1      31.876  22.468  22.840  1.00  0.00     0.010 A 
ATOM     18  C   UNL A   1      31.833  21.173  25.294  1.00  0.00     0.009 A 
ATOM     19  C   UNL A   1      32.238  21.116  22.932  1.00  0.00     0.009 A 
ATOM     20  C   UNL A   1      32.257  20.451  24.167  1.00  0.00    -0.018 A 
BRANCH  20  21
ATOM     21  C   UNL A   1      32.733  19.060  24.297  1.00  0.00    -0.018 A 
ATOM     22  C   UNL A   1      33.243  18.359  23.190  1.00  0.00     0.009 A 
ATOM     23  C   UNL A   1      32.653  18.370  25.521  1.00  0.00     0.009 A 
ATOM     24  C   UNL A   1      33.644  17.025  23.295  1.00  0.00     0.001 A 
ATOM     25  C   UNL A   1      33.057  17.035  25.630  1.00  0.00     0.001 A 
ATOM     26  C   UNL A   1      33.550  16.363  24.516  1.00  0.00     0.000 A 
ENDBRANCH  20  21
ENDBRANCH  10  15
ENDBRANCH   9  10
ENDBRANCH   8   9
ENDBRANCH   7   8
ENDBRANCH   6   7
ENDBRANCH   4   6
ENDBRANCH   3   4
ENDBRANCH   2   3
ENDBRANCH   1   2
BRANCH   1  27
ATOM     27  O   UNL A   1      39.991  21.141  25.744  1.00  0.00    -0.376 OA
BRANCH  27  28
ATOM     28  C   UNL A   1      40.580  20.348  26.768  1.00  0.00     0.188 C 
BRANCH  28  29
ATOM     29  C   UNL A   1      41.808  19.521  26.383  1.00  0.00     0.188 C 
BRANCH  29  30
ATOM     30  O   UNL A   1      42.629  20.075  25.361  1.00  0.00    -0.376 OA
BRANCH  30  31
ATOM     31  C   UNL A   1      43.691  20.924  25.818  1.00  0.00     0.202 C 
BRANCH  31  32
ATOM     32  C   UNL A   1      43.298  22.366  26.200  1.00  0.00     0.261 C 
BRANCH  32  33
ATOM     33  O   UNL A   1      44.414  23.252  26.432  1.00  0.00    -0.460 OA
BRANCH  33  34
ATOM     34  C   UNL A   1      44.781  24.074  25.421  1.00  0.00     0.338 C 
ATOM     35  O   UNL A   1      44.866  23.778  24.240  1.00  0.00    -0.246 OA
BRANCH  34  36
ATOM     36  C   UNL A   1      44.813  25.471  25.936  1.00  0.00     0.060 A 
ATOM     37  C   UNL A   1      45.394  25.702  27.193  1.00  0.00     0.016 A 
ATOM     38  C   UNL A   1      44.353  26.552  25.178  1.00  0.00     0.016 A 
ATOM     39  C   UNL A   1      45.467  26.998  27.712  1.00  0.00     0.010 A 
ATOM     40  C   UNL A   1      44.421  27.849  25.700  1.00  0.00     0.010 A 
ATOM     41  C   UNL A   1      44.942  28.076  26.986  1.00  0.00    -0.014 A 
BRANCH  41  42
ATOM     42  C   UNL A   1      44.741  29.393  27.648  1.00  0.00     0.031 A 
ATOM     43  C   UNL A   1      45.839  30.417  27.541  1.00  0.00     0.074 A 
ATOM     44  C   UNL A   1      43.613  29.698  28.316  1.00  0.00     0.049 A 
ATOM     45  N   UNL A   1      45.922  31.614  28.065  1.00  0.00    -0.248 NA
ATOM     46  C   UNL A   1      47.006  30.034  26.730  1.00  0.00     0.031 C 
ATOM     47  C   UNL A   1      42.453  28.824  28.469  1.00  0.00     0.029 A 
ATOM     48  N   UNL A   1      43.269  30.840  29.001  1.00  0.00    -0.354 N 
ATOM     49  C   UNL A   1      47.145  32.123  27.648  1.00  0.00     0.074 A 
ATOM     50  C   UNL A   1      47.788  31.094  26.861  1.00  0.00     0.031 C 
ATOM     51  C   UNL A   1      41.529  29.456  29.217  1.00  0.00     0.029 A 
ATOM     52  C   UNL A   1      42.044  30.766  29.618  1.00  0.00     0.049 A 
ATOM     53  H   UNL A   1      43.846  31.635  29.047  1.00  0.00     0.167 HD
ATOM     54  C   UNL A   1      47.682  33.344  27.884  1.00  0.00     0.037 A 
ATOM     55  C   UNL A   1      41.421  31.646  30.429  1.00  0.00     0.037 A 
ATOM     56  C   UNL A   1      47.055  34.373  28.669  1.00  0.00     0.049 A 
ATOM     57  C   UNL A   1      42.076  32.968  30.749  1.00  0.00     0.074 A 
ATOM     58  C   UNL A   1      47.521  35.644  28.953  1.00  0.00     0.029 A 
ATOM     59  N   UNL A   1      45.828  34.246  29.302  1.00  0.00    -0.354 N 
ATOM     60  N   UNL A   1      43.219  33.453  30.327  1.00  0.00    -0.248 NA
ATOM     61  C   UNL A   1      41.349  33.868  31.659  1.00  0.00     0.031 C 
ATOM     62  C   UNL A   1      46.602  36.268  29.802  1.00  0.00     0.029 A 
ATOM     63  C   UNL A   1      45.535  35.408  29.999  1.00  0.00     0.049 A 
ATOM     64  H   UNL A   1      45.251  33.449  29.263  1.00  0.00     0.167 HD
ATOM     65  C   UNL A   1      43.332  34.719  30.892  1.00  0.00     0.074 A 
ATOM     66  C   UNL A   1      42.136  34.935  31.677  1.00  0.00     0.031 C 
ATOM     67  C   UNL A   1      44.336  35.622  30.767  1.00  0.00     0.037 A 
BRANCH  54  68
ATOM     68  C   UNL A   1      49.036  33.622  27.302  1.00  0.00     0.064 A 
ATOM     69  C   UNL A   1      49.186  34.216  26.039  1.00  0.00     0.173 A 
ATOM     70  C   UNL A   1      50.197  33.318  28.028  1.00  0.00     0.173 A 
ATOM     71  F   UNL A   1      48.108  34.510  25.298  1.00  0.00    -0.203 F 
ATOM     72  C   UNL A   1      50.451  34.468  25.514  1.00  0.00     0.198 A 
ATOM     73  C   UNL A   1      51.458  33.600  27.512  1.00  0.00     0.198 A 
ATOM     74  F   UNL A   1      50.107  32.752  29.241  1.00  0.00    -0.203 F 
ATOM     75  F   UNL A   1      50.572  34.989  24.285  1.00  0.00    -0.200 F 
ATOM     76  C   UNL A   1      51.584  34.167  26.253  1.00  0.00     0.200 A 
ATOM     77  F   UNL A   1      52.553  33.320  28.234  1.00  0.00    -0.200 F 
ATOM     78  F   UNL A   1      52.801  34.417  25.748  1.00  0.00    -0.200 F 
ENDBRANCH  54  68
BRANCH  55  79
ATOM     79  C   UNL A   1      40.100  31.306  31.023  1.00  0.00     0.064 A 
ATOM     80  C   UNL A   1      38.903  31.637  30.371  1.00  0.00     0.173 A 
ATOM     81  C   UNL A   1      40.007  30.685  32.278  1.00  0.00     0.173 A 
ATOM     82  F   UNL A   1      38.939  32.261  29.184  1.00  0.00    -0.203 F 
ATOM     83  C   UNL A   1      37.667  31.379  30.960  1.00  0.00     0.198 A 
ATOM     84  C   UNL A   1      38.769  30.401  32.852  1.00  0.00     0.198 A 
ATOM     85  F   UNL A   1      41.121  30.358  32.949  1.00  0.00    -0.203 F 
ATOM     86  F   UNL A   1      36.540  31.757  30.340  1.00  0.00    -0.200 F 
ATOM     87  C   UNL A   1      37.600  30.757  32.197  1.00  0.00     0.200 A 
ATOM     88  F   UNL A   1      38.711  29.795  34.046  1.00  0.00    -0.200 F 
ATOM     89  F   UNL A   1      36.411  30.513  32.764  1.00  0.00    -0.200 F 
ENDBRANCH  55  79
BRANCH  67  90
ATOM     90  C   UNL A   1      44.175  36.948  31.456  1.00  0.00     0.064 A 
ATOM     91  C   UNL A   1      43.759  38.097  30.766  1.00  0.00     0.173 A 
ATOM     92  C   UNL A   1      44.389  37.059  32.840  1.00  0.00     0.173 A 
ATOM     93  F   UNL A   1      43.551  38.049  29.441  1.00  0.00    -0.203 F 
ATOM     94  C   UNL A   1      43.587  39.309  31.429  1.00  0.00     0.198 A 
ATOM     95  C   UNL A   1      44.187  38.265  33.505  1.00  0.00     0.198 A 
ATOM     96  F   UNL A   1      44.778  35.990  33.551  1.00  0.00    -0.203 F 
ATOM     97  F   UNL A   1      43.232  40.404  30.740  1.00  0.00    -0.200 F 
ATOM     98  C   UNL A   1      43.793  39.391  32.798  1.00  0.00     0.200 A 
ATOM     99  F   UNL A   1      44.370  38.337  34.830  1.00  0.00    -0.200 F 
ATOM    100  F   UNL A   1      43.617  40.557  33.436  1.00  0.00    -0.200 F 
ENDBRANCH  67  90
ENDBRANCH  41  42
ENDBRANCH  34  36
ENDBRANCH  33  34
ENDBRANCH  32  33
ENDBRANCH  31  32
ENDBRANCH  30  31
ENDBRANCH  29  30
ENDBRANCH  28  29
ENDBRANCH  27  28
ENDBRANCH   1  27
TORSDOF 24
ENDMDL
MODEL 3
REMARK VINA RESULT:      -9.7      5.422     12.949
REMARK SMILES [NH3+][C@@H](CCCCC(=O)OCCOCCOCCOC(=O)c1ccc(-c2c3nc(c(-c4c(F)c(F)c(F)c(F)c4F)c4ccc([nH]4)c(-c4c(F)c(F)c(F)c(F)c4F)c4nc(c(-c5c(F)c(F)c(F)c(F)c5F)c5ccc2[nH]5)C=C4)C=C3)cc1)c1ccc(-c2ccccc2)cc1
REMARK SMILES IDX 11 1 10 2 9 3 7 4 8 5 6 6 5 7 4 8 3 9 2 10 1 11 84 15 85 16
REMARK SMILES IDX 95 17 86 18 94 19 87 20 88 21 89 22 93 23 90 24 92 25 91 26
REMARK SMILES IDX 12 27 13 28 14 29 15 30 16 31 17 32 18 33 19 34 20 35 21 36
REMARK SMILES IDX 22 37 83 38 23 39 82 40 24 41 25 42 26 43 76 44 27 45 81 46
REMARK SMILES IDX 75 47 77 48 28 49 80 50 74 51 73 52 29 54 61 55 41 56 60 57
REMARK SMILES IDX 42 58 45 59 59 60 78 61 43 62 44 63 58 65 79 66 46 67 30 68
REMARK SMILES IDX 31 69 39 70 32 71 33 72 37 73 40 74 34 75 35 76 38 77 36 78
REMARK SMILES IDX 62 79 63 80 71 81 64 82 65 83 69 84 72 85 66 86 67 87 70 88
REMARK SMILES IDX 68 89 47 90 48 91 56 92 49 93 50 94 54 95 57 96 51 97 52 98
REMARK SMILES IDX 55 99 53 100
REMARK H PARENT 1 12 1 13 1 14 77 53 45 64
REMARK Flexibility Score: inf
ROOT
ATOM      1  C   UNL A   1      45.694  22.122  25.956  1.00  0.00     0.202 C 
ENDROOT
BRANCH   1   2
ATOM      2  C   UNL A   1      44.709  22.937  26.808  1.00  0.00     0.261 C 
BRANCH   2   3
ATOM      3  O   UNL A   1      45.309  23.484  27.993  1.00  0.00    -0.463 OA
BRANCH   3   4
ATOM      4  C   UNL A   1      44.531  23.500  29.105  1.00  0.00     0.305 C 
ATOM      5  O   UNL A   1      43.817  22.577  29.481  1.00  0.00    -0.252 OA
BRANCH   4   6
ATOM      6  C   UNL A   1      44.713  24.749  29.939  1.00  0.00     0.123 C 
BRANCH   6   7
ATOM      7  C   UNL A   1      46.104  25.380  29.985  1.00  0.00     0.012 C 
BRANCH   7   8
ATOM      8  C   UNL A   1      46.530  25.989  31.326  1.00  0.00     0.007 C 
BRANCH   8   9
ATOM      9  C   UNL A   1      47.895  26.698  31.382  1.00  0.00     0.070 C 
BRANCH   9  10
ATOM     10  C   UNL A   1      48.683  26.665  32.718  1.00  0.00     0.211 C 
BRANCH  10  11
ATOM     11  N   UNL A   1      49.578  27.823  32.815  1.00  0.00    -0.351 N 
ATOM     12  H   UNL A   1      49.061  28.624  33.179  1.00  0.00     0.345 HD
ATOM     13  H   UNL A   1      49.947  28.047  31.890  1.00  0.00     0.345 HD
ATOM     14  H   UNL A   1      50.352  27.604  33.444  1.00  0.00     0.345 HD
ENDBRANCH  10  11
BRANCH  10  15
ATOM     15  C   UNL A   1      49.377  25.339  32.983  1.00  0.00     0.009 A 
ATOM     16  C   UNL A   1      49.283  24.669  34.210  1.00  0.00     0.010 A 
ATOM     17  C   UNL A   1      50.212  24.785  32.000  1.00  0.00     0.010 A 
ATOM     18  C   UNL A   1      50.075  23.548  34.480  1.00  0.00     0.009 A 
ATOM     19  C   UNL A   1      51.003  23.660  32.272  1.00  0.00     0.009 A 
ATOM     20  C   UNL A   1      50.975  23.039  33.530  1.00  0.00    -0.018 A 
BRANCH  20  21
ATOM     21  C   UNL A   1      51.874  21.918  33.868  1.00  0.00    -0.018 A 
ATOM     22  C   UNL A   1      52.277  20.989  32.891  1.00  0.00     0.009 A 
ATOM     23  C   UNL A   1      52.325  21.712  35.185  1.00  0.00     0.009 A 
ATOM     24  C   UNL A   1      53.083  19.895  33.216  1.00  0.00     0.001 A 
ATOM     25  C   UNL A   1      53.135  20.620  35.512  1.00  0.00     0.001 A 
ATOM     26  C   UNL A   1      53.511  19.710  34.528  1.00  0.00     0.000 A 
ENDBRANCH  20  21
ENDBRANCH  10  15
ENDBRANCH   9  10
ENDBRANCH   8   9
ENDBRANCH   7   8
ENDBRANCH   6   7
ENDBRANCH   4   6
ENDBRANCH   3   4
ENDBRANCH   2   3
ENDBRANCH   1   2
BRANCH   1  27
ATOM     27  O   UNL A   1      45.174  21.543  24.759  1.00  0.00    -0.376 OA
BRANCH  27  28
ATOM     28  C   UNL A   1      45.465  20.169  24.531  1.00  0.00     0.188 C 
BRANCH  28  29
ATOM     29  C   UNL A   1      44.413  19.154  24.980  1.00  0.00     0.188 C 
BRANCH  29  30
ATOM     30  O   UNL A   1      43.064  19.605  24.937  1.00  0.00    -0.376 OA
BRANCH  30  31
ATOM     31  C   UNL A   1      42.432  19.781  26.213  1.00  0.00     0.202 C 
BRANCH  31  32
ATOM     32  C   UNL A   1      40.898  19.622  26.244  1.00  0.00     0.261 C 
BRANCH  32  33
ATOM     33  O   UNL A   1      40.205  20.633  27.009  1.00  0.00    -0.460 OA
BRANCH  33  34
ATOM     34  C   UNL A   1      39.501  21.563  26.322  1.00  0.00     0.338 C 
ATOM     35  O   UNL A   1      38.559  21.354  25.576  1.00  0.00    -0.246 OA
BRANCH  34  36
ATOM     36  C   UNL A   1      39.887  22.911  26.823  1.00  0.00     0.060 A 
ATOM     37  C   UNL A   1      39.245  24.032  26.274  1.00  0.00     0.016 A 
ATOM     38  C   UNL A   1      40.805  23.081  27.865  1.00  0.00     0.016 A 
ATOM     39  C   UNL A   1      39.557  25.318  26.726  1.00  0.00     0.010 A 
ATOM     40  C   UNL A   1      41.121  24.369  28.313  1.00  0.00     0.010 A 
ATOM     41  C   UNL A   1      40.528  25.498  27.720  1.00  0.00    -0.014 A 
BRANCH  41  42
ATOM     42  C   UNL A   1      41.080  26.853  27.986  1.00  0.00     0.031 A 
ATOM     43  C   UNL A   1      42.496  27.139  27.562  1.00  0.00     0.074 A 
ATOM     44  C   UNL A   1      40.355  27.824  28.571  1.00  0.00     0.049 A 
ATOM     45  N   UNL A   1      43.216  28.220  27.722  1.00  0.00    -0.248 NA
ATOM     46  C   UNL A   1      43.196  26.050  26.861  1.00  0.00     0.031 C 
ATOM     47  C   UNL A   1      38.964  27.705  28.999  1.00  0.00     0.029 A 
ATOM     48  N   UNL A   1      40.706  29.110  28.914  1.00  0.00    -0.354 N 
ATOM     49  C   UNL A   1      44.448  27.942  27.143  1.00  0.00     0.074 A 
ATOM     50  C   UNL A   1      44.392  26.578  26.663  1.00  0.00     0.031 C 
ATOM     51  C   UNL A   1      38.582  28.866  29.562  1.00  0.00     0.029 A 
ATOM     52  C   UNL A   1      39.709  29.800  29.560  1.00  0.00     0.049 A 
ATOM     53  H   UNL A   1      41.587  29.498  28.715  1.00  0.00     0.167 HD
ATOM     54  C   UNL A   1      45.525  28.751  27.008  1.00  0.00     0.037 A 
ATOM     55  C   UNL A   1      39.715  31.034  30.105  1.00  0.00     0.037 A 
ATOM     56  C   UNL A   1      45.594  30.106  27.486  1.00  0.00     0.049 A 
ATOM     57  C   UNL A   1      40.957  31.888  30.018  1.00  0.00     0.074 A 
ATOM     58  C   UNL A   1      46.642  31.003  27.384  1.00  0.00     0.029 A 
ATOM     59  N   UNL A   1      44.574  30.756  28.164  1.00  0.00    -0.354 N 
ATOM     60  N   UNL A   1      42.107  31.628  29.444  1.00  0.00    -0.248 NA
ATOM     61  C   UNL A   1      40.899  33.214  30.655  1.00  0.00     0.031 C 
ATOM     62  C   UNL A   1      46.277  32.179  28.047  1.00  0.00     0.029 A 
ATOM     63  C   UNL A   1      44.980  32.036  28.509  1.00  0.00     0.049 A 
ATOM     64  H   UNL A   1      43.693  30.367  28.368  1.00  0.00     0.167 HD
ATOM     65  C   UNL A   1      42.892  32.762  29.623  1.00  0.00     0.074 A 
ATOM     66  C   UNL A   1      42.085  33.719  30.348  1.00  0.00     0.031 C 
ATOM     67  C   UNL A   1      44.167  32.989  29.219  1.00  0.00     0.037 A 
BRANCH  54  68
ATOM     68  C   UNL A   1      46.736  28.175  26.333  1.00  0.00     0.064 A 
ATOM     69  C   UNL A   1      46.799  28.027  24.939  1.00  0.00     0.173 A 
ATOM     70  C   UNL A   1      47.854  27.794  27.087  1.00  0.00     0.173 A 
ATOM     71  F   UNL A   1      45.749  28.362  24.175  1.00  0.00    -0.203 F 
ATOM     72  C   UNL A   1      47.930  27.493  24.328  1.00  0.00     0.198 A 
ATOM     73  C   UNL A   1      48.995  27.288  26.470  1.00  0.00     0.198 A 
ATOM     74  F   UNL A   1      47.844  27.918  28.422  1.00  0.00    -0.203 F 
ATOM     75  F   UNL A   1      47.951  27.313  23.000  1.00  0.00    -0.200 F 
ATOM     76  C   UNL A   1      49.029  27.130  25.093  1.00  0.00     0.200 A 
ATOM     77  F   UNL A   1      50.060  26.950  27.210  1.00  0.00    -0.200 F 
ATOM     78  F   UNL A   1      50.119  26.621  24.502  1.00  0.00    -0.200 F 
ENDBRANCH  54  68
BRANCH  55  79
ATOM     79  C   UNL A   1      38.508  31.544  30.808  1.00  0.00     0.064 A 
ATOM     80  C   UNL A   1      38.342  31.367  32.190  1.00  0.00     0.173 A 
ATOM     81  C   UNL A   1      37.472  32.176  30.104  1.00  0.00     0.173 A 
ATOM     82  F   UNL A   1      39.289  30.739  32.902  1.00  0.00    -0.203 F 
ATOM     83  C   UNL A   1      37.180  31.785  32.835  1.00  0.00     0.198 A 
ATOM     84  C   UNL A   1      36.323  32.620  30.756  1.00  0.00     0.198 A 
ATOM     85  F   UNL A   1      37.575  32.360  28.780  1.00  0.00    -0.203 F 
ATOM     86  F   UNL A   1      37.024  31.553  34.146  1.00  0.00    -0.200 F 
ATOM     87  C   UNL A   1      36.173  32.415  32.120  1.00  0.00     0.200 A 
ATOM     88  F   UNL A   1      35.356  33.233  30.061  1.00  0.00    -0.200 F 
ATOM     89  F   UNL A   1      35.054  32.813  32.740  1.00  0.00    -0.200 F 
ENDBRANCH  55  79
BRANCH  67  90
ATOM     90  C   UNL A   1      44.763  34.339  29.508  1.00  0.00     0.064 A 
ATOM     91  C   UNL A   1      44.518  35.448  28.685  1.00  0.00     0.173 A 
ATOM     92  C   UNL A   1      45.549  34.536  30.655  1.00  0.00     0.173 A 
ATOM     93  F   UNL A   1      43.783  35.313  27.570  1.00  0.00    -0.203 F 
ATOM     94  C   UNL A   1      45.056  36.697  28.987  1.00  0.00     0.198 A 
ATOM     95  C   UNL A   1      46.059  35.792  30.969  1.00  0.00     0.198 A 
ATOM     96  F   UNL A   1      45.806  33.512  31.482  1.00  0.00    -0.203 F 
ATOM     97  F   UNL A   1      44.845  37.733  28.161  1.00  0.00    -0.200 F 
ATOM     98  C   UNL A   1      45.818  36.870  30.131  1.00  0.00     0.200 A 
ATOM     99  F   UNL A   1      46.782  35.960  32.085  1.00  0.00    -0.200 F 
ATOM    100  F   UNL A   1      46.327  38.075  30.425  1.00  0.00    -0.200 F 
ENDBRANCH  67  90
ENDBRANCH  41  42
ENDBRANCH  34  36
ENDBRANCH  33  34
ENDBRANCH  32  33
ENDBRANCH  31  32
ENDBRANCH  30  31
ENDBRANCH  29  30
ENDBRANCH  28  29
ENDBRANCH  27  28
ENDBRANCH   1  27
TORSDOF 24
ENDMDL
