MODEL 1
REMARK VINA RESULT:     -10.6      0.000      0.000
REMARK SMILES CC(C)[NH2+][C@]1(C(=O)OCCOCCOCCOC(=O)c2ccc(-c3c4nc(c(-c5c(F)c(F)c(F)c(F)c5F)c5ccc([nH]5)c(-c5c(F)c(F)c(F)c(F)c5F)c5nc(c(-c6c(F)c(F)c(F)c(F)c6F)c6ccc3[nH]6)C=C5)C=C4)cc2)CC[C@H]([N@H+](C)C2CCCC2)C1
REMARK SMILES IDX 12 1 11 2 10 3 9 4 8 5 6 6 7 7 5 8 83 9 93 10 84 11 85 12
REMARK SMILES IDX 4 13 2 16 1 17 3 18 86 19 87 20 88 22 89 23 92 24 90 25
REMARK SMILES IDX 91 26 13 27 14 28 15 29 16 30 17 31 18 32 19 33 20 34 21 35
REMARK SMILES IDX 82 36 22 37 81 38 23 39 24 40 25 41 75 42 26 43 80 44 74 45
REMARK SMILES IDX 76 46 27 47 79 48 73 49 72 50 28 52 60 53 40 54 59 55 41 56
REMARK SMILES IDX 44 57 58 58 77 59 42 60 43 61 57 63 78 64 45 65 29 66 30 67
REMARK SMILES IDX 38 68 31 69 32 70 36 71 39 72 33 73 34 74 37 75 35 76 61 77
REMARK SMILES IDX 62 78 70 79 63 80 64 81 68 82 71 83 65 84 66 85 69 86 67 87
REMARK SMILES IDX 46 88 47 89 55 90 48 91 49 92 53 93 56 94 50 95 51 96 54 97
REMARK SMILES IDX 52 98
REMARK H PARENT 4 14 4 15 86 21 76 51 44 62
REMARK Flexibility Score: inf
ROOT
ATOM      1  C   UNL A   1      40.198  21.129  26.206  1.00  0.00     0.188 C 
ENDROOT
BRANCH   1   2
ATOM      2  O   UNL A   1      38.822  21.352  26.445  1.00  0.00    -0.376 OA
BRANCH   2   3
ATOM      3  C   UNL A   1      37.963  21.763  25.399  1.00  0.00     0.202 C 
BRANCH   3   4
ATOM      4  C   UNL A   1      36.519  21.266  25.313  1.00  0.00     0.261 C 
BRANCH   4   5
ATOM      5  O   UNL A   1      35.517  22.279  25.127  1.00  0.00    -0.459 OA
BRANCH   5   6
ATOM      6  C   UNL A   1      34.617  22.351  26.137  1.00  0.00     0.368 C 
ATOM      7  O   UNL A   1      34.916  22.234  27.327  1.00  0.00    -0.245 OA
BRANCH   6   8
ATOM      8  C   UNL A   1      33.156  22.664  25.704  1.00  0.00     0.200 C 
ATOM      9  C   UNL A   1      31.993  22.219  26.594  1.00  0.00     0.087 C 
ATOM     10  C   UNL A   1      33.128  24.169  26.100  1.00  0.00     0.146 C 
ATOM     11  C   UNL A   1      30.910  23.315  26.386  1.00  0.00     0.072 C 
ATOM     12  C   UNL A   1      31.691  24.635  26.106  1.00  0.00     0.191 C 
BRANCH   8  13
ATOM     13  N   UNL A   1      33.043  22.208  24.276  1.00  0.00    -0.330 N 
ATOM     14  H   UNL A   1      32.690  23.013  23.759  1.00  0.00     0.347 HD
ATOM     15  H   UNL A   1      33.984  21.848  24.116  1.00  0.00     0.347 HD
BRANCH  13  16
ATOM     16  C   UNL A   1      32.233  21.066  23.834  1.00  0.00     0.176 C 
ATOM     17  C   UNL A   1      31.808  21.227  22.359  1.00  0.00     0.075 C 
ATOM     18  C   UNL A   1      32.899  19.691  23.959  1.00  0.00     0.075 C 
ENDBRANCH  13  16
ENDBRANCH   8  13
BRANCH  12  19
ATOM     19  N   UNL A   1      31.303  25.614  25.065  1.00  0.00    -0.332 N 
ATOM     20  C   UNL A   1      31.187  24.950  23.765  1.00  0.00     0.333 C 
ATOM     21  H   UNL A   1      30.398  25.932  25.409  1.00  0.00     0.348 HD
BRANCH  19  22
ATOM     22  C   UNL A   1      31.961  26.933  24.985  1.00  0.00     0.184 C 
ATOM     23  C   UNL A   1      33.046  27.092  23.902  1.00  0.00     0.065 C 
ATOM     24  C   UNL A   1      31.103  28.171  24.640  1.00  0.00     0.065 C 
ATOM     25  C   UNL A   1      33.390  28.580  23.968  1.00  0.00     0.006 C 
ATOM     26  C   UNL A   1      32.071  29.280  24.241  1.00  0.00     0.006 C 
ENDBRANCH  19  22
ENDBRANCH  12  19
ENDBRANCH   6   8
ENDBRANCH   5   6
ENDBRANCH   4   5
ENDBRANCH   3   4
ENDBRANCH   2   3
ENDBRANCH   1   2
BRANCH   1  27
ATOM     27  C   UNL A   1      40.785  19.703  26.149  1.00  0.00     0.188 C 
BRANCH  27  28
ATOM     28  O   UNL A   1      41.922  19.411  25.371  1.00  0.00    -0.376 OA
BRANCH  28  29
ATOM     29  C   UNL A   1      43.202  19.829  25.796  1.00  0.00     0.202 C 
BRANCH  29  30
ATOM     30  C   UNL A   1      43.843  21.141  25.323  1.00  0.00     0.261 C 
BRANCH  30  31
ATOM     31  O   UNL A   1      43.600  22.303  26.129  1.00  0.00    -0.460 OA
BRANCH  31  32
ATOM     32  C   UNL A   1      43.565  23.480  25.451  1.00  0.00     0.338 C 
ATOM     33  O   UNL A   1      43.907  23.680  24.300  1.00  0.00    -0.246 OA
BRANCH  32  34
ATOM     34  C   UNL A   1      42.877  24.512  26.255  1.00  0.00     0.060 A 
ATOM     35  C   UNL A   1      43.436  25.793  26.307  1.00  0.00     0.016 A 
ATOM     36  C   UNL A   1      41.762  24.203  27.030  1.00  0.00     0.016 A 
ATOM     37  C   UNL A   1      42.903  26.764  27.154  1.00  0.00     0.010 A 
ATOM     38  C   UNL A   1      41.239  25.174  27.895  1.00  0.00     0.010 A 
ATOM     39  C   UNL A   1      41.825  26.451  27.985  1.00  0.00    -0.014 A 
BRANCH  39  40
ATOM     40  C   UNL A   1      41.446  27.393  29.068  1.00  0.00     0.031 A 
ATOM     41  C   UNL A   1      42.244  27.382  30.343  1.00  0.00     0.074 A 
ATOM     42  C   UNL A   1      40.452  28.286  28.912  1.00  0.00     0.049 A 
ATOM     43  N   UNL A   1      42.040  28.029  31.462  1.00  0.00    -0.248 NA
ATOM     44  C   UNL A   1      43.443  26.529  30.351  1.00  0.00     0.031 C 
ATOM     45  C   UNL A   1      39.667  28.476  27.695  1.00  0.00     0.029 A 
ATOM     46  N   UNL A   1      39.927  29.196  29.797  1.00  0.00    -0.354 N 
ATOM     47  C   UNL A   1      43.065  27.642  32.314  1.00  0.00     0.074 A 
ATOM     48  C   UNL A   1      43.886  26.697  31.588  1.00  0.00     0.031 C 
ATOM     49  C   UNL A   1      38.743  29.426  27.918  1.00  0.00     0.029 A 
ATOM     50  C   UNL A   1      38.839  29.875  29.306  1.00  0.00     0.049 A 
ATOM     51  H   UNL A   1      40.296  29.348  30.698  1.00  0.00     0.167 HD
ATOM     52  C   UNL A   1      43.300  28.039  33.588  1.00  0.00     0.037 A 
ATOM     53  C   UNL A   1      37.993  30.726  29.921  1.00  0.00     0.037 A 
ATOM     54  C   UNL A   1      42.488  28.985  34.306  1.00  0.00     0.049 A 
ATOM     55  C   UNL A   1      38.213  31.073  31.373  1.00  0.00     0.074 A 
ATOM     56  C   UNL A   1      42.644  29.446  35.602  1.00  0.00     0.029 A 
ATOM     57  N   UNL A   1      41.363  29.611  33.792  1.00  0.00    -0.354 N 
ATOM     58  N   UNL A   1      39.169  30.688  32.184  1.00  0.00    -0.248 NA
ATOM     59  C   UNL A   1      37.233  31.975  31.997  1.00  0.00     0.031 C 
ATOM     60  C   UNL A   1      41.578  30.304  35.892  1.00  0.00     0.029 A 
ATOM     61  C   UNL A   1      40.798  30.433  34.755  1.00  0.00     0.049 A 
ATOM     62  H   UNL A   1      41.017  29.490  32.878  1.00  0.00     0.167 HD
ATOM     63  C   UNL A   1      38.925  31.321  33.397  1.00  0.00     0.074 A 
ATOM     64  C   UNL A   1      37.738  32.128  33.213  1.00  0.00     0.031 C 
ATOM     65  C   UNL A   1      39.622  31.242  34.558  1.00  0.00     0.037 A 
BRANCH  52  66
ATOM     66  C   UNL A   1      44.459  27.410  34.306  1.00  0.00     0.064 A 
ATOM     67  C   UNL A   1      44.316  26.241  35.070  1.00  0.00     0.173 A 
ATOM     68  C   UNL A   1      45.740  27.971  34.200  1.00  0.00     0.173 A 
ATOM     69  F   UNL A   1      43.110  25.674  35.217  1.00  0.00    -0.203 F 
ATOM     70  C   UNL A   1      45.409  25.675  35.721  1.00  0.00     0.198 A 
ATOM     71  C   UNL A   1      46.837  27.384  34.826  1.00  0.00     0.198 A 
ATOM     72  F   UNL A   1      45.933  29.086  33.479  1.00  0.00    -0.203 F 
ATOM     73  F   UNL A   1      45.241  24.588  36.487  1.00  0.00    -0.200 F 
ATOM     74  C   UNL A   1      46.669  26.241  35.592  1.00  0.00     0.200 A 
ATOM     75  F   UNL A   1      48.054  27.925  34.687  1.00  0.00    -0.200 F 
ATOM     76  F   UNL A   1      47.721  25.689  36.213  1.00  0.00    -0.200 F 
ENDBRANCH  52  66
BRANCH  53  77
ATOM     77  C   UNL A   1      36.825  31.281  29.183  1.00  0.00     0.064 A 
ATOM     78  C   UNL A   1      36.766  32.635  28.827  1.00  0.00     0.173 A 
ATOM     79  C   UNL A   1      35.725  30.473  28.855  1.00  0.00     0.173 A 
ATOM     80  F   UNL A   1      37.777  33.457  29.149  1.00  0.00    -0.203 F 
ATOM     81  C   UNL A   1      35.645  33.164  28.190  1.00  0.00     0.198 A 
ATOM     82  C   UNL A   1      34.619  30.996  28.188  1.00  0.00     0.198 A 
ATOM     83  F   UNL A   1      35.725  29.173  29.182  1.00  0.00    -0.203 F 
ATOM     84  F   UNL A   1      35.590  34.474  27.914  1.00  0.00    -0.200 F 
ATOM     85  C   UNL A   1      34.576  32.343  27.865  1.00  0.00     0.200 A 
ATOM     86  F   UNL A   1      33.593  30.197  27.868  1.00  0.00    -0.200 F 
ATOM     87  F   UNL A   1      33.499  32.853  27.252  1.00  0.00    -0.200 F 
ENDBRANCH  53  77
BRANCH  65  88
ATOM     88  C   UNL A   1      39.154  32.087  35.711  1.00  0.00     0.064 A 
ATOM     89  C   UNL A   1      38.289  31.587  36.695  1.00  0.00     0.173 A 
ATOM     90  C   UNL A   1      39.619  33.405  35.857  1.00  0.00     0.173 A 
ATOM     91  F   UNL A   1      37.805  30.340  36.598  1.00  0.00    -0.203 F 
ATOM     92  C   UNL A   1      37.883  32.383  37.764  1.00  0.00     0.198 A 
ATOM     93  C   UNL A   1      39.240  34.185  36.946  1.00  0.00     0.198 A 
ATOM     94  F   UNL A   1      40.457  33.930  34.951  1.00  0.00    -0.203 F 
ATOM     95  F   UNL A   1      37.015  31.900  38.665  1.00  0.00    -0.200 F 
ATOM     96  C   UNL A   1      38.365  33.677  37.894  1.00  0.00     0.200 A 
ATOM     97  F   UNL A   1      39.722  35.429  37.078  1.00  0.00    -0.200 F 
ATOM     98  F   UNL A   1      37.982  34.436  38.929  1.00  0.00    -0.200 F 
ENDBRANCH  65  88
ENDBRANCH  39  40
ENDBRANCH  32  34
ENDBRANCH  31  32
ENDBRANCH  30  31
ENDBRANCH  29  30
ENDBRANCH  28  29
ENDBRANCH  27  28
ENDBRANCH   1  27
TORSDOF 21
ENDMDL
MODEL 2
REMARK VINA RESULT:     -10.3      3.754      9.345
REMARK SMILES CC(C)[NH2+][C@]1(C(=O)OCCOCCOCCOC(=O)c2ccc(-c3c4nc(c(-c5c(F)c(F)c(F)c(F)c5F)c5ccc([nH]5)c(-c5c(F)c(F)c(F)c(F)c5F)c5nc(c(-c6c(F)c(F)c(F)c(F)c6F)c6ccc3[nH]6)C=C5)C=C4)cc2)CC[C@H]([N@H+](C)C2CCCC2)C1
REMARK SMILES IDX 12 1 11 2 10 3 9 4 8 5 6 6 7 7 5 8 83 9 93 10 84 11 85 12
REMARK SMILES IDX 4 13 2 16 1 17 3 18 86 19 87 20 88 22 89 23 92 24 90 25
REMARK SMILES IDX 91 26 13 27 14 28 15 29 16 30 17 31 18 32 19 33 20 34 21 35
REMARK SMILES IDX 82 36 22 37 81 38 23 39 24 40 25 41 75 42 26 43 80 44 74 45
REMARK SMILES IDX 76 46 27 47 79 48 73 49 72 50 28 52 60 53 40 54 59 55 41 56
REMARK SMILES IDX 44 57 58 58 77 59 42 60 43 61 57 63 78 64 45 65 29 66 30 67
REMARK SMILES IDX 38 68 31 69 32 70 36 71 39 72 33 73 34 74 37 75 35 76 61 77
REMARK SMILES IDX 62 78 70 79 63 80 64 81 68 82 71 83 65 84 66 85 69 86 67 87
REMARK SMILES IDX 46 88 47 89 55 90 48 91 49 92 53 93 56 94 50 95 51 96 54 97
REMARK SMILES IDX 52 98
REMARK H PARENT 4 14 4 15 86 21 76 51 44 62
REMARK Flexibility Score: inf
ROOT
ATOM      1  C   UNL A   1      34.724  32.972  28.424  1.00  0.00     0.188 C 
ENDROOT
BRANCH   1   2
ATOM      2  O   UNL A   1      34.647  31.944  27.456  1.00  0.00    -0.376 OA
BRANCH   2   3
ATOM      3  C   UNL A   1      33.901  30.769  27.706  1.00  0.00     0.202 C 
BRANCH   3   4
ATOM      4  C   UNL A   1      33.609  29.761  26.593  1.00  0.00     0.261 C 
BRANCH   4   5
ATOM      5  O   UNL A   1      33.733  28.375  26.955  1.00  0.00    -0.459 OA
BRANCH   5   6
ATOM      6  C   UNL A   1      32.569  27.685  26.884  1.00  0.00     0.368 C 
ATOM      7  O   UNL A   1      31.620  27.867  27.651  1.00  0.00    -0.245 OA
BRANCH   6   8
ATOM      8  C   UNL A   1      32.468  26.669  25.711  1.00  0.00     0.200 C 
ATOM      9  C   UNL A   1      33.713  26.350  24.879  1.00  0.00     0.087 C 
ATOM     10  C   UNL A   1      32.467  25.360  26.554  1.00  0.00     0.146 C 
ATOM     11  C   UNL A   1      33.526  24.863  24.466  1.00  0.00     0.072 C 
ATOM     12  C   UNL A   1      32.731  24.195  25.628  1.00  0.00     0.191 C 
BRANCH   8  13
ATOM     13  N   UNL A   1      31.280  27.098  24.896  1.00  0.00    -0.330 N 
ATOM     14  H   UNL A   1      30.839  26.235  24.578  1.00  0.00     0.347 HD
ATOM     15  H   UNL A   1      30.811  27.719  25.555  1.00  0.00     0.347 HD
BRANCH  13  16
ATOM     16  C   UNL A   1      31.358  27.963  23.712  1.00  0.00     0.176 C 
ATOM     17  C   UNL A   1      31.074  27.165  22.422  1.00  0.00     0.075 C 
ATOM     18  C   UNL A   1      30.412  29.170  23.707  1.00  0.00     0.075 C 
ENDBRANCH  13  16
ENDBRANCH   8  13
BRANCH  12  19
ATOM     19  N   UNL A   1      31.616  23.244  25.421  1.00  0.00    -0.332 N 
ATOM     20  C   UNL A   1      30.578  23.451  26.432  1.00  0.00     0.333 C 
ATOM     21  H   UNL A   1      31.294  23.505  24.489  1.00  0.00     0.348 HD
BRANCH  19  22
ATOM     22  C   UNL A   1      31.881  21.817  25.146  1.00  0.00     0.184 C 
ATOM     23  C   UNL A   1      32.259  21.459  23.696  1.00  0.00     0.065 C 
ATOM     24  C   UNL A   1      33.059  21.128  25.871  1.00  0.00     0.065 C 
ATOM     25  C   UNL A   1      32.631  19.979  23.787  1.00  0.00     0.006 C 
ATOM     26  C   UNL A   1      33.339  19.830  25.122  1.00  0.00     0.006 C 
ENDBRANCH  19  22
ENDBRANCH  12  19
ENDBRANCH   6   8
ENDBRANCH   5   6
ENDBRANCH   4   5
ENDBRANCH   3   4
ENDBRANCH   2   3
ENDBRANCH   1   2
BRANCH   1  27
ATOM     27  C   UNL A   1      33.791  34.201  28.370  1.00  0.00     0.188 C 
BRANCH  27  28
ATOM     28  O   UNL A   1      34.306  35.505  28.239  1.00  0.00    -0.376 OA
BRANCH  28  29
ATOM     29  C   UNL A   1      33.607  36.603  28.786  1.00  0.00     0.202 C 
BRANCH  29  30
ATOM     30  C   UNL A   1      32.440  36.435  29.768  1.00  0.00     0.261 C 
BRANCH  30  31
ATOM     31  O   UNL A   1      32.692  36.797  31.134  1.00  0.00    -0.460 OA
BRANCH  31  32
ATOM     32  C   UNL A   1      32.551  35.788  32.034  1.00  0.00     0.338 C 
ATOM     33  O   UNL A   1      31.554  35.498  32.668  1.00  0.00    -0.246 OA
BRANCH  32  34
ATOM     34  C   UNL A   1      33.759  34.937  32.039  1.00  0.00     0.060 A 
ATOM     35  C   UNL A   1      33.624  33.599  32.423  1.00  0.00     0.016 A 
ATOM     36  C   UNL A   1      35.020  35.465  31.773  1.00  0.00     0.016 A 
ATOM     37  C   UNL A   1      34.749  32.788  32.572  1.00  0.00     0.010 A 
ATOM     38  C   UNL A   1      36.152  34.655  31.942  1.00  0.00     0.010 A 
ATOM     39  C   UNL A   1      36.025  33.320  32.372  1.00  0.00    -0.014 A 
BRANCH  39  40
ATOM     40  C   UNL A   1      37.213  32.537  32.797  1.00  0.00     0.031 A 
ATOM     41  C   UNL A   1      37.830  32.834  34.135  1.00  0.00     0.074 A 
ATOM     42  C   UNL A   1      37.707  31.538  32.042  1.00  0.00     0.049 A 
ATOM     43  N   UNL A   1      38.926  32.364  34.673  1.00  0.00    -0.248 NA
ATOM     44  C   UNL A   1      37.104  33.790  34.987  1.00  0.00     0.031 C 
ATOM     45  C   UNL A   1      37.145  31.075  30.776  1.00  0.00     0.029 A 
ATOM     46  N   UNL A   1      38.808  30.739  32.235  1.00  0.00    -0.354 N 
ATOM     47  C   UNL A   1      39.036  32.983  35.911  1.00  0.00     0.074 A 
ATOM     48  C   UNL A   1      37.901  33.871  36.042  1.00  0.00     0.031 C 
ATOM     49  C   UNL A   1      37.919  30.089  30.292  1.00  0.00     0.029 A 
ATOM     50  C   UNL A   1      39.057  29.886  31.188  1.00  0.00     0.049 A 
ATOM     51  H   UNL A   1      39.365  30.774  33.047  1.00  0.00     0.167 HD
ATOM     52  C   UNL A   1      39.997  32.826  36.852  1.00  0.00     0.037 A 
ATOM     53  C   UNL A   1      40.106  29.070  30.960  1.00  0.00     0.037 A 
ATOM     54  C   UNL A   1      41.121  31.936  36.723  1.00  0.00     0.049 A 
ATOM     55  C   UNL A   1      41.219  28.989  31.976  1.00  0.00     0.074 A 
ATOM     56  C   UNL A   1      42.150  31.712  37.622  1.00  0.00     0.029 A 
ATOM     57  N   UNL A   1      41.367  31.128  35.625  1.00  0.00    -0.354 N 
ATOM     58  N   UNL A   1      41.333  29.594  33.134  1.00  0.00    -0.248 NA
ATOM     59  C   UNL A   1      42.353  28.111  31.651  1.00  0.00     0.031 C 
ATOM     60  C   UNL A   1      43.050  30.814  37.041  1.00  0.00     0.029 A 
ATOM     61  C   UNL A   1      42.547  30.425  35.810  1.00  0.00     0.049 A 
ATOM     62  H   UNL A   1      40.789  31.062  34.830  1.00  0.00     0.167 HD
ATOM     63  C   UNL A   1      42.528  29.147  33.686  1.00  0.00     0.074 A 
ATOM     64  C   UNL A   1      43.097  28.210  32.742  1.00  0.00     0.031 C 
ATOM     65  C   UNL A   1      43.100  29.484  34.869  1.00  0.00     0.037 A 
BRANCH  52  66
ATOM     66  C   UNL A   1      39.902  33.674  38.087  1.00  0.00     0.064 A 
ATOM     67  C   UNL A   1      39.090  33.317  39.174  1.00  0.00     0.173 A 
ATOM     68  C   UNL A   1      40.662  34.848  38.195  1.00  0.00     0.173 A 
ATOM     69  F   UNL A   1      38.331  32.213  39.117  1.00  0.00    -0.203 F 
ATOM     70  C   UNL A   1      39.024  34.118  40.312  1.00  0.00     0.198 A 
ATOM     71  C   UNL A   1      40.618  35.630  39.346  1.00  0.00     0.198 A 
ATOM     72  F   UNL A   1      41.457  35.234  37.185  1.00  0.00    -0.203 F 
ATOM     73  F   UNL A   1      38.204  33.785  41.318  1.00  0.00    -0.200 F 
ATOM     74  C   UNL A   1      39.794  35.269  40.400  1.00  0.00     0.200 A 
ATOM     75  F   UNL A   1      41.374  36.733  39.433  1.00  0.00    -0.200 F 
ATOM     76  F   UNL A   1      39.736  36.034  41.499  1.00  0.00    -0.200 F 
ENDBRANCH  52  66
BRANCH  53  77
ATOM     77  C   UNL A   1      40.183  28.290  29.694  1.00  0.00     0.064 A 
ATOM     78  C   UNL A   1      40.909  28.763  28.592  1.00  0.00     0.173 A 
ATOM     79  C   UNL A   1      39.498  27.074  29.549  1.00  0.00     0.173 A 
ATOM     80  F   UNL A   1      41.553  29.937  28.668  1.00  0.00    -0.203 F 
ATOM     81  C   UNL A   1      40.929  28.060  27.388  1.00  0.00     0.198 A 
ATOM     82  C   UNL A   1      39.547  26.356  28.356  1.00  0.00     0.198 A 
ATOM     83  F   UNL A   1      38.780  26.582  30.568  1.00  0.00    -0.203 F 
ATOM     84  F   UNL A   1      41.582  28.564  26.332  1.00  0.00    -0.200 F 
ATOM     85  C   UNL A   1      40.255  26.854  27.274  1.00  0.00     0.200 A 
ATOM     86  F   UNL A   1      38.900  25.187  28.254  1.00  0.00    -0.200 F 
ATOM     87  F   UNL A   1      40.275  26.179  26.116  1.00  0.00    -0.200 F 
ENDBRANCH  53  77
BRANCH  65  88
ATOM     88  C   UNL A   1      44.387  28.798  35.240  1.00  0.00     0.064 A 
ATOM     89  C   UNL A   1      45.638  29.347  34.925  1.00  0.00     0.173 A 
ATOM     90  C   UNL A   1      44.364  27.596  35.966  1.00  0.00     0.173 A 
ATOM     91  F   UNL A   1      45.719  30.487  34.224  1.00  0.00    -0.203 F 
ATOM     92  C   UNL A   1      46.817  28.703  35.296  1.00  0.00     0.198 A 
ATOM     93  C   UNL A   1      45.544  26.974  36.365  1.00  0.00     0.198 A 
ATOM     94  F   UNL A   1      43.195  27.032  36.303  1.00  0.00    -0.203 F 
ATOM     95  F   UNL A   1      48.002  29.221  34.939  1.00  0.00    -0.200 F 
ATOM     96  C   UNL A   1      46.770  27.523  36.022  1.00  0.00     0.200 A 
ATOM     97  F   UNL A   1      45.494  25.843  37.083  1.00  0.00    -0.200 F 
ATOM     98  F   UNL A   1      47.904  26.912  36.387  1.00  0.00    -0.200 F 
ENDBRANCH  65  88
ENDBRANCH  39  40
ENDBRANCH  32  34
ENDBRANCH  31  32
ENDBRANCH  30  31
ENDBRANCH  29  30
ENDBRANCH  28  29
ENDBRANCH  27  28
ENDBRANCH   1  27
TORSDOF 21
ENDMDL
MODEL 3
REMARK VINA RESULT:     -10.1      1.081      2.077
REMARK SMILES CC(C)[NH2+][C@]1(C(=O)OCCOCCOCCOC(=O)c2ccc(-c3c4nc(c(-c5c(F)c(F)c(F)c(F)c5F)c5ccc([nH]5)c(-c5c(F)c(F)c(F)c(F)c5F)c5nc(c(-c6c(F)c(F)c(F)c(F)c6F)c6ccc3[nH]6)C=C5)C=C4)cc2)CC[C@H]([N@H+](C)C2CCCC2)C1
REMARK SMILES IDX 12 1 11 2 10 3 9 4 8 5 6 6 7 7 5 8 83 9 93 10 84 11 85 12
REMARK SMILES IDX 4 13 2 16 1 17 3 18 86 19 87 20 88 22 89 23 92 24 90 25
REMARK SMILES IDX 91 26 13 27 14 28 15 29 16 30 17 31 18 32 19 33 20 34 21 35
REMARK SMILES IDX 82 36 22 37 81 38 23 39 24 40 25 41 75 42 26 43 80 44 74 45
REMARK SMILES IDX 76 46 27 47 79 48 73 49 72 50 28 52 60 53 40 54 59 55 41 56
REMARK SMILES IDX 44 57 58 58 77 59 42 60 43 61 57 63 78 64 45 65 29 66 30 67
REMARK SMILES IDX 38 68 31 69 32 70 36 71 39 72 33 73 34 74 37 75 35 76 61 77
REMARK SMILES IDX 62 78 70 79 63 80 64 81 68 82 71 83 65 84 66 85 69 86 67 87
REMARK SMILES IDX 46 88 47 89 55 90 48 91 49 92 53 93 56 94 50 95 51 96 54 97
REMARK SMILES IDX 52 98
REMARK H PARENT 4 14 4 15 86 21 76 51 44 62
REMARK Flexibility Score: inf
ROOT
ATOM      1  C   UNL A   1      39.126  21.309  26.072  1.00  0.00     0.188 C 
ENDROOT
BRANCH   1   2
ATOM      2  O   UNL A   1      39.246  22.686  26.376  1.00  0.00    -0.376 OA
BRANCH   2   3
ATOM      3  C   UNL A   1      38.211  23.592  26.046  1.00  0.00     0.202 C 
BRANCH   3   4
ATOM      4  C   UNL A   1      37.291  23.346  24.849  1.00  0.00     0.261 C 
BRANCH   4   5
ATOM      5  O   UNL A   1      35.882  23.447  25.111  1.00  0.00    -0.459 OA
BRANCH   5   6
ATOM      6  C   UNL A   1      35.223  22.266  25.024  1.00  0.00     0.368 C 
ATOM      7  O   UNL A   1      35.690  21.263  24.479  1.00  0.00    -0.245 OA
BRANCH   6   8
ATOM      8  C   UNL A   1      33.837  22.224  25.727  1.00  0.00     0.200 C 
ATOM      9  C   UNL A   1      33.705  21.560  27.100  1.00  0.00     0.087 C 
ATOM     10  C   UNL A   1      33.800  23.697  26.229  1.00  0.00     0.146 C 
ATOM     11  C   UNL A   1      32.590  22.374  27.814  1.00  0.00     0.072 C 
ATOM     12  C   UNL A   1      32.701  23.826  27.257  1.00  0.00     0.191 C 
BRANCH   8  13
ATOM     13  N   UNL A   1      32.870  21.704  24.700  1.00  0.00    -0.330 N 
ATOM     14  H   UNL A   1      32.977  20.690  24.711  1.00  0.00     0.347 HD
ATOM     15  H   UNL A   1      32.005  22.147  25.011  1.00  0.00     0.347 HD
BRANCH  13  16
ATOM     16  C   UNL A   1      32.881  22.089  23.284  1.00  0.00     0.176 C 
ATOM     17  C   UNL A   1      32.181  21.023  22.414  1.00  0.00     0.075 C 
ATOM     18  C   UNL A   1      32.224  23.435  22.955  1.00  0.00     0.075 C 
ENDBRANCH  13  16
ENDBRANCH   8  13
BRANCH  12  19
ATOM     19  N   UNL A   1      31.532  24.653  26.881  1.00  0.00    -0.332 N 
ATOM     20  C   UNL A   1      30.445  23.802  26.394  1.00  0.00     0.333 C 
ATOM     21  H   UNL A   1      31.298  25.094  27.771  1.00  0.00     0.348 HD
BRANCH  19  22
ATOM     22  C   UNL A   1      31.702  25.886  26.087  1.00  0.00     0.184 C 
ATOM     23  C   UNL A   1      30.562  26.234  25.110  1.00  0.00     0.065 C 
ATOM     24  C   UNL A   1      31.796  27.239  26.828  1.00  0.00     0.065 C 
ATOM     25  C   UNL A   1      30.956  27.618  24.592  1.00  0.00     0.006 C 
ATOM     26  C   UNL A   1      31.566  28.329  25.786  1.00  0.00     0.006 C 
ENDBRANCH  19  22
ENDBRANCH  12  19
ENDBRANCH   6   8
ENDBRANCH   5   6
ENDBRANCH   4   5
ENDBRANCH   3   4
ENDBRANCH   2   3
ENDBRANCH   1   2
BRANCH   1  27
ATOM     27  C   UNL A   1      40.322  20.345  26.216  1.00  0.00     0.188 C 
BRANCH  27  28
ATOM     28  O   UNL A   1      41.353  20.591  27.144  1.00  0.00    -0.376 OA
BRANCH  28  29
ATOM     29  C   UNL A   1      42.649  20.925  26.694  1.00  0.00     0.202 C 
BRANCH  29  30
ATOM     30  C   UNL A   1      42.903  21.640  25.360  1.00  0.00     0.261 C 
BRANCH  30  31
ATOM     31  O   UNL A   1      42.454  23.000  25.264  1.00  0.00    -0.460 OA
BRANCH  31  32
ATOM     32  C   UNL A   1      43.439  23.937  25.279  1.00  0.00     0.338 C 
ATOM     33  O   UNL A   1      44.248  24.172  24.402  1.00  0.00    -0.246 OA
BRANCH  32  34
ATOM     34  C   UNL A   1      43.308  24.793  26.476  1.00  0.00     0.060 A 
ATOM     35  C   UNL A   1      42.541  24.324  27.547  1.00  0.00     0.016 A 
ATOM     36  C   UNL A   1      43.843  26.079  26.509  1.00  0.00     0.016 A 
ATOM     37  C   UNL A   1      42.277  25.144  28.643  1.00  0.00     0.010 A 
ATOM     38  C   UNL A   1      43.561  26.910  27.603  1.00  0.00     0.010 A 
ATOM     39  C   UNL A   1      42.751  26.458  28.662  1.00  0.00    -0.014 A 
BRANCH  39  40
ATOM     40  C   UNL A   1      42.239  27.399  29.690  1.00  0.00     0.031 A 
ATOM     41  C   UNL A   1      42.974  27.507  30.998  1.00  0.00     0.074 A 
ATOM     42  C   UNL A   1      41.177  28.192  29.456  1.00  0.00     0.049 A 
ATOM     43  N   UNL A   1      42.661  28.171  32.080  1.00  0.00    -0.248 NA
ATOM     44  C   UNL A   1      44.244  26.767  31.091  1.00  0.00     0.031 C 
ATOM     45  C   UNL A   1      40.435  28.266  28.199  1.00  0.00     0.029 A 
ATOM     46  N   UNL A   1      40.532  29.081  30.281  1.00  0.00    -0.354 N 
ATOM     47  C   UNL A   1      43.677  27.910  32.990  1.00  0.00     0.074 A 
ATOM     48  C   UNL A   1      44.611  27.018  32.338  1.00  0.00     0.031 C 
ATOM     49  C   UNL A   1      39.421  29.135  28.345  1.00  0.00     0.029 A 
ATOM     50  C   UNL A   1      39.412  29.640  29.717  1.00  0.00     0.049 A 
ATOM     51  H   UNL A   1      40.844  29.298  31.190  1.00  0.00     0.167 HD
ATOM     52  C   UNL A   1      43.815  28.371  34.256  1.00  0.00     0.037 A 
ATOM     53  C   UNL A   1      38.465  30.431  30.261  1.00  0.00     0.037 A 
ATOM     54  C   UNL A   1      42.889  29.264  34.901  1.00  0.00     0.049 A 
ATOM     55  C   UNL A   1      38.586  30.848  31.706  1.00  0.00     0.074 A 
ATOM     56  C   UNL A   1      42.943  29.783  36.183  1.00  0.00     0.029 A 
ATOM     57  N   UNL A   1      41.738  29.767  34.314  1.00  0.00    -0.354 N 
ATOM     58  N   UNL A   1      39.533  30.581  32.572  1.00  0.00    -0.248 NA
ATOM     59  C   UNL A   1      37.501  31.678  32.252  1.00  0.00     0.031 C 
ATOM     60  C   UNL A   1      41.792  30.550  36.393  1.00  0.00     0.029 A 
ATOM     61  C   UNL A   1      41.057  30.567  35.219  1.00  0.00     0.049 A 
ATOM     62  H   UNL A   1      41.446  29.582  33.391  1.00  0.00     0.167 HD
ATOM     63  C   UNL A   1      39.177  31.232  33.748  1.00  0.00     0.074 A 
ATOM     64  C   UNL A   1      37.932  31.920  33.481  1.00  0.00     0.031 C 
ATOM     65  C   UNL A   1      39.824  31.258  34.939  1.00  0.00     0.037 A 
BRANCH  52  66
ATOM     66  C   UNL A   1      44.991  27.877  35.048  1.00  0.00     0.064 A 
ATOM     67  C   UNL A   1      46.197  28.590  35.114  1.00  0.00     0.173 A 
ATOM     68  C   UNL A   1      44.895  26.683  35.778  1.00  0.00     0.173 A 
ATOM     69  F   UNL A   1      46.348  29.729  34.422  1.00  0.00    -0.203 F 
ATOM     70  C   UNL A   1      47.271  28.112  35.861  1.00  0.00     0.198 A 
ATOM     71  C   UNL A   1      45.959  26.224  36.550  1.00  0.00     0.198 A 
ATOM     72  F   UNL A   1      43.763  25.963  35.752  1.00  0.00    -0.203 F 
ATOM     73  F   UNL A   1      48.431  28.783  35.870  1.00  0.00    -0.200 F 
ATOM     74  C   UNL A   1      47.149  26.935  36.584  1.00  0.00     0.200 A 
ATOM     75  F   UNL A   1      45.832  25.094  37.259  1.00  0.00    -0.200 F 
ATOM     76  F   UNL A   1      48.180  26.481  37.310  1.00  0.00    -0.200 F 
ENDBRANCH  52  66
BRANCH  53  77
ATOM     77  C   UNL A   1      37.288  30.851  29.452  1.00  0.00     0.064 A 
ATOM     78  C   UNL A   1      36.257  29.952  29.148  1.00  0.00     0.173 A 
ATOM     79  C   UNL A   1      37.192  32.151  28.933  1.00  0.00     0.173 A 
ATOM     80  F   UNL A   1      36.317  28.688  29.591  1.00  0.00    -0.203 F 
ATOM     81  C   UNL A   1      35.186  30.331  28.339  1.00  0.00     0.198 A 
ATOM     82  C   UNL A   1      36.105  32.539  28.152  1.00  0.00     0.198 A 
ATOM     83  F   UNL A   1      38.157  33.048  29.184  1.00  0.00    -0.203 F 
ATOM     84  F   UNL A   1      34.244  29.435  28.015  1.00  0.00    -0.200 F 
ATOM     85  C   UNL A   1      35.108  31.625  27.848  1.00  0.00     0.200 A 
ATOM     86  F   UNL A   1      36.030  33.793  27.688  1.00  0.00    -0.200 F 
ATOM     87  F   UNL A   1      34.078  31.989  27.071  1.00  0.00    -0.200 F 
ENDBRANCH  53  77
BRANCH  65  88
ATOM     88  C   UNL A   1      39.229  32.097  36.037  1.00  0.00     0.064 A 
ATOM     89  C   UNL A   1      38.257  31.593  36.913  1.00  0.00     0.173 A 
ATOM     90  C   UNL A   1      39.677  33.412  36.243  1.00  0.00     0.173 A 
ATOM     91  F   UNL A   1      37.786  30.348  36.755  1.00  0.00    -0.203 F 
ATOM     92  C   UNL A   1      37.733  32.384  37.934  1.00  0.00     0.198 A 
ATOM     93  C   UNL A   1      39.177  34.187  37.287  1.00  0.00     0.198 A 
ATOM     94  F   UNL A   1      40.612  33.942  35.442  1.00  0.00    -0.203 F 
ATOM     95  F   UNL A   1      36.768  31.897  38.728  1.00  0.00    -0.200 F 
ATOM     96  C   UNL A   1      38.199  33.675  38.126  1.00  0.00     0.200 A 
ATOM     97  F   UNL A   1      39.642  35.429  37.481  1.00  0.00    -0.200 F 
ATOM     98  F   UNL A   1      37.702  34.429  39.116  1.00  0.00    -0.200 F 
ENDBRANCH  65  88
ENDBRANCH  39  40
ENDBRANCH  32  34
ENDBRANCH  31  32
ENDBRANCH  30  31
ENDBRANCH  29  30
ENDBRANCH  28  29
ENDBRANCH  27  28
ENDBRANCH   1  27
TORSDOF 21
ENDMDL
