MODEL 1
REMARK VINA RESULT:      -9.3      0.000      0.000
REMARK SMILES CCCCCC(=O)N[C@H](C)C(=O)OCCOCCOCCOC(=O)c1ccc(-c2c3nc(c(-c4c(F)c(F)c(F)c(F)c4F)c4ccc([nH]4)c(-c4c(F)c(F)c(F)c(F)c4F)c4nc(c(-c5c(F)c(F)c(F)c(F)c5F)c5ccc2[nH]5)C=C4)C=C3)cc1
REMARK SMILES IDX 16 1 15 2 14 3 13 4 11 5 12 6 9 7 10 8 8 9 6 10 7 11 5 13
REMARK SMILES IDX 4 14 3 15 2 16 1 17 17 18 18 19 19 20 20 21 21 22 22 23
REMARK SMILES IDX 23 24 24 25 25 26 26 27 87 28 27 29 86 30 28 31 29 32 30 33
REMARK SMILES IDX 80 34 31 35 85 36 79 37 81 38 32 39 84 40 78 41 77 42 33 44
REMARK SMILES IDX 65 45 45 46 64 47 46 48 49 49 63 50 82 51 47 52 48 53 62 55
REMARK SMILES IDX 83 56 50 57 34 58 35 59 43 60 36 61 37 62 41 63 44 64 38 65
REMARK SMILES IDX 39 66 42 67 40 68 66 69 67 70 75 71 68 72 69 73 73 74 76 75
REMARK SMILES IDX 70 76 71 77 74 78 72 79 51 80 52 81 60 82 53 83 54 84 58 85
REMARK SMILES IDX 61 86 55 87 56 88 59 89 57 90
REMARK H PARENT 8 12 81 43 49 54
REMARK Flexibility Score: inf
ROOT
ATOM      1  O   UNL A   1      39.418  23.208  26.361  1.00  0.00    -0.376 OA
ENDROOT
BRANCH   1   2
ATOM      2  C   UNL A   1      37.996  23.346  26.302  1.00  0.00     0.202 C 
BRANCH   2   3
ATOM      3  C   UNL A   1      37.405  23.307  24.886  1.00  0.00     0.261 C 
BRANCH   3   4
ATOM      4  O   UNL A   1      36.549  22.164  24.747  1.00  0.00    -0.462 OA
BRANCH   4   5
ATOM      5  C   UNL A   1      35.289  22.330  24.256  1.00  0.00     0.328 C 
ATOM      6  O   UNL A   1      35.009  22.918  23.218  1.00  0.00    -0.250 OA
BRANCH   5   7
ATOM      7  C   UNL A   1      34.251  21.562  25.122  1.00  0.00     0.189 C 
ATOM      8  C   UNL A   1      34.029  22.279  26.445  1.00  0.00     0.043 C 
BRANCH   7   9
ATOM      9  N   UNL A   1      33.052  21.285  24.321  1.00  0.00    -0.343 N 
ATOM     10  C   UNL A   1      32.631  20.178  23.651  1.00  0.00     0.220 C 
ATOM     11  O   UNL A   1      31.928  20.366  22.653  1.00  0.00    -0.275 OA
ATOM     12  H   UNL A   1      32.434  22.048  24.256  1.00  0.00     0.164 HD
BRANCH  10  13
ATOM     13  C   UNL A   1      32.891  18.756  24.128  1.00  0.00     0.100 C 
BRANCH  13  14
ATOM     14  C   UNL A   1      33.128  17.689  23.055  1.00  0.00     0.010 C 
BRANCH  14  15
ATOM     15  C   UNL A   1      34.059  16.522  23.404  1.00  0.00     0.000 C 
BRANCH  15  16
ATOM     16  C   UNL A   1      34.155  16.161  24.894  1.00  0.00    -0.003 C 
ATOM     17  C   UNL A   1      35.550  15.787  25.364  1.00  0.00     0.004 C 
ENDBRANCH  15  16
ENDBRANCH  14  15
ENDBRANCH  13  14
ENDBRANCH  10  13
ENDBRANCH   7   9
ENDBRANCH   5   7
ENDBRANCH   4   5
ENDBRANCH   3   4
ENDBRANCH   2   3
ENDBRANCH   1   2
BRANCH   1  18
ATOM     18  C   UNL A   1      39.929  21.892  26.541  1.00  0.00     0.188 C 
BRANCH  18  19
ATOM     19  C   UNL A   1      41.379  21.671  26.112  1.00  0.00     0.188 C 
BRANCH  19  20
ATOM     20  O   UNL A   1      42.002  20.516  26.667  1.00  0.00    -0.376 OA
BRANCH  20  21
ATOM     21  C   UNL A   1      41.944  19.344  25.837  1.00  0.00     0.202 C 
BRANCH  21  22
ATOM     22  C   UNL A   1      43.296  18.668  25.526  1.00  0.00     0.261 C 
BRANCH  22  23
ATOM     23  O   UNL A   1      43.830  18.979  24.220  1.00  0.00    -0.460 OA
BRANCH  23  24
ATOM     24  C   UNL A   1      45.070  19.519  24.168  1.00  0.00     0.338 C 
ATOM     25  O   UNL A   1      46.036  19.067  23.575  1.00  0.00    -0.246 OA
BRANCH  24  26
ATOM     26  C   UNL A   1      45.009  20.895  24.729  1.00  0.00     0.060 A 
ATOM     27  C   UNL A   1      44.538  21.927  23.902  1.00  0.00     0.016 A 
ATOM     28  C   UNL A   1      45.337  21.170  26.060  1.00  0.00     0.016 A 
ATOM     29  C   UNL A   1      44.433  23.232  24.392  1.00  0.00     0.010 A 
ATOM     30  C   UNL A   1      45.237  22.478  26.548  1.00  0.00     0.010 A 
ATOM     31  C   UNL A   1      44.812  23.524  25.709  1.00  0.00    -0.014 A 
BRANCH  31  32
ATOM     32  C   UNL A   1      44.931  24.936  26.158  1.00  0.00     0.031 A 
ATOM     33  C   UNL A   1      46.279  25.602  26.083  1.00  0.00     0.074 A 
ATOM     34  C   UNL A   1      43.871  25.632  26.608  1.00  0.00     0.049 A 
ATOM     35  N   UNL A   1      46.635  26.808  26.448  1.00  0.00    -0.248 NA
ATOM     36  C   UNL A   1      47.374  24.796  25.520  1.00  0.00     0.031 C 
ATOM     37  C   UNL A   1      42.503  25.128  26.701  1.00  0.00     0.029 A 
ATOM     38  N   UNL A   1      43.789  26.920  27.080  1.00  0.00    -0.354 N 
ATOM     39  C   UNL A   1      47.990  26.904  26.160  1.00  0.00     0.074 A 
ATOM     40  C   UNL A   1      48.400  25.624  25.622  1.00  0.00     0.031 C 
ATOM     41  C   UNL A   1      41.718  26.095  27.208  1.00  0.00     0.029 A 
ATOM     42  C   UNL A   1      42.532  27.274  27.505  1.00  0.00     0.049 A 
ATOM     43  H   UNL A   1      44.559  27.533  27.109  1.00  0.00     0.167 HD
ATOM     44  C   UNL A   1      48.818  27.963  26.318  1.00  0.00     0.037 A 
ATOM     45  C   UNL A   1      42.094  28.410  28.086  1.00  0.00     0.037 A 
ATOM     46  C   UNL A   1      48.421  29.238  26.854  1.00  0.00     0.049 A 
ATOM     47  C   UNL A   1      43.056  29.548  28.329  1.00  0.00     0.074 A 
ATOM     48  C   UNL A   1      49.191  30.375  27.032  1.00  0.00     0.029 A 
ATOM     49  N   UNL A   1      47.148  29.543  27.309  1.00  0.00    -0.354 N 
ATOM     50  N   UNL A   1      44.327  29.641  28.024  1.00  0.00    -0.248 NA
ATOM     51  C   UNL A   1      42.516  30.741  28.999  1.00  0.00     0.031 C 
ATOM     52  C   UNL A   1      48.398  31.349  27.645  1.00  0.00     0.029 A 
ATOM     53  C   UNL A   1      47.119  30.841  27.796  1.00  0.00     0.049 A 
ATOM     54  H   UNL A   1      46.379  28.928  27.290  1.00  0.00     0.167 HD
ATOM     55  C   UNL A   1      44.729  30.907  28.434  1.00  0.00     0.074 A 
ATOM     56  C   UNL A   1      43.565  31.553  29.000  1.00  0.00     0.031 C 
ATOM     57  C   UNL A   1      45.954  31.483  28.347  1.00  0.00     0.037 A 
BRANCH  44  58
ATOM     58  C   UNL A   1      50.254  27.781  25.925  1.00  0.00     0.064 A 
ATOM     59  C   UNL A   1      51.252  27.525  26.878  1.00  0.00     0.173 A 
ATOM     60  C   UNL A   1      50.631  27.829  24.575  1.00  0.00     0.173 A 
ATOM     61  F   UNL A   1      50.945  27.486  28.183  1.00  0.00    -0.203 F 
ATOM     62  C   UNL A   1      52.577  27.345  26.494  1.00  0.00     0.198 A 
ATOM     63  C   UNL A   1      51.952  27.621  24.192  1.00  0.00     0.198 A 
ATOM     64  F   UNL A   1      49.714  28.070  23.625  1.00  0.00    -0.203 F 
ATOM     65  F   UNL A   1      53.522  27.148  27.424  1.00  0.00    -0.200 F 
ATOM     66  C   UNL A   1      52.925  27.386  25.152  1.00  0.00     0.200 A 
ATOM     67  F   UNL A   1      52.284  27.649  22.895  1.00  0.00    -0.200 F 
ATOM     68  F   UNL A   1      54.201  27.204  24.783  1.00  0.00    -0.200 F 
ENDBRANCH  44  58
BRANCH  45  69
ATOM     69  C   UNL A   1      40.672  28.534  28.505  1.00  0.00     0.064 A 
ATOM     70  C   UNL A   1      39.701  29.049  27.634  1.00  0.00     0.173 A 
ATOM     71  C   UNL A   1      40.264  28.184  29.802  1.00  0.00     0.173 A 
ATOM     72  F   UNL A   1      40.049  29.431  26.396  1.00  0.00    -0.203 F 
ATOM     73  C   UNL A   1      38.383  29.230  28.050  1.00  0.00     0.198 A 
ATOM     74  C   UNL A   1      38.940  28.337  30.206  1.00  0.00     0.198 A 
ATOM     75  F   UNL A   1      41.156  27.697  30.677  1.00  0.00    -0.203 F 
ATOM     76  F   UNL A   1      37.489  29.778  27.215  1.00  0.00    -0.200 F 
ATOM     77  C   UNL A   1      38.002  28.869  29.333  1.00  0.00     0.200 A 
ATOM     78  F   UNL A   1      38.575  27.983  31.446  1.00  0.00    -0.200 F 
ATOM     79  F   UNL A   1      36.736  29.047  29.735  1.00  0.00    -0.200 F 
ENDBRANCH  45  69
BRANCH  57  80
ATOM     80  C   UNL A   1      46.098  32.897  28.835  1.00  0.00     0.064 A 
ATOM     81  C   UNL A   1      46.493  33.189  30.148  1.00  0.00     0.173 A 
ATOM     82  C   UNL A   1      45.885  33.974  27.960  1.00  0.00     0.173 A 
ATOM     83  F   UNL A   1      46.698  32.198  31.028  1.00  0.00    -0.203 F 
ATOM     84  C   UNL A   1      46.647  34.508  30.575  1.00  0.00     0.198 A 
ATOM     85  C   UNL A   1      46.068  35.289  28.381  1.00  0.00     0.198 A 
ATOM     86  F   UNL A   1      45.515  33.751  26.690  1.00  0.00    -0.203 F 
ATOM     87  F   UNL A   1      46.981  34.763  31.847  1.00  0.00    -0.200 F 
ATOM     88  C   UNL A   1      46.442  35.555  29.689  1.00  0.00     0.200 A 
ATOM     89  F   UNL A   1      45.886  36.299  27.519  1.00  0.00    -0.200 F 
ATOM     90  F   UNL A   1      46.600  36.821  30.099  1.00  0.00    -0.200 F 
ENDBRANCH  57  80
ENDBRANCH  31  32
ENDBRANCH  24  26
ENDBRANCH  23  24
ENDBRANCH  22  23
ENDBRANCH  21  22
ENDBRANCH  20  21
ENDBRANCH  19  20
ENDBRANCH  18  19
ENDBRANCH   1  18
TORSDOF 22
ENDMDL
MODEL 2
REMARK VINA RESULT:      -9.1      6.457     11.814
REMARK SMILES CCCCCC(=O)N[C@H](C)C(=O)OCCOCCOCCOC(=O)c1ccc(-c2c3nc(c(-c4c(F)c(F)c(F)c(F)c4F)c4ccc([nH]4)c(-c4c(F)c(F)c(F)c(F)c4F)c4nc(c(-c5c(F)c(F)c(F)c(F)c5F)c5ccc2[nH]5)C=C4)C=C3)cc1
REMARK SMILES IDX 16 1 15 2 14 3 13 4 11 5 12 6 9 7 10 8 8 9 6 10 7 11 5 13
REMARK SMILES IDX 4 14 3 15 2 16 1 17 17 18 18 19 19 20 20 21 21 22 22 23
REMARK SMILES IDX 23 24 24 25 25 26 26 27 87 28 27 29 86 30 28 31 29 32 30 33
REMARK SMILES IDX 80 34 31 35 85 36 79 37 81 38 32 39 84 40 78 41 77 42 33 44
REMARK SMILES IDX 65 45 45 46 64 47 46 48 49 49 63 50 82 51 47 52 48 53 62 55
REMARK SMILES IDX 83 56 50 57 34 58 35 59 43 60 36 61 37 62 41 63 44 64 38 65
REMARK SMILES IDX 39 66 42 67 40 68 66 69 67 70 75 71 68 72 69 73 73 74 76 75
REMARK SMILES IDX 70 76 71 77 74 78 72 79 51 80 52 81 60 82 53 83 54 84 58 85
REMARK SMILES IDX 61 86 55 87 56 88 59 89 57 90
REMARK H PARENT 8 12 81 43 49 54
REMARK Flexibility Score: inf
ROOT
ATOM      1  O   UNL A   1      32.365  27.787  27.114  1.00  0.00    -0.376 OA
ENDROOT
BRANCH   1   2
ATOM      2  C   UNL A   1      33.647  27.699  26.485  1.00  0.00     0.202 C 
BRANCH   2   3
ATOM      3  C   UNL A   1      33.667  26.895  25.178  1.00  0.00     0.261 C 
BRANCH   3   4
ATOM      4  O   UNL A   1      33.567  27.786  24.058  1.00  0.00    -0.462 OA
BRANCH   4   5
ATOM      5  C   UNL A   1      32.346  28.034  23.509  1.00  0.00     0.328 C 
ATOM      6  O   UNL A   1      31.970  29.121  23.086  1.00  0.00    -0.250 OA
BRANCH   5   7
ATOM      7  C   UNL A   1      31.524  26.721  23.370  1.00  0.00     0.189 C 
ATOM      8  C   UNL A   1      30.054  26.980  23.665  1.00  0.00     0.043 C 
BRANCH   7   9
ATOM      9  N   UNL A   1      31.828  26.085  22.082  1.00  0.00    -0.343 N 
ATOM     10  C   UNL A   1      32.815  25.236  21.688  1.00  0.00     0.220 C 
ATOM     11  O   UNL A   1      33.164  25.298  20.505  1.00  0.00    -0.275 OA
ATOM     12  H   UNL A   1      31.196  26.319  21.365  1.00  0.00     0.164 HD
BRANCH  10  13
ATOM     13  C   UNL A   1      33.415  24.167  22.591  1.00  0.00     0.100 C 
BRANCH  13  14
ATOM     14  C   UNL A   1      32.821  22.758  22.498  1.00  0.00     0.010 C 
BRANCH  14  15
ATOM     15  C   UNL A   1      32.331  22.104  23.796  1.00  0.00     0.000 C 
BRANCH  15  16
ATOM     16  C   UNL A   1      33.253  21.035  24.399  1.00  0.00    -0.003 C 
ATOM     17  C   UNL A   1      34.712  21.447  24.502  1.00  0.00     0.004 C 
ENDBRANCH  15  16
ENDBRANCH  14  15
ENDBRANCH  13  14
ENDBRANCH  10  13
ENDBRANCH   7   9
ENDBRANCH   5   7
ENDBRANCH   4   5
ENDBRANCH   3   4
ENDBRANCH   2   3
ENDBRANCH   1   2
BRANCH   1  18
ATOM     18  C   UNL A   1      31.812  29.089  27.263  1.00  0.00     0.188 C 
BRANCH  18  19
ATOM     19  C   UNL A   1      32.593  30.229  26.609  1.00  0.00     0.188 C 
BRANCH  19  20
ATOM     20  O   UNL A   1      31.791  31.248  26.020  1.00  0.00    -0.376 OA
BRANCH  20  21
ATOM     21  C   UNL A   1      31.420  32.312  26.912  1.00  0.00     0.202 C 
BRANCH  21  22
ATOM     22  C   UNL A   1      32.544  33.297  27.295  1.00  0.00     0.261 C 
BRANCH  22  23
ATOM     23  O   UNL A   1      32.159  34.286  28.275  1.00  0.00    -0.460 OA
BRANCH  23  24
ATOM     24  C   UNL A   1      33.077  35.225  28.605  1.00  0.00     0.338 C 
ATOM     25  O   UNL A   1      32.933  36.435  28.545  1.00  0.00    -0.246 OA
BRANCH  24  26
ATOM     26  C   UNL A   1      34.203  34.555  29.309  1.00  0.00     0.060 A 
ATOM     27  C   UNL A   1      35.486  34.653  28.750  1.00  0.00     0.016 A 
ATOM     28  C   UNL A   1      34.029  33.900  30.533  1.00  0.00     0.016 A 
ATOM     29  C   UNL A   1      36.582  34.067  29.389  1.00  0.00     0.010 A 
ATOM     30  C   UNL A   1      35.126  33.308  31.170  1.00  0.00     0.010 A 
ATOM     31  C   UNL A   1      36.405  33.362  30.587  1.00  0.00    -0.014 A 
BRANCH  31  32
ATOM     32  C   UNL A   1      37.512  32.538  31.141  1.00  0.00     0.031 A 
ATOM     33  C   UNL A   1      38.026  32.858  32.519  1.00  0.00     0.074 A 
ATOM     34  C   UNL A   1      38.049  31.513  30.454  1.00  0.00     0.049 A 
ATOM     35  N   UNL A   1      39.002  32.306  33.195  1.00  0.00    -0.248 NA
ATOM     36  C   UNL A   1      37.345  33.952  33.230  1.00  0.00     0.031 C 
ATOM     37  C   UNL A   1      37.628  31.068  29.128  1.00  0.00     0.029 A 
ATOM     38  N   UNL A   1      39.077  30.663  30.784  1.00  0.00    -0.354 N 
ATOM     39  C   UNL A   1      39.051  32.982  34.406  1.00  0.00     0.074 A 
ATOM     40  C   UNL A   1      38.032  34.008  34.360  1.00  0.00     0.031 C 
ATOM     41  C   UNL A   1      38.398  30.031  28.753  1.00  0.00     0.029 A 
ATOM     42  C   UNL A   1      39.386  29.759  29.797  1.00  0.00     0.049 A 
ATOM     43  H   UNL A   1      39.547  30.698  31.648  1.00  0.00     0.167 HD
ATOM     44  C   UNL A   1      39.865  32.765  35.466  1.00  0.00     0.037 A 
ATOM     45  C   UNL A   1      40.366  28.834  29.736  1.00  0.00     0.037 A 
ATOM     46  C   UNL A   1      40.883  31.750  35.521  1.00  0.00     0.049 A 
ATOM     47  C   UNL A   1      41.314  28.667  30.898  1.00  0.00     0.074 A 
ATOM     48  C   UNL A   1      41.741  31.447  36.564  1.00  0.00     0.029 A 
ATOM     49  N   UNL A   1      41.190  30.881  34.486  1.00  0.00    -0.354 N 
ATOM     50  N   UNL A   1      41.333  29.290  32.052  1.00  0.00    -0.248 NA
ATOM     51  C   UNL A   1      42.380  27.664  30.747  1.00  0.00     0.031 C 
ATOM     52  C   UNL A   1      42.603  30.431  36.141  1.00  0.00     0.029 A 
ATOM     53  C   UNL A   1      42.245  30.061  34.856  1.00  0.00     0.049 A 
ATOM     54  H   UNL A   1      40.727  30.851  33.617  1.00  0.00     0.167 HD
ATOM     55  C   UNL A   1      42.385  28.734  32.771  1.00  0.00     0.074 A 
ATOM     56  C   UNL A   1      42.976  27.716  31.931  1.00  0.00     0.031 C 
ATOM     57  C   UNL A   1      42.821  29.041  34.018  1.00  0.00     0.037 A 
BRANCH  44  58
ATOM     58  C   UNL A   1      39.701  33.663  36.656  1.00  0.00     0.064 A 
ATOM     59  C   UNL A   1      40.335  34.913  36.729  1.00  0.00     0.173 A 
ATOM     60  C   UNL A   1      38.873  33.283  37.722  1.00  0.00     0.173 A 
ATOM     61  F   UNL A   1      41.151  35.314  35.742  1.00  0.00    -0.203 F 
ATOM     62  C   UNL A   1      40.162  35.739  37.834  1.00  0.00     0.198 A 
ATOM     63  C   UNL A   1      38.679  34.125  38.814  1.00  0.00     0.198 A 
ATOM     64  F   UNL A   1      38.243  32.098  37.701  1.00  0.00    -0.203 F 
ATOM     65  F   UNL A   1      40.812  36.909  37.904  1.00  0.00    -0.200 F 
ATOM     66  C   UNL A   1      39.329  35.348  38.873  1.00  0.00     0.200 A 
ATOM     67  F   UNL A   1      37.865  33.750  39.810  1.00  0.00    -0.200 F 
ATOM     68  F   UNL A   1      39.156  36.149  39.933  1.00  0.00    -0.200 F 
ENDBRANCH  44  58
BRANCH  45  69
ATOM     69  C   UNL A   1      40.525  27.995  28.518  1.00  0.00     0.064 A 
ATOM     70  C   UNL A   1      39.941  26.722  28.432  1.00  0.00     0.173 A 
ATOM     71  C   UNL A   1      41.304  28.428  27.435  1.00  0.00     0.173 A 
ATOM     72  F   UNL A   1      39.216  26.249  29.457  1.00  0.00    -0.203 F 
ATOM     73  C   UNL A   1      40.147  25.908  27.320  1.00  0.00     0.198 A 
ATOM     74  C   UNL A   1      41.485  27.625  26.311  1.00  0.00     0.198 A 
ATOM     75  F   UNL A   1      41.893  29.632  27.471  1.00  0.00    -0.203 F 
ATOM     76  F   UNL A   1      39.625  24.675  27.290  1.00  0.00    -0.200 F 
ATOM     77  C   UNL A   1      40.914  26.362  26.258  1.00  0.00     0.200 A 
ATOM     78  F   UNL A   1      42.223  28.070  25.284  1.00  0.00    -0.200 F 
ATOM     79  F   UNL A   1      41.117  25.578  25.191  1.00  0.00    -0.200 F 
ENDBRANCH  45  69
BRANCH  57  80
ATOM     80  C   UNL A   1      43.967  28.242  34.575  1.00  0.00     0.064 A 
ATOM     81  C   UNL A   1      43.759  27.080  35.331  1.00  0.00     0.173 A 
ATOM     82  C   UNL A   1      45.292  28.619  34.304  1.00  0.00     0.173 A 
ATOM     83  F   UNL A   1      42.513  26.681  35.629  1.00  0.00    -0.203 F 
ATOM     84  C   UNL A   1      44.835  26.338  35.817  1.00  0.00     0.198 A 
ATOM     85  C   UNL A   1      46.364  27.859  34.765  1.00  0.00     0.198 A 
ATOM     86  F   UNL A   1      45.547  29.717  33.577  1.00  0.00    -0.203 F 
ATOM     87  F   UNL A   1      44.612  25.257  36.576  1.00  0.00    -0.200 F 
ATOM     88  C   UNL A   1      46.135  26.724  35.527  1.00  0.00     0.200 A 
ATOM     89  F   UNL A   1      47.619  28.224  34.469  1.00  0.00    -0.200 F 
ATOM     90  F   UNL A   1      47.167  26.003  35.987  1.00  0.00    -0.200 F 
ENDBRANCH  57  80
ENDBRANCH  31  32
ENDBRANCH  24  26
ENDBRANCH  23  24
ENDBRANCH  22  23
ENDBRANCH  21  22
ENDBRANCH  20  21
ENDBRANCH  19  20
ENDBRANCH  18  19
ENDBRANCH   1  18
TORSDOF 22
ENDMDL
MODEL 3
REMARK VINA RESULT:      -9.1      6.591     11.851
REMARK SMILES CCCCCC(=O)N[C@H](C)C(=O)OCCOCCOCCOC(=O)c1ccc(-c2c3nc(c(-c4c(F)c(F)c(F)c(F)c4F)c4ccc([nH]4)c(-c4c(F)c(F)c(F)c(F)c4F)c4nc(c(-c5c(F)c(F)c(F)c(F)c5F)c5ccc2[nH]5)C=C4)C=C3)cc1
REMARK SMILES IDX 16 1 15 2 14 3 13 4 11 5 12 6 9 7 10 8 8 9 6 10 7 11 5 13
REMARK SMILES IDX 4 14 3 15 2 16 1 17 17 18 18 19 19 20 20 21 21 22 22 23
REMARK SMILES IDX 23 24 24 25 25 26 26 27 87 28 27 29 86 30 28 31 29 32 30 33
REMARK SMILES IDX 80 34 31 35 85 36 79 37 81 38 32 39 84 40 78 41 77 42 33 44
REMARK SMILES IDX 65 45 45 46 64 47 46 48 49 49 63 50 82 51 47 52 48 53 62 55
REMARK SMILES IDX 83 56 50 57 34 58 35 59 43 60 36 61 37 62 41 63 44 64 38 65
REMARK SMILES IDX 39 66 42 67 40 68 66 69 67 70 75 71 68 72 69 73 73 74 76 75
REMARK SMILES IDX 70 76 71 77 74 78 72 79 51 80 52 81 60 82 53 83 54 84 58 85
REMARK SMILES IDX 61 86 55 87 56 88 59 89 57 90
REMARK H PARENT 8 12 81 43 49 54
REMARK Flexibility Score: inf
ROOT
ATOM      1  O   UNL A   1      32.336  27.753  27.134  1.00  0.00    -0.376 OA
ENDROOT
BRANCH   1   2
ATOM      2  C   UNL A   1      33.614  27.630  26.503  1.00  0.00     0.202 C 
BRANCH   2   3
ATOM      3  C   UNL A   1      33.621  26.778  25.227  1.00  0.00     0.261 C 
BRANCH   3   4
ATOM      4  O   UNL A   1      33.608  27.630  24.073  1.00  0.00    -0.462 OA
BRANCH   4   5
ATOM      5  C   UNL A   1      32.418  27.943  23.489  1.00  0.00     0.328 C 
ATOM      6  O   UNL A   1      32.091  29.062  23.112  1.00  0.00    -0.250 OA
BRANCH   5   7
ATOM      7  C   UNL A   1      31.567  26.665  23.243  1.00  0.00     0.189 C 
ATOM      8  C   UNL A   1      30.094  26.952  23.492  1.00  0.00     0.043 C 
BRANCH   7   9
ATOM      9  N   UNL A   1      31.908  26.092  21.935  1.00  0.00    -0.343 N 
ATOM     10  C   UNL A   1      32.813  25.151  21.554  1.00  0.00     0.220 C 
ATOM     11  O   UNL A   1      33.275  25.254  20.412  1.00  0.00    -0.275 OA
ATOM     12  H   UNL A   1      31.379  26.460  21.191  1.00  0.00     0.164 HD
BRANCH  10  13
ATOM     13  C   UNL A   1      33.188  23.948  22.408  1.00  0.00     0.100 C 
BRANCH  13  14
ATOM     14  C   UNL A   1      34.456  24.062  23.260  1.00  0.00     0.010 C 
BRANCH  14  15
ATOM     15  C   UNL A   1      35.506  22.952  23.125  1.00  0.00     0.000 C 
BRANCH  15  16
ATOM     16  C   UNL A   1      35.745  22.098  24.380  1.00  0.00    -0.003 C 
ATOM     17  C   UNL A   1      34.841  22.436  25.553  1.00  0.00     0.004 C 
ENDBRANCH  15  16
ENDBRANCH  14  15
ENDBRANCH  13  14
ENDBRANCH  10  13
ENDBRANCH   7   9
ENDBRANCH   5   7
ENDBRANCH   4   5
ENDBRANCH   3   4
ENDBRANCH   2   3
ENDBRANCH   1   2
BRANCH   1  18
ATOM     18  C   UNL A   1      31.793  29.064  27.235  1.00  0.00     0.188 C 
BRANCH  18  19
ATOM     19  C   UNL A   1      32.562  30.166  26.507  1.00  0.00     0.188 C 
BRANCH  19  20
ATOM     20  O   UNL A   1      31.754  31.202  25.957  1.00  0.00    -0.376 OA
BRANCH  20  21
ATOM     21  C   UNL A   1      31.403  32.246  26.879  1.00  0.00     0.202 C 
BRANCH  21  22
ATOM     22  C   UNL A   1      32.534  33.227  27.253  1.00  0.00     0.261 C 
BRANCH  22  23
ATOM     23  O   UNL A   1      32.165  34.211  28.245  1.00  0.00    -0.460 OA
BRANCH  23  24
ATOM     24  C   UNL A   1      33.088  35.148  28.566  1.00  0.00     0.338 C 
ATOM     25  O   UNL A   1      32.955  36.358  28.483  1.00  0.00    -0.246 OA
BRANCH  24  26
ATOM     26  C   UNL A   1      34.203  34.482  29.291  1.00  0.00     0.060 A 
ATOM     27  C   UNL A   1      35.494  34.577  28.752  1.00  0.00     0.016 A 
ATOM     28  C   UNL A   1      34.009  33.833  30.515  1.00  0.00     0.016 A 
ATOM     29  C   UNL A   1      36.580  33.995  29.412  1.00  0.00     0.010 A 
ATOM     30  C   UNL A   1      35.096  33.244  31.172  1.00  0.00     0.010 A 
ATOM     31  C   UNL A   1      36.384  33.295  30.610  1.00  0.00    -0.014 A 
BRANCH  31  32
ATOM     32  C   UNL A   1      37.482  32.475  31.186  1.00  0.00     0.031 A 
ATOM     33  C   UNL A   1      37.976  32.804  32.569  1.00  0.00     0.074 A 
ATOM     34  C   UNL A   1      38.028  31.444  30.514  1.00  0.00     0.049 A 
ATOM     35  N   UNL A   1      38.941  32.255  33.263  1.00  0.00    -0.248 NA
ATOM     36  C   UNL A   1      37.286  33.903  33.263  1.00  0.00     0.031 C 
ATOM     37  C   UNL A   1      37.626  30.991  29.185  1.00  0.00     0.029 A 
ATOM     38  N   UNL A   1      39.050  30.595  30.866  1.00  0.00    -0.354 N 
ATOM     39  C   UNL A   1      38.974  32.940  34.470  1.00  0.00     0.074 A 
ATOM     40  C   UNL A   1      37.956  33.966  34.403  1.00  0.00     0.031 C 
ATOM     41  C   UNL A   1      38.401  29.950  28.828  1.00  0.00     0.029 A 
ATOM     42  C   UNL A   1      39.373  29.685  29.889  1.00  0.00     0.049 A 
ATOM     43  H   UNL A   1      39.508  30.636  31.736  1.00  0.00     0.167 HD
ATOM     44  C   UNL A   1      39.771  32.729  35.544  1.00  0.00     0.037 A 
ATOM     45  C   UNL A   1      40.353  28.759  29.849  1.00  0.00     0.037 A 
ATOM     46  C   UNL A   1      40.788  31.714  35.621  1.00  0.00     0.049 A 
ATOM     47  C   UNL A   1      41.284  28.599  31.026  1.00  0.00     0.074 A 
ATOM     48  C   UNL A   1      41.631  31.418  36.678  1.00  0.00     0.029 A 
ATOM     49  N   UNL A   1      41.109  30.838  34.596  1.00  0.00    -0.354 N 
ATOM     50  N   UNL A   1      41.287  29.230  32.176  1.00  0.00    -0.248 NA
ATOM     51  C   UNL A   1      42.351  27.594  30.897  1.00  0.00     0.031 C 
ATOM     52  C   UNL A   1      42.498  30.398  36.275  1.00  0.00     0.029 A 
ATOM     53  C   UNL A   1      42.158  30.020  34.987  1.00  0.00     0.049 A 
ATOM     54  H   UNL A   1      40.659  30.803  33.721  1.00  0.00     0.167 HD
ATOM     55  C   UNL A   1      42.328  28.679  32.914  1.00  0.00     0.074 A 
ATOM     56  C   UNL A   1      42.930  27.654  32.089  1.00  0.00     0.031 C 
ATOM     57  C   UNL A   1      42.746  28.993  34.165  1.00  0.00     0.037 A 
BRANCH  44  58
ATOM     58  C   UNL A   1      39.591  33.636  36.725  1.00  0.00     0.064 A 
ATOM     59  C   UNL A   1      38.759  33.289  37.800  1.00  0.00     0.173 A 
ATOM     60  C   UNL A   1      40.287  34.852  36.798  1.00  0.00     0.173 A 
ATOM     61  F   UNL A   1      38.059  32.145  37.770  1.00  0.00    -0.203 F 
ATOM     62  C   UNL A   1      38.615  34.137  38.895  1.00  0.00     0.198 A 
ATOM     63  C   UNL A   1      40.162  35.683  37.907  1.00  0.00     0.198 A 
ATOM     64  F   UNL A   1      41.097  35.229  35.796  1.00  0.00    -0.203 F 
ATOM     65  F   UNL A   1      37.780  33.807  39.890  1.00  0.00    -0.200 F 
ATOM     66  C   UNL A   1      39.321  35.329  38.950  1.00  0.00     0.200 A 
ATOM     67  F   UNL A   1      40.855  36.829  37.963  1.00  0.00    -0.200 F 
ATOM     68  F   UNL A   1      39.188  36.140  40.009  1.00  0.00    -0.200 F 
ENDBRANCH  44  58
BRANCH  45  69
ATOM     69  C   UNL A   1      40.529  27.911  28.639  1.00  0.00     0.064 A 
ATOM     70  C   UNL A   1      41.300  28.349  27.552  1.00  0.00     0.173 A 
ATOM     71  C   UNL A   1      39.891  26.667  28.526  1.00  0.00     0.173 A 
ATOM     72  F   UNL A   1      41.901  29.547  27.598  1.00  0.00    -0.203 F 
ATOM     73  C   UNL A   1      41.408  27.584  26.391  1.00  0.00     0.198 A 
ATOM     74  C   UNL A   1      40.024  25.890  27.377  1.00  0.00     0.198 A 
ATOM     75  F   UNL A   1      39.134  26.207  29.533  1.00  0.00    -0.203 F 
ATOM     76  F   UNL A   1      42.103  28.053  25.346  1.00  0.00    -0.200 F 
ATOM     77  C   UNL A   1      40.775  26.354  26.307  1.00  0.00     0.200 A 
ATOM     78  F   UNL A   1      39.415  24.699  27.301  1.00  0.00    -0.200 F 
ATOM     79  F   UNL A   1      40.875  25.621  25.189  1.00  0.00    -0.200 F 
ENDBRANCH  45  69
BRANCH  57  80
ATOM     80  C   UNL A   1      43.882  28.198  34.744  1.00  0.00     0.064 A 
ATOM     81  C   UNL A   1      45.214  28.622  34.631  1.00  0.00     0.173 A 
ATOM     82  C   UNL A   1      43.629  27.020  35.464  1.00  0.00     0.173 A 
ATOM     83  F   UNL A   1      45.513  29.734  33.943  1.00  0.00    -0.203 F 
ATOM     84  C   UNL A   1      46.253  27.884  35.197  1.00  0.00     0.198 A 
ATOM     85  C   UNL A   1      44.666  26.301  36.054  1.00  0.00     0.198 A 
ATOM     86  F   UNL A   1      42.373  26.574  35.611  1.00  0.00    -0.203 F 
ATOM     87  F   UNL A   1      47.521  28.285  35.037  1.00  0.00    -0.200 F 
ATOM     88  C   UNL A   1      45.977  26.730  35.914  1.00  0.00     0.200 A 
ATOM     89  F   UNL A   1      44.396  25.195  36.761  1.00  0.00    -0.200 F 
ATOM     90  F   UNL A   1      46.977  26.027  36.465  1.00  0.00    -0.200 F 
ENDBRANCH  57  80
ENDBRANCH  31  32
ENDBRANCH  24  26
ENDBRANCH  23  24
ENDBRANCH  22  23
ENDBRANCH  21  22
ENDBRANCH  20  21
ENDBRANCH  19  20
ENDBRANCH  18  19
ENDBRANCH   1  18
TORSDOF 22
ENDMDL
