MODEL 1
REMARK VINA RESULT:     -11.0      0.000      0.000
REMARK SMILES CO[C@H]1C[C@H](C(=O)OCCOCCOCCOC(=O)c2ccc(-c3c4nc(c(-c5c(F)c(F)c(F)c(F)c5F)c5ccc([nH]5)c(-c5c(F)c(F)c(F)c(F)c5F)c5nc(c(-c6c(F)c(F)c(F)c(F)c6F)c6ccc3[nH]6)C=C5)C=C4)cc2)N(C(=O)[C@H]2C=C[C@@H]([NH3+])C2)C1
REMARK SMILES IDX 12 1 11 2 10 3 9 4 8 5 6 6 7 7 5 8 3 9 4 10 92 11 83 12 2 13
REMARK SMILES IDX 1 14 84 15 85 16 86 17 87 18 91 19 88 20 89 21 90 22 13 26
REMARK SMILES IDX 14 27 15 28 16 29 17 30 18 31 19 32 20 33 21 34 82 35 22 36
REMARK SMILES IDX 81 37 23 38 24 39 25 40 75 41 26 42 80 43 74 44 76 45 27 46
REMARK SMILES IDX 79 47 73 48 72 49 28 51 60 52 40 53 59 54 41 55 44 56 58 57
REMARK SMILES IDX 77 58 42 59 43 60 57 62 78 63 45 64 29 65 30 66 38 67 31 68
REMARK SMILES IDX 32 69 36 70 39 71 33 72 34 73 37 74 35 75 61 76 62 77 70 78
REMARK SMILES IDX 63 79 64 80 68 81 71 82 65 83 66 84 69 85 67 86 46 87 47 88
REMARK SMILES IDX 55 89 48 90 49 91 53 92 56 93 50 94 51 95 54 96 52 97
REMARK H PARENT 90 23 90 24 90 25 76 50 44 61
REMARK Flexibility Score: inf
ROOT
ATOM      1  C   UNL A   1      32.946  29.260  24.078  1.00  0.00     0.188 C 
ENDROOT
BRANCH   1   2
ATOM      2  O   UNL A   1      34.025  28.386  23.825  1.00  0.00    -0.376 OA
BRANCH   2   3
ATOM      3  C   UNL A   1      33.784  26.983  23.883  1.00  0.00     0.202 C 
BRANCH   3   4
ATOM      4  C   UNL A   1      33.685  26.156  22.587  1.00  0.00     0.261 C 
BRANCH   4   5
ATOM      5  O   UNL A   1      32.594  25.216  22.583  1.00  0.00    -0.462 OA
BRANCH   5   6
ATOM      6  C   UNL A   1      31.354  25.753  22.469  1.00  0.00     0.329 C 
ATOM      7  O   UNL A   1      31.084  26.658  21.688  1.00  0.00    -0.250 OA
BRANCH   6   8
ATOM      8  C   UNL A   1      30.295  24.999  23.312  1.00  0.00     0.197 C 
ATOM      9  C   UNL A   1      31.295  24.923  25.504  1.00  0.00     0.140 C 
ATOM     10  C   UNL A   1      30.794  24.027  24.374  1.00  0.00     0.071 C 
ATOM     11  C   UNL A   1      30.398  26.169  25.379  1.00  0.00     0.152 C 
ATOM     12  N   UNL A   1      29.619  25.978  24.152  1.00  0.00    -0.326 N 
BRANCH   9  13
ATOM     13  O   UNL A   1      31.161  24.324  26.792  1.00  0.00    -0.380 OA
ATOM     14  C   UNL A   1      30.104  23.376  26.895  1.00  0.00     0.195 C 
ENDBRANCH   9  13
BRANCH  12  15
ATOM     15  C   UNL A   1      28.516  26.748  23.883  1.00  0.00     0.230 C 
ATOM     16  O   UNL A   1      27.403  26.376  24.277  1.00  0.00    -0.274 OA
BRANCH  15  17
ATOM     17  C   UNL A   1      28.600  28.055  23.065  1.00  0.00     0.107 C 
ATOM     18  C   UNL A   1      27.362  28.898  23.014  1.00  0.00    -0.012 C 
ATOM     19  C   UNL A   1      29.679  29.064  23.483  1.00  0.00     0.087 C 
ATOM     20  C   UNL A   1      27.651  30.205  23.022  1.00  0.00     0.033 C 
ATOM     21  C   UNL A   1      29.125  30.437  23.058  1.00  0.00     0.205 C 
BRANCH  21  22
ATOM     22  N   UNL A   1      29.483  31.501  23.975  1.00  0.00    -0.352 N 
ATOM     23  H   UNL A   1      30.499  31.560  24.050  1.00  0.00     0.345 HD
ATOM     24  H   UNL A   1      29.085  31.306  24.895  1.00  0.00     0.345 HD
ATOM     25  H   UNL A   1      29.116  32.387  23.627  1.00  0.00     0.345 HD
ENDBRANCH  21  22
ENDBRANCH  15  17
ENDBRANCH  12  15
ENDBRANCH   6   8
ENDBRANCH   5   6
ENDBRANCH   4   5
ENDBRANCH   3   4
ENDBRANCH   2   3
ENDBRANCH   1   2
BRANCH   1  26
ATOM     26  C   UNL A   1      32.621  29.618  25.527  1.00  0.00     0.188 C 
BRANCH  26  27
ATOM     27  O   UNL A   1      31.784  30.716  25.797  1.00  0.00    -0.376 OA
BRANCH  27  28
ATOM     28  C   UNL A   1      31.878  31.493  26.983  1.00  0.00     0.202 C 
BRANCH  28  29
ATOM     29  C   UNL A   1      31.891  33.037  27.070  1.00  0.00     0.261 C 
BRANCH  29  30
ATOM     30  O   UNL A   1      33.143  33.708  27.235  1.00  0.00    -0.460 OA
BRANCH  30  31
ATOM     31  C   UNL A   1      33.527  33.955  28.509  1.00  0.00     0.338 C 
ATOM     32  O   UNL A   1      32.860  34.490  29.383  1.00  0.00    -0.246 OA
BRANCH  31  33
ATOM     33  C   UNL A   1      34.780  33.196  28.764  1.00  0.00     0.060 A 
ATOM     34  C   UNL A   1      34.665  31.830  29.068  1.00  0.00     0.016 A 
ATOM     35  C   UNL A   1      36.043  33.779  28.627  1.00  0.00     0.016 A 
ATOM     36  C   UNL A   1      35.804  31.062  29.312  1.00  0.00     0.010 A 
ATOM     37  C   UNL A   1      37.185  33.015  28.900  1.00  0.00     0.010 A 
ATOM     38  C   UNL A   1      37.066  31.669  29.297  1.00  0.00    -0.014 A 
BRANCH  38  39
ATOM     39  C   UNL A   1      38.198  30.976  29.965  1.00  0.00     0.031 A 
ATOM     40  C   UNL A   1      38.444  31.284  31.420  1.00  0.00     0.074 A 
ATOM     41  C   UNL A   1      38.951  30.054  29.341  1.00  0.00     0.049 A 
ATOM     42  N   UNL A   1      39.360  30.819  32.231  1.00  0.00    -0.248 NA
ATOM     43  C   UNL A   1      37.525  32.250  32.044  1.00  0.00     0.031 C 
ATOM     44  C   UNL A   1      38.785  29.623  27.957  1.00  0.00     0.029 A 
ATOM     45  N   UNL A   1      40.009  29.309  29.803  1.00  0.00    -0.354 N 
ATOM     46  C   UNL A   1      39.131  31.442  33.451  1.00  0.00     0.074 A 
ATOM     47  C   UNL A   1      38.019  32.347  33.266  1.00  0.00     0.031 C 
ATOM     48  C   UNL A   1      39.710  28.686  27.680  1.00  0.00     0.029 A 
ATOM     49  C   UNL A   1      40.553  28.477  28.856  1.00  0.00     0.049 A 
ATOM     50  H   UNL A   1      40.344  29.365  30.727  1.00  0.00     0.167 HD
ATOM     51  C   UNL A   1      39.779  31.267  34.628  1.00  0.00     0.037 A 
ATOM     52  C   UNL A   1      41.619  27.655  28.929  1.00  0.00     0.037 A 
ATOM     53  C   UNL A   1      40.886  30.367  34.815  1.00  0.00     0.049 A 
ATOM     54  C   UNL A   1      42.376  27.537  30.230  1.00  0.00     0.074 A 
ATOM     55  C   UNL A   1      41.602  30.113  35.971  1.00  0.00     0.029 A 
ATOM     56  N   UNL A   1      41.441  29.579  33.818  1.00  0.00    -0.354 N 
ATOM     57  N   UNL A   1      42.144  28.114  31.384  1.00  0.00    -0.248 NA
ATOM     58  C   UNL A   1      43.543  26.642  30.237  1.00  0.00     0.031 C 
ATOM     59  C   UNL A   1      42.632  29.220  35.658  1.00  0.00     0.029 A 
ATOM     60  C   UNL A   1      42.513  28.862  34.325  1.00  0.00     0.049 A 
ATOM     61  H   UNL A   1      41.122  29.537  32.888  1.00  0.00     0.167 HD
ATOM     62  C   UNL A   1      43.111  27.630  32.258  1.00  0.00     0.074 A 
ATOM     63  C   UNL A   1      43.919  26.695  31.507  1.00  0.00     0.031 C 
ATOM     64  C   UNL A   1      43.312  27.933  33.566  1.00  0.00     0.037 A 
BRANCH  51  65
ATOM     65  C   UNL A   1      39.326  32.098  35.794  1.00  0.00     0.064 A 
ATOM     66  C   UNL A   1      38.384  31.626  36.721  1.00  0.00     0.173 A 
ATOM     67  C   UNL A   1      39.857  33.381  35.995  1.00  0.00     0.173 A 
ATOM     68  F   UNL A   1      37.830  30.414  36.564  1.00  0.00    -0.203 F 
ATOM     69  C   UNL A   1      37.968  32.420  37.787  1.00  0.00     0.198 A 
ATOM     70  C   UNL A   1      39.466  34.157  37.082  1.00  0.00     0.198 A 
ATOM     71  F   UNL A   1      40.760  33.882  35.138  1.00  0.00    -0.203 F 
ATOM     72  F   UNL A   1      37.024  31.971  38.625  1.00  0.00    -0.200 F 
ATOM     73  C   UNL A   1      38.515  33.681  37.972  1.00  0.00     0.200 A 
ATOM     74  F   UNL A   1      40.005  35.370  37.265  1.00  0.00    -0.200 F 
ATOM     75  F   UNL A   1      38.120  34.440  39.002  1.00  0.00    -0.200 F 
ENDBRANCH  51  65
BRANCH  52  76
ATOM     76  C   UNL A   1      42.055  26.883  27.732  1.00  0.00     0.064 A 
ATOM     77  C   UNL A   1      41.578  25.587  27.488  1.00  0.00     0.173 A 
ATOM     78  C   UNL A   1      42.994  27.410  26.832  1.00  0.00     0.173 A 
ATOM     79  F   UNL A   1      40.704  25.024  28.335  1.00  0.00    -0.203 F 
ATOM     80  C   UNL A   1      42.041  24.840  26.406  1.00  0.00     0.198 A 
ATOM     81  C   UNL A   1      43.431  26.674  25.732  1.00  0.00     0.198 A 
ATOM     82  F   UNL A   1      43.490  28.642  27.022  1.00  0.00    -0.203 F 
ATOM     83  F   UNL A   1      41.615  23.581  26.232  1.00  0.00    -0.200 F 
ATOM     84  C   UNL A   1      42.962  25.386  25.526  1.00  0.00     0.200 A 
ATOM     85  F   UNL A   1      44.313  27.211  24.878  1.00  0.00    -0.200 F 
ATOM     86  F   UNL A   1      43.409  24.667  24.487  1.00  0.00    -0.200 F 
ENDBRANCH  52  76
BRANCH  64  87
ATOM     87  C   UNL A   1      44.427  27.216  34.278  1.00  0.00     0.064 A 
ATOM     88  C   UNL A   1      45.686  27.806  34.471  1.00  0.00     0.173 A 
ATOM     89  C   UNL A   1      44.230  25.921  34.787  1.00  0.00     0.173 A 
ATOM     90  F   UNL A   1      45.934  29.038  33.998  1.00  0.00    -0.203 F 
ATOM     91  C   UNL A   1      46.716  27.113  35.103  1.00  0.00     0.198 A 
ATOM     92  C   UNL A   1      45.249  25.246  35.453  1.00  0.00     0.198 A 
ATOM     93  F   UNL A   1      43.043  25.312  34.644  1.00  0.00    -0.203 F 
ATOM     94  F   UNL A   1      47.929  27.672  35.212  1.00  0.00    -0.200 F 
ATOM     95  C   UNL A   1      46.495  25.836  35.598  1.00  0.00     0.200 A 
ATOM     96  F   UNL A   1      45.027  24.022  35.949  1.00  0.00    -0.200 F 
ATOM     97  F   UNL A   1      47.487  25.171  36.206  1.00  0.00    -0.200 F 
ENDBRANCH  64  87
ENDBRANCH  38  39
ENDBRANCH  31  33
ENDBRANCH  30  31
ENDBRANCH  29  30
ENDBRANCH  28  29
ENDBRANCH  27  28
ENDBRANCH  26  27
ENDBRANCH   1  26
TORSDOF 21
ENDMDL
MODEL 2
REMARK VINA RESULT:     -10.7      3.759      9.181
REMARK SMILES CO[C@H]1C[C@H](C(=O)OCCOCCOCCOC(=O)c2ccc(-c3c4nc(c(-c5c(F)c(F)c(F)c(F)c5F)c5ccc([nH]5)c(-c5c(F)c(F)c(F)c(F)c5F)c5nc(c(-c6c(F)c(F)c(F)c(F)c6F)c6ccc3[nH]6)C=C5)C=C4)cc2)N(C(=O)[C@H]2C=C[C@@H]([NH3+])C2)C1
REMARK SMILES IDX 12 1 11 2 10 3 9 4 8 5 6 6 7 7 5 8 3 9 4 10 92 11 83 12 2 13
REMARK SMILES IDX 1 14 84 15 85 16 86 17 87 18 91 19 88 20 89 21 90 22 13 26
REMARK SMILES IDX 14 27 15 28 16 29 17 30 18 31 19 32 20 33 21 34 82 35 22 36
REMARK SMILES IDX 81 37 23 38 24 39 25 40 75 41 26 42 80 43 74 44 76 45 27 46
REMARK SMILES IDX 79 47 73 48 72 49 28 51 60 52 40 53 59 54 41 55 44 56 58 57
REMARK SMILES IDX 77 58 42 59 43 60 57 62 78 63 45 64 29 65 30 66 38 67 31 68
REMARK SMILES IDX 32 69 36 70 39 71 33 72 34 73 37 74 35 75 61 76 62 77 70 78
REMARK SMILES IDX 63 79 64 80 68 81 71 82 65 83 66 84 69 85 67 86 46 87 47 88
REMARK SMILES IDX 55 89 48 90 49 91 53 92 56 93 50 94 51 95 54 96 52 97
REMARK H PARENT 90 23 90 24 90 25 76 50 44 61
REMARK Flexibility Score: inf
ROOT
ATOM      1  C   UNL A   1      40.205  21.988  27.017  1.00  0.00     0.188 C 
ENDROOT
BRANCH   1   2
ATOM      2  O   UNL A   1      39.110  22.466  26.266  1.00  0.00    -0.376 OA
BRANCH   2   3
ATOM      3  C   UNL A   1      38.335  21.524  25.528  1.00  0.00     0.202 C 
BRANCH   3   4
ATOM      4  C   UNL A   1      36.798  21.534  25.627  1.00  0.00     0.261 C 
BRANCH   4   5
ATOM      5  O   UNL A   1      36.136  21.568  24.348  1.00  0.00    -0.462 OA
BRANCH   5   6
ATOM      6  C   UNL A   1      35.743  22.793  23.920  1.00  0.00     0.329 C 
ATOM      7  O   UNL A   1      36.111  23.282  22.858  1.00  0.00    -0.250 OA
BRANCH   6   8
ATOM      8  C   UNL A   1      34.667  23.431  24.835  1.00  0.00     0.197 C 
ATOM      9  C   UNL A   1      33.521  24.948  23.355  1.00  0.00     0.140 C 
ATOM     10  C   UNL A   1      34.351  24.908  24.636  1.00  0.00     0.071 C 
ATOM     11  C   UNL A   1      32.807  23.584  23.362  1.00  0.00     0.152 C 
ATOM     12  N   UNL A   1      33.383  22.839  24.486  1.00  0.00    -0.326 N 
BRANCH   9  13
ATOM     13  O   UNL A   1      32.577  26.018  23.336  1.00  0.00    -0.380 OA
ATOM     14  C   UNL A   1      31.628  25.987  24.396  1.00  0.00     0.195 C 
ENDBRANCH   9  13
BRANCH  12  15
ATOM     15  C   UNL A   1      32.785  21.702  24.967  1.00  0.00     0.230 C 
ATOM     16  O   UNL A   1      31.871  21.800  25.796  1.00  0.00    -0.274 OA
BRANCH  15  17
ATOM     17  C   UNL A   1      33.235  20.288  24.543  1.00  0.00     0.107 C 
ATOM     18  C   UNL A   1      32.740  19.144  25.376  1.00  0.00    -0.012 C 
ATOM     19  C   UNL A   1      32.875  19.847  23.117  1.00  0.00     0.087 C 
ATOM     20  C   UNL A   1      32.477  18.064  24.631  1.00  0.00     0.033 C 
ATOM     21  C   UNL A   1      32.774  18.311  23.190  1.00  0.00     0.205 C 
BRANCH  21  22
ATOM     22  N   UNL A   1      31.744  17.769  22.325  1.00  0.00    -0.352 N 
ATOM     23  H   UNL A   1      31.541  16.807  22.598  1.00  0.00     0.345 HD
ATOM     24  H   UNL A   1      32.069  17.786  21.357  1.00  0.00     0.345 HD
ATOM     25  H   UNL A   1      30.898  18.332  22.410  1.00  0.00     0.345 HD
ENDBRANCH  21  22
ENDBRANCH  15  17
ENDBRANCH  12  15
ENDBRANCH   6   8
ENDBRANCH   5   6
ENDBRANCH   4   5
ENDBRANCH   3   4
ENDBRANCH   2   3
ENDBRANCH   1   2
BRANCH   1  26
ATOM     26  C   UNL A   1      41.078  20.887  26.415  1.00  0.00     0.188 C 
BRANCH  26  27
ATOM     27  O   UNL A   1      42.470  20.920  26.621  1.00  0.00    -0.376 OA
BRANCH  27  28
ATOM     28  C   UNL A   1      43.414  20.865  25.560  1.00  0.00     0.202 C 
BRANCH  28  29
ATOM     29  C   UNL A   1      44.165  22.064  24.936  1.00  0.00     0.261 C 
BRANCH  29  30
ATOM     30  O   UNL A   1      43.472  23.305  24.780  1.00  0.00    -0.460 OA
BRANCH  30  31
ATOM     31  C   UNL A   1      44.181  24.425  25.052  1.00  0.00     0.338 C 
ATOM     32  O   UNL A   1      45.192  24.807  24.481  1.00  0.00    -0.246 OA
BRANCH  31  33
ATOM     33  C   UNL A   1      43.361  25.277  25.954  1.00  0.00     0.060 A 
ATOM     34  C   UNL A   1      43.732  26.625  26.094  1.00  0.00     0.016 A 
ATOM     35  C   UNL A   1      42.210  24.799  26.585  1.00  0.00     0.016 A 
ATOM     36  C   UNL A   1      42.999  27.476  26.921  1.00  0.00     0.010 A 
ATOM     37  C   UNL A   1      41.491  25.646  27.438  1.00  0.00     0.010 A 
ATOM     38  C   UNL A   1      41.916  26.972  27.651  1.00  0.00    -0.014 A 
BRANCH  38  39
ATOM     39  C   UNL A   1      41.427  27.741  28.826  1.00  0.00     0.031 A 
ATOM     40  C   UNL A   1      42.193  27.606  30.116  1.00  0.00     0.074 A 
ATOM     41  C   UNL A   1      40.384  28.586  28.752  1.00  0.00     0.049 A 
ATOM     42  N   UNL A   1      41.978  28.165  31.280  1.00  0.00    -0.248 NA
ATOM     43  C   UNL A   1      43.366  26.716  30.086  1.00  0.00     0.031 C 
ATOM     44  C   UNL A   1      39.594  28.852  27.556  1.00  0.00     0.029 A 
ATOM     45  N   UNL A   1      39.817  29.383  29.717  1.00  0.00    -0.354 N 
ATOM     46  C   UNL A   1      42.980  27.688  32.116  1.00  0.00     0.074 A 
ATOM     47  C   UNL A   1      43.778  26.765  31.342  1.00  0.00     0.031 C 
ATOM     48  C   UNL A   1      38.640  29.752  27.856  1.00  0.00     0.029 A 
ATOM     49  C   UNL A   1      38.734  30.100  29.273  1.00  0.00     0.049 A 
ATOM     50  H   UNL A   1      40.156  29.436  30.641  1.00  0.00     0.167 HD
ATOM     51  C   UNL A   1      43.224  28.001  33.411  1.00  0.00     0.037 A 
ATOM     52  C   UNL A   1      37.905  30.928  29.941  1.00  0.00     0.037 A 
ATOM     53  C   UNL A   1      42.432  28.919  34.185  1.00  0.00     0.049 A 
ATOM     54  C   UNL A   1      38.150  31.199  31.406  1.00  0.00     0.074 A 
ATOM     55  C   UNL A   1      42.605  29.309  35.501  1.00  0.00     0.029 A 
ATOM     56  N   UNL A   1      41.311  29.587  33.713  1.00  0.00    -0.354 N 
ATOM     57  N   UNL A   1      39.109  30.760  32.185  1.00  0.00    -0.248 NA
ATOM     58  C   UNL A   1      37.196  32.091  32.082  1.00  0.00     0.031 C 
ATOM     59  C   UNL A   1      41.552  30.163  35.845  1.00  0.00     0.029 A 
ATOM     60  C   UNL A   1      40.763  30.362  34.723  1.00  0.00     0.049 A 
ATOM     61  H   UNL A   1      40.957  29.520  32.798  1.00  0.00     0.167 HD
ATOM     62  C   UNL A   1      38.894  31.345  33.427  1.00  0.00     0.074 A 
ATOM     63  C   UNL A   1      37.726  32.189  33.292  1.00  0.00     0.031 C 
ATOM     64  C   UNL A   1      39.598  31.198  34.578  1.00  0.00     0.037 A 
BRANCH  51  65
ATOM     65  C   UNL A   1      44.378  27.311  34.081  1.00  0.00     0.064 A 
ATOM     66  C   UNL A   1      45.653  27.894  34.149  1.00  0.00     0.173 A 
ATOM     67  C   UNL A   1      44.199  26.053  34.677  1.00  0.00     0.173 A 
ATOM     68  F   UNL A   1      45.884  29.085  33.578  1.00  0.00    -0.203 F 
ATOM     69  C   UNL A   1      46.712  27.228  34.763  1.00  0.00     0.198 A 
ATOM     70  C   UNL A   1      45.251  25.408  35.321  1.00  0.00     0.198 A 
ATOM     71  F   UNL A   1      43.001  25.451  34.638  1.00  0.00    -0.203 F 
ATOM     72  F   UNL A   1      47.934  27.778  34.765  1.00  0.00    -0.200 F 
ATOM     73  C   UNL A   1      46.508  25.991  35.355  1.00  0.00     0.200 A 
ATOM     74  F   UNL A   1      45.048  24.218  35.903  1.00  0.00    -0.200 F 
ATOM     75  F   UNL A   1      47.526  25.356  35.952  1.00  0.00    -0.200 F 
ENDBRANCH  51  65
BRANCH  52  76
ATOM     76  C   UNL A   1      36.748  31.556  29.242  1.00  0.00     0.064 A 
ATOM     77  C   UNL A   1      36.726  32.930  28.961  1.00  0.00     0.173 A 
ATOM     78  C   UNL A   1      35.621  30.801  28.884  1.00  0.00     0.173 A 
ATOM     79  F   UNL A   1      37.765  33.703  29.313  1.00  0.00    -0.203 F 
ATOM     80  C   UNL A   1      35.614  33.527  28.372  1.00  0.00     0.198 A 
ATOM     81  C   UNL A   1      34.523  31.394  28.264  1.00  0.00     0.198 A 
ATOM     82  F   UNL A   1      35.585  29.484  29.136  1.00  0.00    -0.203 F 
ATOM     83  F   UNL A   1      35.594  34.852  28.170  1.00  0.00    -0.200 F 
ATOM     84  C   UNL A   1      34.515  32.758  28.018  1.00  0.00     0.200 A 
ATOM     85  F   UNL A   1      33.469  30.644  27.914  1.00  0.00    -0.200 F 
ATOM     86  F   UNL A   1      33.445  33.333  27.453  1.00  0.00    -0.200 F 
ENDBRANCH  52  76
BRANCH  64  87
ATOM     87  C   UNL A   1      39.149  31.997  35.772  1.00  0.00     0.064 A 
ATOM     88  C   UNL A   1      38.281  31.463  36.738  1.00  0.00     0.173 A 
ATOM     89  C   UNL A   1      39.603  33.312  35.960  1.00  0.00     0.173 A 
ATOM     90  F   UNL A   1      37.808  30.214  36.604  1.00  0.00    -0.203 F 
ATOM     91  C   UNL A   1      37.850  32.230  37.818  1.00  0.00     0.198 A 
ATOM     92  C   UNL A   1      39.203  34.062  37.061  1.00  0.00     0.198 A 
ATOM     93  F   UNL A   1      40.446  33.870  35.076  1.00  0.00    -0.203 F 
ATOM     94  F   UNL A   1      36.966  31.722  38.687  1.00  0.00    -0.200 F 
ATOM     95  C   UNL A   1      38.315  33.526  37.982  1.00  0.00     0.200 A 
ATOM     96  F   UNL A   1      39.670  35.307  37.229  1.00  0.00    -0.200 F 
ATOM     97  F   UNL A   1      37.899  34.262  39.021  1.00  0.00    -0.200 F 
ENDBRANCH  64  87
ENDBRANCH  38  39
ENDBRANCH  31  33
ENDBRANCH  30  31
ENDBRANCH  29  30
ENDBRANCH  28  29
ENDBRANCH  27  28
ENDBRANCH  26  27
ENDBRANCH   1  26
TORSDOF 21
ENDMDL
MODEL 3
REMARK VINA RESULT:     -10.7      3.419      8.617
REMARK SMILES CO[C@H]1C[C@H](C(=O)OCCOCCOCCOC(=O)c2ccc(-c3c4nc(c(-c5c(F)c(F)c(F)c(F)c5F)c5ccc([nH]5)c(-c5c(F)c(F)c(F)c(F)c5F)c5nc(c(-c6c(F)c(F)c(F)c(F)c6F)c6ccc3[nH]6)C=C5)C=C4)cc2)N(C(=O)[C@H]2C=C[C@@H]([NH3+])C2)C1
REMARK SMILES IDX 12 1 11 2 10 3 9 4 8 5 6 6 7 7 5 8 3 9 4 10 92 11 83 12 2 13
REMARK SMILES IDX 1 14 84 15 85 16 86 17 87 18 91 19 88 20 89 21 90 22 13 26
REMARK SMILES IDX 14 27 15 28 16 29 17 30 18 31 19 32 20 33 21 34 82 35 22 36
REMARK SMILES IDX 81 37 23 38 24 39 25 40 75 41 26 42 80 43 74 44 76 45 27 46
REMARK SMILES IDX 79 47 73 48 72 49 28 51 60 52 40 53 59 54 41 55 44 56 58 57
REMARK SMILES IDX 77 58 42 59 43 60 57 62 78 63 45 64 29 65 30 66 38 67 31 68
REMARK SMILES IDX 32 69 36 70 39 71 33 72 34 73 37 74 35 75 61 76 62 77 70 78
REMARK SMILES IDX 63 79 64 80 68 81 71 82 65 83 66 84 69 85 67 86 46 87 47 88
REMARK SMILES IDX 55 89 48 90 49 91 53 92 56 93 50 94 51 95 54 96 52 97
REMARK H PARENT 90 23 90 24 90 25 76 50 44 61
REMARK Flexibility Score: inf
ROOT
ATOM      1  C   UNL A   1      39.950  22.002  26.881  1.00  0.00     0.188 C 
ENDROOT
BRANCH   1   2
ATOM      2  O   UNL A   1      38.915  22.456  26.035  1.00  0.00    -0.376 OA
BRANCH   2   3
ATOM      3  C   UNL A   1      38.100  21.485  25.383  1.00  0.00     0.202 C 
BRANCH   3   4
ATOM      4  C   UNL A   1      36.604  21.366  25.728  1.00  0.00     0.261 C 
BRANCH   4   5
ATOM      5  O   UNL A   1      35.731  21.639  24.615  1.00  0.00    -0.462 OA
BRANCH   5   6
ATOM      6  C   UNL A   1      35.062  22.818  24.665  1.00  0.00     0.329 C 
ATOM      7  O   UNL A   1      35.624  23.905  24.727  1.00  0.00    -0.250 OA
BRANCH   6   8
ATOM      8  C   UNL A   1      33.533  22.647  24.478  1.00  0.00     0.197 C 
ATOM      9  C   UNL A   1      32.675  22.935  26.712  1.00  0.00     0.140 C 
ATOM     10  C   UNL A   1      32.761  21.921  25.573  1.00  0.00     0.071 C 
ATOM     11  C   UNL A   1      32.677  24.286  25.972  1.00  0.00     0.152 C 
ATOM     12  N   UNL A   1      32.927  23.969  24.563  1.00  0.00    -0.326 N 
BRANCH   9  13
ATOM     13  O   UNL A   1      31.496  22.786  27.502  1.00  0.00    -0.380 OA
ATOM     14  C   UNL A   1      30.283  23.057  26.808  1.00  0.00     0.195 C 
ENDBRANCH   9  13
BRANCH  12  15
ATOM     15  C   UNL A   1      32.709  24.896  23.576  1.00  0.00     0.230 C 
ATOM     16  O   UNL A   1      31.766  24.738  22.790  1.00  0.00    -0.274 OA
BRANCH  15  17
ATOM     17  C   UNL A   1      33.625  26.123  23.377  1.00  0.00     0.107 C 
ATOM     18  C   UNL A   1      33.420  26.921  22.125  1.00  0.00    -0.012 C 
ATOM     19  C   UNL A   1      33.587  27.199  24.473  1.00  0.00     0.087 C 
ATOM     20  C   UNL A   1      33.596  28.231  22.337  1.00  0.00     0.033 C 
ATOM     21  C   UNL A   1      33.964  28.509  23.756  1.00  0.00     0.205 C 
BRANCH  21  22
ATOM     22  N   UNL A   1      33.262  29.664  24.281  1.00  0.00    -0.352 N 
ATOM     23  H   UNL A   1      33.826  30.502  24.133  1.00  0.00     0.345 HD
ATOM     24  H   UNL A   1      33.098  29.537  25.280  1.00  0.00     0.345 HD
ATOM     25  H   UNL A   1      32.369  29.767  23.799  1.00  0.00     0.345 HD
ENDBRANCH  21  22
ENDBRANCH  15  17
ENDBRANCH  12  15
ENDBRANCH   6   8
ENDBRANCH   5   6
ENDBRANCH   4   5
ENDBRANCH   3   4
ENDBRANCH   2   3
ENDBRANCH   1   2
BRANCH   1  26
ATOM     26  C   UNL A   1      40.944  20.980  26.331  1.00  0.00     0.188 C 
BRANCH  26  27
ATOM     27  O   UNL A   1      42.304  21.085  26.677  1.00  0.00    -0.376 OA
BRANCH  27  28
ATOM     28  C   UNL A   1      43.359  20.932  25.737  1.00  0.00     0.202 C 
BRANCH  28  29
ATOM     29  C   UNL A   1      44.015  22.057  24.902  1.00  0.00     0.261 C 
BRANCH  29  30
ATOM     30  O   UNL A   1      43.346  23.317  24.798  1.00  0.00    -0.460 OA
BRANCH  30  31
ATOM     31  C   UNL A   1      44.084  24.412  25.094  1.00  0.00     0.338 C 
ATOM     32  O   UNL A   1      45.114  24.771  24.542  1.00  0.00    -0.246 OA
BRANCH  31  33
ATOM     33  C   UNL A   1      43.276  25.277  25.995  1.00  0.00     0.060 A 
ATOM     34  C   UNL A   1      43.679  26.614  26.149  1.00  0.00     0.016 A 
ATOM     35  C   UNL A   1      42.108  24.823  26.611  1.00  0.00     0.016 A 
ATOM     36  C   UNL A   1      42.960  27.477  26.976  1.00  0.00     0.010 A 
ATOM     37  C   UNL A   1      41.402  25.681  27.465  1.00  0.00     0.010 A 
ATOM     38  C   UNL A   1      41.858  26.994  27.692  1.00  0.00    -0.014 A 
BRANCH  38  39
ATOM     39  C   UNL A   1      41.377  27.766  28.869  1.00  0.00     0.031 A 
ATOM     40  C   UNL A   1      42.162  27.647  30.149  1.00  0.00     0.074 A 
ATOM     41  C   UNL A   1      40.325  28.600  28.803  1.00  0.00     0.049 A 
ATOM     42  N   UNL A   1      41.956  28.212  31.313  1.00  0.00    -0.248 NA
ATOM     43  C   UNL A   1      43.343  26.769  30.109  1.00  0.00     0.031 C 
ATOM     44  C   UNL A   1      39.516  28.850  27.616  1.00  0.00     0.029 A 
ATOM     45  N   UNL A   1      39.762  29.397  29.771  1.00  0.00    -0.354 N 
ATOM     46  C   UNL A   1      42.974  27.750  32.138  1.00  0.00     0.074 A 
ATOM     47  C   UNL A   1      43.771  26.830  31.359  1.00  0.00     0.031 C 
ATOM     48  C   UNL A   1      38.557  29.743  27.923  1.00  0.00     0.029 A 
ATOM     49  C   UNL A   1      38.666  30.101  29.337  1.00  0.00     0.049 A 
ATOM     50  H   UNL A   1      40.113  29.460  30.689  1.00  0.00     0.167 HD
ATOM     51  C   UNL A   1      43.233  28.074  33.427  1.00  0.00     0.037 A 
ATOM     52  C   UNL A   1      37.838  30.925  30.010  1.00  0.00     0.037 A 
ATOM     53  C   UNL A   1      42.442  28.990  34.205  1.00  0.00     0.049 A 
ATOM     54  C   UNL A   1      38.100  31.208  31.470  1.00  0.00     0.074 A 
ATOM     55  C   UNL A   1      42.629  29.390  35.517  1.00  0.00     0.029 A 
ATOM     56  N   UNL A   1      41.308  29.643  33.745  1.00  0.00    -0.354 N 
ATOM     57  N   UNL A   1      39.074  30.783  32.238  1.00  0.00    -0.248 NA
ATOM     58  C   UNL A   1      37.146  32.095  32.153  1.00  0.00     0.031 C 
ATOM     59  C   UNL A   1      41.572  30.235  35.870  1.00  0.00     0.029 A 
ATOM     60  C   UNL A   1      40.766  30.419  34.757  1.00  0.00     0.049 A 
ATOM     61  H   UNL A   1      40.942  29.566  32.834  1.00  0.00     0.167 HD
ATOM     62  C   UNL A   1      38.869  31.375  33.480  1.00  0.00     0.074 A 
ATOM     63  C   UNL A   1      37.691  32.206  33.355  1.00  0.00     0.031 C 
ATOM     64  C   UNL A   1      39.591  31.242  34.622  1.00  0.00     0.037 A 
BRANCH  51  65
ATOM     65  C   UNL A   1      44.402  27.400  34.086  1.00  0.00     0.064 A 
ATOM     66  C   UNL A   1      45.680  27.982  34.106  1.00  0.00     0.173 A 
ATOM     67  C   UNL A   1      44.237  26.159  34.719  1.00  0.00     0.173 A 
ATOM     68  F   UNL A   1      45.897  29.157  33.497  1.00  0.00    -0.203 F 
ATOM     69  C   UNL A   1      46.752  27.332  34.711  1.00  0.00     0.198 A 
ATOM     70  C   UNL A   1      45.304  25.530  35.354  1.00  0.00     0.198 A 
ATOM     71  F   UNL A   1      43.038  25.558  34.727  1.00  0.00    -0.203 F 
ATOM     72  F   UNL A   1      47.976  27.879  34.667  1.00  0.00    -0.200 F 
ATOM     73  C   UNL A   1      46.563  26.111  35.341  1.00  0.00     0.200 A 
ATOM     74  F   UNL A   1      45.115  24.356  35.972  1.00  0.00    -0.200 F 
ATOM     75  F   UNL A   1      47.595  25.490  35.928  1.00  0.00    -0.200 F 
ENDBRANCH  51  65
BRANCH  52  76
ATOM     76  C   UNL A   1      36.666  31.536  29.323  1.00  0.00     0.064 A 
ATOM     77  C   UNL A   1      35.572  30.757  28.918  1.00  0.00     0.173 A 
ATOM     78  C   UNL A   1      36.638  32.905  29.016  1.00  0.00     0.173 A 
ATOM     79  F   UNL A   1      35.563  29.438  29.158  1.00  0.00    -0.203 F 
ATOM     80  C   UNL A   1      34.509  31.319  28.212  1.00  0.00     0.198 A 
ATOM     81  C   UNL A   1      35.559  33.471  28.340  1.00  0.00     0.198 A 
ATOM     82  F   UNL A   1      37.662  33.695  29.373  1.00  0.00    -0.203 F 
ATOM     83  F   UNL A   1      33.506  30.540  27.783  1.00  0.00    -0.200 F 
ATOM     84  C   UNL A   1      34.501  32.676  27.929  1.00  0.00     0.200 A 
ATOM     85  F   UNL A   1      35.551  34.785  28.079  1.00  0.00    -0.200 F 
ATOM     86  F   UNL A   1      33.479  33.215  27.249  1.00  0.00    -0.200 F 
ENDBRANCH  52  76
BRANCH  64  87
ATOM     87  C   UNL A   1      39.149  32.044  35.816  1.00  0.00     0.064 A 
ATOM     88  C   UNL A   1      38.311  31.504  36.805  1.00  0.00     0.173 A 
ATOM     89  C   UNL A   1      39.582  33.370  35.983  1.00  0.00     0.173 A 
ATOM     90  F   UNL A   1      37.860  30.245  36.693  1.00  0.00    -0.203 F 
ATOM     91  C   UNL A   1      37.886  32.273  37.885  1.00  0.00     0.198 A 
ATOM     92  C   UNL A   1      39.188  34.124  37.085  1.00  0.00     0.198 A 
ATOM     93  F   UNL A   1      40.395  33.935  35.077  1.00  0.00    -0.203 F 
ATOM     94  F   UNL A   1      37.029  31.757  38.777  1.00  0.00    -0.200 F 
ATOM     95  C   UNL A   1      38.329  33.580  38.028  1.00  0.00     0.200 A 
ATOM     96  F   UNL A   1      39.634  35.378  37.231  1.00  0.00    -0.200 F 
ATOM     97  F   UNL A   1      37.920  34.318  39.068  1.00  0.00    -0.200 F 
ENDBRANCH  64  87
ENDBRANCH  38  39
ENDBRANCH  31  33
ENDBRANCH  30  31
ENDBRANCH  29  30
ENDBRANCH  28  29
ENDBRANCH  27  28
ENDBRANCH  26  27
ENDBRANCH   1  26
TORSDOF 21
ENDMDL
