MODEL 1
REMARK VINA RESULT:     -10.7      0.000      0.000
REMARK SMILES Cc1oc2c(C)c3oc(=O)c(CC(=O)N[C@@H](CC(C)C)C(=O)OCCOCCOCCOC(=O)c4ccc(-c5c6nc(c(-c7c(F)c(F)c(F)c(F)c7F)c7ccc([nH]7)c(-c7c(F)c(F)c(F)c(F)c7F)c7nc(c(-c8c(F)c(F)c(F)c(F)c8F)c8ccc5[nH]8)C=C7)C=C6)cc4)c(C)c3cc2c1C
REMARK SMILES IDX 27 1 26 2 25 3 24 4 23 5 21 6 22 7 16 8 15 9 13 10 14 11
REMARK SMILES IDX 12 13 11 14 1 15 2 16 3 17 103 18 4 19 102 20 104 21 5 22
REMARK SMILES IDX 101 23 6 24 7 25 100 26 8 27 98 28 9 29 99 30 10 31 17 32
REMARK SMILES IDX 18 33 19 34 20 35 28 36 29 37 30 38 31 39 32 40 33 41 34 42
REMARK SMILES IDX 35 43 36 44 97 45 37 46 96 47 38 48 39 49 40 50 90 51 41 52
REMARK SMILES IDX 95 53 89 54 91 55 42 56 94 57 88 58 87 59 43 61 75 62 55 63
REMARK SMILES IDX 74 64 56 65 59 66 73 67 92 68 57 69 58 70 72 72 93 73 60 74
REMARK SMILES IDX 44 75 45 76 53 77 46 78 47 79 51 80 54 81 48 82 49 83 52 84
REMARK SMILES IDX 50 85 76 86 77 87 85 88 78 89 79 90 83 91 86 92 80 93 81 94
REMARK SMILES IDX 84 95 82 96 61 97 62 98 70 99 63 100 64 101 68 102 71 103
REMARK SMILES IDX 65 104 66 105 69 106 67 107
REMARK H PARENT 15 12 91 60 59 71
REMARK Flexibility Score: inf
ROOT
ATOM      1  C   UNL A   1      33.886  21.172  26.049  1.00  0.00     0.188 C 
ENDROOT
BRANCH   1   2
ATOM      2  O   UNL A   1      34.086  22.043  27.159  1.00  0.00    -0.376 OA
BRANCH   2   3
ATOM      3  C   UNL A   1      33.637  23.389  27.068  1.00  0.00     0.202 C 
BRANCH   3   4
ATOM      4  C   UNL A   1      33.209  23.862  25.679  1.00  0.00     0.261 C 
BRANCH   4   5
ATOM      5  O   UNL A   1      34.291  24.466  24.950  1.00  0.00    -0.462 OA
BRANCH   5   6
ATOM      6  C   UNL A   1      34.063  24.676  23.630  1.00  0.00     0.328 C 
ATOM      7  O   UNL A   1      34.676  24.118  22.726  1.00  0.00    -0.250 OA
BRANCH   6   8
ATOM      8  C   UNL A   1      32.983  25.746  23.358  1.00  0.00     0.192 C 
BRANCH   8   9
ATOM      9  N   UNL A   1      33.369  27.098  22.936  1.00  0.00    -0.342 N 
ATOM     10  C   UNL A   1      32.974  28.323  23.386  1.00  0.00     0.225 C 
ATOM     11  O   UNL A   1      33.429  29.321  22.821  1.00  0.00    -0.275 OA
ATOM     12  H   UNL A   1      34.025  27.126  22.202  1.00  0.00     0.164 HD
BRANCH  10  13
ATOM     13  C   UNL A   1      32.059  28.479  24.595  1.00  0.00     0.143 C 
BRANCH  13  14
ATOM     14  C   UNL A   1      32.690  29.256  25.721  1.00  0.00     0.051 A 
ATOM     15  C   UNL A   1      37.805  32.258  31.752  1.00  0.00     0.088 C 
ATOM     16  C   UNL A   1      37.049  31.630  30.650  1.00  0.00     0.105 A 
ATOM     17  O   UNL A   1      36.097  32.416  30.074  1.00  0.00    -0.461 OA
ATOM     18  C   UNL A   1      37.065  30.378  30.061  1.00  0.00    -0.002 A 
ATOM     19  C   UNL A   1      35.457  31.663  29.139  1.00  0.00     0.141 A 
ATOM     20  C   UNL A   1      36.009  30.392  29.098  1.00  0.00     0.025 A 
ATOM     21  C   UNL A   1      37.951  29.228  30.369  1.00  0.00     0.049 C 
ATOM     22  C   UNL A   1      34.389  32.094  28.350  1.00  0.00     0.036 A 
ATOM     23  C   UNL A   1      35.469  29.449  28.203  1.00  0.00     0.024 A 
ATOM     24  C   UNL A   1      33.858  33.491  28.413  1.00  0.00     0.052 C 
ATOM     25  C   UNL A   1      33.847  31.090  27.521  1.00  0.00     0.145 A 
ATOM     26  C   UNL A   1      34.354  29.788  27.419  1.00  0.00     0.022 A 
ATOM     27  O   UNL A   1      32.703  31.457  26.784  1.00  0.00    -0.422 OA
ATOM     28  C   UNL A   1      33.735  28.841  26.468  1.00  0.00    -0.029 A 
ATOM     29  C   UNL A   1      32.032  30.562  25.983  1.00  0.00     0.340 A 
ATOM     30  C   UNL A   1      34.325  27.455  26.368  1.00  0.00     0.046 C 
ATOM     31  O   UNL A   1      30.958  30.855  25.468  1.00  0.00    -0.246 OA
ENDBRANCH  13  14
ENDBRANCH  10  13
ENDBRANCH   8   9
BRANCH   8  32
ATOM     32  C   UNL A   1      31.938  25.174  22.386  1.00  0.00     0.040 C 
BRANCH  32  33
ATOM     33  C   UNL A   1      30.654  24.572  23.009  1.00  0.00    -0.015 C 
ATOM     34  C   UNL A   1      30.784  23.118  23.463  1.00  0.00     0.007 C 
ATOM     35  C   UNL A   1      30.227  25.436  24.199  1.00  0.00     0.007 C 
ENDBRANCH  32  33
ENDBRANCH   8  32
ENDBRANCH   6   8
ENDBRANCH   5   6
ENDBRANCH   4   5
ENDBRANCH   3   4
ENDBRANCH   2   3
ENDBRANCH   1   2
BRANCH   1  36
ATOM     36  C   UNL A   1      35.107  20.631  25.285  1.00  0.00     0.188 C 
BRANCH  36  37
ATOM     37  O   UNL A   1      35.707  21.551  24.389  1.00  0.00    -0.376 OA
BRANCH  37  38
ATOM     38  C   UNL A   1      37.063  21.868  24.670  1.00  0.00     0.202 C 
BRANCH  38  39
ATOM     39  C   UNL A   1      37.184  22.689  25.954  1.00  0.00     0.261 C 
BRANCH  39  40
ATOM     40  O   UNL A   1      38.361  23.516  25.961  1.00  0.00    -0.460 OA
BRANCH  40  41
ATOM     41  C   UNL A   1      39.318  23.113  26.826  1.00  0.00     0.338 C 
ATOM     42  O   UNL A   1      39.800  22.003  26.941  1.00  0.00    -0.246 OA
BRANCH  41  43
ATOM     43  C   UNL A   1      39.759  24.274  27.596  1.00  0.00     0.060 A 
ATOM     44  C   UNL A   1      38.927  25.393  27.712  1.00  0.00     0.016 A 
ATOM     45  C   UNL A   1      41.062  24.285  28.082  1.00  0.00     0.016 A 
ATOM     46  C   UNL A   1      39.416  26.549  28.309  1.00  0.00     0.010 A 
ATOM     47  C   UNL A   1      41.561  25.458  28.637  1.00  0.00     0.010 A 
ATOM     48  C   UNL A   1      40.752  26.603  28.729  1.00  0.00    -0.014 A 
BRANCH  48  49
ATOM     49  C   UNL A   1      41.321  27.907  29.131  1.00  0.00     0.031 A 
ATOM     50  C   UNL A   1      41.887  27.991  30.505  1.00  0.00     0.074 A 
ATOM     51  C   UNL A   1      41.847  28.718  28.184  1.00  0.00     0.049 A 
ATOM     52  N   UNL A   1      43.044  27.471  30.793  1.00  0.00    -0.248 NA
ATOM     53  C   UNL A   1      41.131  28.436  31.674  1.00  0.00     0.031 C 
ATOM     54  C   UNL A   1      42.186  28.273  26.824  1.00  0.00     0.029 A 
ATOM     55  N   UNL A   1      42.391  29.979  28.270  1.00  0.00    -0.354 N 
ATOM     56  C   UNL A   1      43.123  27.387  32.164  1.00  0.00     0.074 A 
ATOM     57  C   UNL A   1      41.945  28.055  32.675  1.00  0.00     0.031 C 
ATOM     58  C   UNL A   1      43.032  29.163  26.271  1.00  0.00     0.029 A 
ATOM     59  C   UNL A   1      43.178  30.304  27.167  1.00  0.00     0.049 A 
ATOM     60  H   UNL A   1      42.241  30.587  29.030  1.00  0.00     0.167 HD
ATOM     61  C   UNL A   1      44.127  26.718  32.784  1.00  0.00     0.037 A 
ATOM     62  C   UNL A   1      44.289  31.086  27.179  1.00  0.00     0.037 A 
ATOM     63  C   UNL A   1      45.079  26.079  31.924  1.00  0.00     0.049 A 
ATOM     64  C   UNL A   1      45.209  30.325  28.097  1.00  0.00     0.074 A 
ATOM     65  C   UNL A   1      45.248  24.824  31.379  1.00  0.00     0.029 A 
ATOM     66  N   UNL A   1      46.081  26.842  31.373  1.00  0.00    -0.354 N 
ATOM     67  N   UNL A   1      45.938  29.293  27.763  1.00  0.00    -0.248 NA
ATOM     68  C   UNL A   1      45.071  30.533  29.540  1.00  0.00     0.031 C 
ATOM     69  C   UNL A   1      46.052  25.018  30.212  1.00  0.00     0.029 A 
ATOM     70  C   UNL A   1      46.270  26.390  30.092  1.00  0.00     0.049 A 
ATOM     71  H   UNL A   1      46.569  27.575  31.815  1.00  0.00     0.167 HD
ATOM     72  C   UNL A   1      46.127  28.575  28.947  1.00  0.00     0.074 A 
ATOM     73  C   UNL A   1      45.606  29.413  30.006  1.00  0.00     0.031 C 
ATOM     74  C   UNL A   1      46.522  27.271  28.975  1.00  0.00     0.037 A 
BRANCH  61  75
ATOM     75  C   UNL A   1      44.323  26.657  34.239  1.00  0.00     0.064 A 
ATOM     76  C   UNL A   1      43.685  25.628  34.945  1.00  0.00     0.173 A 
ATOM     77  C   UNL A   1      44.928  27.688  34.961  1.00  0.00     0.173 A 
ATOM     78  F   UNL A   1      43.082  24.632  34.275  1.00  0.00    -0.203 F 
ATOM     79  C   UNL A   1      43.620  25.648  36.331  1.00  0.00     0.198 A 
ATOM     80  C   UNL A   1      44.866  27.703  36.353  1.00  0.00     0.198 A 
ATOM     81  F   UNL A   1      45.532  28.700  34.321  1.00  0.00    -0.203 F 
ATOM     82  F   UNL A   1      42.966  24.675  36.980  1.00  0.00    -0.200 F 
ATOM     83  C   UNL A   1      44.201  26.691  37.035  1.00  0.00     0.200 A 
ATOM     84  F   UNL A   1      45.421  28.713  37.037  1.00  0.00    -0.200 F 
ATOM     85  F   UNL A   1      44.107  26.729  38.371  1.00  0.00    -0.200 F 
ENDBRANCH  61  75
BRANCH  62  86
ATOM     86  C   UNL A   1      44.013  32.553  27.283  1.00  0.00     0.064 A 
ATOM     87  C   UNL A   1      44.107  33.344  26.115  1.00  0.00     0.173 A 
ATOM     88  C   UNL A   1      43.674  33.234  28.459  1.00  0.00     0.173 A 
ATOM     89  F   UNL A   1      44.538  32.804  24.964  1.00  0.00    -0.203 F 
ATOM     90  C   UNL A   1      43.760  34.695  26.104  1.00  0.00     0.198 A 
ATOM     91  C   UNL A   1      43.302  34.581  28.444  1.00  0.00     0.198 A 
ATOM     92  F   UNL A   1      43.686  32.615  29.647  1.00  0.00    -0.203 F 
ATOM     93  F   UNL A   1      43.831  35.395  24.964  1.00  0.00    -0.200 F 
ATOM     94  C   UNL A   1      43.328  35.306  27.267  1.00  0.00     0.200 A 
ATOM     95  F   UNL A   1      42.900  35.169  29.581  1.00  0.00    -0.200 F 
ATOM     96  F   UNL A   1      42.947  36.590  27.253  1.00  0.00    -0.200 F 
ENDBRANCH  62  86
BRANCH  74  97
ATOM     97  C   UNL A   1      46.993  26.714  27.677  1.00  0.00     0.064 A 
ATOM     98  C   UNL A   1      46.072  26.150  26.785  1.00  0.00     0.173 A 
ATOM     99  C   UNL A   1      48.340  26.769  27.289  1.00  0.00     0.173 A 
ATOM    100  F   UNL A   1      44.770  26.087  27.106  1.00  0.00    -0.203 F 
ATOM    101  C   UNL A   1      46.480  25.677  25.541  1.00  0.00     0.198 A 
ATOM    102  C   UNL A   1      48.741  26.317  26.035  1.00  0.00     0.198 A 
ATOM    103  F   UNL A   1      49.269  27.287  28.108  1.00  0.00    -0.203 F 
ATOM    104  F   UNL A   1      45.581  25.152  24.697  1.00  0.00    -0.200 F 
ATOM    105  C   UNL A   1      47.811  25.773  25.162  1.00  0.00     0.200 A 
ATOM    106  F   UNL A   1      50.023  26.428  25.661  1.00  0.00    -0.200 F 
ATOM    107  F   UNL A   1      48.196  25.352  23.948  1.00  0.00    -0.200 F 
ENDBRANCH  74  97
ENDBRANCH  48  49
ENDBRANCH  41  43
ENDBRANCH  40  41
ENDBRANCH  39  40
ENDBRANCH  38  39
ENDBRANCH  37  38
ENDBRANCH  36  37
ENDBRANCH   1  36
TORSDOF 22
ENDMDL
MODEL 2
REMARK VINA RESULT:     -10.7      0.688      1.662
REMARK SMILES Cc1oc2c(C)c3oc(=O)c(CC(=O)N[C@@H](CC(C)C)C(=O)OCCOCCOCCOC(=O)c4ccc(-c5c6nc(c(-c7c(F)c(F)c(F)c(F)c7F)c7ccc([nH]7)c(-c7c(F)c(F)c(F)c(F)c7F)c7nc(c(-c8c(F)c(F)c(F)c(F)c8F)c8ccc5[nH]8)C=C7)C=C6)cc4)c(C)c3cc2c1C
REMARK SMILES IDX 27 1 26 2 25 3 24 4 23 5 21 6 22 7 16 8 15 9 13 10 14 11
REMARK SMILES IDX 12 13 11 14 1 15 2 16 3 17 103 18 4 19 102 20 104 21 5 22
REMARK SMILES IDX 101 23 6 24 7 25 100 26 8 27 98 28 9 29 99 30 10 31 17 32
REMARK SMILES IDX 18 33 19 34 20 35 28 36 29 37 30 38 31 39 32 40 33 41 34 42
REMARK SMILES IDX 35 43 36 44 97 45 37 46 96 47 38 48 39 49 40 50 90 51 41 52
REMARK SMILES IDX 95 53 89 54 91 55 42 56 94 57 88 58 87 59 43 61 75 62 55 63
REMARK SMILES IDX 74 64 56 65 59 66 73 67 92 68 57 69 58 70 72 72 93 73 60 74
REMARK SMILES IDX 44 75 45 76 53 77 46 78 47 79 51 80 54 81 48 82 49 83 52 84
REMARK SMILES IDX 50 85 76 86 77 87 85 88 78 89 79 90 83 91 86 92 80 93 81 94
REMARK SMILES IDX 84 95 82 96 61 97 62 98 70 99 63 100 64 101 68 102 71 103
REMARK SMILES IDX 65 104 66 105 69 106 67 107
REMARK H PARENT 15 12 91 60 59 71
REMARK Flexibility Score: inf
ROOT
ATOM      1  C   UNL A   1      33.854  20.891  25.817  1.00  0.00     0.188 C 
ENDROOT
BRANCH   1   2
ATOM      2  O   UNL A   1      33.633  21.739  26.942  1.00  0.00    -0.376 OA
BRANCH   2   3
ATOM      3  C   UNL A   1      32.794  22.877  26.790  1.00  0.00     0.202 C 
BRANCH   3   4
ATOM      4  C   UNL A   1      32.398  23.235  25.358  1.00  0.00     0.261 C 
BRANCH   4   5
ATOM      5  O   UNL A   1      33.274  24.215  24.777  1.00  0.00    -0.462 OA
BRANCH   5   6
ATOM      6  C   UNL A   1      32.908  24.677  23.555  1.00  0.00     0.328 C 
ATOM      7  O   UNL A   1      33.162  24.109  22.498  1.00  0.00    -0.250 OA
BRANCH   6   8
ATOM      8  C   UNL A   1      32.182  26.039  23.608  1.00  0.00     0.192 C 
BRANCH   8   9
ATOM      9  N   UNL A   1      32.885  27.269  23.224  1.00  0.00    -0.342 N 
ATOM     10  C   UNL A   1      32.762  28.549  23.678  1.00  0.00     0.225 C 
ATOM     11  O   UNL A   1      33.457  29.419  23.147  1.00  0.00    -0.275 OA
ATOM     12  H   UNL A   1      33.561  27.150  22.518  1.00  0.00     0.164 HD
BRANCH  10  13
ATOM     13  C   UNL A   1      31.856  28.902  24.851  1.00  0.00     0.143 C 
BRANCH  13  14
ATOM     14  C   UNL A   1      32.578  29.618  25.964  1.00  0.00     0.051 A 
ATOM     15  C   UNL A   1      38.077  32.148  31.872  1.00  0.00     0.088 C 
ATOM     16  C   UNL A   1      37.243  31.592  30.787  1.00  0.00     0.105 A 
ATOM     17  O   UNL A   1      36.345  32.457  30.240  1.00  0.00    -0.461 OA
ATOM     18  C   UNL A   1      37.142  30.346  30.192  1.00  0.00    -0.002 A 
ATOM     19  C   UNL A   1      35.620  31.765  29.319  1.00  0.00     0.141 A 
ATOM     20  C   UNL A   1      36.066  30.454  29.257  1.00  0.00     0.025 A 
ATOM     21  C   UNL A   1      37.937  29.126  30.470  1.00  0.00     0.049 C 
ATOM     22  C   UNL A   1      34.571  32.288  28.561  1.00  0.00     0.036 A 
ATOM     23  C   UNL A   1      35.427  29.564  28.372  1.00  0.00     0.024 A 
ATOM     24  C   UNL A   1      34.159  33.723  28.645  1.00  0.00     0.052 C 
ATOM     25  C   UNL A   1      33.927  31.338  27.742  1.00  0.00     0.145 A 
ATOM     26  C   UNL A   1      34.323  29.999  27.620  1.00  0.00     0.022 A 
ATOM     27  O   UNL A   1      32.799  31.802  27.037  1.00  0.00    -0.422 OA
ATOM     28  C   UNL A   1      33.604  29.113  26.680  1.00  0.00    -0.029 A 
ATOM     29  C   UNL A   1      32.036  30.971  26.250  1.00  0.00     0.340 A 
ATOM     30  C   UNL A   1      34.075  27.684  26.558  1.00  0.00     0.046 C 
ATOM     31  O   UNL A   1      30.976  31.355  25.765  1.00  0.00    -0.246 OA
ENDBRANCH  13  14
ENDBRANCH  10  13
ENDBRANCH   8   9
BRANCH   8  32
ATOM     32  C   UNL A   1      30.854  25.934  22.839  1.00  0.00     0.040 C 
BRANCH  32  33
ATOM     33  C   UNL A   1      29.553  26.147  23.652  1.00  0.00    -0.015 C 
ATOM     34  C   UNL A   1      29.701  25.950  25.161  1.00  0.00     0.007 C 
ATOM     35  C   UNL A   1      29.022  27.557  23.377  1.00  0.00     0.007 C 
ENDBRANCH  32  33
ENDBRANCH   8  32
ENDBRANCH   6   8
ENDBRANCH   5   6
ENDBRANCH   4   5
ENDBRANCH   3   4
ENDBRANCH   2   3
ENDBRANCH   1   2
BRANCH   1  36
ATOM     36  C   UNL A   1      35.266  20.793  25.212  1.00  0.00     0.188 C 
BRANCH  36  37
ATOM     37  O   UNL A   1      35.617  21.855  24.341  1.00  0.00    -0.376 OA
BRANCH  37  38
ATOM     38  C   UNL A   1      36.918  22.391  24.539  1.00  0.00     0.202 C 
BRANCH  38  39
ATOM     39  C   UNL A   1      36.981  23.231  25.815  1.00  0.00     0.261 C 
BRANCH  39  40
ATOM     40  O   UNL A   1      38.188  24.010  25.892  1.00  0.00    -0.460 OA
BRANCH  40  41
ATOM     41  C   UNL A   1      39.123  23.504  26.727  1.00  0.00     0.338 C 
ATOM     42  O   UNL A   1      39.544  22.365  26.772  1.00  0.00    -0.246 OA
BRANCH  41  43
ATOM     43  C   UNL A   1      39.627  24.591  27.565  1.00  0.00     0.060 A 
ATOM     44  C   UNL A   1      38.833  25.719  27.797  1.00  0.00     0.016 A 
ATOM     45  C   UNL A   1      40.946  24.529  27.998  1.00  0.00     0.016 A 
ATOM     46  C   UNL A   1      39.378  26.812  28.460  1.00  0.00     0.010 A 
ATOM     47  C   UNL A   1      41.500  25.642  28.621  1.00  0.00     0.010 A 
ATOM     48  C   UNL A   1      40.730  26.799  28.830  1.00  0.00    -0.014 A 
BRANCH  48  49
ATOM     49  C   UNL A   1      41.352  28.052  29.307  1.00  0.00     0.031 A 
ATOM     50  C   UNL A   1      41.945  28.024  30.672  1.00  0.00     0.074 A 
ATOM     51  C   UNL A   1      41.889  28.907  28.406  1.00  0.00     0.049 A 
ATOM     52  N   UNL A   1      43.088  27.446  30.900  1.00  0.00    -0.248 NA
ATOM     53  C   UNL A   1      41.227  28.414  31.883  1.00  0.00     0.031 C 
ATOM     54  C   UNL A   1      42.188  28.543  27.012  1.00  0.00     0.029 A 
ATOM     55  N   UNL A   1      42.479  30.140  28.565  1.00  0.00    -0.354 N 
ATOM     56  C   UNL A   1      43.189  27.267  32.261  1.00  0.00     0.074 A 
ATOM     57  C   UNL A   1      42.045  27.940  32.839  1.00  0.00     0.031 C 
ATOM     58  C   UNL A   1      43.054  29.438  26.503  1.00  0.00     0.029 A 
ATOM     59  C   UNL A   1      43.257  30.511  27.469  1.00  0.00     0.049 A 
ATOM     60  H   UNL A   1      42.365  30.700  29.366  1.00  0.00     0.167 HD
ATOM     61  C   UNL A   1      44.180  26.524  32.814  1.00  0.00     0.037 A 
ATOM     62  C   UNL A   1      44.395  31.252  27.511  1.00  0.00     0.037 A 
ATOM     63  C   UNL A   1      45.093  25.912  31.894  1.00  0.00     0.049 A 
ATOM     64  C   UNL A   1      45.304  30.400  28.357  1.00  0.00     0.074 A 
ATOM     65  C   UNL A   1      45.207  24.692  31.263  1.00  0.00     0.029 A 
ATOM     66  N   UNL A   1      46.111  26.676  31.375  1.00  0.00    -0.354 N 
ATOM     67  N   UNL A   1      45.990  29.368  27.939  1.00  0.00    -0.248 NA
ATOM     68  C   UNL A   1      45.200  30.514  29.813  1.00  0.00     0.031 C 
ATOM     69  C   UNL A   1      45.996  24.936  30.095  1.00  0.00     0.029 A 
ATOM     70  C   UNL A   1      46.261  26.305  30.062  1.00  0.00     0.049 A 
ATOM     71  H   UNL A   1      46.632  27.360  31.854  1.00  0.00     0.167 HD
ATOM     72  C   UNL A   1      46.175  28.566  29.069  1.00  0.00     0.074 A 
ATOM     73  C   UNL A   1      45.703  29.347  30.192  1.00  0.00     0.031 C 
ATOM     74  C   UNL A   1      46.524  27.250  29.002  1.00  0.00     0.037 A 
BRANCH  61  75
ATOM     75  C   UNL A   1      44.400  26.358  34.258  1.00  0.00     0.064 A 
ATOM     76  C   UNL A   1      45.094  27.369  34.936  1.00  0.00     0.173 A 
ATOM     77  C   UNL A   1      44.142  25.159  34.926  1.00  0.00     0.173 A 
ATOM     78  F   UNL A   1      45.369  28.527  34.312  1.00  0.00    -0.203 F 
ATOM     79  C   UNL A   1      45.552  27.174  36.232  1.00  0.00     0.198 A 
ATOM     80  C   UNL A   1      44.597  24.968  36.228  1.00  0.00     0.198 A 
ATOM     81  F   UNL A   1      43.496  24.163  34.303  1.00  0.00    -0.203 F 
ATOM     82  F   UNL A   1      46.253  28.139  36.842  1.00  0.00    -0.200 F 
ATOM     83  C   UNL A   1      45.313  25.969  36.874  1.00  0.00     0.200 A 
ATOM     84  F   UNL A   1      44.375  23.802  36.851  1.00  0.00    -0.200 F 
ATOM     85  F   UNL A   1      45.786  25.767  38.111  1.00  0.00    -0.200 F 
ENDBRANCH  61  75
BRANCH  62  86
ATOM     86  C   UNL A   1      44.174  32.717  27.718  1.00  0.00     0.064 A 
ATOM     87  C   UNL A   1      44.782  33.627  26.824  1.00  0.00     0.173 A 
ATOM     88  C   UNL A   1      43.411  33.286  28.747  1.00  0.00     0.173 A 
ATOM     89  F   UNL A   1      45.624  33.185  25.876  1.00  0.00    -0.203 F 
ATOM     90  C   UNL A   1      44.538  34.999  26.881  1.00  0.00     0.198 A 
ATOM     91  C   UNL A   1      43.146  34.657  28.790  1.00  0.00     0.198 A 
ATOM     92  F   UNL A   1      42.899  32.531  29.728  1.00  0.00    -0.203 F 
ATOM     93  F   UNL A   1      45.109  35.818  25.988  1.00  0.00    -0.200 F 
ATOM     94  C   UNL A   1      43.693  35.510  27.849  1.00  0.00     0.200 A 
ATOM     95  F   UNL A   1      42.338  35.145  29.742  1.00  0.00    -0.200 F 
ATOM     96  F   UNL A   1      43.415  36.820  27.880  1.00  0.00    -0.200 F 
ENDBRANCH  62  86
BRANCH  74  97
ATOM     97  C   UNL A   1      46.951  26.766  27.660  1.00  0.00     0.064 A 
ATOM     98  C   UNL A   1      48.311  26.759  27.322  1.00  0.00     0.173 A 
ATOM     99  C   UNL A   1      46.033  26.272  26.721  1.00  0.00     0.173 A 
ATOM    100  F   UNL A   1      49.227  27.210  28.193  1.00  0.00    -0.203 F 
ATOM    101  C   UNL A   1      48.738  26.257  26.096  1.00  0.00     0.198 A 
ATOM    102  C   UNL A   1      46.467  25.749  25.506  1.00  0.00     0.198 A 
ATOM    103  F   UNL A   1      44.717  26.266  26.986  1.00  0.00    -0.203 F 
ATOM    104  F   UNL A   1      50.045  26.248  25.796  1.00  0.00    -0.200 F 
ATOM    105  C   UNL A   1      47.818  25.741  25.196  1.00  0.00     0.200 A 
ATOM    106  F   UNL A   1      45.580  25.232  24.644  1.00  0.00    -0.200 F 
ATOM    107  F   UNL A   1      48.236  25.223  24.031  1.00  0.00    -0.200 F 
ENDBRANCH  74  97
ENDBRANCH  48  49
ENDBRANCH  41  43
ENDBRANCH  40  41
ENDBRANCH  39  40
ENDBRANCH  38  39
ENDBRANCH  37  38
ENDBRANCH  36  37
ENDBRANCH   1  36
TORSDOF 22
ENDMDL
MODEL 3
REMARK VINA RESULT:     -10.5      1.277      1.886
REMARK SMILES Cc1oc2c(C)c3oc(=O)c(CC(=O)N[C@@H](CC(C)C)C(=O)OCCOCCOCCOC(=O)c4ccc(-c5c6nc(c(-c7c(F)c(F)c(F)c(F)c7F)c7ccc([nH]7)c(-c7c(F)c(F)c(F)c(F)c7F)c7nc(c(-c8c(F)c(F)c(F)c(F)c8F)c8ccc5[nH]8)C=C7)C=C6)cc4)c(C)c3cc2c1C
REMARK SMILES IDX 27 1 26 2 25 3 24 4 23 5 21 6 22 7 16 8 15 9 13 10 14 11
REMARK SMILES IDX 12 13 11 14 1 15 2 16 3 17 103 18 4 19 102 20 104 21 5 22
REMARK SMILES IDX 101 23 6 24 7 25 100 26 8 27 98 28 9 29 99 30 10 31 17 32
REMARK SMILES IDX 18 33 19 34 20 35 28 36 29 37 30 38 31 39 32 40 33 41 34 42
REMARK SMILES IDX 35 43 36 44 97 45 37 46 96 47 38 48 39 49 40 50 90 51 41 52
REMARK SMILES IDX 95 53 89 54 91 55 42 56 94 57 88 58 87 59 43 61 75 62 55 63
REMARK SMILES IDX 74 64 56 65 59 66 73 67 92 68 57 69 58 70 72 72 93 73 60 74
REMARK SMILES IDX 44 75 45 76 53 77 46 78 47 79 51 80 54 81 48 82 49 83 52 84
REMARK SMILES IDX 50 85 76 86 77 87 85 88 78 89 79 90 83 91 86 92 80 93 81 94
REMARK SMILES IDX 84 95 82 96 61 97 62 98 70 99 63 100 64 101 68 102 71 103
REMARK SMILES IDX 65 104 66 105 69 106 67 107
REMARK H PARENT 15 12 91 60 59 71
REMARK Flexibility Score: inf
ROOT
ATOM      1  C   UNL A   1      34.643  20.022  25.012  1.00  0.00     0.188 C 
ENDROOT
BRANCH   1   2
ATOM      2  O   UNL A   1      33.539  20.470  24.230  1.00  0.00    -0.376 OA
BRANCH   2   3
ATOM      3  C   UNL A   1      33.261  21.864  24.167  1.00  0.00     0.202 C 
BRANCH   3   4
ATOM      4  C   UNL A   1      32.940  22.424  22.782  1.00  0.00     0.261 C 
BRANCH   4   5
ATOM      5  O   UNL A   1      32.035  23.539  22.838  1.00  0.00    -0.462 OA
BRANCH   5   6
ATOM      6  C   UNL A   1      32.610  24.752  23.031  1.00  0.00     0.328 C 
ATOM      7  O   UNL A   1      33.638  25.124  22.476  1.00  0.00    -0.250 OA
BRANCH   6   8
ATOM      8  C   UNL A   1      31.877  25.617  24.079  1.00  0.00     0.192 C 
BRANCH   8   9
ATOM      9  N   UNL A   1      31.469  26.989  23.753  1.00  0.00    -0.342 N 
ATOM     10  C   UNL A   1      31.241  28.069  24.553  1.00  0.00     0.225 C 
ATOM     11  O   UNL A   1      30.861  29.114  24.019  1.00  0.00    -0.275 OA
ATOM     12  H   UNL A   1      31.338  27.159  22.792  1.00  0.00     0.164 HD
BRANCH  10  13
ATOM     13  C   UNL A   1      31.510  28.030  26.053  1.00  0.00     0.143 C 
BRANCH  13  14
ATOM     14  C   UNL A   1      32.743  28.799  26.454  1.00  0.00     0.051 A 
ATOM     15  C   UNL A   1      38.253  34.454  29.488  1.00  0.00     0.088 C 
ATOM     16  C   UNL A   1      37.165  33.560  29.043  1.00  0.00     0.105 A 
ATOM     17  O   UNL A   1      37.521  32.261  28.847  1.00  0.00    -0.461 OA
ATOM     18  C   UNL A   1      35.826  33.747  28.745  1.00  0.00    -0.002 A 
ATOM     19  C   UNL A   1      36.427  31.604  28.374  1.00  0.00     0.141 A 
ATOM     20  C   UNL A   1      35.355  32.479  28.283  1.00  0.00     0.025 A 
ATOM     21  C   UNL A   1      35.028  34.994  28.835  1.00  0.00     0.049 C 
ATOM     22  C   UNL A   1      36.389  30.256  28.015  1.00  0.00     0.036 A 
ATOM     23  C   UNL A   1      34.128  31.995  27.791  1.00  0.00     0.024 A 
ATOM     24  C   UNL A   1      37.570  29.351  28.170  1.00  0.00     0.052 C 
ATOM     25  C   UNL A   1      35.155  29.843  27.469  1.00  0.00     0.145 A 
ATOM     26  C   UNL A   1      34.027  30.665  27.351  1.00  0.00     0.022 A 
ATOM     27  O   UNL A   1      35.108  28.515  27.000  1.00  0.00    -0.422 OA
ATOM     28  C   UNL A   1      32.770  30.098  26.818  1.00  0.00    -0.029 A 
ATOM     29  C   UNL A   1      33.991  27.996  26.387  1.00  0.00     0.340 A 
ATOM     30  C   UNL A   1      31.568  31.007  26.730  1.00  0.00     0.046 C 
ATOM     31  O   UNL A   1      34.018  26.892  25.853  1.00  0.00    -0.246 OA
ENDBRANCH  13  14
ENDBRANCH  10  13
ENDBRANCH   8   9
BRANCH   8  32
ATOM     32  C   UNL A   1      30.676  24.832  24.632  1.00  0.00     0.040 C 
BRANCH  32  33
ATOM     33  C   UNL A   1      30.772  24.342  26.098  1.00  0.00    -0.015 C 
ATOM     34  C   UNL A   1      30.280  22.913  26.329  1.00  0.00     0.007 C 
ATOM     35  C   UNL A   1      32.226  24.457  26.566  1.00  0.00     0.007 C 
ENDBRANCH  32  33
ENDBRANCH   8  32
ENDBRANCH   6   8
ENDBRANCH   5   6
ENDBRANCH   4   5
ENDBRANCH   3   4
ENDBRANCH   2   3
ENDBRANCH   1   2
BRANCH   1  36
ATOM     36  C   UNL A   1      35.909  20.892  25.099  1.00  0.00     0.188 C 
BRANCH  36  37
ATOM     37  O   UNL A   1      37.121  20.213  24.813  1.00  0.00    -0.376 OA
BRANCH  37  38
ATOM     38  C   UNL A   1      38.276  20.754  25.441  1.00  0.00     0.202 C 
BRANCH  38  39
ATOM     39  C   UNL A   1      38.160  22.270  25.600  1.00  0.00     0.261 C 
BRANCH  39  40
ATOM     40  O   UNL A   1      38.780  22.737  26.810  1.00  0.00    -0.460 OA
BRANCH  40  41
ATOM     41  C   UNL A   1      40.065  23.129  26.661  1.00  0.00     0.338 C 
ATOM     42  O   UNL A   1      40.907  22.657  25.923  1.00  0.00    -0.246 OA
BRANCH  41  43
ATOM     43  C   UNL A   1      40.290  24.299  27.507  1.00  0.00     0.060 A 
ATOM     44  C   UNL A   1      39.436  25.403  27.414  1.00  0.00     0.016 A 
ATOM     45  C   UNL A   1      41.439  24.334  28.289  1.00  0.00     0.016 A 
ATOM     46  C   UNL A   1      39.749  26.569  28.103  1.00  0.00     0.010 A 
ATOM     47  C   UNL A   1      41.771  25.516  28.941  1.00  0.00     0.010 A 
ATOM     48  C   UNL A   1      40.945  26.648  28.829  1.00  0.00    -0.014 A 
BRANCH  48  49
ATOM     49  C   UNL A   1      41.380  27.962  29.348  1.00  0.00     0.031 A 
ATOM     50  C   UNL A   1      41.826  28.004  30.767  1.00  0.00     0.074 A 
ATOM     51  C   UNL A   1      41.916  28.864  28.493  1.00  0.00     0.049 A 
ATOM     52  N   UNL A   1      42.992  27.551  31.123  1.00  0.00    -0.248 NA
ATOM     53  C   UNL A   1      40.947  28.323  31.890  1.00  0.00     0.031 C 
ATOM     54  C   UNL A   1      42.397  28.526  27.144  1.00  0.00     0.029 A 
ATOM     55  N   UNL A   1      42.355  30.153  28.693  1.00  0.00    -0.354 N 
ATOM     56  C   UNL A   1      42.967  27.391  32.489  1.00  0.00     0.074 A 
ATOM     57  C   UNL A   1      41.705  27.942  32.934  1.00  0.00     0.031 C 
ATOM     58  C   UNL A   1      43.214  29.505  26.714  1.00  0.00     0.029 A 
ATOM     59  C   UNL A   1      43.201  30.598  27.679  1.00  0.00     0.049 A 
ATOM     60  H   UNL A   1      42.100  30.702  29.469  1.00  0.00     0.167 HD
ATOM     61  C   UNL A   1      43.966  26.759  33.155  1.00  0.00     0.037 A 
ATOM     62  C   UNL A   1      44.245  31.455  27.827  1.00  0.00     0.037 A 
ATOM     63  C   UNL A   1      45.029  26.241  32.345  1.00  0.00     0.049 A 
ATOM     64  C   UNL A   1      45.144  30.707  28.776  1.00  0.00     0.074 A 
ATOM     65  C   UNL A   1      45.336  25.036  31.749  1.00  0.00     0.029 A 
ATOM     66  N   UNL A   1      46.012  27.105  31.922  1.00  0.00    -0.354 N 
ATOM     67  N   UNL A   1      45.973  29.752  28.449  1.00  0.00    -0.248 NA
ATOM     68  C   UNL A   1      44.876  30.818  30.211  1.00  0.00     0.031 C 
ATOM     69  C   UNL A   1      46.214  25.356  30.666  1.00  0.00     0.029 A 
ATOM     70  C   UNL A   1      46.336  26.745  30.638  1.00  0.00     0.049 A 
ATOM     71  H   UNL A   1      46.406  27.843  32.442  1.00  0.00     0.167 HD
ATOM     72  C   UNL A   1      46.121  28.979  29.605  1.00  0.00     0.074 A 
ATOM     73  C   UNL A   1      45.455  29.713  30.660  1.00  0.00     0.031 C 
ATOM     74  C   UNL A   1      46.610  27.706  29.596  1.00  0.00     0.037 A 
BRANCH  61  75
ATOM     75  C   UNL A   1      44.049  26.625  34.616  1.00  0.00     0.064 A 
ATOM     76  C   UNL A   1      43.416  25.525  35.211  1.00  0.00     0.173 A 
ATOM     77  C   UNL A   1      44.536  27.643  35.439  1.00  0.00     0.173 A 
ATOM     78  F   UNL A   1      42.925  24.539  34.442  1.00  0.00    -0.203 F 
ATOM     79  C   UNL A   1      43.240  25.462  36.586  1.00  0.00     0.198 A 
ATOM     80  C   UNL A   1      44.363  27.575  36.819  1.00  0.00     0.198 A 
ATOM     81  F   UNL A   1      45.131  28.719  34.905  1.00  0.00    -0.203 F 
ATOM     82  F   UNL A   1      42.592  24.422  37.127  1.00  0.00    -0.200 F 
ATOM     83  C   UNL A   1      43.704  26.492  37.390  1.00  0.00     0.200 A 
ATOM     84  F   UNL A   1      44.804  28.571  37.599  1.00  0.00    -0.200 F 
ATOM     85  F   UNL A   1      43.502  26.449  38.714  1.00  0.00    -0.200 F 
ENDBRANCH  61  75
BRANCH  62  86
ATOM     86  C   UNL A   1      43.852  32.889  27.985  1.00  0.00     0.064 A 
ATOM     87  C   UNL A   1      44.315  33.828  27.034  1.00  0.00     0.173 A 
ATOM     88  C   UNL A   1      43.060  33.405  29.020  1.00  0.00     0.173 A 
ATOM     89  F   UNL A   1      45.173  33.451  26.074  1.00  0.00    -0.203 F 
ATOM     90  C   UNL A   1      43.905  35.161  27.048  1.00  0.00     0.198 A 
ATOM     91  C   UNL A   1      42.629  34.734  29.020  1.00  0.00     0.198 A 
ATOM     92  F   UNL A   1      42.676  32.636  30.047  1.00  0.00    -0.203 F 
ATOM     93  F   UNL A   1      44.343  36.005  26.104  1.00  0.00    -0.200 F 
ATOM     94  C   UNL A   1      43.036  35.606  28.027  1.00  0.00     0.200 A 
ATOM     95  F   UNL A   1      41.798  35.160  29.983  1.00  0.00    -0.200 F 
ATOM     96  F   UNL A   1      42.600  36.873  28.018  1.00  0.00    -0.200 F 
ENDBRANCH  62  86
BRANCH  74  97
ATOM     97  C   UNL A   1      47.224  27.263  28.314  1.00  0.00     0.064 A 
ATOM     98  C   UNL A   1      46.413  26.751  27.293  1.00  0.00     0.173 A 
ATOM     99  C   UNL A   1      48.601  27.378  28.070  1.00  0.00     0.173 A 
ATOM    100  F   UNL A   1      45.088  26.634  27.475  1.00  0.00    -0.203 F 
ATOM    101  C   UNL A   1      46.957  26.386  26.065  1.00  0.00     0.198 A 
ATOM    102  C   UNL A   1      49.137  27.034  26.833  1.00  0.00     0.198 A 
ATOM    103  F   UNL A   1      49.428  27.851  29.016  1.00  0.00    -0.203 F 
ATOM    104  F   UNL A   1      46.162  25.908  25.097  1.00  0.00    -0.200 F 
ATOM    105  C   UNL A   1      48.315  26.539  25.832  1.00  0.00     0.200 A 
ATOM    106  F   UNL A   1      50.447  27.202  26.600  1.00  0.00    -0.200 F 
ATOM    107  F   UNL A   1      48.831  26.223  24.635  1.00  0.00    -0.200 F 
ENDBRANCH  74  97
ENDBRANCH  48  49
ENDBRANCH  41  43
ENDBRANCH  40  41
ENDBRANCH  39  40
ENDBRANCH  38  39
ENDBRANCH  37  38
ENDBRANCH  36  37
ENDBRANCH   1  36
TORSDOF 22
ENDMDL
