MODEL 1
REMARK VINA RESULT:     -11.0      0.000      0.000
REMARK SMILES C/C(=N/[NH+]=C1\NC(=O)[C@H](CC(=O)OCCOCCOCCOC(=O)c2ccc(-c3c4nc(c(-c5c(F)c(F)c(F)c(F)c5F)c5ccc([nH]5)c(-c5c(F)c(F)c(F)c(F)c5F)c5nc(c(-c6c(F)c(F)c(F)c(F)c6F)c6ccc3[nH]6)C=C5)C=C4)cc2)S1)c1ccc(OC(C)C)cc1
REMARK SMILES IDX 16 1 15 2 14 3 13 4 11 5 12 6 10 7 9 8 4 9 5 10 6 12 88 13
REMARK SMILES IDX 7 14 8 16 3 17 1 18 2 19 89 20 90 21 98 22 91 23 97 24 92 25
REMARK SMILES IDX 93 26 94 27 95 28 96 29 17 30 18 31 19 32 20 33 21 34 22 35
REMARK SMILES IDX 23 36 24 37 25 38 26 39 87 40 27 41 86 42 28 43 29 44 30 45
REMARK SMILES IDX 80 46 31 47 85 48 79 49 81 50 32 51 84 52 78 53 77 54 33 56
REMARK SMILES IDX 65 57 45 58 64 59 46 60 49 61 63 62 82 63 47 64 48 65 62 67
REMARK SMILES IDX 83 68 50 69 34 70 35 71 43 72 36 73 37 74 41 75 44 76 38 77
REMARK SMILES IDX 39 78 42 79 40 80 66 81 67 82 75 83 68 84 69 85 73 86 76 87
REMARK SMILES IDX 70 88 71 89 74 90 72 91 51 92 52 93 60 94 53 95 54 96 58 97
REMARK SMILES IDX 61 98 55 99 56 100 59 101 57 102
REMARK H PARENT 4 11 6 15 81 55 49 66
REMARK Flexibility Score: inf
ROOT
ATOM      1  O   UNL A   1      40.480  22.378  27.080  1.00  0.00    -0.376 OA
ENDROOT
BRANCH   1   2
ATOM      2  C   UNL A   1      39.280  22.944  26.556  1.00  0.00     0.202 C 
BRANCH   2   3
ATOM      3  C   UNL A   1      38.369  21.975  25.795  1.00  0.00     0.261 C 
BRANCH   3   4
ATOM      4  O   UNL A   1      36.984  22.386  25.667  1.00  0.00    -0.463 OA
BRANCH   4   5
ATOM      5  C   UNL A   1      36.086  21.428  25.349  1.00  0.00     0.307 C 
ATOM      6  O   UNL A   1      36.380  20.262  25.099  1.00  0.00    -0.252 OA
BRANCH   5   7
ATOM      7  C   UNL A   1      34.636  21.860  25.359  1.00  0.00     0.150 C 
BRANCH   7   8
ATOM      8  C   UNL A   1      33.777  21.778  24.108  1.00  0.00     0.184 C 
ATOM      9  N   UNL A   1      31.794  24.934  23.176  1.00  0.00    -0.142 N 
ATOM     10  C   UNL A   1      32.284  23.747  23.303  1.00  0.00     0.337 C 
ATOM     11  H   UNL A   1      32.367  25.706  22.960  1.00  0.00     0.343 HD
ATOM     12  N   UNL A   1      31.589  22.642  23.632  1.00  0.00    -0.202 N 
ATOM     13  S   UNL A   1      33.978  23.390  23.205  1.00  0.00    -0.020 SA
ATOM     14  C   UNL A   1      32.268  21.657  24.284  1.00  0.00     0.322 C 
ATOM     15  H   UNL A   1      30.634  22.550  23.413  1.00  0.00     0.316 HD
ATOM     16  O   UNL A   1      31.681  20.822  24.959  1.00  0.00    -0.246 OA
BRANCH   9  17
ATOM     17  N   UNL A   1      30.404  25.080  23.360  1.00  0.00    -0.090 NA
ATOM     18  C   UNL A   1      28.455  26.253  24.163  1.00  0.00     0.071 C 
ATOM     19  C   UNL A   1      29.957  26.099  24.045  1.00  0.00     0.088 C 
BRANCH  19  20
ATOM     20  C   UNL A   1      30.776  27.044  24.851  1.00  0.00    -0.000 A 
ATOM     21  C   UNL A   1      31.088  26.797  26.186  1.00  0.00     0.014 A 
ATOM     22  C   UNL A   1      31.056  28.295  24.290  1.00  0.00     0.014 A 
ATOM     23  C   UNL A   1      31.644  27.822  26.958  1.00  0.00     0.047 A 
ATOM     24  C   UNL A   1      31.597  29.316  25.076  1.00  0.00     0.047 A 
ATOM     25  C   UNL A   1      31.897  29.090  26.414  1.00  0.00     0.119 A 
BRANCH  25  26
ATOM     26  O   UNL A   1      32.380  29.999  27.305  1.00  0.00    -0.491 OA
BRANCH  26  27
ATOM     27  C   UNL A   1      33.766  30.111  27.648  1.00  0.00     0.167 C 
ATOM     28  C   UNL A   1      34.689  29.130  26.937  1.00  0.00     0.052 C 
ATOM     29  C   UNL A   1      34.280  31.541  27.638  1.00  0.00     0.052 C 
ENDBRANCH  26  27
ENDBRANCH  25  26
ENDBRANCH  19  20
ENDBRANCH   9  17
ENDBRANCH   7   8
ENDBRANCH   5   7
ENDBRANCH   4   5
ENDBRANCH   3   4
ENDBRANCH   2   3
ENDBRANCH   1   2
BRANCH   1  30
ATOM     30  C   UNL A   1      41.270  21.644  26.150  1.00  0.00     0.188 C 
BRANCH  30  31
ATOM     31  C   UNL A   1      42.054  20.479  26.753  1.00  0.00     0.188 C 
BRANCH  31  32
ATOM     32  O   UNL A   1      41.835  19.207  26.170  1.00  0.00    -0.376 OA
BRANCH  32  33
ATOM     33  C   UNL A   1      42.758  18.163  26.486  1.00  0.00     0.202 C 
BRANCH  33  34
ATOM     34  C   UNL A   1      44.132  18.173  25.778  1.00  0.00     0.261 C 
BRANCH  34  35
ATOM     35  O   UNL A   1      44.178  18.704  24.434  1.00  0.00    -0.460 OA
BRANCH  35  36
ATOM     36  C   UNL A   1      45.293  19.353  24.022  1.00  0.00     0.338 C 
ATOM     37  O   UNL A   1      46.088  18.963  23.182  1.00  0.00    -0.246 OA
BRANCH  36  38
ATOM     38  C   UNL A   1      45.223  20.762  24.521  1.00  0.00     0.060 A 
ATOM     39  C   UNL A   1      44.635  21.732  23.690  1.00  0.00     0.016 A 
ATOM     40  C   UNL A   1      45.590  21.110  25.825  1.00  0.00     0.016 A 
ATOM     41  C   UNL A   1      44.428  23.039  24.148  1.00  0.00     0.010 A 
ATOM     42  C   UNL A   1      45.412  22.425  26.273  1.00  0.00     0.010 A 
ATOM     43  C   UNL A   1      44.854  23.405  25.431  1.00  0.00    -0.014 A 
BRANCH  43  44
ATOM     44  C   UNL A   1      44.960  24.838  25.814  1.00  0.00     0.031 A 
ATOM     45  C   UNL A   1      46.317  25.481  25.717  1.00  0.00     0.074 A 
ATOM     46  C   UNL A   1      43.913  25.558  26.257  1.00  0.00     0.049 A 
ATOM     47  N   UNL A   1      46.723  26.651  26.136  1.00  0.00    -0.248 NA
ATOM     48  C   UNL A   1      47.363  24.679  25.060  1.00  0.00     0.031 C 
ATOM     49  C   UNL A   1      42.532  25.092  26.339  1.00  0.00     0.029 A 
ATOM     50  N   UNL A   1      43.863  26.843  26.747  1.00  0.00    -0.354 N 
ATOM     51  C   UNL A   1      48.072  26.716  25.813  1.00  0.00     0.074 A 
ATOM     52  C   UNL A   1      48.422  25.462  25.182  1.00  0.00     0.031 C 
ATOM     53  C   UNL A   1      41.773  26.067  26.873  1.00  0.00     0.029 A 
ATOM     54  C   UNL A   1      42.624  27.208  27.217  1.00  0.00     0.049 A 
ATOM     55  H   UNL A   1      44.642  27.445  26.760  1.00  0.00     0.167 HD
ATOM     56  C   UNL A   1      48.944  27.729  26.024  1.00  0.00     0.037 A 
ATOM     57  C   UNL A   1      42.234  28.316  27.883  1.00  0.00     0.037 A 
ATOM     58  C   UNL A   1      48.600  28.975  26.652  1.00  0.00     0.049 A 
ATOM     59  C   UNL A   1      43.246  29.394  28.199  1.00  0.00     0.074 A 
ATOM     60  C   UNL A   1      49.413  30.066  26.904  1.00  0.00     0.029 A 
ATOM     61  N   UNL A   1      47.340  29.291  27.137  1.00  0.00    -0.354 N 
ATOM     62  N   UNL A   1      44.520  29.453  27.892  1.00  0.00    -0.248 NA
ATOM     63  C   UNL A   1      42.768  30.559  28.962  1.00  0.00     0.031 C 
ATOM     64  C   UNL A   1      48.662  31.018  27.599  1.00  0.00     0.029 A 
ATOM     65  C   UNL A   1      47.362  30.551  27.714  1.00  0.00     0.049 A 
ATOM     66  H   UNL A   1      46.549  28.709  27.081  1.00  0.00     0.167 HD
ATOM     67  C   UNL A   1      44.979  30.672  28.382  1.00  0.00     0.074 A 
ATOM     68  C   UNL A   1      43.851  31.322  29.010  1.00  0.00     0.031 C 
ATOM     69  C   UNL A   1      46.224  31.204  28.310  1.00  0.00     0.037 A 
BRANCH  56  70
ATOM     70  C   UNL A   1      50.370  27.513  25.609  1.00  0.00     0.064 A 
ATOM     71  C   UNL A   1      51.353  27.095  26.519  1.00  0.00     0.173 A 
ATOM     72  C   UNL A   1      50.752  27.704  24.272  1.00  0.00     0.173 A 
ATOM     73  F   UNL A   1      51.044  26.916  27.812  1.00  0.00    -0.203 F 
ATOM     74  C   UNL A   1      52.670  26.902  26.110  1.00  0.00     0.198 A 
ATOM     75  C   UNL A   1      52.061  27.477  23.860  1.00  0.00     0.198 A 
ATOM     76  F   UNL A   1      49.851  28.104  23.362  1.00  0.00    -0.203 F 
ATOM     77  F   UNL A   1      53.603  26.554  27.007  1.00  0.00    -0.200 F 
ATOM     78  C   UNL A   1      53.021  27.084  24.780  1.00  0.00     0.200 A 
ATOM     79  F   UNL A   1      52.394  27.640  22.573  1.00  0.00    -0.200 F 
ATOM     80  F   UNL A   1      54.287  26.889  24.387  1.00  0.00    -0.200 F 
ENDBRANCH  56  70
BRANCH  57  81
ATOM     81  C   UNL A   1      40.822  28.461  28.337  1.00  0.00     0.064 A 
ATOM     82  C   UNL A   1      39.846  29.025  27.502  1.00  0.00     0.173 A 
ATOM     83  C   UNL A   1      40.428  28.079  29.628  1.00  0.00     0.173 A 
ATOM     84  F   UNL A   1      40.178  29.442  26.272  1.00  0.00    -0.203 F 
ATOM     85  C   UNL A   1      38.538  29.217  27.947  1.00  0.00     0.198 A 
ATOM     86  C   UNL A   1      39.112  28.241  30.060  1.00  0.00     0.198 A 
ATOM     87  F   UNL A   1      41.323  27.546  30.474  1.00  0.00    -0.203 F 
ATOM     88  F   UNL A   1      37.642  29.812  27.148  1.00  0.00    -0.200 F 
ATOM     89  C   UNL A   1      38.171  28.819  29.223  1.00  0.00     0.200 A 
ATOM     90  F   UNL A   1      38.762  27.847  31.293  1.00  0.00    -0.200 F 
ATOM     91  F   UNL A   1      36.915  29.003  29.651  1.00  0.00    -0.200 F 
ENDBRANCH  57  81
BRANCH  69  92
ATOM     92  C   UNL A   1      46.438  32.587  28.858  1.00  0.00     0.064 A 
ATOM     93  C   UNL A   1      46.207  33.736  28.089  1.00  0.00     0.173 A 
ATOM     94  C   UNL A   1      46.785  32.760  30.208  1.00  0.00     0.173 A 
ATOM     95  F   UNL A   1      45.883  33.626  26.791  1.00  0.00    -0.203 F 
ATOM     96  C   UNL A   1      46.327  35.007  28.646  1.00  0.00     0.198 A 
ATOM     97  C   UNL A   1      46.873  34.031  30.770  1.00  0.00     0.198 A 
ATOM     98  F   UNL A   1      47.007  31.694  30.991  1.00  0.00    -0.203 F 
ATOM     99  F   UNL A   1      46.131  36.092  27.885  1.00  0.00    -0.200 F 
ATOM    100  C   UNL A   1      46.647  35.153  29.989  1.00  0.00     0.200 A 
ATOM    101  F   UNL A   1      47.163  34.167  32.072  1.00  0.00    -0.200 F 
ATOM    102  F   UNL A   1      46.739  36.375  30.530  1.00  0.00    -0.200 F 
ENDBRANCH  69  92
ENDBRANCH  43  44
ENDBRANCH  36  38
ENDBRANCH  35  36
ENDBRANCH  34  35
ENDBRANCH  33  34
ENDBRANCH  32  33
ENDBRANCH  31  32
ENDBRANCH  30  31
ENDBRANCH   1  30
TORSDOF 22
ENDMDL
MODEL 2
REMARK VINA RESULT:     -11.0      4.809      7.442
REMARK SMILES C/C(=N/[NH+]=C1\NC(=O)[C@H](CC(=O)OCCOCCOCCOC(=O)c2ccc(-c3c4nc(c(-c5c(F)c(F)c(F)c(F)c5F)c5ccc([nH]5)c(-c5c(F)c(F)c(F)c(F)c5F)c5nc(c(-c6c(F)c(F)c(F)c(F)c6F)c6ccc3[nH]6)C=C5)C=C4)cc2)S1)c1ccc(OC(C)C)cc1
REMARK SMILES IDX 16 1 15 2 14 3 13 4 11 5 12 6 10 7 9 8 4 9 5 10 6 12 88 13
REMARK SMILES IDX 7 14 8 16 3 17 1 18 2 19 89 20 90 21 98 22 91 23 97 24 92 25
REMARK SMILES IDX 93 26 94 27 95 28 96 29 17 30 18 31 19 32 20 33 21 34 22 35
REMARK SMILES IDX 23 36 24 37 25 38 26 39 87 40 27 41 86 42 28 43 29 44 30 45
REMARK SMILES IDX 80 46 31 47 85 48 79 49 81 50 32 51 84 52 78 53 77 54 33 56
REMARK SMILES IDX 65 57 45 58 64 59 46 60 49 61 63 62 82 63 47 64 48 65 62 67
REMARK SMILES IDX 83 68 50 69 34 70 35 71 43 72 36 73 37 74 41 75 44 76 38 77
REMARK SMILES IDX 39 78 42 79 40 80 66 81 67 82 75 83 68 84 69 85 73 86 76 87
REMARK SMILES IDX 70 88 71 89 74 90 72 91 51 92 52 93 60 94 53 95 54 96 58 97
REMARK SMILES IDX 61 98 55 99 56 100 59 101 57 102
REMARK H PARENT 4 11 6 15 81 55 49 66
REMARK Flexibility Score: inf
ROOT
ATOM      1  O   UNL A   1      39.691  23.504  26.997  1.00  0.00    -0.376 OA
ENDROOT
BRANCH   1   2
ATOM      2  C   UNL A   1      38.315  23.773  26.732  1.00  0.00     0.202 C 
BRANCH   2   3
ATOM      3  C   UNL A   1      37.644  22.848  25.711  1.00  0.00     0.261 C 
BRANCH   3   4
ATOM      4  O   UNL A   1      36.587  23.449  24.922  1.00  0.00    -0.463 OA
BRANCH   4   5
ATOM      5  C   UNL A   1      36.051  22.693  23.937  1.00  0.00     0.307 C 
ATOM      6  O   UNL A   1      36.156  22.944  22.740  1.00  0.00    -0.252 OA
BRANCH   5   7
ATOM      7  C   UNL A   1      35.322  21.447  24.392  1.00  0.00     0.150 C 
BRANCH   7   8
ATOM      8  C   UNL A   1      33.961  21.527  25.064  1.00  0.00     0.184 C 
ATOM      9  N   UNL A   1      32.218  24.951  25.015  1.00  0.00    -0.142 N 
ATOM     10  C   UNL A   1      32.610  23.740  25.232  1.00  0.00     0.337 C 
ATOM     11  H   UNL A   1      31.998  25.264  24.108  1.00  0.00     0.343 HD
ATOM     12  N   UNL A   1      32.968  23.233  26.427  1.00  0.00    -0.202 N 
ATOM     13  S   UNL A   1      32.879  22.576  23.976  1.00  0.00    -0.020 SA
ATOM     14  C   UNL A   1      33.873  22.215  26.420  1.00  0.00     0.322 C 
ATOM     15  H   UNL A   1      32.593  23.583  27.268  1.00  0.00     0.316 HD
ATOM     16  O   UNL A   1      34.546  21.958  27.409  1.00  0.00    -0.246 OA
BRANCH   9  17
ATOM     17  N   UNL A   1      32.120  25.806  26.132  1.00  0.00    -0.090 NA
ATOM     18  C   UNL A   1      31.353  27.802  27.247  1.00  0.00     0.071 C 
ATOM     19  C   UNL A   1      31.492  26.944  26.007  1.00  0.00     0.088 C 
BRANCH  19  20
ATOM     20  C   UNL A   1      31.028  27.558  24.733  1.00  0.00    -0.000 A 
ATOM     21  C   UNL A   1      31.625  28.698  24.202  1.00  0.00     0.014 A 
ATOM     22  C   UNL A   1      29.836  27.075  24.182  1.00  0.00     0.014 A 
ATOM     23  C   UNL A   1      31.000  29.368  23.146  1.00  0.00     0.047 A 
ATOM     24  C   UNL A   1      29.212  27.762  23.137  1.00  0.00     0.047 A 
ATOM     25  C   UNL A   1      29.787  28.911  22.609  1.00  0.00     0.119 A 
BRANCH  25  26
ATOM     26  O   UNL A   1      29.270  29.704  21.630  1.00  0.00    -0.491 OA
BRANCH  26  27
ATOM     27  C   UNL A   1      28.660  30.975  21.881  1.00  0.00     0.167 C 
ATOM     28  C   UNL A   1      28.030  31.641  20.666  1.00  0.00     0.052 C 
ATOM     29  C   UNL A   1      27.764  30.985  23.109  1.00  0.00     0.052 C 
ENDBRANCH  26  27
ENDBRANCH  25  26
ENDBRANCH  19  20
ENDBRANCH   9  17
ENDBRANCH   7   8
ENDBRANCH   5   7
ENDBRANCH   4   5
ENDBRANCH   3   4
ENDBRANCH   2   3
ENDBRANCH   1   2
BRANCH   1  30
ATOM     30  C   UNL A   1      40.204  22.307  26.422  1.00  0.00     0.188 C 
BRANCH  30  31
ATOM     31  C   UNL A   1      40.782  21.309  27.424  1.00  0.00     0.188 C 
BRANCH  31  32
ATOM     32  O   UNL A   1      42.177  21.077  27.346  1.00  0.00    -0.376 OA
BRANCH  32  33
ATOM     33  C   UNL A   1      42.722  20.731  26.071  1.00  0.00     0.202 C 
BRANCH  33  34
ATOM     34  C   UNL A   1      43.668  21.746  25.389  1.00  0.00     0.261 C 
BRANCH  34  35
ATOM     35  O   UNL A   1      43.190  23.104  25.254  1.00  0.00    -0.460 OA
BRANCH  35  36
ATOM     36  C   UNL A   1      44.086  24.119  25.275  1.00  0.00     0.338 C 
ATOM     37  O   UNL A   1      44.905  24.379  24.408  1.00  0.00    -0.246 OA
BRANCH  36  38
ATOM     38  C   UNL A   1      43.698  25.061  26.371  1.00  0.00     0.060 A 
ATOM     39  C   UNL A   1      42.879  24.576  27.405  1.00  0.00     0.016 A 
ATOM     40  C   UNL A   1      44.236  26.349  26.471  1.00  0.00     0.016 A 
ATOM     41  C   UNL A   1      42.584  25.371  28.519  1.00  0.00     0.010 A 
ATOM     42  C   UNL A   1      43.915  27.155  27.571  1.00  0.00     0.010 A 
ATOM     43  C   UNL A   1      43.068  26.683  28.590  1.00  0.00    -0.014 A 
BRANCH  43  44
ATOM     44  C   UNL A   1      42.504  27.648  29.571  1.00  0.00     0.031 A 
ATOM     45  C   UNL A   1      43.212  27.782  30.892  1.00  0.00     0.074 A 
ATOM     46  C   UNL A   1      41.395  28.372  29.334  1.00  0.00     0.049 A 
ATOM     47  N   UNL A   1      42.851  28.417  31.977  1.00  0.00    -0.248 NA
ATOM     48  C   UNL A   1      44.508  27.091  31.001  1.00  0.00     0.031 C 
ATOM     49  C   UNL A   1      40.647  28.398  28.081  1.00  0.00     0.029 A 
ATOM     50  N   UNL A   1      40.692  29.216  30.163  1.00  0.00    -0.354 N 
ATOM     51  C   UNL A   1      43.862  28.185  32.900  1.00  0.00     0.074 A 
ATOM     52  C   UNL A   1      44.840  27.335  32.258  1.00  0.00     0.031 C 
ATOM     53  C   UNL A   1      39.573  29.195  28.231  1.00  0.00     0.029 A 
ATOM     54  C   UNL A   1      39.531  29.697  29.606  1.00  0.00     0.049 A 
ATOM     55  H   UNL A   1      40.992  29.452  31.070  1.00  0.00     0.167 HD
ATOM     56  C   UNL A   1      43.966  28.636  34.172  1.00  0.00     0.037 A 
ATOM     57  C   UNL A   1      38.535  30.423  30.155  1.00  0.00     0.037 A 
ATOM     58  C   UNL A   1      42.994  29.479  34.813  1.00  0.00     0.049 A 
ATOM     59  C   UNL A   1      38.621  30.835  31.608  1.00  0.00     0.074 A 
ATOM     60  C   UNL A   1      43.015  29.995  36.096  1.00  0.00     0.029 A 
ATOM     61  N   UNL A   1      41.821  29.920  34.221  1.00  0.00    -0.354 N 
ATOM     62  N   UNL A   1      39.578  30.614  32.477  1.00  0.00    -0.248 NA
ATOM     63  C   UNL A   1      37.484  31.591  32.160  1.00  0.00     0.031 C 
ATOM     64  C   UNL A   1      41.824  30.696  36.304  1.00  0.00     0.029 A 
ATOM     65  C   UNL A   1      41.096  30.680  35.124  1.00  0.00     0.049 A 
ATOM     66  H   UNL A   1      41.544  29.724  33.297  1.00  0.00     0.167 HD
ATOM     67  C   UNL A   1      39.181  31.239  33.655  1.00  0.00     0.074 A 
ATOM     68  C   UNL A   1      37.895  31.845  33.394  1.00  0.00     0.031 C 
ATOM     69  C   UNL A   1      39.829  31.306  34.845  1.00  0.00     0.037 A 
BRANCH  56  70
ATOM     70  C   UNL A   1      45.157  28.191  34.970  1.00  0.00     0.064 A 
ATOM     71  C   UNL A   1      45.149  27.001  35.712  1.00  0.00     0.173 A 
ATOM     72  C   UNL A   1      46.333  28.957  34.969  1.00  0.00     0.173 A 
ATOM     73  F   UNL A   1      44.044  26.242  35.762  1.00  0.00    -0.203 F 
ATOM     74  C   UNL A   1      46.266  26.609  36.446  1.00  0.00     0.198 A 
ATOM     75  C   UNL A   1      47.458  28.545  35.674  1.00  0.00     0.198 A 
ATOM     76  F   UNL A   1      46.392  30.104  34.274  1.00  0.00    -0.203 F 
ATOM     77  F   UNL A   1      46.219  25.496  37.190  1.00  0.00    -0.200 F 
ATOM     78  C   UNL A   1      47.422  27.376  36.419  1.00  0.00     0.200 A 
ATOM     79  F   UNL A   1      48.577  29.280  35.635  1.00  0.00    -0.200 F 
ATOM     80  F   UNL A   1      48.499  26.992  37.118  1.00  0.00    -0.200 F 
ENDBRANCH  56  70
BRANCH  57  81
ATOM     81  C   UNL A   1      37.337  30.788  29.346  1.00  0.00     0.064 A 
ATOM     82  C   UNL A   1      36.355  29.837  29.035  1.00  0.00     0.173 A 
ATOM     83  C   UNL A   1      37.171  32.083  28.833  1.00  0.00     0.173 A 
ATOM     84  F   UNL A   1      36.484  28.575  29.470  1.00  0.00    -0.203 F 
ATOM     85  C   UNL A   1      35.264  30.162  28.228  1.00  0.00     0.198 A 
ATOM     86  C   UNL A   1      36.064  32.416  28.053  1.00  0.00     0.198 A 
ATOM     87  F   UNL A   1      38.087  33.030  29.087  1.00  0.00    -0.203 F 
ATOM     88  F   UNL A   1      34.372  29.218  27.900  1.00  0.00    -0.200 F 
ATOM     89  C   UNL A   1      35.116  31.453  27.744  1.00  0.00     0.200 A 
ATOM     90  F   UNL A   1      35.923  33.667  27.593  1.00  0.00    -0.200 F 
ATOM     91  F   UNL A   1      34.069  31.765  26.969  1.00  0.00    -0.200 F 
ENDBRANCH  57  81
BRANCH  69  92
ATOM     92  C   UNL A   1      39.209  32.119  35.946  1.00  0.00     0.064 A 
ATOM     93  C   UNL A   1      38.271  31.576  36.835  1.00  0.00     0.173 A 
ATOM     94  C   UNL A   1      39.638  33.438  36.171  1.00  0.00     0.173 A 
ATOM     95  F   UNL A   1      37.819  30.325  36.659  1.00  0.00    -0.203 F 
ATOM     96  C   UNL A   1      37.778  32.325  37.901  1.00  0.00     0.198 A 
ATOM     97  C   UNL A   1      39.168  34.172  37.256  1.00  0.00     0.198 A 
ATOM     98  F   UNL A   1      40.543  34.003  35.356  1.00  0.00    -0.203 F 
ATOM     99  F   UNL A   1      36.859  31.796  38.721  1.00  0.00    -0.200 F 
ATOM    100  C   UNL A   1      38.236  33.617  38.118  1.00  0.00     0.200 A 
ATOM    101  F   UNL A   1      39.627  35.412  37.474  1.00  0.00    -0.200 F 
ATOM    102  F   UNL A   1      37.778  34.327  39.158  1.00  0.00    -0.200 F 
ENDBRANCH  69  92
ENDBRANCH  43  44
ENDBRANCH  36  38
ENDBRANCH  35  36
ENDBRANCH  34  35
ENDBRANCH  33  34
ENDBRANCH  32  33
ENDBRANCH  31  32
ENDBRANCH  30  31
ENDBRANCH   1  30
TORSDOF 22
ENDMDL
MODEL 3
REMARK VINA RESULT:      -9.7      5.448      9.757
REMARK SMILES C/C(=N/[NH+]=C1\NC(=O)[C@H](CC(=O)OCCOCCOCCOC(=O)c2ccc(-c3c4nc(c(-c5c(F)c(F)c(F)c(F)c5F)c5ccc([nH]5)c(-c5c(F)c(F)c(F)c(F)c5F)c5nc(c(-c6c(F)c(F)c(F)c(F)c6F)c6ccc3[nH]6)C=C5)C=C4)cc2)S1)c1ccc(OC(C)C)cc1
REMARK SMILES IDX 16 1 15 2 14 3 13 4 11 5 12 6 10 7 9 8 4 9 5 10 6 12 88 13
REMARK SMILES IDX 7 14 8 16 3 17 1 18 2 19 89 20 90 21 98 22 91 23 97 24 92 25
REMARK SMILES IDX 93 26 94 27 95 28 96 29 17 30 18 31 19 32 20 33 21 34 22 35
REMARK SMILES IDX 23 36 24 37 25 38 26 39 87 40 27 41 86 42 28 43 29 44 30 45
REMARK SMILES IDX 80 46 31 47 85 48 79 49 81 50 32 51 84 52 78 53 77 54 33 56
REMARK SMILES IDX 65 57 45 58 64 59 46 60 49 61 63 62 82 63 47 64 48 65 62 67
REMARK SMILES IDX 83 68 50 69 34 70 35 71 43 72 36 73 37 74 41 75 44 76 38 77
REMARK SMILES IDX 39 78 42 79 40 80 66 81 67 82 75 83 68 84 69 85 73 86 76 87
REMARK SMILES IDX 70 88 71 89 74 90 72 91 51 92 52 93 60 94 53 95 54 96 58 97
REMARK SMILES IDX 61 98 55 99 56 100 59 101 57 102
REMARK H PARENT 4 11 6 15 81 55 49 66
REMARK Flexibility Score: inf
ROOT
ATOM      1  O   UNL A   1      37.657  23.155  26.084  1.00  0.00    -0.376 OA
ENDROOT
BRANCH   1   2
ATOM      2  C   UNL A   1      36.436  22.710  25.494  1.00  0.00     0.202 C 
BRANCH   2   3
ATOM      3  C   UNL A   1      36.180  21.201  25.561  1.00  0.00     0.261 C 
BRANCH   3   4
ATOM      4  O   UNL A   1      35.368  20.656  24.490  1.00  0.00    -0.463 OA
BRANCH   4   5
ATOM      5  C   UNL A   1      34.202  20.069  24.841  1.00  0.00     0.307 C 
ATOM      6  O   UNL A   1      33.699  19.122  24.242  1.00  0.00    -0.252 OA
BRANCH   5   7
ATOM      7  C   UNL A   1      33.539  20.622  26.083  1.00  0.00     0.150 C 
BRANCH   7   8
ATOM      8  C   UNL A   1      32.517  21.744  26.002  1.00  0.00     0.184 C 
ATOM      9  N   UNL A   1      33.827  25.184  24.898  1.00  0.00    -0.142 N 
ATOM     10  C   UNL A   1      33.158  24.177  25.353  1.00  0.00     0.337 C 
ATOM     11  H   UNL A   1      34.185  25.189  23.981  1.00  0.00     0.343 HD
ATOM     12  N   UNL A   1      32.663  24.063  26.600  1.00  0.00    -0.202 N 
ATOM     13  S   UNL A   1      32.897  22.713  24.462  1.00  0.00    -0.020 SA
ATOM     14  C   UNL A   1      32.529  22.802  27.098  1.00  0.00     0.322 C 
ATOM     15  H   UNL A   1      32.412  24.855  27.128  1.00  0.00     0.316 HD
ATOM     16  O   UNL A   1      32.476  22.599  28.304  1.00  0.00    -0.246 OA
BRANCH   9  17
ATOM     17  N   UNL A   1      34.023  26.274  25.770  1.00  0.00    -0.090 NA
ATOM     18  C   UNL A   1      33.438  28.431  26.677  1.00  0.00     0.071 C 
ATOM     19  C   UNL A   1      33.234  27.311  25.678  1.00  0.00     0.088 C 
BRANCH  19  20
ATOM     20  C   UNL A   1      32.249  27.573  24.594  1.00  0.00    -0.000 A 
ATOM     21  C   UNL A   1      32.546  28.392  23.508  1.00  0.00     0.014 A 
ATOM     22  C   UNL A   1      30.935  27.137  24.798  1.00  0.00     0.014 A 
ATOM     23  C   UNL A   1      31.515  28.798  22.655  1.00  0.00     0.047 A 
ATOM     24  C   UNL A   1      29.909  27.563  23.949  1.00  0.00     0.047 A 
ATOM     25  C   UNL A   1      30.189  28.394  22.871  1.00  0.00     0.119 A 
BRANCH  25  26
ATOM     26  O   UNL A   1      29.290  28.922  21.996  1.00  0.00    -0.491 OA
BRANCH  26  27
ATOM     27  C   UNL A   1      28.635  30.180  22.197  1.00  0.00     0.167 C 
ATOM     28  C   UNL A   1      28.466  31.029  20.944  1.00  0.00     0.052 C 
ATOM     29  C   UNL A   1      27.371  30.078  23.034  1.00  0.00     0.052 C 
ENDBRANCH  26  27
ENDBRANCH  25  26
ENDBRANCH  19  20
ENDBRANCH   9  17
ENDBRANCH   7   8
ENDBRANCH   5   7
ENDBRANCH   4   5
ENDBRANCH   3   4
ENDBRANCH   2   3
ENDBRANCH   1   2
BRANCH   1  30
ATOM     30  C   UNL A   1      38.733  22.224  26.044  1.00  0.00     0.188 C 
BRANCH  30  31
ATOM     31  C   UNL A   1      40.066  22.760  26.565  1.00  0.00     0.188 C 
BRANCH  31  32
ATOM     32  O   UNL A   1      41.035  21.791  26.922  1.00  0.00    -0.376 OA
BRANCH  32  33
ATOM     33  C   UNL A   1      42.367  21.973  26.436  1.00  0.00     0.202 C 
BRANCH  33  34
ATOM     34  C   UNL A   1      42.634  23.163  25.485  1.00  0.00     0.261 C 
BRANCH  34  35
ATOM     35  O   UNL A   1      43.323  24.307  26.039  1.00  0.00    -0.460 OA
BRANCH  35  36
ATOM     36  C   UNL A   1      42.868  25.550  25.751  1.00  0.00     0.338 C 
ATOM     37  O   UNL A   1      42.477  25.942  24.663  1.00  0.00    -0.246 OA
BRANCH  36  38
ATOM     38  C   UNL A   1      42.616  26.265  27.041  1.00  0.00     0.060 A 
ATOM     39  C   UNL A   1      41.860  25.608  28.028  1.00  0.00     0.016 A 
ATOM     40  C   UNL A   1      43.220  27.490  27.343  1.00  0.00     0.016 A 
ATOM     41  C   UNL A   1      41.695  26.173  29.298  1.00  0.00     0.010 A 
ATOM     42  C   UNL A   1      43.029  28.069  28.604  1.00  0.00     0.010 A 
ATOM     43  C   UNL A   1      42.245  27.429  29.581  1.00  0.00    -0.014 A 
BRANCH  43  44
ATOM     44  C   UNL A   1      41.809  28.195  30.780  1.00  0.00     0.031 A 
ATOM     45  C   UNL A   1      40.620  29.103  30.623  1.00  0.00     0.074 A 
ATOM     46  C   UNL A   1      42.440  28.123  31.966  1.00  0.00     0.049 A 
ATOM     47  N   UNL A   1      40.133  29.996  31.445  1.00  0.00    -0.248 NA
ATOM     48  C   UNL A   1      39.886  28.989  29.352  1.00  0.00     0.031 C 
ATOM     49  C   UNL A   1      43.558  27.239  32.284  1.00  0.00     0.029 A 
ATOM     50  N   UNL A   1      42.235  28.835  33.125  1.00  0.00    -0.354 N 
ATOM     51  C   UNL A   1      39.052  30.563  30.783  1.00  0.00     0.074 A 
ATOM     52  C   UNL A   1      38.965  29.930  29.486  1.00  0.00     0.031 C 
ATOM     53  C   UNL A   1      43.958  27.479  33.546  1.00  0.00     0.029 A 
ATOM     54  C   UNL A   1      43.157  28.569  34.109  1.00  0.00     0.049 A 
ATOM     55  H   UNL A   1      41.496  29.476  33.240  1.00  0.00     0.167 HD
ATOM     56  C   UNL A   1      38.206  31.528  31.215  1.00  0.00     0.037 A 
ATOM     57  C   UNL A   1      43.355  29.163  35.305  1.00  0.00     0.037 A 
ATOM     58  C   UNL A   1      38.291  32.160  32.503  1.00  0.00     0.049 A 
ATOM     59  C   UNL A   1      42.462  30.307  35.729  1.00  0.00     0.074 A 
ATOM     60  C   UNL A   1      37.476  33.143  33.035  1.00  0.00     0.029 A 
ATOM     61  N   UNL A   1      39.257  31.879  33.456  1.00  0.00    -0.354 N 
ATOM     62  N   UNL A   1      41.441  30.840  35.101  1.00  0.00    -0.248 NA
ATOM     63  C   UNL A   1      42.754  30.940  37.026  1.00  0.00     0.031 C 
ATOM     64  C   UNL A   1      37.986  33.502  34.285  1.00  0.00     0.029 A 
ATOM     65  C   UNL A   1      39.074  32.691  34.564  1.00  0.00     0.049 A 
ATOM     66  H   UNL A   1      39.967  31.203  33.362  1.00  0.00     0.167 HD
ATOM     67  C   UNL A   1      40.946  31.832  35.942  1.00  0.00     0.074 A 
ATOM     68  C   UNL A   1      41.778  31.833  37.123  1.00  0.00     0.031 C 
ATOM     69  C   UNL A   1      39.891  32.663  35.750  1.00  0.00     0.037 A 
BRANCH  56  70
ATOM     70  C   UNL A   1      37.138  31.989  30.267  1.00  0.00     0.064 A 
ATOM     71  C   UNL A   1      36.021  31.196  29.966  1.00  0.00     0.173 A 
ATOM     72  C   UNL A   1      37.224  33.256  29.670  1.00  0.00     0.173 A 
ATOM     73  F   UNL A   1      35.900  29.969  30.494  1.00  0.00    -0.203 F 
ATOM     74  C   UNL A   1      35.043  31.645  29.082  1.00  0.00     0.198 A 
ATOM     75  C   UNL A   1      36.228  33.716  28.815  1.00  0.00     0.198 A 
ATOM     76  F   UNL A   1      38.273  34.054  29.925  1.00  0.00    -0.203 F 
ATOM     77  F   UNL A   1      34.011  30.850  28.767  1.00  0.00    -0.200 F 
ATOM     78  C   UNL A   1      35.143  32.907  28.514  1.00  0.00     0.200 A 
ATOM     79  F   UNL A   1      36.320  34.940  28.279  1.00  0.00    -0.200 F 
ATOM     80  F   UNL A   1      34.196  33.341  27.671  1.00  0.00    -0.200 F 
ENDBRANCH  56  70
BRANCH  57  81
ATOM     81  C   UNL A   1      44.469  28.719  36.188  1.00  0.00     0.064 A 
ATOM     82  C   UNL A   1      45.741  29.304  36.102  1.00  0.00     0.173 A 
ATOM     83  C   UNL A   1      44.299  27.674  37.108  1.00  0.00     0.173 A 
ATOM     84  F   UNL A   1      45.969  30.282  35.213  1.00  0.00    -0.203 F 
ATOM     85  C   UNL A   1      46.801  28.849  36.886  1.00  0.00     0.198 A 
ATOM     86  C   UNL A   1      45.350  27.241  37.915  1.00  0.00     0.198 A 
ATOM     87  F   UNL A   1      43.108  27.068  37.224  1.00  0.00    -0.203 F 
ATOM     88  F   UNL A   1      48.019  29.388  36.740  1.00  0.00    -0.200 F 
ATOM     89  C   UNL A   1      46.603  27.823  37.797  1.00  0.00     0.200 A 
ATOM     90  F   UNL A   1      45.151  26.253  38.799  1.00  0.00    -0.200 F 
ATOM     91  F   UNL A   1      47.621  27.386  38.550  1.00  0.00    -0.200 F 
ENDBRANCH  57  81
BRANCH  69  92
ATOM     92  C   UNL A   1      39.516  33.601  36.863  1.00  0.00     0.064 A 
ATOM     93  C   UNL A   1      38.723  33.195  37.945  1.00  0.00     0.173 A 
ATOM     94  C   UNL A   1      40.044  34.903  36.889  1.00  0.00     0.173 A 
ATOM     95  F   UNL A   1      38.186  31.966  37.964  1.00  0.00    -0.203 F 
ATOM     96  C   UNL A   1      38.463  34.059  39.006  1.00  0.00     0.198 A 
ATOM     97  C   UNL A   1      39.809  35.753  37.966  1.00  0.00     0.198 A 
ATOM     98  F   UNL A   1      40.817  35.339  35.883  1.00  0.00    -0.203 F 
ATOM     99  F   UNL A   1      37.678  33.659  40.016  1.00  0.00    -0.200 F 
ATOM    100  C   UNL A   1      39.016  35.331  39.022  1.00  0.00     0.200 A 
ATOM    101  F   UNL A   1      40.361  36.973  37.988  1.00  0.00    -0.200 F 
ATOM    102  F   UNL A   1      38.785  36.152  40.056  1.00  0.00    -0.200 F 
ENDBRANCH  69  92
ENDBRANCH  43  44
ENDBRANCH  36  38
ENDBRANCH  35  36
ENDBRANCH  34  35
ENDBRANCH  33  34
ENDBRANCH  32  33
ENDBRANCH  31  32
ENDBRANCH  30  31
ENDBRANCH   1  30
TORSDOF 22
ENDMDL
