MODEL 1
REMARK VINA RESULT:     -11.8      0.000      0.000
REMARK SMILES O=C(CCC(=O)OCCOCCOCCOC(=O)c1ccc(-c2c3nc(c(-c4c(F)c(F)c(F)c(F)c4F)c4ccc([nH]4)c(-c4c(F)c(F)c(F)c(F)c4F)c4nc(c(-c5c(F)c(F)c(F)c(F)c5F)c5ccc2[nH]5)C=C4)C=C3)cc1)Nc1ccc2nc(-c3ccccc3)oc2c1
REMARK SMILES IDX 11 1 10 2 9 3 8 4 7 5 5 6 6 7 4 8 3 9 2 10 1 11 82 12 83 14
REMARK SMILES IDX 84 15 97 16 85 17 96 18 86 19 95 20 87 21 88 22 89 23 90 24
REMARK SMILES IDX 94 25 91 26 93 27 92 28 12 29 13 30 14 31 15 32 16 33 17 34
REMARK SMILES IDX 18 35 19 36 20 37 81 38 21 39 80 40 22 41 23 42 24 43 74 44
REMARK SMILES IDX 25 45 79 46 73 47 75 48 26 49 78 50 72 51 71 52 27 54 59 55
REMARK SMILES IDX 39 56 58 57 40 58 43 59 57 60 76 61 41 62 42 63 56 65 77 66
REMARK SMILES IDX 44 67 28 68 29 69 37 70 30 71 31 72 35 73 38 74 32 75 33 76
REMARK SMILES IDX 36 77 34 78 60 79 61 80 69 81 62 82 63 83 67 84 70 85 64 86
REMARK SMILES IDX 65 87 68 88 66 89 45 90 46 91 54 92 47 93 48 94 52 95 55 96
REMARK SMILES IDX 49 97 50 98 53 99 51 100
REMARK H PARENT 82 13 75 53 43 64
REMARK Flexibility Score: inf
ROOT
ATOM      1  C   UNL A   1      32.091  26.478  26.512  1.00  0.00     0.188 C 
ENDROOT
BRANCH   1   2
ATOM      2  O   UNL A   1      30.694  26.416  26.777  1.00  0.00    -0.376 OA
BRANCH   2   3
ATOM      3  C   UNL A   1      29.919  25.604  25.890  1.00  0.00     0.202 C 
BRANCH   3   4
ATOM      4  C   UNL A   1      29.780  26.167  24.468  1.00  0.00     0.261 C 
BRANCH   4   5
ATOM      5  O   UNL A   1      29.633  27.613  24.447  1.00  0.00    -0.463 OA
BRANCH   5   6
ATOM      6  C   UNL A   1      30.006  28.218  23.287  1.00  0.00     0.306 C 
ATOM      7  O   UNL A   1      29.754  29.388  23.018  1.00  0.00    -0.252 OA
BRANCH   6   8
ATOM      8  C   UNL A   1      30.876  27.372  22.368  1.00  0.00     0.132 C 
BRANCH   8   9
ATOM      9  C   UNL A   1      32.397  27.508  22.347  1.00  0.00     0.112 C 
BRANCH   9  10
ATOM     10  C   UNL A   1      33.142  26.185  22.297  1.00  0.00     0.224 C 
ATOM     11  O   UNL A   1      33.657  25.768  21.267  1.00  0.00    -0.275 OA
ATOM     12  N   UNL A   1      33.101  25.547  23.512  1.00  0.00    -0.326 N 
ATOM     13  H   UNL A   1      32.702  26.058  24.252  1.00  0.00     0.169 HD
BRANCH  12  14
ATOM     14  C   UNL A   1      33.557  24.262  23.832  1.00  0.00     0.045 A 
ATOM     15  C   UNL A   1      34.856  24.236  24.363  1.00  0.00     0.028 A 
ATOM     16  C   UNL A   1      32.812  23.083  23.665  1.00  0.00     0.075 A 
ATOM     17  C   UNL A   1      35.457  23.057  24.786  1.00  0.00     0.034 A 
ATOM     18  C   UNL A   1      33.466  21.912  24.058  1.00  0.00     0.157 A 
ATOM     19  C   UNL A   1      34.738  21.881  24.613  1.00  0.00     0.110 A 
ATOM     20  O   UNL A   1      33.015  20.611  24.012  1.00  0.00    -0.436 OA
ATOM     21  N   UNL A   1      35.088  20.614  24.945  1.00  0.00    -0.209 NA
ATOM     22  C   UNL A   1      34.041  19.900  24.586  1.00  0.00     0.227 A 
BRANCH  22  23
ATOM     23  C   UNL A   1      33.841  18.498  24.895  1.00  0.00     0.037 A 
ATOM     24  C   UNL A   1      32.771  18.039  25.666  1.00  0.00     0.014 A 
ATOM     25  C   UNL A   1      34.666  17.569  24.239  1.00  0.00     0.014 A 
ATOM     26  C   UNL A   1      32.516  16.667  25.751  1.00  0.00     0.001 A 
ATOM     27  C   UNL A   1      34.417  16.202  24.333  1.00  0.00     0.001 A 
ATOM     28  C   UNL A   1      33.333  15.752  25.081  1.00  0.00     0.000 A 
ENDBRANCH  22  23
ENDBRANCH  12  14
ENDBRANCH   9  10
ENDBRANCH   8   9
ENDBRANCH   6   8
ENDBRANCH   5   6
ENDBRANCH   4   5
ENDBRANCH   3   4
ENDBRANCH   2   3
ENDBRANCH   1   2
BRANCH   1  29
ATOM     29  C   UNL A   1      32.635  27.889  26.294  1.00  0.00     0.188 C 
BRANCH  29  30
ATOM     30  O   UNL A   1      31.744  28.950  26.625  1.00  0.00    -0.376 OA
BRANCH  30  31
ATOM     31  C   UNL A   1      31.803  30.094  25.757  1.00  0.00     0.202 C 
BRANCH  31  32
ATOM     32  C   UNL A   1      31.766  31.482  26.441  1.00  0.00     0.261 C 
BRANCH  32  33
ATOM     33  O   UNL A   1      32.569  31.605  27.638  1.00  0.00    -0.460 OA
BRANCH  33  34
ATOM     34  C   UNL A   1      33.460  32.622  27.683  1.00  0.00     0.338 C 
ATOM     35  O   UNL A   1      33.203  33.812  27.623  1.00  0.00    -0.246 OA
BRANCH  34  36
ATOM     36  C   UNL A   1      34.779  32.084  28.117  1.00  0.00     0.060 A 
ATOM     37  C   UNL A   1      34.892  30.695  28.277  1.00  0.00     0.016 A 
ATOM     38  C   UNL A   1      35.905  32.894  28.293  1.00  0.00     0.016 A 
ATOM     39  C   UNL A   1      36.106  30.123  28.664  1.00  0.00     0.010 A 
ATOM     40  C   UNL A   1      37.122  32.321  28.691  1.00  0.00     0.010 A 
ATOM     41  C   UNL A   1      37.219  30.935  28.917  1.00  0.00    -0.014 A 
BRANCH  41  42
ATOM     42  C   UNL A   1      38.394  30.353  29.617  1.00  0.00     0.031 A 
ATOM     43  C   UNL A   1      38.626  30.730  31.057  1.00  0.00     0.074 A 
ATOM     44  C   UNL A   1      39.208  29.459  29.025  1.00  0.00     0.049 A 
ATOM     45  N   UNL A   1      39.535  30.303  31.896  1.00  0.00    -0.248 NA
ATOM     46  C   UNL A   1      37.702  31.724  31.624  1.00  0.00     0.031 C 
ATOM     47  C   UNL A   1      39.086  28.979  27.652  1.00  0.00     0.029 A 
ATOM     48  N   UNL A   1      40.300  28.787  29.522  1.00  0.00    -0.354 N 
ATOM     49  C   UNL A   1      39.293  30.976  33.087  1.00  0.00     0.074 A 
ATOM     50  C   UNL A   1      38.178  31.866  32.851  1.00  0.00     0.031 C 
ATOM     51  C   UNL A   1      40.059  28.080  27.417  1.00  0.00     0.029 A 
ATOM     52  C   UNL A   1      40.884  27.937  28.616  1.00  0.00     0.049 A 
ATOM     53  H   UNL A   1      40.632  28.906  30.441  1.00  0.00     0.167 HD
ATOM     54  C   UNL A   1      39.931  30.858  34.277  1.00  0.00     0.037 A 
ATOM     55  C   UNL A   1      41.962  27.137  28.742  1.00  0.00     0.037 A 
ATOM     56  C   UNL A   1      41.043  29.977  34.522  1.00  0.00     0.049 A 
ATOM     57  C   UNL A   1      42.700  27.074  30.058  1.00  0.00     0.074 A 
ATOM     58  C   UNL A   1      41.731  29.765  35.704  1.00  0.00     0.029 A 
ATOM     59  N   UNL A   1      41.640  29.174  33.563  1.00  0.00    -0.354 N 
ATOM     60  N   UNL A   1      42.431  27.673  31.193  1.00  0.00    -0.248 NA
ATOM     61  C   UNL A   1      43.891  26.212  30.106  1.00  0.00     0.031 C 
ATOM     62  C   UNL A   1      42.783  28.879  35.445  1.00  0.00     0.029 A 
ATOM     63  C   UNL A   1      42.713  28.491  34.118  1.00  0.00     0.049 A 
ATOM     64  H   UNL A   1      41.348  29.100  32.626  1.00  0.00     0.167 HD
ATOM     65  C   UNL A   1      43.393  27.234  32.096  1.00  0.00     0.074 A 
ATOM     66  C   UNL A   1      44.243  26.307  31.380  1.00  0.00     0.031 C 
ATOM     67  C   UNL A   1      43.556  27.567  33.402  1.00  0.00     0.037 A 
BRANCH  54  68
ATOM     68  C   UNL A   1      39.457  31.736  35.399  1.00  0.00     0.064 A 
ATOM     69  C   UNL A   1      38.499  31.301  36.327  1.00  0.00     0.173 A 
ATOM     70  C   UNL A   1      39.976  33.030  35.548  1.00  0.00     0.173 A 
ATOM     71  F   UNL A   1      37.957  30.078  36.217  1.00  0.00    -0.203 F 
ATOM     72  C   UNL A   1      38.052  32.143  37.342  1.00  0.00     0.198 A 
ATOM     73  C   UNL A   1      39.551  33.858  36.585  1.00  0.00     0.198 A 
ATOM     74  F   UNL A   1      40.896  33.495  34.690  1.00  0.00    -0.203 F 
ATOM     75  F   UNL A   1      37.090  31.729  38.180  1.00  0.00    -0.200 F 
ATOM     76  C   UNL A   1      38.582  33.418  37.474  1.00  0.00     0.200 A 
ATOM     77  F   UNL A   1      40.073  35.085  36.716  1.00  0.00    -0.200 F 
ATOM     78  F   UNL A   1      38.151  34.227  38.451  1.00  0.00    -0.200 F 
ENDBRANCH  54  68
BRANCH  55  79
ATOM     79  C   UNL A   1      42.414  26.302  27.596  1.00  0.00     0.064 A 
ATOM     80  C   UNL A   1      41.865  25.033  27.367  1.00  0.00     0.173 A 
ATOM     81  C   UNL A   1      43.429  26.738  26.733  1.00  0.00     0.173 A 
ATOM     82  F   UNL A   1      40.914  24.557  28.185  1.00  0.00    -0.203 F 
ATOM     83  C   UNL A   1      42.326  24.223  26.331  1.00  0.00     0.198 A 
ATOM     84  C   UNL A   1      43.871  25.939  25.680  1.00  0.00     0.198 A 
ATOM     85  F   UNL A   1      43.996  27.939  26.914  1.00  0.00    -0.203 F 
ATOM     86  F   UNL A   1      41.820  22.992  26.168  1.00  0.00    -0.200 F 
ATOM     87  C   UNL A   1      43.325  24.679  25.484  1.00  0.00     0.200 A 
ATOM     88  F   UNL A   1      44.832  26.386  24.860  1.00  0.00    -0.200 F 
ATOM     89  F   UNL A   1      43.770  23.901  24.488  1.00  0.00    -0.200 F 
ENDBRANCH  55  79
BRANCH  67  90
ATOM     90  C   UNL A   1      44.669  26.892  34.155  1.00  0.00     0.064 A 
ATOM     91  C   UNL A   1      44.454  25.738  34.923  1.00  0.00     0.173 A 
ATOM     92  C   UNL A   1      45.976  27.403  34.097  1.00  0.00     0.173 A 
ATOM     93  F   UNL A   1      43.223  25.212  35.021  1.00  0.00    -0.203 F 
ATOM     94  C   UNL A   1      45.493  25.147  35.638  1.00  0.00     0.198 A 
ATOM     95  C   UNL A   1      47.020  26.789  34.785  1.00  0.00     0.198 A 
ATOM     96  F   UNL A   1      46.244  28.498  33.370  1.00  0.00    -0.203 F 
ATOM     97  F   UNL A   1      45.248  24.084  36.417  1.00  0.00    -0.200 F 
ATOM     98  C   UNL A   1      46.775  25.669  35.566  1.00  0.00     0.200 A 
ATOM     99  F   UNL A   1      48.262  27.286  34.700  1.00  0.00    -0.200 F 
ATOM    100  F   UNL A   1      47.773  25.101  36.256  1.00  0.00    -0.200 F 
ENDBRANCH  67  90
ENDBRANCH  41  42
ENDBRANCH  34  36
ENDBRANCH  33  34
ENDBRANCH  32  33
ENDBRANCH  31  32
ENDBRANCH  30  31
ENDBRANCH  29  30
ENDBRANCH   1  29
TORSDOF 21
ENDMDL
MODEL 2
REMARK VINA RESULT:     -11.2      2.461      4.166
REMARK SMILES O=C(CCC(=O)OCCOCCOCCOC(=O)c1ccc(-c2c3nc(c(-c4c(F)c(F)c(F)c(F)c4F)c4ccc([nH]4)c(-c4c(F)c(F)c(F)c(F)c4F)c4nc(c(-c5c(F)c(F)c(F)c(F)c5F)c5ccc2[nH]5)C=C4)C=C3)cc1)Nc1ccc2nc(-c3ccccc3)oc2c1
REMARK SMILES IDX 11 1 10 2 9 3 8 4 7 5 5 6 6 7 4 8 3 9 2 10 1 11 82 12 83 14
REMARK SMILES IDX 84 15 97 16 85 17 96 18 86 19 95 20 87 21 88 22 89 23 90 24
REMARK SMILES IDX 94 25 91 26 93 27 92 28 12 29 13 30 14 31 15 32 16 33 17 34
REMARK SMILES IDX 18 35 19 36 20 37 81 38 21 39 80 40 22 41 23 42 24 43 74 44
REMARK SMILES IDX 25 45 79 46 73 47 75 48 26 49 78 50 72 51 71 52 27 54 59 55
REMARK SMILES IDX 39 56 58 57 40 58 43 59 57 60 76 61 41 62 42 63 56 65 77 66
REMARK SMILES IDX 44 67 28 68 29 69 37 70 30 71 31 72 35 73 38 74 32 75 33 76
REMARK SMILES IDX 36 77 34 78 60 79 61 80 69 81 62 82 63 83 67 84 70 85 64 86
REMARK SMILES IDX 65 87 68 88 66 89 45 90 46 91 54 92 47 93 48 94 52 95 55 96
REMARK SMILES IDX 49 97 50 98 53 99 51 100
REMARK H PARENT 82 13 75 53 43 64
REMARK Flexibility Score: inf
ROOT
ATOM      1  C   UNL A   1      34.933  32.515  28.219  1.00  0.00     0.188 C 
ENDROOT
BRANCH   1   2
ATOM      2  O   UNL A   1      36.099  31.756  27.919  1.00  0.00    -0.376 OA
BRANCH   2   3
ATOM      3  C   UNL A   1      35.887  30.388  27.560  1.00  0.00     0.202 C 
BRANCH   3   4
ATOM      4  C   UNL A   1      34.415  29.950  27.561  1.00  0.00     0.261 C 
BRANCH   4   5
ATOM      5  O   UNL A   1      33.833  29.928  26.229  1.00  0.00    -0.463 OA
BRANCH   5   6
ATOM      6  C   UNL A   1      33.448  28.702  25.783  1.00  0.00     0.306 C 
ATOM      7  O   UNL A   1      34.234  27.830  25.428  1.00  0.00    -0.252 OA
BRANCH   6   8
ATOM      8  C   UNL A   1      31.953  28.427  25.861  1.00  0.00     0.132 C 
BRANCH   8   9
ATOM      9  C   UNL A   1      31.365  27.449  26.876  1.00  0.00     0.112 C 
BRANCH   9  10
ATOM     10  C   UNL A   1      30.949  26.112  26.287  1.00  0.00     0.224 C 
ATOM     11  O   UNL A   1      29.812  25.674  26.407  1.00  0.00    -0.275 OA
ATOM     12  N   UNL A   1      32.009  25.487  25.677  1.00  0.00    -0.326 N 
ATOM     13  H   UNL A   1      32.839  26.014  25.613  1.00  0.00     0.169 HD
BRANCH  12  14
ATOM     14  C   UNL A   1      32.061  24.198  25.133  1.00  0.00     0.045 A 
ATOM     15  C   UNL A   1      31.871  24.160  23.743  1.00  0.00     0.028 A 
ATOM     16  C   UNL A   1      32.289  23.026  25.873  1.00  0.00     0.075 A 
ATOM     17  C   UNL A   1      31.938  22.974  23.022  1.00  0.00     0.034 A 
ATOM     18  C   UNL A   1      32.305  21.848  25.120  1.00  0.00     0.157 A 
ATOM     19  C   UNL A   1      32.150  21.805  23.742  1.00  0.00     0.110 A 
ATOM     20  O   UNL A   1      32.491  20.551  25.546  1.00  0.00    -0.436 OA
ATOM     21  N   UNL A   1      32.263  20.534  23.283  1.00  0.00    -0.209 NA
ATOM     22  C   UNL A   1      32.477  19.830  24.376  1.00  0.00     0.227 A 
BRANCH  22  23
ATOM     23  C   UNL A   1      32.846  18.428  24.407  1.00  0.00     0.037 A 
ATOM     24  C   UNL A   1      33.717  17.856  23.477  1.00  0.00     0.014 A 
ATOM     25  C   UNL A   1      32.440  17.678  25.524  1.00  0.00     0.014 A 
ATOM     26  C   UNL A   1      34.196  16.558  23.684  1.00  0.00     0.001 A 
ATOM     27  C   UNL A   1      32.910  16.383  25.723  1.00  0.00     0.001 A 
ATOM     28  C   UNL A   1      33.798  15.828  24.808  1.00  0.00     0.000 A 
ENDBRANCH  22  23
ENDBRANCH  12  14
ENDBRANCH   9  10
ENDBRANCH   8   9
ENDBRANCH   6   8
ENDBRANCH   5   6
ENDBRANCH   4   5
ENDBRANCH   3   4
ENDBRANCH   2   3
ENDBRANCH   1   2
BRANCH   1  29
ATOM     29  C   UNL A   1      35.194  33.989  28.526  1.00  0.00     0.188 C 
BRANCH  29  30
ATOM     30  O   UNL A   1      34.308  34.914  27.903  1.00  0.00    -0.376 OA
BRANCH  30  31
ATOM     31  C   UNL A   1      34.073  36.128  28.636  1.00  0.00     0.202 C 
BRANCH  31  32
ATOM     32  C   UNL A   1      32.739  36.217  29.416  1.00  0.00     0.261 C 
BRANCH  32  33
ATOM     33  O   UNL A   1      32.547  35.204  30.431  1.00  0.00    -0.460 OA
BRANCH  33  34
ATOM     34  C   UNL A   1      32.746  35.572  31.718  1.00  0.00     0.338 C 
ATOM     35  O   UNL A   1      31.960  36.175  32.427  1.00  0.00    -0.246 OA
BRANCH  34  36
ATOM     36  C   UNL A   1      33.954  34.870  32.235  1.00  0.00     0.060 A 
ATOM     37  C   UNL A   1      35.188  35.525  32.109  1.00  0.00     0.016 A 
ATOM     38  C   UNL A   1      33.887  33.640  32.895  1.00  0.00     0.016 A 
ATOM     39  C   UNL A   1      36.356  34.931  32.590  1.00  0.00     0.010 A 
ATOM     40  C   UNL A   1      35.063  33.038  33.369  1.00  0.00     0.010 A 
ATOM     41  C   UNL A   1      36.310  33.663  33.184  1.00  0.00    -0.014 A 
BRANCH  41  42
ATOM     42  C   UNL A   1      37.579  32.921  33.404  1.00  0.00     0.031 A 
ATOM     43  C   UNL A   1      38.342  33.174  34.677  1.00  0.00     0.074 A 
ATOM     44  C   UNL A   1      38.024  31.992  32.537  1.00  0.00     0.049 A 
ATOM     45  N   UNL A   1      39.431  32.604  35.127  1.00  0.00    -0.248 NA
ATOM     46  C   UNL A   1      37.798  34.214  35.564  1.00  0.00     0.031 C 
ATOM     47  C   UNL A   1      37.374  31.622  31.284  1.00  0.00     0.029 A 
ATOM     48  N   UNL A   1      39.134  31.184  32.594  1.00  0.00    -0.354 N 
ATOM     49  C   UNL A   1      39.701  33.215  36.345  1.00  0.00     0.074 A 
ATOM     50  C   UNL A   1      38.686  34.225  36.545  1.00  0.00     0.031 C 
ATOM     51  C   UNL A   1      38.091  30.649  30.693  1.00  0.00     0.029 A 
ATOM     52  C   UNL A   1      39.261  30.343  31.516  1.00  0.00     0.049 A 
ATOM     53  H   UNL A   1      39.778  31.206  33.338  1.00  0.00     0.167 HD
ATOM     54  C   UNL A   1      40.697  32.954  37.227  1.00  0.00     0.037 A 
ATOM     55  C   UNL A   1      40.214  29.433  31.228  1.00  0.00     0.037 A 
ATOM     56  C   UNL A   1      41.713  31.952  37.036  1.00  0.00     0.049 A 
ATOM     57  C   UNL A   1      41.352  29.208  32.194  1.00  0.00     0.074 A 
ATOM     58  C   UNL A   1      42.741  31.593  37.889  1.00  0.00     0.029 A 
ATOM     59  N   UNL A   1      41.839  31.161  35.905  1.00  0.00    -0.354 N 
ATOM     60  N   UNL A   1      41.569  29.753  33.367  1.00  0.00    -0.248 NA
ATOM     61  C   UNL A   1      42.376  28.231  31.792  1.00  0.00     0.031 C 
ATOM     62  C   UNL A   1      43.526  30.627  37.249  1.00  0.00     0.029 A 
ATOM     63  C   UNL A   1      42.950  30.338  36.023  1.00  0.00     0.049 A 
ATOM     64  H   UNL A   1      41.231  31.179  35.131  1.00  0.00     0.167 HD
ATOM     65  C   UNL A   1      42.729  29.160  33.857  1.00  0.00     0.074 A 
ATOM     66  C   UNL A   1      43.159  28.204  32.860  1.00  0.00     0.031 C 
ATOM     67  C   UNL A   1      43.375  29.386  35.028  1.00  0.00     0.037 A 
BRANCH  54  68
ATOM     68  C   UNL A   1      40.752  33.796  38.468  1.00  0.00     0.064 A 
ATOM     69  C   UNL A   1      39.995  33.487  39.608  1.00  0.00     0.173 A 
ATOM     70  C   UNL A   1      41.579  34.927  38.516  1.00  0.00     0.173 A 
ATOM     71  F   UNL A   1      39.172  32.426  39.607  1.00  0.00    -0.203 F 
ATOM     72  C   UNL A   1      40.038  34.299  40.739  1.00  0.00     0.198 A 
ATOM     73  C   UNL A   1      41.645  35.719  39.660  1.00  0.00     0.198 A 
ATOM     74  F   UNL A   1      42.325  35.267  37.454  1.00  0.00    -0.203 F 
ATOM     75  F   UNL A   1      39.260  34.020  41.793  1.00  0.00    -0.200 F 
ATOM     76  C   UNL A   1      40.867  35.411  40.766  1.00  0.00     0.200 A 
ATOM     77  F   UNL A   1      42.455  36.786  39.687  1.00  0.00    -0.200 F 
ATOM     78  F   UNL A   1      40.908  36.193  41.853  1.00  0.00    -0.200 F 
ENDBRANCH  54  68
BRANCH  55  79
ATOM     79  C   UNL A   1      40.135  28.637  29.973  1.00  0.00     0.064 A 
ATOM     80  C   UNL A   1      39.492  27.391  29.948  1.00  0.00     0.173 A 
ATOM     81  C   UNL A   1      40.734  29.085  28.788  1.00  0.00     0.173 A 
ATOM     82  F   UNL A   1      38.933  26.904  31.065  1.00  0.00    -0.203 F 
ATOM     83  C   UNL A   1      39.468  26.616  28.790  1.00  0.00     0.198 A 
ATOM     84  C   UNL A   1      40.685  28.322  27.623  1.00  0.00     0.198 A 
ATOM     85  F   UNL A   1      41.372  30.265  28.761  1.00  0.00    -0.203 F 
ATOM     86  F   UNL A   1      38.892  25.405  28.809  1.00  0.00    -0.200 F 
ATOM     87  C   UNL A   1      40.059  27.084  27.626  1.00  0.00     0.200 A 
ATOM     88  F   UNL A   1      41.253  28.781  26.499  1.00  0.00    -0.200 F 
ATOM     89  F   UNL A   1      40.037  26.338  26.514  1.00  0.00    -0.200 F 
ENDBRANCH  55  79
BRANCH  67  90
ATOM     90  C   UNL A   1      44.595  28.554  35.317  1.00  0.00     0.064 A 
ATOM     91  C   UNL A   1      44.511  27.316  35.971  1.00  0.00     0.173 A 
ATOM     92  C   UNL A   1      45.867  29.000  34.923  1.00  0.00     0.173 A 
ATOM     93  F   UNL A   1      43.322  26.846  36.379  1.00  0.00    -0.203 F 
ATOM     94  C   UNL A   1      45.657  26.576  36.257  1.00  0.00     0.198 A 
ATOM     95  C   UNL A   1      47.006  28.241  35.179  1.00  0.00     0.198 A 
ATOM     96  F   UNL A   1      46.006  30.171  34.285  1.00  0.00    -0.203 F 
ATOM     97  F   UNL A   1      45.557  25.428  36.942  1.00  0.00    -0.200 F 
ATOM     98  C   UNL A   1      46.902  27.036  35.857  1.00  0.00     0.200 A 
ATOM     99  F   UNL A   1      48.207  28.680  34.777  1.00  0.00    -0.200 F 
ATOM    100  F   UNL A   1      48.003  26.325  36.136  1.00  0.00    -0.200 F 
ENDBRANCH  67  90
ENDBRANCH  41  42
ENDBRANCH  34  36
ENDBRANCH  33  34
ENDBRANCH  32  33
ENDBRANCH  31  32
ENDBRANCH  30  31
ENDBRANCH  29  30
ENDBRANCH   1  29
TORSDOF 21
ENDMDL
MODEL 3
REMARK VINA RESULT:     -10.7      4.739      8.130
REMARK SMILES O=C(CCC(=O)OCCOCCOCCOC(=O)c1ccc(-c2c3nc(c(-c4c(F)c(F)c(F)c(F)c4F)c4ccc([nH]4)c(-c4c(F)c(F)c(F)c(F)c4F)c4nc(c(-c5c(F)c(F)c(F)c(F)c5F)c5ccc2[nH]5)C=C4)C=C3)cc1)Nc1ccc2nc(-c3ccccc3)oc2c1
REMARK SMILES IDX 11 1 10 2 9 3 8 4 7 5 5 6 6 7 4 8 3 9 2 10 1 11 82 12 83 14
REMARK SMILES IDX 84 15 97 16 85 17 96 18 86 19 95 20 87 21 88 22 89 23 90 24
REMARK SMILES IDX 94 25 91 26 93 27 92 28 12 29 13 30 14 31 15 32 16 33 17 34
REMARK SMILES IDX 18 35 19 36 20 37 81 38 21 39 80 40 22 41 23 42 24 43 74 44
REMARK SMILES IDX 25 45 79 46 73 47 75 48 26 49 78 50 72 51 71 52 27 54 59 55
REMARK SMILES IDX 39 56 58 57 40 58 43 59 57 60 76 61 41 62 42 63 56 65 77 66
REMARK SMILES IDX 44 67 28 68 29 69 37 70 30 71 31 72 35 73 38 74 32 75 33 76
REMARK SMILES IDX 36 77 34 78 60 79 61 80 69 81 62 82 63 83 67 84 70 85 64 86
REMARK SMILES IDX 65 87 68 88 66 89 45 90 46 91 54 92 47 93 48 94 52 95 55 96
REMARK SMILES IDX 49 97 50 98 53 99 51 100
REMARK H PARENT 82 13 75 53 43 64
REMARK Flexibility Score: inf
ROOT
ATOM      1  C   UNL A   1      36.157  32.160  32.012  1.00  0.00     0.188 C 
ENDROOT
BRANCH   1   2
ATOM      2  O   UNL A   1      37.141  32.358  33.021  1.00  0.00    -0.376 OA
BRANCH   2   3
ATOM      3  C   UNL A   1      37.292  33.696  33.502  1.00  0.00     0.202 C 
BRANCH   3   4
ATOM      4  C   UNL A   1      37.988  34.651  32.519  1.00  0.00     0.261 C 
BRANCH   4   5
ATOM      5  O   UNL A   1      39.131  34.042  31.859  1.00  0.00    -0.463 OA
BRANCH   5   6
ATOM      6  C   UNL A   1      39.106  34.085  30.498  1.00  0.00     0.306 C 
ATOM      7  O   UNL A   1      38.186  34.572  29.851  1.00  0.00    -0.252 OA
BRANCH   6   8
ATOM      8  C   UNL A   1      40.369  33.583  29.813  1.00  0.00     0.132 C 
BRANCH   8   9
ATOM      9  C   UNL A   1      41.739  33.670  30.483  1.00  0.00     0.112 C 
BRANCH   9  10
ATOM     10  C   UNL A   1      42.843  32.934  29.745  1.00  0.00     0.224 C 
ATOM     11  O   UNL A   1      43.655  33.518  29.039  1.00  0.00    -0.275 OA
ATOM     12  N   UNL A   1      42.757  31.578  29.947  1.00  0.00    -0.326 N 
ATOM     13  H   UNL A   1      42.083  31.284  30.601  1.00  0.00     0.169 HD
BRANCH  12  14
ATOM     14  C   UNL A   1      43.507  30.561  29.343  1.00  0.00     0.045 A 
ATOM     15  C   UNL A   1      42.902  30.011  28.202  1.00  0.00     0.028 A 
ATOM     16  C   UNL A   1      44.759  30.112  29.796  1.00  0.00     0.075 A 
ATOM     17  C   UNL A   1      43.520  29.025  27.443  1.00  0.00     0.034 A 
ATOM     18  C   UNL A   1      45.329  29.090  29.033  1.00  0.00     0.157 A 
ATOM     19  C   UNL A   1      44.752  28.561  27.886  1.00  0.00     0.110 A 
ATOM     20  O   UNL A   1      46.527  28.436  29.218  1.00  0.00    -0.436 OA
ATOM     21  N   UNL A   1      45.557  27.623  27.330  1.00  0.00    -0.209 NA
ATOM     22  C   UNL A   1      46.597  27.590  28.138  1.00  0.00     0.227 A 
BRANCH  22  23
ATOM     23  C   UNL A   1      47.829  26.871  27.883  1.00  0.00     0.037 A 
ATOM     24  C   UNL A   1      47.957  25.495  28.088  1.00  0.00     0.014 A 
ATOM     25  C   UNL A   1      48.865  27.571  27.241  1.00  0.00     0.014 A 
ATOM     26  C   UNL A   1      49.097  24.829  27.627  1.00  0.00     0.001 A 
ATOM     27  C   UNL A   1      50.003  26.908  26.792  1.00  0.00     0.001 A 
ATOM     28  C   UNL A   1      50.113  25.533  26.975  1.00  0.00     0.000 A 
ENDBRANCH  22  23
ENDBRANCH  12  14
ENDBRANCH   9  10
ENDBRANCH   8   9
ENDBRANCH   6   8
ENDBRANCH   5   6
ENDBRANCH   4   5
ENDBRANCH   3   4
ENDBRANCH   2   3
ENDBRANCH   1   2
BRANCH   1  29
ATOM     29  C   UNL A   1      34.772  32.704  32.357  1.00  0.00     0.188 C 
BRANCH  29  30
ATOM     30  O   UNL A   1      34.202  33.589  31.398  1.00  0.00    -0.376 OA
BRANCH  30  31
ATOM     31  C   UNL A   1      34.872  33.632  30.127  1.00  0.00     0.202 C 
BRANCH  31  32
ATOM     32  C   UNL A   1      34.040  33.207  28.893  1.00  0.00     0.261 C 
BRANCH  32  33
ATOM     33  O   UNL A   1      34.759  32.452  27.891  1.00  0.00    -0.460 OA
BRANCH  33  34
ATOM     34  C   UNL A   1      34.543  31.117  27.849  1.00  0.00     0.338 C 
ATOM     35  O   UNL A   1      33.556  30.558  27.405  1.00  0.00    -0.246 OA
BRANCH  34  36
ATOM     36  C   UNL A   1      35.821  30.416  28.155  1.00  0.00     0.060 A 
ATOM     37  C   UNL A   1      35.891  29.686  29.350  1.00  0.00     0.016 A 
ATOM     38  C   UNL A   1      36.905  30.400  27.270  1.00  0.00     0.016 A 
ATOM     39  C   UNL A   1      37.053  28.990  29.688  1.00  0.00     0.010 A 
ATOM     40  C   UNL A   1      38.076  29.709  27.615  1.00  0.00     0.010 A 
ATOM     41  C   UNL A   1      38.171  29.032  28.845  1.00  0.00    -0.014 A 
BRANCH  41  42
ATOM     42  C   UNL A   1      39.481  28.554  29.357  1.00  0.00     0.031 A 
ATOM     43  C   UNL A   1      40.067  29.234  30.566  1.00  0.00     0.074 A 
ATOM     44  C   UNL A   1      40.119  27.499  28.816  1.00  0.00     0.049 A 
ATOM     45  N   UNL A   1      41.156  28.956  31.238  1.00  0.00    -0.248 NA
ATOM     46  C   UNL A   1      39.317  30.387  31.089  1.00  0.00     0.031 C 
ATOM     47  C   UNL A   1      39.657  26.727  27.666  1.00  0.00     0.029 A 
ATOM     48  N   UNL A   1      41.299  26.893  29.178  1.00  0.00    -0.354 N 
ATOM     49  C   UNL A   1      41.220  29.897  32.258  1.00  0.00     0.074 A 
ATOM     50  C   UNL A   1      40.084  30.776  32.094  1.00  0.00     0.031 C 
ATOM     51  C   UNL A   1      40.538  25.740  27.423  1.00  0.00     0.029 A 
ATOM     52  C   UNL A   1      41.636  25.823  28.385  1.00  0.00     0.049 A 
ATOM     53  H   UNL A   1      41.850  27.197  29.934  1.00  0.00     0.167 HD
ATOM     54  C   UNL A   1      42.135  30.014  33.251  1.00  0.00     0.037 A 
ATOM     55  C   UNL A   1      42.709  25.008  28.433  1.00  0.00     0.037 A 
ATOM     56  C   UNL A   1      43.270  29.146  33.421  1.00  0.00     0.049 A 
ATOM     57  C   UNL A   1      43.751  25.202  29.508  1.00  0.00     0.074 A 
ATOM     58  C   UNL A   1      44.230  29.167  34.417  1.00  0.00     0.029 A 
ATOM     59  N   UNL A   1      43.607  28.109  32.565  1.00  0.00    -0.354 N 
ATOM     60  N   UNL A   1      43.776  26.060  30.499  1.00  0.00    -0.248 NA
ATOM     61  C   UNL A   1      44.914  24.302  29.469  1.00  0.00     0.031 C 
ATOM     62  C   UNL A   1      45.182  28.182  34.129  1.00  0.00     0.029 A 
ATOM     63  C   UNL A   1      44.781  27.506  32.990  1.00  0.00     0.049 A 
ATOM     64  H   UNL A   1      43.090  27.841  31.771  1.00  0.00     0.167 HD
ATOM     65  C   UNL A   1      44.932  25.780  31.220  1.00  0.00     0.074 A 
ATOM     66  C   UNL A   1      45.573  24.663  30.561  1.00  0.00     0.031 C 
ATOM     67  C   UNL A   1      45.416  26.392  32.330  1.00  0.00     0.037 A 
BRANCH  54  68
ATOM     68  C   UNL A   1      41.959  31.153  34.213  1.00  0.00     0.064 A 
ATOM     69  C   UNL A   1      42.636  32.372  34.052  1.00  0.00     0.173 A 
ATOM     70  C   UNL A   1      41.095  31.023  35.310  1.00  0.00     0.173 A 
ATOM     71  F   UNL A   1      43.489  32.541  33.030  1.00  0.00    -0.203 F 
ATOM     72  C   UNL A   1      42.481  33.405  34.973  1.00  0.00     0.198 A 
ATOM     73  C   UNL A   1      40.917  32.069  36.211  1.00  0.00     0.198 A 
ATOM     74  F   UNL A   1      40.422  29.880  35.510  1.00  0.00    -0.203 F 
ATOM     75  F   UNL A   1      43.185  34.536  34.834  1.00  0.00    -0.200 F 
ATOM     76  C   UNL A   1      41.618  33.255  36.048  1.00  0.00     0.200 A 
ATOM     77  F   UNL A   1      40.073  31.926  37.242  1.00  0.00    -0.200 F 
ATOM     78  F   UNL A   1      41.469  34.249  36.934  1.00  0.00    -0.200 F 
ENDBRANCH  54  68
BRANCH  55  79
ATOM     79  C   UNL A   1      42.857  23.907  27.443  1.00  0.00     0.064 A 
ATOM     80  C   UNL A   1      42.447  22.601  27.748  1.00  0.00     0.173 A 
ATOM     81  C   UNL A   1      43.448  24.128  26.191  1.00  0.00     0.173 A 
ATOM     82  F   UNL A   1      41.907  22.332  28.946  1.00  0.00    -0.203 F 
ATOM     83  C   UNL A   1      42.639  21.555  26.847  1.00  0.00     0.198 A 
ATOM     84  C   UNL A   1      43.614  23.087  25.280  1.00  0.00     0.198 A 
ATOM     85  F   UNL A   1      43.869  25.356  25.853  1.00  0.00    -0.203 F 
ATOM     86  F   UNL A   1      42.285  20.308  27.186  1.00  0.00    -0.200 F 
ATOM     87  C   UNL A   1      43.216  21.800  25.611  1.00  0.00     0.200 A 
ATOM     88  F   UNL A   1      44.168  23.329  24.083  1.00  0.00    -0.200 F 
ATOM     89  F   UNL A   1      43.403  20.795  24.744  1.00  0.00    -0.200 F 
ENDBRANCH  55  79
BRANCH  67  90
ATOM     90  C   UNL A   1      46.680  25.839  32.930  1.00  0.00     0.064 A 
ATOM     91  C   UNL A   1      46.663  24.795  33.866  1.00  0.00     0.173 A 
ATOM     92  C   UNL A   1      47.930  26.357  32.552  1.00  0.00     0.173 A 
ATOM     93  F   UNL A   1      45.497  24.269  34.270  1.00  0.00    -0.203 F 
ATOM     94  C   UNL A   1      47.844  24.319  34.432  1.00  0.00     0.198 A 
ATOM     95  C   UNL A   1      49.110  25.855  33.094  1.00  0.00     0.198 A 
ATOM     96  F   UNL A   1      48.008  27.349  31.653  1.00  0.00    -0.203 F 
ATOM     97  F   UNL A   1      47.797  23.366  35.373  1.00  0.00    -0.200 F 
ATOM     98  C   UNL A   1      49.066  24.846  34.043  1.00  0.00     0.200 A 
ATOM     99  F   UNL A   1      50.292  26.355  32.704  1.00  0.00    -0.200 F 
ATOM    100  F   UNL A   1      50.200  24.388  34.591  1.00  0.00    -0.200 F 
ENDBRANCH  67  90
ENDBRANCH  41  42
ENDBRANCH  34  36
ENDBRANCH  33  34
ENDBRANCH  32  33
ENDBRANCH  31  32
ENDBRANCH  30  31
ENDBRANCH  29  30
ENDBRANCH   1  29
TORSDOF 21
ENDMDL
