MODEL 1
REMARK VINA RESULT:     -10.6      0.000      0.000
REMARK SMILES C[C@H](NC(=O)NCCc1ccccc1F)C(=O)OCCOCCOCCOC(=O)c1ccc(-c2c3nc(c(-c4c(F)c(F)c(F)c(F)c4F)c4ccc([nH]4)c(-c4c(F)c(F)c(F)c(F)c4F)c4nc(c(-c5c(F)c(F)c(F)c(F)c5F)c5ccc2[nH]5)C=C4)C=C3)cc1
REMARK SMILES IDX 22 1 21 2 20 3 19 4 18 5 16 6 17 7 2 8 1 9 3 10 4 11 5 13
REMARK SMILES IDX 6 14 7 16 8 17 9 18 10 19 14 20 11 21 13 22 15 23 12 24
REMARK SMILES IDX 23 25 24 26 25 27 26 28 27 29 28 30 29 31 30 32 31 33 92 34
REMARK SMILES IDX 32 35 91 36 33 37 34 38 35 39 85 40 36 41 90 42 84 43 86 44
REMARK SMILES IDX 37 45 89 46 83 47 82 48 38 50 70 51 50 52 69 53 51 54 54 55
REMARK SMILES IDX 68 56 87 57 52 58 53 59 67 61 88 62 55 63 39 64 40 65 48 66
REMARK SMILES IDX 41 67 42 68 46 69 49 70 43 71 44 72 47 73 45 74 71 75 72 76
REMARK SMILES IDX 80 77 73 78 74 79 78 80 81 81 75 82 76 83 79 84 77 85 56 86
REMARK SMILES IDX 57 87 65 88 58 89 59 90 63 91 66 92 60 93 61 94 64 95 62 96
REMARK H PARENT 3 12 6 15 86 49 54 60
REMARK Flexibility Score: inf
ROOT
ATOM      1  C   UNL A   1      33.547  27.312  22.319  1.00  0.00     0.188 C 
ENDROOT
BRANCH   1   2
ATOM      2  O   UNL A   1      33.735  25.959  21.931  1.00  0.00    -0.376 OA
BRANCH   2   3
ATOM      3  C   UNL A   1      32.728  25.007  22.258  1.00  0.00     0.202 C 
BRANCH   3   4
ATOM      4  C   UNL A   1      33.041  23.805  23.169  1.00  0.00     0.261 C 
BRANCH   4   5
ATOM      5  O   UNL A   1      32.637  23.931  24.547  1.00  0.00    -0.462 OA
BRANCH   5   6
ATOM      6  C   UNL A   1      33.549  24.509  25.379  1.00  0.00     0.328 C 
ATOM      7  O   UNL A   1      33.506  25.683  25.739  1.00  0.00    -0.250 OA
BRANCH   6   8
ATOM      8  C   UNL A   1      34.720  23.587  25.768  1.00  0.00     0.190 C 
ATOM      9  C   UNL A   1      34.434  23.025  27.157  1.00  0.00     0.043 C 
BRANCH   8  10
ATOM     10  N   UNL A   1      36.069  24.154  25.756  1.00  0.00    -0.325 N 
ATOM     11  C   UNL A   1      37.277  23.568  25.684  1.00  0.00     0.315 C 
ATOM     12  H   UNL A   1      36.097  25.137  25.809  1.00  0.00     0.166 HD
ATOM     13  O   UNL A   1      38.269  24.195  26.055  1.00  0.00    -0.249 OA
ATOM     14  N   UNL A   1      37.452  22.330  25.192  1.00  0.00    -0.338 N 
ATOM     15  H   UNL A   1      38.317  21.920  25.418  1.00  0.00     0.165 HD
BRANCH  14  16
ATOM     16  C   UNL A   1      36.585  21.491  24.383  1.00  0.00     0.122 C 
BRANCH  16  17
ATOM     17  C   UNL A   1      36.182  20.202  25.096  1.00  0.00     0.060 C 
BRANCH  17  18
ATOM     18  C   UNL A   1      34.860  19.621  24.668  1.00  0.00    -0.010 A 
ATOM     19  C   UNL A   1      33.729  20.422  24.480  1.00  0.00     0.007 A 
ATOM     20  C   UNL A   1      34.719  18.238  24.534  1.00  0.00     0.126 A 
ATOM     21  C   UNL A   1      32.484  19.848  24.215  1.00  0.00     0.000 A 
ATOM     22  C   UNL A   1      33.488  17.657  24.246  1.00  0.00     0.039 A 
ATOM     23  F   UNL A   1      35.785  17.443  24.712  1.00  0.00    -0.207 F 
ATOM     24  C   UNL A   1      32.362  18.464  24.099  1.00  0.00     0.003 A 
ENDBRANCH  17  18
ENDBRANCH  16  17
ENDBRANCH  14  16
ENDBRANCH   8  10
ENDBRANCH   6   8
ENDBRANCH   5   6
ENDBRANCH   4   5
ENDBRANCH   3   4
ENDBRANCH   2   3
ENDBRANCH   1   2
BRANCH   1  25
ATOM     25  C   UNL A   1      32.150  27.794  22.756  1.00  0.00     0.188 C 
BRANCH  25  26
ATOM     26  O   UNL A   1      32.043  28.170  24.107  1.00  0.00    -0.376 OA
BRANCH  26  27
ATOM     27  C   UNL A   1      31.167  29.220  24.475  1.00  0.00     0.202 C 
BRANCH  27  28
ATOM     28  C   UNL A   1      31.487  30.349  25.483  1.00  0.00     0.261 C 
BRANCH  28  29
ATOM     29  O   UNL A   1      32.795  30.399  26.065  1.00  0.00    -0.460 OA
BRANCH  29  30
ATOM     30  C   UNL A   1      33.047  31.446  26.887  1.00  0.00     0.338 C 
ATOM     31  O   UNL A   1      32.302  32.383  27.148  1.00  0.00    -0.246 OA
BRANCH  30  32
ATOM     32  C   UNL A   1      34.316  31.201  27.598  1.00  0.00     0.060 A 
ATOM     33  C   UNL A   1      34.625  29.892  27.977  1.00  0.00     0.016 A 
ATOM     34  C   UNL A   1      35.193  32.244  27.906  1.00  0.00     0.016 A 
ATOM     35  C   UNL A   1      35.826  29.624  28.638  1.00  0.00     0.010 A 
ATOM     36  C   UNL A   1      36.393  31.967  28.580  1.00  0.00     0.010 A 
ATOM     37  C   UNL A   1      36.730  30.651  28.941  1.00  0.00    -0.014 A 
BRANCH  37  38
ATOM     38  C   UNL A   1      37.984  30.375  29.701  1.00  0.00     0.031 A 
ATOM     39  C   UNL A   1      39.042  29.498  29.096  1.00  0.00     0.074 A 
ATOM     40  C   UNL A   1      38.194  30.886  30.931  1.00  0.00     0.049 A 
ATOM     41  N   UNL A   1      40.123  29.008  29.649  1.00  0.00    -0.248 NA
ATOM     42  C   UNL A   1      38.861  29.121  27.687  1.00  0.00     0.031 C 
ATOM     43  C   UNL A   1      37.306  31.815  31.619  1.00  0.00     0.029 A 
ATOM     44  N   UNL A   1      39.231  30.696  31.821  1.00  0.00    -0.354 N 
ATOM     45  C   UNL A   1      40.727  28.232  28.672  1.00  0.00     0.074 A 
ATOM     46  C   UNL A   1      39.915  28.343  27.479  1.00  0.00     0.031 C 
ATOM     47  C   UNL A   1      37.840  32.133  32.812  1.00  0.00     0.029 A 
ATOM     48  C   UNL A   1      39.065  31.358  33.016  1.00  0.00     0.049 A 
ATOM     49  H   UNL A   1      40.016  30.138  31.620  1.00  0.00     0.167 HD
ATOM     50  C   UNL A   1      41.841  27.471  28.771  1.00  0.00     0.037 A 
ATOM     51  C   UNL A   1      39.780  31.306  34.162  1.00  0.00     0.037 A 
ATOM     52  C   UNL A   1      42.663  27.354  29.946  1.00  0.00     0.049 A 
ATOM     53  C   UNL A   1      40.972  30.381  34.270  1.00  0.00     0.074 A 
ATOM     54  C   UNL A   1      43.816  26.603  30.108  1.00  0.00     0.029 A 
ATOM     55  N   UNL A   1      42.423  27.985  31.154  1.00  0.00    -0.354 N 
ATOM     56  N   UNL A   1      41.526  29.632  33.347  1.00  0.00    -0.248 NA
ATOM     57  C   UNL A   1      41.619  30.263  35.589  1.00  0.00     0.031 C 
ATOM     58  C   UNL A   1      44.236  26.726  31.432  1.00  0.00     0.029 A 
ATOM     59  C   UNL A   1      43.385  27.607  32.076  1.00  0.00     0.049 A 
ATOM     60  H   UNL A   1      41.680  28.607  31.330  1.00  0.00     0.167 HD
ATOM     61  C   UNL A   1      42.580  28.970  33.969  1.00  0.00     0.074 A 
ATOM     62  C   UNL A   1      42.611  29.418  35.342  1.00  0.00     0.031 C 
ATOM     63  C   UNL A   1      43.436  28.063  33.441  1.00  0.00     0.037 A 
BRANCH  50  64
ATOM     64  C   UNL A   1      42.234  26.639  27.590  1.00  0.00     0.064 A 
ATOM     65  C   UNL A   1      41.685  25.356  27.431  1.00  0.00     0.173 A 
ATOM     66  C   UNL A   1      43.244  27.043  26.708  1.00  0.00     0.173 A 
ATOM     67  F   UNL A   1      40.720  24.927  28.258  1.00  0.00    -0.203 F 
ATOM     68  C   UNL A   1      42.161  24.494  26.451  1.00  0.00     0.198 A 
ATOM     69  C   UNL A   1      43.700  26.184  25.712  1.00  0.00     0.198 A 
ATOM     70  F   UNL A   1      43.789  28.264  26.819  1.00  0.00    -0.203 F 
ATOM     71  F   UNL A   1      41.662  23.254  26.352  1.00  0.00    -0.200 F 
ATOM     72  C   UNL A   1      43.170  24.907  25.594  1.00  0.00     0.200 A 
ATOM     73  F   UNL A   1      44.665  26.588  24.874  1.00  0.00    -0.200 F 
ATOM     74  F   UNL A   1      43.640  24.070  24.659  1.00  0.00    -0.200 F 
ENDBRANCH  50  64
BRANCH  51  75
ATOM     75  C   UNL A   1      39.346  32.090  35.355  1.00  0.00     0.064 A 
ATOM     76  C   UNL A   1      38.485  31.535  36.316  1.00  0.00     0.173 A 
ATOM     77  C   UNL A   1      39.827  33.385  35.592  1.00  0.00     0.173 A 
ATOM     78  F   UNL A   1      38.013  30.289  36.156  1.00  0.00    -0.203 F 
ATOM     79  C   UNL A   1      38.106  32.251  37.450  1.00  0.00     0.198 A 
ATOM     80  C   UNL A   1      39.479  34.086  36.746  1.00  0.00     0.198 A 
ATOM     81  F   UNL A   1      40.688  33.947  34.730  1.00  0.00    -0.203 F 
ATOM     82  F   UNL A   1      37.262  31.703  38.334  1.00  0.00    -0.200 F 
ATOM     83  C   UNL A   1      38.611  33.522  37.669  1.00  0.00     0.200 A 
ATOM     84  F   UNL A   1      40.008  35.295  36.979  1.00  0.00    -0.200 F 
ATOM     85  F   UNL A   1      38.276  34.195  38.778  1.00  0.00    -0.200 F 
ENDBRANCH  51  75
BRANCH  63  86
ATOM     86  C   UNL A   1      44.510  27.482  34.317  1.00  0.00     0.064 A 
ATOM     87  C   UNL A   1      44.261  26.324  35.072  1.00  0.00     0.173 A 
ATOM     88  C   UNL A   1      45.726  28.148  34.525  1.00  0.00     0.173 A 
ATOM     89  F   UNL A   1      43.108  25.655  34.921  1.00  0.00    -0.203 F 
ATOM     90  C   UNL A   1      45.171  25.877  36.027  1.00  0.00     0.198 A 
ATOM     91  C   UNL A   1      46.647  27.683  35.461  1.00  0.00     0.198 A 
ATOM     92  F   UNL A   1      46.018  29.254  33.824  1.00  0.00    -0.203 F 
ATOM     93  F   UNL A   1      44.884  24.804  36.775  1.00  0.00    -0.200 F 
ATOM     94  C   UNL A   1      46.362  26.558  36.222  1.00  0.00     0.200 A 
ATOM     95  F   UNL A   1      47.806  28.333  35.638  1.00  0.00    -0.200 F 
ATOM     96  F   UNL A   1      47.233  26.136  37.149  1.00  0.00    -0.200 F 
ENDBRANCH  63  86
ENDBRANCH  37  38
ENDBRANCH  30  32
ENDBRANCH  29  30
ENDBRANCH  28  29
ENDBRANCH  27  28
ENDBRANCH  26  27
ENDBRANCH  25  26
ENDBRANCH   1  25
TORSDOF 21
ENDMDL
MODEL 2
REMARK VINA RESULT:     -10.6      1.584      2.691
REMARK SMILES C[C@H](NC(=O)NCCc1ccccc1F)C(=O)OCCOCCOCCOC(=O)c1ccc(-c2c3nc(c(-c4c(F)c(F)c(F)c(F)c4F)c4ccc([nH]4)c(-c4c(F)c(F)c(F)c(F)c4F)c4nc(c(-c5c(F)c(F)c(F)c(F)c5F)c5ccc2[nH]5)C=C4)C=C3)cc1
REMARK SMILES IDX 22 1 21 2 20 3 19 4 18 5 16 6 17 7 2 8 1 9 3 10 4 11 5 13
REMARK SMILES IDX 6 14 7 16 8 17 9 18 10 19 14 20 11 21 13 22 15 23 12 24
REMARK SMILES IDX 23 25 24 26 25 27 26 28 27 29 28 30 29 31 30 32 31 33 92 34
REMARK SMILES IDX 32 35 91 36 33 37 34 38 35 39 85 40 36 41 90 42 84 43 86 44
REMARK SMILES IDX 37 45 89 46 83 47 82 48 38 50 70 51 50 52 69 53 51 54 54 55
REMARK SMILES IDX 68 56 87 57 52 58 53 59 67 61 88 62 55 63 39 64 40 65 48 66
REMARK SMILES IDX 41 67 42 68 46 69 49 70 43 71 44 72 47 73 45 74 71 75 72 76
REMARK SMILES IDX 80 77 73 78 74 79 78 80 81 81 75 82 76 83 79 84 77 85 56 86
REMARK SMILES IDX 57 87 65 88 58 89 59 90 63 91 66 92 60 93 61 94 64 95 62 96
REMARK H PARENT 3 12 6 15 86 49 54 60
REMARK Flexibility Score: inf
ROOT
ATOM      1  C   UNL A   1      29.551  27.348  23.410  1.00  0.00     0.188 C 
ENDROOT
BRANCH   1   2
ATOM      2  O   UNL A   1      30.355  26.178  23.385  1.00  0.00    -0.376 OA
BRANCH   2   3
ATOM      3  C   UNL A   1      31.239  25.933  24.472  1.00  0.00     0.202 C 
BRANCH   3   4
ATOM      4  C   UNL A   1      30.737  25.270  25.769  1.00  0.00     0.261 C 
BRANCH   4   5
ATOM      5  O   UNL A   1      30.535  23.844  25.716  1.00  0.00    -0.462 OA
BRANCH   5   6
ATOM      6  C   UNL A   1      31.446  23.093  26.395  1.00  0.00     0.328 C 
ATOM      7  O   UNL A   1      31.655  23.188  27.602  1.00  0.00    -0.250 OA
BRANCH   6   8
ATOM      8  C   UNL A   1      32.285  22.160  25.501  1.00  0.00     0.190 C 
ATOM      9  C   UNL A   1      31.778  22.301  24.069  1.00  0.00     0.043 C 
BRANCH   8  10
ATOM     10  N   UNL A   1      32.330  20.739  25.848  1.00  0.00    -0.325 N 
ATOM     11  C   UNL A   1      33.130  19.747  25.421  1.00  0.00     0.315 C 
ATOM     12  H   UNL A   1      31.656  20.462  26.512  1.00  0.00     0.166 HD
ATOM     13  O   UNL A   1      32.762  18.580  25.561  1.00  0.00    -0.249 OA
ATOM     14  N   UNL A   1      34.335  19.974  24.873  1.00  0.00    -0.338 N 
ATOM     15  H   UNL A   1      34.709  19.210  24.379  1.00  0.00     0.165 HD
BRANCH  14  16
ATOM     16  C   UNL A   1      35.181  21.154  24.881  1.00  0.00     0.122 C 
BRANCH  16  17
ATOM     17  C   UNL A   1      36.669  20.811  24.896  1.00  0.00     0.060 C 
BRANCH  17  18
ATOM     18  C   UNL A   1      37.550  21.814  25.594  1.00  0.00    -0.010 A 
ATOM     19  C   UNL A   1      37.133  23.131  25.818  1.00  0.00     0.007 A 
ATOM     20  C   UNL A   1      38.852  21.463  25.957  1.00  0.00     0.126 A 
ATOM     21  C   UNL A   1      38.014  24.078  26.344  1.00  0.00     0.000 A 
ATOM     22  C   UNL A   1      39.730  22.394  26.504  1.00  0.00     0.039 A 
ATOM     23  F   UNL A   1      39.282  20.209  25.751  1.00  0.00    -0.207 F 
ATOM     24  C   UNL A   1      39.314  23.711  26.686  1.00  0.00     0.003 A 
ENDBRANCH  17  18
ENDBRANCH  16  17
ENDBRANCH  14  16
ENDBRANCH   8  10
ENDBRANCH   6   8
ENDBRANCH   5   6
ENDBRANCH   4   5
ENDBRANCH   3   4
ENDBRANCH   2   3
ENDBRANCH   1   2
BRANCH   1  25
ATOM     25  C   UNL A   1      29.999  28.600  22.629  1.00  0.00     0.188 C 
BRANCH  25  26
ATOM     26  O   UNL A   1      31.074  29.306  23.198  1.00  0.00    -0.376 OA
BRANCH  26  27
ATOM     27  C   UNL A   1      31.003  29.720  24.551  1.00  0.00     0.202 C 
BRANCH  27  28
ATOM     28  C   UNL A   1      32.006  29.339  25.664  1.00  0.00     0.261 C 
BRANCH  28  29
ATOM     29  O   UNL A   1      33.230  30.077  25.768  1.00  0.00    -0.460 OA
BRANCH  29  30
ATOM     30  C   UNL A   1      33.294  30.999  26.758  1.00  0.00     0.338 C 
ATOM     31  O   UNL A   1      32.407  31.763  27.120  1.00  0.00    -0.246 OA
BRANCH  30  32
ATOM     32  C   UNL A   1      34.561  30.827  27.492  1.00  0.00     0.060 A 
ATOM     33  C   UNL A   1      34.887  29.555  27.969  1.00  0.00     0.016 A 
ATOM     34  C   UNL A   1      35.420  31.903  27.726  1.00  0.00     0.016 A 
ATOM     35  C   UNL A   1      36.088  29.355  28.654  1.00  0.00     0.010 A 
ATOM     36  C   UNL A   1      36.620  31.696  28.425  1.00  0.00     0.010 A 
ATOM     37  C   UNL A   1      36.975  30.416  28.885  1.00  0.00    -0.014 A 
BRANCH  37  38
ATOM     38  C   UNL A   1      38.227  30.216  29.670  1.00  0.00     0.031 A 
ATOM     39  C   UNL A   1      39.353  29.415  29.082  1.00  0.00     0.074 A 
ATOM     40  C   UNL A   1      38.377  30.730  30.908  1.00  0.00     0.049 A 
ATOM     41  N   UNL A   1      40.452  28.992  29.656  1.00  0.00    -0.248 NA
ATOM     42  C   UNL A   1      39.227  29.038  27.668  1.00  0.00     0.031 C 
ATOM     43  C   UNL A   1      37.416  31.593  31.582  1.00  0.00     0.029 A 
ATOM     44  N   UNL A   1      39.405  30.600  31.819  1.00  0.00    -0.354 N 
ATOM     45  C   UNL A   1      41.126  28.265  28.686  1.00  0.00     0.074 A 
ATOM     46  C   UNL A   1      40.334  28.332  27.477  1.00  0.00     0.031 C 
ATOM     47  C   UNL A   1      37.902  31.935  32.788  1.00  0.00     0.029 A 
ATOM     48  C   UNL A   1      39.171  31.241  33.014  1.00  0.00     0.049 A 
ATOM     49  H   UNL A   1      40.229  30.097  31.631  1.00  0.00     0.167 HD
ATOM     50  C   UNL A   1      42.285  27.578  28.805  1.00  0.00     0.037 A 
ATOM     51  C   UNL A   1      39.863  31.227  34.175  1.00  0.00     0.037 A 
ATOM     52  C   UNL A   1      43.088  27.505  29.996  1.00  0.00     0.049 A 
ATOM     53  C   UNL A   1      41.111  30.380  34.302  1.00  0.00     0.074 A 
ATOM     54  C   UNL A   1      44.283  26.830  30.178  1.00  0.00     0.029 A 
ATOM     55  N   UNL A   1      42.781  28.110  31.203  1.00  0.00    -0.354 N 
ATOM     56  N   UNL A   1      41.732  29.677  33.388  1.00  0.00    -0.248 NA
ATOM     57  C   UNL A   1      41.736  30.294  35.635  1.00  0.00     0.031 C 
ATOM     58  C   UNL A   1      44.666  26.969  31.512  1.00  0.00     0.029 A 
ATOM     59  C   UNL A   1      43.747  27.788  32.144  1.00  0.00     0.049 A 
ATOM     60  H   UNL A   1      41.996  28.680  31.367  1.00  0.00     0.167 HD
ATOM     61  C   UNL A   1      42.813  29.080  34.028  1.00  0.00     0.074 A 
ATOM     62  C   UNL A   1      42.787  29.518  35.403  1.00  0.00     0.031 C 
ATOM     63  C   UNL A   1      43.738  28.235  33.513  1.00  0.00     0.037 A 
BRANCH  50  64
ATOM     64  C   UNL A   1      42.757  26.783  27.627  1.00  0.00     0.064 A 
ATOM     65  C   UNL A   1      42.519  25.399  27.583  1.00  0.00     0.173 A 
ATOM     66  C   UNL A   1      43.556  27.351  26.628  1.00  0.00     0.173 A 
ATOM     67  F   UNL A   1      41.765  24.813  28.526  1.00  0.00    -0.203 F 
ATOM     68  C   UNL A   1      43.097  24.607  26.598  1.00  0.00     0.198 A 
ATOM     69  C   UNL A   1      44.112  26.557  25.628  1.00  0.00     0.198 A 
ATOM     70  F   UNL A   1      43.799  28.670  26.627  1.00  0.00    -0.203 F 
ATOM     71  F   UNL A   1      42.903  23.281  26.607  1.00  0.00    -0.200 F 
ATOM     72  C   UNL A   1      43.895  25.187  25.623  1.00  0.00     0.200 A 
ATOM     73  F   UNL A   1      44.871  27.118  24.677  1.00  0.00    -0.200 F 
ATOM     74  F   UNL A   1      44.464  24.421  24.682  1.00  0.00    -0.200 F 
ENDBRANCH  50  64
BRANCH  51  75
ATOM     75  C   UNL A   1      39.353  31.971  35.364  1.00  0.00     0.064 A 
ATOM     76  C   UNL A   1      39.651  33.329  35.554  1.00  0.00     0.173 A 
ATOM     77  C   UNL A   1      38.510  31.357  36.301  1.00  0.00     0.173 A 
ATOM     78  F   UNL A   1      40.433  33.976  34.677  1.00  0.00    -0.203 F 
ATOM     79  C   UNL A   1      39.147  34.036  36.645  1.00  0.00     0.198 A 
ATOM     80  C   UNL A   1      37.973  32.076  37.369  1.00  0.00     0.198 A 
ATOM     81  F   UNL A   1      38.154  30.073  36.143  1.00  0.00    -0.203 F 
ATOM     82  F   UNL A   1      39.473  35.325  36.812  1.00  0.00    -0.200 F 
ATOM     83  C   UNL A   1      38.300  33.412  37.545  1.00  0.00     0.200 A 
ATOM     84  F   UNL A   1      37.115  31.481  38.210  1.00  0.00    -0.200 F 
ATOM     85  F   UNL A   1      37.785  34.102  38.572  1.00  0.00    -0.200 F 
ENDBRANCH  51  75
BRANCH  63  86
ATOM     86  C   UNL A   1      44.829  27.718  34.408  1.00  0.00     0.064 A 
ATOM     87  C   UNL A   1      44.640  26.540  35.149  1.00  0.00     0.173 A 
ATOM     88  C   UNL A   1      45.994  28.461  34.647  1.00  0.00     0.173 A 
ATOM     89  F   UNL A   1      43.537  25.799  34.968  1.00  0.00    -0.203 F 
ATOM     90  C   UNL A   1      45.558  26.146  36.121  1.00  0.00     0.198 A 
ATOM     91  C   UNL A   1      46.924  28.050  35.599  1.00  0.00     0.198 A 
ATOM     92  F   UNL A   1      46.228  29.589  33.959  1.00  0.00    -0.203 F 
ATOM     93  F   UNL A   1      45.325  25.050  36.855  1.00  0.00    -0.200 F 
ATOM     94  C   UNL A   1      46.697  26.902  36.346  1.00  0.00     0.200 A 
ATOM     95  F   UNL A   1      48.033  28.772  35.806  1.00  0.00    -0.200 F 
ATOM     96  F   UNL A   1      47.574  26.530  37.289  1.00  0.00    -0.200 F 
ENDBRANCH  63  86
ENDBRANCH  37  38
ENDBRANCH  30  32
ENDBRANCH  29  30
ENDBRANCH  28  29
ENDBRANCH  27  28
ENDBRANCH  26  27
ENDBRANCH  25  26
ENDBRANCH   1  25
TORSDOF 21
ENDMDL
MODEL 3
REMARK VINA RESULT:     -10.3      1.583      2.753
REMARK SMILES C[C@H](NC(=O)NCCc1ccccc1F)C(=O)OCCOCCOCCOC(=O)c1ccc(-c2c3nc(c(-c4c(F)c(F)c(F)c(F)c4F)c4ccc([nH]4)c(-c4c(F)c(F)c(F)c(F)c4F)c4nc(c(-c5c(F)c(F)c(F)c(F)c5F)c5ccc2[nH]5)C=C4)C=C3)cc1
REMARK SMILES IDX 22 1 21 2 20 3 19 4 18 5 16 6 17 7 2 8 1 9 3 10 4 11 5 13
REMARK SMILES IDX 6 14 7 16 8 17 9 18 10 19 14 20 11 21 13 22 15 23 12 24
REMARK SMILES IDX 23 25 24 26 25 27 26 28 27 29 28 30 29 31 30 32 31 33 92 34
REMARK SMILES IDX 32 35 91 36 33 37 34 38 35 39 85 40 36 41 90 42 84 43 86 44
REMARK SMILES IDX 37 45 89 46 83 47 82 48 38 50 70 51 50 52 69 53 51 54 54 55
REMARK SMILES IDX 68 56 87 57 52 58 53 59 67 61 88 62 55 63 39 64 40 65 48 66
REMARK SMILES IDX 41 67 42 68 46 69 49 70 43 71 44 72 47 73 45 74 71 75 72 76
REMARK SMILES IDX 80 77 73 78 74 79 78 80 81 81 75 82 76 83 79 84 77 85 56 86
REMARK SMILES IDX 57 87 65 88 58 89 59 90 63 91 66 92 60 93 61 94 64 95 62 96
REMARK H PARENT 3 12 6 15 86 49 54 60
REMARK Flexibility Score: inf
ROOT
ATOM      1  C   UNL A   1      33.653  27.502  22.321  1.00  0.00     0.188 C 
ENDROOT
BRANCH   1   2
ATOM      2  O   UNL A   1      33.613  26.266  21.624  1.00  0.00    -0.376 OA
BRANCH   2   3
ATOM      3  C   UNL A   1      32.385  25.549  21.574  1.00  0.00     0.202 C 
BRANCH   3   4
ATOM      4  C   UNL A   1      32.073  24.439  22.595  1.00  0.00     0.261 C 
BRANCH   4   5
ATOM      5  O   UNL A   1      30.696  24.321  23.004  1.00  0.00    -0.462 OA
BRANCH   5   6
ATOM      6  C   UNL A   1      30.262  25.257  23.895  1.00  0.00     0.328 C 
ATOM      7  O   UNL A   1      29.482  26.164  23.616  1.00  0.00    -0.250 OA
BRANCH   6   8
ATOM      8  C   UNL A   1      30.912  25.149  25.288  1.00  0.00     0.190 C 
ATOM      9  C   UNL A   1      30.064  24.200  26.129  1.00  0.00     0.043 C 
BRANCH   8  10
ATOM     10  N   UNL A   1      31.125  26.386  26.040  1.00  0.00    -0.325 N 
ATOM     11  C   UNL A   1      32.172  26.812  26.768  1.00  0.00     0.315 C 
ATOM     12  H   UNL A   1      30.369  27.016  26.007  1.00  0.00     0.166 HD
ATOM     13  O   UNL A   1      31.998  27.701  27.602  1.00  0.00    -0.249 OA
ATOM     14  N   UNL A   1      33.414  26.329  26.599  1.00  0.00    -0.338 N 
ATOM     15  H   UNL A   1      34.031  26.526  27.340  1.00  0.00     0.165 HD
BRANCH  14  16
ATOM     16  C   UNL A   1      34.004  25.565  25.514  1.00  0.00     0.122 C 
BRANCH  16  17
ATOM     17  C   UNL A   1      33.966  24.059  25.766  1.00  0.00     0.060 C 
BRANCH  17  18
ATOM     18  C   UNL A   1      35.304  23.370  25.723  1.00  0.00    -0.010 A 
ATOM     19  C   UNL A   1      36.504  24.083  25.816  1.00  0.00     0.007 A 
ATOM     20  C   UNL A   1      35.371  21.993  25.499  1.00  0.00     0.126 A 
ATOM     21  C   UNL A   1      37.732  23.441  25.639  1.00  0.00     0.000 A 
ATOM     22  C   UNL A   1      36.589  21.339  25.345  1.00  0.00     0.039 A 
ATOM     23  F   UNL A   1      34.237  21.282  25.402  1.00  0.00    -0.207 F 
ATOM     24  C   UNL A   1      37.775  22.069  25.401  1.00  0.00     0.003 A 
ENDBRANCH  17  18
ENDBRANCH  16  17
ENDBRANCH  14  16
ENDBRANCH   8  10
ENDBRANCH   6   8
ENDBRANCH   5   6
ENDBRANCH   4   5
ENDBRANCH   3   4
ENDBRANCH   2   3
ENDBRANCH   1   2
BRANCH   1  25
ATOM     25  C   UNL A   1      32.339  28.233  22.657  1.00  0.00     0.188 C 
BRANCH  25  26
ATOM     26  O   UNL A   1      32.136  28.498  24.024  1.00  0.00    -0.376 OA
BRANCH  26  27
ATOM     27  C   UNL A   1      31.288  29.564  24.413  1.00  0.00     0.202 C 
BRANCH  27  28
ATOM     28  C   UNL A   1      31.527  30.516  25.607  1.00  0.00     0.261 C 
BRANCH  28  29
ATOM     29  O   UNL A   1      32.775  30.439  26.307  1.00  0.00    -0.460 OA
BRANCH  29  30
ATOM     30  C   UNL A   1      33.133  31.534  27.020  1.00  0.00     0.338 C 
ATOM     31  O   UNL A   1      32.474  32.550  27.203  1.00  0.00    -0.246 OA
BRANCH  30  32
ATOM     32  C   UNL A   1      34.397  31.253  27.726  1.00  0.00     0.060 A 
ATOM     33  C   UNL A   1      34.652  29.944  28.140  1.00  0.00     0.016 A 
ATOM     34  C   UNL A   1      35.322  32.265  27.996  1.00  0.00     0.016 A 
ATOM     35  C   UNL A   1      35.846  29.641  28.797  1.00  0.00     0.010 A 
ATOM     36  C   UNL A   1      36.516  31.954  28.667  1.00  0.00     0.010 A 
ATOM     37  C   UNL A   1      36.798  30.635  29.063  1.00  0.00    -0.014 A 
BRANCH  37  38
ATOM     38  C   UNL A   1      38.046  30.325  29.820  1.00  0.00     0.031 A 
ATOM     39  C   UNL A   1      39.083  29.428  29.207  1.00  0.00     0.074 A 
ATOM     40  C   UNL A   1      38.269  30.823  31.053  1.00  0.00     0.049 A 
ATOM     41  N   UNL A   1      40.153  28.910  29.756  1.00  0.00    -0.248 NA
ATOM     42  C   UNL A   1      38.891  29.064  27.797  1.00  0.00     0.031 C 
ATOM     43  C   UNL A   1      37.403  31.767  31.748  1.00  0.00     0.029 A 
ATOM     44  N   UNL A   1      39.302  30.603  31.940  1.00  0.00    -0.354 N 
ATOM     45  C   UNL A   1      40.738  28.126  28.772  1.00  0.00     0.074 A 
ATOM     46  C   UNL A   1      39.927  28.264  27.581  1.00  0.00     0.031 C 
ATOM     47  C   UNL A   1      37.945  32.065  32.942  1.00  0.00     0.029 A 
ATOM     48  C   UNL A   1      39.153  31.261  33.140  1.00  0.00     0.049 A 
ATOM     49  H   UNL A   1      40.074  30.029  31.734  1.00  0.00     0.167 HD
ATOM     50  C   UNL A   1      41.834  27.340  28.865  1.00  0.00     0.037 A 
ATOM     51  C   UNL A   1      39.868  31.185  34.285  1.00  0.00     0.037 A 
ATOM     52  C   UNL A   1      42.655  27.196  30.038  1.00  0.00     0.049 A 
ATOM     53  C   UNL A   1      41.038  30.232  34.384  1.00  0.00     0.074 A 
ATOM     54  C   UNL A   1      43.790  26.417  30.194  1.00  0.00     0.029 A 
ATOM     55  N   UNL A   1      42.430  27.824  31.251  1.00  0.00    -0.354 N 
ATOM     56  N   UNL A   1      41.574  29.477  33.457  1.00  0.00    -0.248 NA
ATOM     57  C   UNL A   1      41.684  30.090  35.703  1.00  0.00     0.031 C 
ATOM     58  C   UNL A   1      44.214  26.521  31.518  1.00  0.00     0.029 A 
ATOM     59  C   UNL A   1      43.385  27.418  32.170  1.00  0.00     0.049 A 
ATOM     60  H   UNL A   1      41.702  28.462  31.432  1.00  0.00     0.167 HD
ATOM     61  C   UNL A   1      42.613  28.786  34.072  1.00  0.00     0.074 A 
ATOM     62  C   UNL A   1      42.656  29.224  35.448  1.00  0.00     0.031 C 
ATOM     63  C   UNL A   1      43.447  27.863  33.538  1.00  0.00     0.037 A 
BRANCH  50  64
ATOM     64  C   UNL A   1      42.207  26.507  27.678  1.00  0.00     0.064 A 
ATOM     65  C   UNL A   1      41.617  25.244  27.504  1.00  0.00     0.173 A 
ATOM     66  C   UNL A   1      43.234  26.886  26.806  1.00  0.00     0.173 A 
ATOM     67  F   UNL A   1      40.635  24.838  28.322  1.00  0.00    -0.203 F 
ATOM     68  C   UNL A   1      42.071  24.376  26.518  1.00  0.00     0.198 A 
ATOM     69  C   UNL A   1      43.668  26.023  25.803  1.00  0.00     0.198 A 
ATOM     70  F   UNL A   1      43.817  28.088  26.931  1.00  0.00    -0.203 F 
ATOM     71  F   UNL A   1      41.533  23.153  26.404  1.00  0.00    -0.200 F 
ATOM     72  C   UNL A   1      43.097  24.765  25.671  1.00  0.00     0.200 A 
ATOM     73  F   UNL A   1      44.650  26.404  24.975  1.00  0.00    -0.200 F 
ATOM     74  F   UNL A   1      43.545  23.922  24.730  1.00  0.00    -0.200 F 
ENDBRANCH  50  64
BRANCH  51  75
ATOM     75  C   UNL A   1      39.452  31.970  35.484  1.00  0.00     0.064 A 
ATOM     76  C   UNL A   1      39.883  33.293  35.671  1.00  0.00     0.173 A 
ATOM     77  C   UNL A   1      38.570  31.437  36.434  1.00  0.00     0.173 A 
ATOM     78  F   UNL A   1      40.708  33.864  34.781  1.00  0.00    -0.203 F 
ATOM     79  C   UNL A   1      39.469  34.041  36.772  1.00  0.00     0.198 A 
ATOM     80  C   UNL A   1      38.124  32.200  37.513  1.00  0.00     0.198 A 
ATOM     81  F   UNL A   1      38.090  30.194  36.280  1.00  0.00    -0.203 F 
ATOM     82  F   UNL A   1      39.920  35.292  36.936  1.00  0.00    -0.200 F 
ATOM     83  C   UNL A   1      38.582  33.498  37.686  1.00  0.00     0.200 A 
ATOM     84  F   UNL A   1      37.229  31.688  38.369  1.00  0.00    -0.200 F 
ATOM     85  F   UNL A   1      38.154  34.231  38.723  1.00  0.00    -0.200 F 
ENDBRANCH  51  75
BRANCH  63  86
ATOM     86  C   UNL A   1      44.508  27.252  34.408  1.00  0.00     0.064 A 
ATOM     87  C   UNL A   1      45.789  27.823  34.473  1.00  0.00     0.173 A 
ATOM     88  C   UNL A   1      44.307  26.024  35.056  1.00  0.00     0.173 A 
ATOM     89  F   UNL A   1      46.039  28.990  33.860  1.00  0.00    -0.203 F 
ATOM     90  C   UNL A   1      46.837  27.172  35.121  1.00  0.00     0.198 A 
ATOM     91  C   UNL A   1      45.349  25.389  35.728  1.00  0.00     0.198 A 
ATOM     92  F   UNL A   1      43.100  25.440  35.033  1.00  0.00    -0.203 F 
ATOM     93  F   UNL A   1      48.063  27.711  35.118  1.00  0.00    -0.200 F 
ATOM     94  C   UNL A   1      46.616  25.955  35.746  1.00  0.00     0.200 A 
ATOM     95  F   UNL A   1      45.131  24.220  36.346  1.00  0.00    -0.200 F 
ATOM     96  F   UNL A   1      47.626  25.323  36.360  1.00  0.00    -0.200 F 
ENDBRANCH  63  86
ENDBRANCH  37  38
ENDBRANCH  30  32
ENDBRANCH  29  30
ENDBRANCH  28  29
ENDBRANCH  27  28
ENDBRANCH  26  27
ENDBRANCH  25  26
ENDBRANCH   1  25
TORSDOF 21
ENDMDL
