MODEL 1
REMARK VINA RESULT:     -11.2      0.000      0.000
REMARK SMILES O=C(OCCOCCOCCOC(=O)c1ccccc1Nc1cccc(C(F)(F)F)c1)c1ccc(-c2c3nc(c(-c4c(F)c(F)c(F)c(F)c4F)c4ccc([nH]4)c(-c4c(F)c(F)c(F)c(F)c4F)c4nc(c(-c5c(F)c(F)c(F)c(F)c5F)c5ccc2[nH]5)C=C4)C=C3)cc1
REMARK SMILES IDX 8 1 7 2 6 3 5 4 4 5 3 6 2 7 1 8 32 9 33 10 94 11 34 12 93 13
REMARK SMILES IDX 35 14 36 15 37 16 87 17 38 18 92 19 86 20 88 21 39 22 91 23
REMARK SMILES IDX 85 24 84 25 40 27 72 28 52 29 71 30 53 31 56 32 70 33 89 34
REMARK SMILES IDX 54 35 55 36 69 38 90 39 57 40 41 41 42 42 50 43 43 44 44 45
REMARK SMILES IDX 48 46 51 47 45 48 46 49 49 50 47 51 73 52 74 53 82 54 75 55
REMARK SMILES IDX 76 56 80 57 83 58 77 59 78 60 81 61 79 62 58 63 59 64 67 65
REMARK SMILES IDX 60 66 61 67 65 68 68 69 62 70 63 71 66 72 64 73 9 74 10 75
REMARK SMILES IDX 11 76 12 77 13 78 14 79 15 80 16 81 20 82 17 83 19 84 18 85
REMARK SMILES IDX 21 86 22 88 23 89 31 90 24 91 26 92 25 93 27 94 28 95 29 96
REMARK SMILES IDX 30 97
REMARK H PARENT 88 26 56 37 21 87
REMARK Flexibility Score: inf
ROOT
ATOM      1  C   UNL A   1      40.105  20.969  26.179  1.00  0.00     0.188 C 
ENDROOT
BRANCH   1   2
ATOM      2  C   UNL A   1      41.614  20.714  26.137  1.00  0.00     0.188 C 
BRANCH   2   3
ATOM      3  O   UNL A   1      41.896  19.411  25.604  1.00  0.00    -0.376 OA
BRANCH   3   4
ATOM      4  C   UNL A   1      42.602  18.563  26.515  1.00  0.00     0.202 C 
BRANCH   4   5
ATOM      5  C   UNL A   1      43.849  17.906  25.912  1.00  0.00     0.261 C 
BRANCH   5   6
ATOM      6  O   UNL A   1      44.194  18.488  24.646  1.00  0.00    -0.460 OA
BRANCH   6   7
ATOM      7  C   UNL A   1      45.131  19.433  24.393  1.00  0.00     0.338 C 
ATOM      8  O   UNL A   1      46.151  19.101  23.787  1.00  0.00    -0.246 OA
BRANCH   7   9
ATOM      9  C   UNL A   1      44.970  20.883  24.730  1.00  0.00     0.060 A 
ATOM     10  C   UNL A   1      44.558  21.890  23.854  1.00  0.00     0.016 A 
ATOM     11  C   UNL A   1      45.217  21.237  26.068  1.00  0.00     0.016 A 
ATOM     12  C   UNL A   1      44.531  23.229  24.251  1.00  0.00     0.010 A 
ATOM     13  C   UNL A   1      45.134  22.567  26.488  1.00  0.00     0.010 A 
ATOM     14  C   UNL A   1      44.845  23.576  25.563  1.00  0.00    -0.014 A 
BRANCH  14  15
ATOM     15  C   UNL A   1      45.002  24.996  25.944  1.00  0.00     0.031 A 
ATOM     16  C   UNL A   1      46.361  25.613  25.844  1.00  0.00     0.074 A 
ATOM     17  C   UNL A   1      43.952  25.721  26.360  1.00  0.00     0.049 A 
ATOM     18  N   UNL A   1      46.766  26.794  26.226  1.00  0.00    -0.248 NA
ATOM     19  C   UNL A   1      47.406  24.786  25.221  1.00  0.00     0.031 C 
ATOM     20  C   UNL A   1      42.577  25.239  26.396  1.00  0.00     0.029 A 
ATOM     21  N   UNL A   1      43.873  27.002  26.844  1.00  0.00    -0.354 N 
ATOM     22  C   UNL A   1      48.114  26.845  25.911  1.00  0.00     0.074 A 
ATOM     23  C   UNL A   1      48.466  25.572  25.318  1.00  0.00     0.031 C 
ATOM     24  C   UNL A   1      41.796  26.199  26.911  1.00  0.00     0.029 A 
ATOM     25  C   UNL A   1      42.618  27.340  27.288  1.00  0.00     0.049 A 
ATOM     26  H   UNL A   1      44.641  27.619  26.869  1.00  0.00     0.167 HD
ATOM     27  C   UNL A   1      48.978  27.867  26.106  1.00  0.00     0.037 A 
ATOM     28  C   UNL A   1      42.185  28.426  27.957  1.00  0.00     0.037 A 
ATOM     29  C   UNL A   1      48.607  29.122  26.697  1.00  0.00     0.049 A 
ATOM     30  C   UNL A   1      43.175  29.526  28.222  1.00  0.00     0.074 A 
ATOM     31  C   UNL A   1      49.397  30.226  26.957  1.00  0.00     0.029 A 
ATOM     32  N   UNL A   1      47.324  29.433  27.129  1.00  0.00    -0.354 N 
ATOM     33  N   UNL A   1      44.448  29.576  27.906  1.00  0.00    -0.248 NA
ATOM     34  C   UNL A   1      42.682  30.720  28.919  1.00  0.00     0.031 C 
ATOM     35  C   UNL A   1      48.600  31.190  27.584  1.00  0.00     0.029 A 
ATOM     36  C   UNL A   1      47.305  30.702  27.680  1.00  0.00     0.049 A 
ATOM     37  H   UNL A   1      46.543  28.838  27.055  1.00  0.00     0.167 HD
ATOM     38  C   UNL A   1      44.900  30.815  28.330  1.00  0.00     0.074 A 
ATOM     39  C   UNL A   1      43.762  31.491  28.923  1.00  0.00     0.031 C 
ATOM     40  C   UNL A   1      46.143  31.349  28.239  1.00  0.00     0.037 A 
BRANCH  27  41
ATOM     41  C   UNL A   1      50.408  27.616  25.731  1.00  0.00     0.064 A 
ATOM     42  C   UNL A   1      51.379  27.292  26.690  1.00  0.00     0.173 A 
ATOM     43  C   UNL A   1      50.821  27.770  24.400  1.00  0.00     0.173 A 
ATOM     44  F   UNL A   1      51.039  27.165  27.981  1.00  0.00    -0.203 F 
ATOM     45  C   UNL A   1      52.721  27.173  26.334  1.00  0.00     0.198 A 
ATOM     46  C   UNL A   1      52.159  27.624  24.044  1.00  0.00     0.198 A 
ATOM     47  F   UNL A   1      49.931  28.087  23.448  1.00  0.00    -0.203 F 
ATOM     48  F   UNL A   1      53.644  26.935  27.277  1.00  0.00    -0.200 F 
ATOM     49  C   UNL A   1      53.109  27.339  25.013  1.00  0.00     0.200 A 
ATOM     50  F   UNL A   1      52.532  27.787  22.768  1.00  0.00    -0.200 F 
ATOM     51  F   UNL A   1      54.403  27.246  24.677  1.00  0.00    -0.200 F 
ENDBRANCH  27  41
BRANCH  28  52
ATOM     52  C   UNL A   1      40.766  28.502  28.409  1.00  0.00     0.064 A 
ATOM     53  C   UNL A   1      40.381  28.102  29.696  1.00  0.00     0.173 A 
ATOM     54  C   UNL A   1      39.763  29.034  27.578  1.00  0.00     0.173 A 
ATOM     55  F   UNL A   1      41.286  27.562  30.526  1.00  0.00    -0.203 F 
ATOM     56  C   UNL A   1      39.067  28.246  30.140  1.00  0.00     0.198 A 
ATOM     57  C   UNL A   1      38.456  29.204  28.032  1.00  0.00     0.198 A 
ATOM     58  F   UNL A   1      40.062  29.429  26.332  1.00  0.00    -0.203 F 
ATOM     59  F   UNL A   1      38.730  27.844  31.373  1.00  0.00    -0.200 F 
ATOM     60  C   UNL A   1      38.108  28.810  29.314  1.00  0.00     0.200 A 
ATOM     61  F   UNL A   1      37.540  29.765  27.231  1.00  0.00    -0.200 F 
ATOM     62  F   UNL A   1      36.852  28.974  29.751  1.00  0.00    -0.200 F 
ENDBRANCH  28  52
BRANCH  40  63
ATOM     63  C   UNL A   1      46.324  32.740  28.759  1.00  0.00     0.064 A 
ATOM     64  C   UNL A   1      46.146  33.857  27.931  1.00  0.00     0.173 A 
ATOM     65  C   UNL A   1      46.612  32.957  30.115  1.00  0.00     0.173 A 
ATOM     66  F   UNL A   1      45.885  33.694  26.626  1.00  0.00    -0.203 F 
ATOM     67  C   UNL A   1      46.258  35.145  28.442  1.00  0.00     0.198 A 
ATOM     68  C   UNL A   1      46.702  34.247  30.627  1.00  0.00     0.198 A 
ATOM     69  F   UNL A   1      46.786  31.917  30.944  1.00  0.00    -0.203 F 
ATOM     70  F   UNL A   1      46.111  36.202  27.629  1.00  0.00    -0.200 F 
ATOM     71  C   UNL A   1      46.527  35.340  29.790  1.00  0.00     0.200 A 
ATOM     72  F   UNL A   1      46.950  34.433  31.930  1.00  0.00    -0.200 F 
ATOM     73  F   UNL A   1      46.620  36.583  30.282  1.00  0.00    -0.200 F 
ENDBRANCH  40  63
ENDBRANCH  14  15
ENDBRANCH   7   9
ENDBRANCH   6   7
ENDBRANCH   5   6
ENDBRANCH   4   5
ENDBRANCH   3   4
ENDBRANCH   2   3
ENDBRANCH   1   2
BRANCH   1  74
ATOM     74  O   UNL A   1      39.697  22.067  26.997  1.00  0.00    -0.376 OA
BRANCH  74  75
ATOM     75  C   UNL A   1      38.960  23.109  26.367  1.00  0.00     0.202 C 
BRANCH  75  76
ATOM     76  C   UNL A   1      37.607  22.719  25.763  1.00  0.00     0.261 C 
BRANCH  76  77
ATOM     77  O   UNL A   1      36.730  23.827  25.494  1.00  0.00    -0.460 OA
BRANCH  77  78
ATOM     78  C   UNL A   1      35.757  23.559  24.598  1.00  0.00     0.340 C 
ATOM     79  O   UNL A   1      35.900  23.222  23.421  1.00  0.00    -0.246 OA
BRANCH  78  80
ATOM     80  C   UNL A   1      34.429  23.864  25.134  1.00  0.00     0.083 A 
ATOM     81  C   UNL A   1      34.035  25.205  25.250  1.00  0.00     0.018 A 
ATOM     82  C   UNL A   1      33.684  22.818  25.715  1.00  0.00     0.053 A 
ATOM     83  C   UNL A   1      32.890  25.523  25.977  1.00  0.00     0.001 A 
ATOM     84  C   UNL A   1      32.548  23.169  26.451  1.00  0.00     0.027 A 
ATOM     85  C   UNL A   1      32.162  24.509  26.596  1.00  0.00     0.002 A 
BRANCH  82  86
ATOM     86  N   UNL A   1      34.071  21.474  25.539  1.00  0.00    -0.355 N 
ATOM     87  H   UNL A   1      34.807  21.184  26.125  1.00  0.00     0.167 HD
BRANCH  86  88
ATOM     88  C   UNL A   1      33.595  20.476  24.677  1.00  0.00     0.039 A 
ATOM     89  C   UNL A   1      32.622  20.821  23.733  1.00  0.00     0.026 A 
ATOM     90  C   UNL A   1      34.056  19.156  24.723  1.00  0.00     0.039 A 
ATOM     91  C   UNL A   1      32.109  19.871  22.853  1.00  0.00     0.003 A 
ATOM     92  C   UNL A   1      33.524  18.179  23.861  1.00  0.00     0.058 A 
ATOM     93  C   UNL A   1      32.552  18.554  22.921  1.00  0.00     0.013 A 
BRANCH  92  94
ATOM     94  C   UNL A   1      33.930  16.731  23.980  1.00  0.00     0.416 C 
ATOM     95  F   UNL A   1      34.365  16.209  22.803  1.00  0.00    -0.166 F 
ATOM     96  F   UNL A   1      34.942  16.543  24.871  1.00  0.00    -0.166 F 
ATOM     97  F   UNL A   1      32.913  15.930  24.400  1.00  0.00    -0.166 F 
ENDBRANCH  92  94
ENDBRANCH  86  88
ENDBRANCH  82  86
ENDBRANCH  78  80
ENDBRANCH  77  78
ENDBRANCH  76  77
ENDBRANCH  75  76
ENDBRANCH  74  75
ENDBRANCH   1  74
TORSDOF 20
ENDMDL
MODEL 2
REMARK VINA RESULT:     -11.2      6.236     10.648
REMARK SMILES O=C(OCCOCCOCCOC(=O)c1ccccc1Nc1cccc(C(F)(F)F)c1)c1ccc(-c2c3nc(c(-c4c(F)c(F)c(F)c(F)c4F)c4ccc([nH]4)c(-c4c(F)c(F)c(F)c(F)c4F)c4nc(c(-c5c(F)c(F)c(F)c(F)c5F)c5ccc2[nH]5)C=C4)C=C3)cc1
REMARK SMILES IDX 8 1 7 2 6 3 5 4 4 5 3 6 2 7 1 8 32 9 33 10 94 11 34 12 93 13
REMARK SMILES IDX 35 14 36 15 37 16 87 17 38 18 92 19 86 20 88 21 39 22 91 23
REMARK SMILES IDX 85 24 84 25 40 27 72 28 52 29 71 30 53 31 56 32 70 33 89 34
REMARK SMILES IDX 54 35 55 36 69 38 90 39 57 40 41 41 42 42 50 43 43 44 44 45
REMARK SMILES IDX 48 46 51 47 45 48 46 49 49 50 47 51 73 52 74 53 82 54 75 55
REMARK SMILES IDX 76 56 80 57 83 58 77 59 78 60 81 61 79 62 58 63 59 64 67 65
REMARK SMILES IDX 60 66 61 67 65 68 68 69 62 70 63 71 66 72 64 73 9 74 10 75
REMARK SMILES IDX 11 76 12 77 13 78 14 79 15 80 16 81 20 82 17 83 19 84 18 85
REMARK SMILES IDX 21 86 22 88 23 89 31 90 24 91 26 92 25 93 27 94 28 95 29 96
REMARK SMILES IDX 30 97
REMARK H PARENT 88 26 56 37 21 87
REMARK Flexibility Score: inf
ROOT
ATOM      1  C   UNL A   1      30.732  28.821  23.831  1.00  0.00     0.188 C 
ENDROOT
BRANCH   1   2
ATOM      2  C   UNL A   1      30.455  30.268  24.249  1.00  0.00     0.188 C 
BRANCH   2   3
ATOM      3  O   UNL A   1      31.302  30.654  25.342  1.00  0.00    -0.376 OA
BRANCH   3   4
ATOM      4  C   UNL A   1      30.990  31.944  25.878  1.00  0.00     0.202 C 
BRANCH   4   5
ATOM      5  C   UNL A   1      31.696  32.253  27.202  1.00  0.00     0.261 C 
BRANCH   5   6
ATOM      6  O   UNL A   1      32.068  33.636  27.294  1.00  0.00    -0.460 OA
BRANCH   6   7
ATOM      7  C   UNL A   1      32.959  34.203  28.144  1.00  0.00     0.338 C 
ATOM      8  O   UNL A   1      32.753  35.354  28.527  1.00  0.00    -0.246 OA
BRANCH   7   9
ATOM      9  C   UNL A   1      34.142  33.485  28.716  1.00  0.00     0.060 A 
ATOM     10  C   UNL A   1      34.102  32.470  29.676  1.00  0.00     0.016 A 
ATOM     11  C   UNL A   1      35.396  33.849  28.196  1.00  0.00     0.016 A 
ATOM     12  C   UNL A   1      35.275  31.932  30.210  1.00  0.00     0.010 A 
ATOM     13  C   UNL A   1      36.572  33.273  28.684  1.00  0.00     0.010 A 
ATOM     14  C   UNL A   1      36.516  32.351  29.735  1.00  0.00    -0.014 A 
BRANCH  14  15
ATOM     15  C   UNL A   1      37.759  31.931  30.417  1.00  0.00     0.031 A 
ATOM     16  C   UNL A   1      38.608  30.885  29.769  1.00  0.00     0.074 A 
ATOM     17  C   UNL A   1      38.126  32.482  31.585  1.00  0.00     0.049 A 
ATOM     18  N   UNL A   1      39.671  30.279  30.225  1.00  0.00    -0.248 NA
ATOM     19  C   UNL A   1      38.206  30.470  28.415  1.00  0.00     0.031 C 
ATOM     20  C   UNL A   1      37.420  33.574  32.243  1.00  0.00     0.029 A 
ATOM     21  N   UNL A   1      39.167  32.193  32.432  1.00  0.00    -0.354 N 
ATOM     22  C   UNL A   1      40.052  29.396  29.227  1.00  0.00     0.074 A 
ATOM     23  C   UNL A   1      39.102  29.533  28.145  1.00  0.00     0.031 C 
ATOM     24  C   UNL A   1      38.026  33.839  33.409  1.00  0.00     0.029 A 
ATOM     25  C   UNL A   1      39.127  32.906  33.605  1.00  0.00     0.049 A 
ATOM     26  H   UNL A   1      39.873  31.540  32.219  1.00  0.00     0.167 HD
ATOM     27  C   UNL A   1      41.104  28.545  29.223  1.00  0.00     0.037 A 
ATOM     28  C   UNL A   1      39.865  32.796  34.726  1.00  0.00     0.037 A 
ATOM     29  C   UNL A   1      42.035  28.426  30.311  1.00  0.00     0.049 A 
ATOM     30  C   UNL A   1      40.990  31.799  34.729  1.00  0.00     0.074 A 
ATOM     31  C   UNL A   1      43.130  27.591  30.426  1.00  0.00     0.029 A 
ATOM     32  N   UNL A   1      41.968  29.169  31.482  1.00  0.00    -0.354 N 
ATOM     33  N   UNL A   1      41.358  30.977  33.774  1.00  0.00    -0.248 NA
ATOM     34  C   UNL A   1      41.811  31.715  35.942  1.00  0.00     0.031 C 
ATOM     35  C   UNL A   1      43.703  27.801  31.686  1.00  0.00     0.029 A 
ATOM     36  C   UNL A   1      42.987  28.794  32.339  1.00  0.00     0.049 A 
ATOM     37  H   UNL A   1      41.295  29.862  31.674  1.00  0.00     0.167 HD
ATOM     38  C   UNL A   1      42.471  30.305  34.254  1.00  0.00     0.074 A 
ATOM     39  C   UNL A   1      42.723  30.819  35.586  1.00  0.00     0.031 C 
ATOM     40  C   UNL A   1      43.218  29.349  33.650  1.00  0.00     0.037 A 
BRANCH  27  41
ATOM     41  C   UNL A   1      41.235  27.648  28.030  1.00  0.00     0.064 A 
ATOM     42  C   UNL A   1      40.637  26.380  27.987  1.00  0.00     0.173 A 
ATOM     43  C   UNL A   1      42.030  28.039  26.943  1.00  0.00     0.173 A 
ATOM     44  F   UNL A   1      39.893  25.948  29.016  1.00  0.00    -0.203 F 
ATOM     45  C   UNL A   1      40.864  25.519  26.915  1.00  0.00     0.198 A 
ATOM     46  C   UNL A   1      42.234  27.187  25.862  1.00  0.00     0.198 A 
ATOM     47  F   UNL A   1      42.630  29.239  26.941  1.00  0.00    -0.203 F 
ATOM     48  F   UNL A   1      40.342  24.285  26.927  1.00  0.00    -0.200 F 
ATOM     49  C   UNL A   1      41.662  25.923  25.855  1.00  0.00     0.200 A 
ATOM     50  F   UNL A   1      43.007  27.577  24.840  1.00  0.00    -0.200 F 
ATOM     51  F   UNL A   1      41.897  25.086  24.835  1.00  0.00    -0.200 F 
ENDBRANCH  27  41
BRANCH  28  52
ATOM     52  C   UNL A   1      39.547  33.646  35.911  1.00  0.00     0.064 A 
ATOM     53  C   UNL A   1      38.739  33.180  36.956  1.00  0.00     0.173 A 
ATOM     54  C   UNL A   1      40.097  34.933  36.052  1.00  0.00     0.173 A 
ATOM     55  F   UNL A   1      38.165  31.971  36.868  1.00  0.00    -0.203 F 
ATOM     56  C   UNL A   1      38.508  33.950  38.096  1.00  0.00     0.198 A 
ATOM     57  C   UNL A   1      39.889  35.692  37.202  1.00  0.00     0.198 A 
ATOM     58  F   UNL A   1      40.873  35.444  35.084  1.00  0.00    -0.203 F 
ATOM     59  F   UNL A   1      37.723  33.479  39.073  1.00  0.00    -0.200 F 
ATOM     60  C   UNL A   1      39.094  35.199  38.226  1.00  0.00     0.200 A 
ATOM     61  F   UNL A   1      40.472  36.891  37.326  1.00  0.00    -0.200 F 
ATOM     62  F   UNL A   1      38.895  35.927  39.333  1.00  0.00    -0.200 F 
ENDBRANCH  28  52
BRANCH  40  63
ATOM     63  C   UNL A   1      44.397  28.828  34.411  1.00  0.00     0.064 A 
ATOM     64  C   UNL A   1      45.639  29.475  34.365  1.00  0.00     0.173 A 
ATOM     65  C   UNL A   1      44.260  27.709  35.246  1.00  0.00     0.173 A 
ATOM     66  F   UNL A   1      45.816  30.538  33.568  1.00  0.00    -0.203 F 
ATOM     67  C   UNL A   1      46.709  29.014  35.124  1.00  0.00     0.198 A 
ATOM     68  C   UNL A   1      45.327  27.264  36.021  1.00  0.00     0.198 A 
ATOM     69  F   UNL A   1      43.088  27.061  35.324  1.00  0.00    -0.203 F 
ATOM     70  F   UNL A   1      47.898  29.630  35.047  1.00  0.00    -0.200 F 
ATOM     71  C   UNL A   1      46.551  27.915  35.958  1.00  0.00     0.200 A 
ATOM     72  F   UNL A   1      45.169  26.211  36.834  1.00  0.00    -0.200 F 
ATOM     73  F   UNL A   1      47.579  27.483  36.699  1.00  0.00    -0.200 F 
ENDBRANCH  40  63
ENDBRANCH  14  15
ENDBRANCH   7   9
ENDBRANCH   6   7
ENDBRANCH   5   6
ENDBRANCH   4   5
ENDBRANCH   3   4
ENDBRANCH   2   3
ENDBRANCH   1   2
BRANCH   1  74
ATOM     74  O   UNL A   1      31.866  28.642  22.981  1.00  0.00    -0.376 OA
BRANCH  74  75
ATOM     75  C   UNL A   1      32.075  27.341  22.442  1.00  0.00     0.202 C 
BRANCH  75  76
ATOM     76  C   UNL A   1      33.528  26.863  22.355  1.00  0.00     0.261 C 
BRANCH  76  77
ATOM     77  O   UNL A   1      33.696  25.563  21.762  1.00  0.00    -0.460 OA
BRANCH  77  78
ATOM     78  C   UNL A   1      33.336  24.537  22.562  1.00  0.00     0.340 C 
ATOM     79  O   UNL A   1      32.242  23.972  22.600  1.00  0.00    -0.246 OA
BRANCH  78  80
ATOM     80  C   UNL A   1      34.376  24.227  23.545  1.00  0.00     0.083 A 
ATOM     81  C   UNL A   1      35.539  23.571  23.119  1.00  0.00     0.018 A 
ATOM     82  C   UNL A   1      34.079  24.402  24.912  1.00  0.00     0.053 A 
ATOM     83  C   UNL A   1      36.420  23.053  24.066  1.00  0.00     0.001 A 
ATOM     84  C   UNL A   1      34.974  23.858  25.838  1.00  0.00     0.027 A 
ATOM     85  C   UNL A   1      36.126  23.176  25.422  1.00  0.00     0.002 A 
BRANCH  82  86
ATOM     86  N   UNL A   1      32.931  25.114  25.315  1.00  0.00    -0.355 N 
ATOM     87  H   UNL A   1      32.081  24.711  25.023  1.00  0.00     0.167 HD
BRANCH  86  88
ATOM     88  C   UNL A   1      32.783  26.293  26.057  1.00  0.00     0.039 A 
ATOM     89  C   UNL A   1      31.516  26.609  26.558  1.00  0.00     0.026 A 
ATOM     90  C   UNL A   1      33.849  27.162  26.316  1.00  0.00     0.039 A 
ATOM     91  C   UNL A   1      31.307  27.770  27.299  1.00  0.00     0.003 A 
ATOM     92  C   UNL A   1      33.646  28.354  27.036  1.00  0.00     0.058 A 
ATOM     93  C   UNL A   1      32.365  28.643  27.531  1.00  0.00     0.013 A 
BRANCH  92  94
ATOM     94  C   UNL A   1      34.762  29.352  27.221  1.00  0.00     0.416 C 
ATOM     95  F   UNL A   1      34.366  30.632  26.995  1.00  0.00    -0.166 F 
ATOM     96  F   UNL A   1      35.275  29.334  28.483  1.00  0.00    -0.166 F 
ATOM     97  F   UNL A   1      35.816  29.125  26.390  1.00  0.00    -0.166 F 
ENDBRANCH  92  94
ENDBRANCH  86  88
ENDBRANCH  82  86
ENDBRANCH  78  80
ENDBRANCH  77  78
ENDBRANCH  76  77
ENDBRANCH  75  76
ENDBRANCH  74  75
ENDBRANCH   1  74
TORSDOF 20
ENDMDL
MODEL 3
REMARK VINA RESULT:     -11.1      5.357      9.194
REMARK SMILES O=C(OCCOCCOCCOC(=O)c1ccccc1Nc1cccc(C(F)(F)F)c1)c1ccc(-c2c3nc(c(-c4c(F)c(F)c(F)c(F)c4F)c4ccc([nH]4)c(-c4c(F)c(F)c(F)c(F)c4F)c4nc(c(-c5c(F)c(F)c(F)c(F)c5F)c5ccc2[nH]5)C=C4)C=C3)cc1
REMARK SMILES IDX 8 1 7 2 6 3 5 4 4 5 3 6 2 7 1 8 32 9 33 10 94 11 34 12 93 13
REMARK SMILES IDX 35 14 36 15 37 16 87 17 38 18 92 19 86 20 88 21 39 22 91 23
REMARK SMILES IDX 85 24 84 25 40 27 72 28 52 29 71 30 53 31 56 32 70 33 89 34
REMARK SMILES IDX 54 35 55 36 69 38 90 39 57 40 41 41 42 42 50 43 43 44 44 45
REMARK SMILES IDX 48 46 51 47 45 48 46 49 49 50 47 51 73 52 74 53 82 54 75 55
REMARK SMILES IDX 76 56 80 57 83 58 77 59 78 60 81 61 79 62 58 63 59 64 67 65
REMARK SMILES IDX 60 66 61 67 65 68 68 69 62 70 63 71 66 72 64 73 9 74 10 75
REMARK SMILES IDX 11 76 12 77 13 78 14 79 15 80 16 81 20 82 17 83 19 84 18 85
REMARK SMILES IDX 21 86 22 88 23 89 31 90 24 91 26 92 25 93 27 94 28 95 29 96
REMARK SMILES IDX 30 97
REMARK H PARENT 88 26 56 37 21 87
REMARK Flexibility Score: inf
ROOT
ATOM      1  C   UNL A   1      32.326  28.208  23.219  1.00  0.00     0.188 C 
ENDROOT
BRANCH   1   2
ATOM      2  C   UNL A   1      31.341  28.736  24.265  1.00  0.00     0.188 C 
BRANCH   2   3
ATOM      3  O   UNL A   1      31.609  28.163  25.554  1.00  0.00    -0.376 OA
BRANCH   3   4
ATOM      4  C   UNL A   1      31.812  29.139  26.581  1.00  0.00     0.202 C 
BRANCH   4   5
ATOM      5  C   UNL A   1      32.456  30.438  26.085  1.00  0.00     0.261 C 
BRANCH   5   6
ATOM      6  O   UNL A   1      32.469  31.447  27.106  1.00  0.00    -0.460 OA
BRANCH   6   7
ATOM      7  C   UNL A   1      33.526  32.176  27.540  1.00  0.00     0.338 C 
ATOM      8  O   UNL A   1      33.416  33.401  27.581  1.00  0.00    -0.246 OA
BRANCH   7   9
ATOM      9  C   UNL A   1      34.798  31.579  28.058  1.00  0.00     0.060 A 
ATOM     10  C   UNL A   1      34.994  30.242  28.412  1.00  0.00     0.016 A 
ATOM     11  C   UNL A   1      35.898  32.450  28.146  1.00  0.00     0.016 A 
ATOM     12  C   UNL A   1      36.199  29.810  28.972  1.00  0.00     0.010 A 
ATOM     13  C   UNL A   1      37.125  32.012  28.651  1.00  0.00     0.010 A 
ATOM     14  C   UNL A   1      37.260  30.701  29.119  1.00  0.00    -0.014 A 
BRANCH  14  15
ATOM     15  C   UNL A   1      38.467  30.308  29.878  1.00  0.00     0.031 A 
ATOM     16  C   UNL A   1      39.387  29.294  29.276  1.00  0.00     0.074 A 
ATOM     17  C   UNL A   1      38.740  30.853  31.074  1.00  0.00     0.049 A 
ATOM     18  N   UNL A   1      40.434  28.712  29.796  1.00  0.00    -0.248 NA
ATOM     19  C   UNL A   1      39.088  28.884  27.895  1.00  0.00     0.031 C 
ATOM     20  C   UNL A   1      37.961  31.917  31.694  1.00  0.00     0.029 A 
ATOM     21  N   UNL A   1      39.730  30.584  31.984  1.00  0.00    -0.354 N 
ATOM     22  C   UNL A   1      40.906  27.853  28.816  1.00  0.00     0.074 A 
ATOM     23  C   UNL A   1      40.026  27.977  27.675  1.00  0.00     0.031 C 
ATOM     24  C   UNL A   1      38.480  32.184  32.901  1.00  0.00     0.029 A 
ATOM     25  C   UNL A   1      39.592  31.281  33.160  1.00  0.00     0.049 A 
ATOM     26  H   UNL A   1      40.467  29.953  31.812  1.00  0.00     0.167 HD
ATOM     27  C   UNL A   1      41.979  27.032  28.874  1.00  0.00     0.037 A 
ATOM     28  C   UNL A   1      40.257  31.177  34.327  1.00  0.00     0.037 A 
ATOM     29  C   UNL A   1      42.840  26.925  30.019  1.00  0.00     0.049 A 
ATOM     30  C   UNL A   1      41.408  30.212  34.393  1.00  0.00     0.074 A 
ATOM     31  C   UNL A   1      43.948  26.120  30.198  1.00  0.00     0.029 A 
ATOM     32  N   UNL A   1      42.674  27.652  31.191  1.00  0.00    -0.354 N 
ATOM     33  N   UNL A   1      41.862  29.413  33.457  1.00  0.00    -0.248 NA
ATOM     34  C   UNL A   1      42.149  30.136  35.658  1.00  0.00     0.031 C 
ATOM     35  C   UNL A   1      44.430  26.330  31.495  1.00  0.00     0.029 A 
ATOM     36  C   UNL A   1      43.645  27.294  32.110  1.00  0.00     0.049 A 
ATOM     37  H   UNL A   1      41.971  28.323  31.345  1.00  0.00     0.167 HD
ATOM     38  C   UNL A   1      42.960  28.767  34.002  1.00  0.00     0.074 A 
ATOM     39  C   UNL A   1      43.108  29.271  35.354  1.00  0.00     0.031 C 
ATOM     40  C   UNL A   1      43.773  27.839  33.439  1.00  0.00     0.037 A 
BRANCH  27  41
ATOM     41  C   UNL A   1      42.216  26.154  27.683  1.00  0.00     0.064 A 
ATOM     42  C   UNL A   1      41.502  24.962  27.487  1.00  0.00     0.173 A 
ATOM     43  C   UNL A   1      43.220  26.479  26.759  1.00  0.00     0.173 A 
ATOM     44  F   UNL A   1      40.553  24.592  28.359  1.00  0.00    -0.203 F 
ATOM     45  C   UNL A   1      41.815  24.107  26.433  1.00  0.00     0.198 A 
ATOM     46  C   UNL A   1      43.513  25.634  25.693  1.00  0.00     0.198 A 
ATOM     47  F   UNL A   1      43.936  27.604  26.908  1.00  0.00    -0.203 F 
ATOM     48  F   UNL A   1      41.171  22.939  26.306  1.00  0.00    -0.200 F 
ATOM     49  C   UNL A   1      42.820  24.443  25.538  1.00  0.00     0.200 A 
ATOM     50  F   UNL A   1      44.485  25.960  24.830  1.00  0.00    -0.200 F 
ATOM     51  F   UNL A   1      43.134  23.609  24.537  1.00  0.00    -0.200 F 
ENDBRANCH  27  41
BRANCH  28  52
ATOM     52  C   UNL A   1      39.838  32.003  35.496  1.00  0.00     0.064 A 
ATOM     53  C   UNL A   1      40.393  33.266  35.742  1.00  0.00     0.173 A 
ATOM     54  C   UNL A   1      38.823  31.570  36.368  1.00  0.00     0.173 A 
ATOM     55  F   UNL A   1      41.383  33.724  34.962  1.00  0.00    -0.203 F 
ATOM     56  C   UNL A   1      39.943  34.067  36.792  1.00  0.00     0.198 A 
ATOM     57  C   UNL A   1      38.354  32.381  37.400  1.00  0.00     0.198 A 
ATOM     58  F   UNL A   1      38.255  30.368  36.194  1.00  0.00    -0.203 F 
ATOM     59  F   UNL A   1      40.502  35.266  37.005  1.00  0.00    -0.200 F 
ATOM     60  C   UNL A   1      38.914  33.631  37.611  1.00  0.00     0.200 A 
ATOM     61  F   UNL A   1      37.349  31.958  38.178  1.00  0.00    -0.200 F 
ATOM     62  F   UNL A   1      38.463  34.412  38.603  1.00  0.00    -0.200 F 
ENDBRANCH  28  52
BRANCH  40  63
ATOM     63  C   UNL A   1      44.913  27.342  34.272  1.00  0.00     0.064 A 
ATOM     64  C   UNL A   1      46.148  28.004  34.286  1.00  0.00     0.173 A 
ATOM     65  C   UNL A   1      44.743  26.232  35.112  1.00  0.00     0.173 A 
ATOM     66  F   UNL A   1      46.357  29.060  33.486  1.00  0.00    -0.203 F 
ATOM     67  C   UNL A   1      47.179  27.565  35.110  1.00  0.00     0.198 A 
ATOM     68  C   UNL A   1      45.770  25.809  35.950  1.00  0.00     0.198 A 
ATOM     69  F   UNL A   1      43.576  25.571  35.132  1.00  0.00    -0.203 F 
ATOM     70  F   UNL A   1      48.363  28.195  35.091  1.00  0.00    -0.200 F 
ATOM     71  C   UNL A   1      46.987  26.475  35.947  1.00  0.00     0.200 A 
ATOM     72  F   UNL A   1      45.579  24.764  36.766  1.00  0.00    -0.200 F 
ATOM     73  F   UNL A   1      47.978  26.064  36.750  1.00  0.00    -0.200 F 
ENDBRANCH  40  63
ENDBRANCH  14  15
ENDBRANCH   7   9
ENDBRANCH   6   7
ENDBRANCH   5   6
ENDBRANCH   4   5
ENDBRANCH   3   4
ENDBRANCH   2   3
ENDBRANCH   1   2
BRANCH   1  74
ATOM     74  O   UNL A   1      31.860  27.097  22.451  1.00  0.00    -0.376 OA
BRANCH  74  75
ATOM     75  C   UNL A   1      32.288  25.801  22.856  1.00  0.00     0.202 C 
BRANCH  75  76
ATOM     76  C   UNL A   1      33.612  25.729  23.624  1.00  0.00     0.261 C 
BRANCH  76  77
ATOM     77  O   UNL A   1      34.070  24.394  23.904  1.00  0.00    -0.460 OA
BRANCH  77  78
ATOM     78  C   UNL A   1      34.147  24.099  25.219  1.00  0.00     0.340 C 
ATOM     79  O   UNL A   1      33.364  24.441  26.106  1.00  0.00    -0.246 OA
BRANCH  78  80
ATOM     80  C   UNL A   1      35.400  23.415  25.546  1.00  0.00     0.083 A 
ATOM     81  C   UNL A   1      36.589  24.156  25.580  1.00  0.00     0.018 A 
ATOM     82  C   UNL A   1      35.400  22.006  25.601  1.00  0.00     0.053 A 
ATOM     83  C   UNL A   1      37.811  23.490  25.646  1.00  0.00     0.001 A 
ATOM     84  C   UNL A   1      36.643  21.366  25.651  1.00  0.00     0.027 A 
ATOM     85  C   UNL A   1      37.838  22.097  25.657  1.00  0.00     0.002 A 
BRANCH  82  86
ATOM     86  N   UNL A   1      34.190  21.285  25.620  1.00  0.00    -0.355 N 
ATOM     87  H   UNL A   1      33.606  21.495  26.386  1.00  0.00     0.167 HD
BRANCH  86  88
ATOM     88  C   UNL A   1      33.668  20.323  24.746  1.00  0.00     0.039 A 
ATOM     89  C   UNL A   1      32.663  20.710  23.853  1.00  0.00     0.026 A 
ATOM     90  C   UNL A   1      34.113  18.996  24.730  1.00  0.00     0.039 A 
ATOM     91  C   UNL A   1      32.104  19.796  22.964  1.00  0.00     0.003 A 
ATOM     92  C   UNL A   1      33.535  18.054  23.858  1.00  0.00     0.058 A 
ATOM     93  C   UNL A   1      32.532  18.471  22.970  1.00  0.00     0.013 A 
BRANCH  92  94
ATOM     94  C   UNL A   1      33.927  16.599  23.914  1.00  0.00     0.416 C 
ATOM     95  F   UNL A   1      34.448  16.150  22.742  1.00  0.00    -0.166 F 
ATOM     96  F   UNL A   1      34.869  16.346  24.864  1.00  0.00    -0.166 F 
ATOM     97  F   UNL A   1      32.879  15.781  24.204  1.00  0.00    -0.166 F 
ENDBRANCH  92  94
ENDBRANCH  86  88
ENDBRANCH  82  86
ENDBRANCH  78  80
ENDBRANCH  77  78
ENDBRANCH  76  77
ENDBRANCH  75  76
ENDBRANCH  74  75
ENDBRANCH   1  74
TORSDOF 20
ENDMDL
