MODEL 1
REMARK VINA RESULT:     -10.6      0.000      0.000
REMARK SMILES [NH3+][C@H](c1ccc(C(=O)OCCOCCOCCOC(=O)c2ccc(-c3c4nc(c(-c5c(F)c(F)c(F)c(F)c5F)c5ccc([nH]5)c(-c5c(F)c(F)c(F)c(F)c5F)c5nc(c(-c6c(F)c(F)c(F)c(F)c6F)c6ccc3[nH]6)C=C5)C=C4)cc2)cc1Cl)C(F)(F)F
REMARK SMILES IDX 13 1 12 2 11 3 10 4 9 5 7 6 8 7 6 8 3 9 4 10 85 11 5 12
REMARK SMILES IDX 84 13 86 14 2 15 1 16 87 20 88 21 89 22 90 23 14 24 15 25
REMARK SMILES IDX 16 26 17 27 18 28 19 29 20 30 21 31 22 32 83 33 23 34 82 35
REMARK SMILES IDX 24 36 25 37 26 38 76 39 27 40 81 41 75 42 77 43 28 44 80 45
REMARK SMILES IDX 74 46 73 47 29 49 61 50 41 51 60 52 42 53 45 54 59 55 78 56
REMARK SMILES IDX 43 57 44 58 58 60 79 61 46 62 30 63 31 64 39 65 32 66 33 67
REMARK SMILES IDX 37 68 40 69 34 70 35 71 38 72 36 73 62 74 63 75 71 76 64 77
REMARK SMILES IDX 65 78 69 79 72 80 66 81 67 82 70 83 68 84 47 85 48 86 56 87
REMARK SMILES IDX 49 88 50 89 54 90 57 91 51 92 52 93 55 94 53 95
REMARK H PARENT 1 17 1 18 1 19 77 48 45 59
REMARK Flexibility Score: inf
ROOT
ATOM      1  C   UNL A   1      38.308  20.906  25.476  1.00  0.00     0.188 C 
ENDROOT
BRANCH   1   2
ATOM      2  O   UNL A   1      37.148  21.721  25.512  1.00  0.00    -0.376 OA
BRANCH   2   3
ATOM      3  C   UNL A   1      36.758  22.466  24.367  1.00  0.00     0.202 C 
BRANCH   3   4
ATOM      4  C   UNL A   1      35.335  23.031  24.232  1.00  0.00     0.261 C 
BRANCH   4   5
ATOM      5  O   UNL A   1      35.116  24.294  24.876  1.00  0.00    -0.460 OA
BRANCH   5   6
ATOM      6  C   UNL A   1      33.990  24.364  25.626  1.00  0.00     0.338 C 
ATOM      7  O   UNL A   1      33.585  23.532  26.421  1.00  0.00    -0.246 OA
BRANCH   6   8
ATOM      8  C   UNL A   1      33.360  25.697  25.510  1.00  0.00     0.061 A 
ATOM      9  C   UNL A   1      31.873  28.059  25.166  1.00  0.00     0.037 A 
ATOM     10  C   UNL A   1      31.521  27.126  26.161  1.00  0.00     0.013 A 
ATOM     11  C   UNL A   1      33.074  27.851  24.459  1.00  0.00     0.051 A 
ATOM     12  C   UNL A   1      32.245  25.946  26.314  1.00  0.00     0.016 A 
ATOM     13  C   UNL A   1      33.817  26.675  24.627  1.00  0.00     0.036 A 
ATOM     14  Cl  UNL A   1      33.680  29.005  23.325  1.00  0.00    -0.084 Cl
BRANCH   9  15
ATOM     15  C   UNL A   1      30.889  29.179  24.817  1.00  0.00     0.320 C 
BRANCH  15  16
ATOM     16  N   UNL A   1      31.585  30.497  24.961  1.00  0.00    -0.344 N 
ATOM     17  H   UNL A   1      31.850  30.844  24.038  1.00  0.00     0.345 HD
ATOM     18  H   UNL A   1      32.421  30.379  25.533  1.00  0.00     0.345 HD
ATOM     19  H   UNL A   1      30.958  31.166  25.407  1.00  0.00     0.345 HD
ENDBRANCH  15  16
BRANCH  15  20
ATOM     20  C   UNL A   1      30.170  28.954  23.455  1.00  0.00     0.445 C 
ATOM     21  F   UNL A   1      30.920  29.377  22.413  1.00  0.00    -0.165 F 
ATOM     22  F   UNL A   1      29.905  27.641  23.253  1.00  0.00    -0.165 F 
ATOM     23  F   UNL A   1      28.987  29.616  23.406  1.00  0.00    -0.165 F 
ENDBRANCH  15  20
ENDBRANCH   9  15
ENDBRANCH   6   8
ENDBRANCH   5   6
ENDBRANCH   4   5
ENDBRANCH   3   4
ENDBRANCH   2   3
ENDBRANCH   1   2
BRANCH   1  24
ATOM     24  C   UNL A   1      39.631  21.390  26.104  1.00  0.00     0.188 C 
BRANCH  24  25
ATOM     25  O   UNL A   1      40.484  20.399  26.617  1.00  0.00    -0.376 OA
BRANCH  25  26
ATOM     26  C   UNL A   1      41.792  20.232  26.099  1.00  0.00     0.202 C 
BRANCH  26  27
ATOM     27  C   UNL A   1      42.844  21.342  25.896  1.00  0.00     0.261 C 
BRANCH  27  28
ATOM     28  O   UNL A   1      42.522  22.447  25.048  1.00  0.00    -0.460 OA
BRANCH  28  29
ATOM     29  C   UNL A   1      43.411  23.472  25.037  1.00  0.00     0.338 C 
ATOM     30  O   UNL A   1      44.352  23.631  24.284  1.00  0.00    -0.246 OA
BRANCH  29  31
ATOM     31  C   UNL A   1      42.950  24.488  26.004  1.00  0.00     0.060 A 
ATOM     32  C   UNL A   1      43.533  25.762  25.979  1.00  0.00     0.016 A 
ATOM     33  C   UNL A   1      41.954  24.180  26.930  1.00  0.00     0.016 A 
ATOM     34  C   UNL A   1      43.111  26.740  26.880  1.00  0.00     0.010 A 
ATOM     35  C   UNL A   1      41.550  25.152  27.848  1.00  0.00     0.010 A 
ATOM     36  C   UNL A   1      42.131  26.434  27.835  1.00  0.00    -0.014 A 
BRANCH  36  37
ATOM     37  C   UNL A   1      41.785  27.408  28.898  1.00  0.00     0.031 A 
ATOM     38  C   UNL A   1      42.595  27.426  30.163  1.00  0.00     0.074 A 
ATOM     39  C   UNL A   1      40.748  28.251  28.750  1.00  0.00     0.049 A 
ATOM     40  N   UNL A   1      42.404  28.105  31.265  1.00  0.00    -0.248 NA
ATOM     41  C   UNL A   1      43.783  26.558  30.186  1.00  0.00     0.031 C 
ATOM     42  C   UNL A   1      39.913  28.361  27.555  1.00  0.00     0.029 A 
ATOM     43  N   UNL A   1      40.206  29.160  29.626  1.00  0.00    -0.354 N 
ATOM     44  C   UNL A   1      43.437  27.739  32.116  1.00  0.00     0.074 A 
ATOM     45  C   UNL A   1      44.241  26.763  31.412  1.00  0.00     0.031 C 
ATOM     46  C   UNL A   1      38.949  29.268  27.782  1.00  0.00     0.029 A 
ATOM     47  C   UNL A   1      39.071  29.770  29.151  1.00  0.00     0.049 A 
ATOM     48  H   UNL A   1      40.594  29.355  30.510  1.00  0.00     0.167 HD
ATOM     49  C   UNL A   1      43.693  28.182  33.370  1.00  0.00     0.037 A 
ATOM     50  C   UNL A   1      38.209  30.603  29.766  1.00  0.00     0.037 A 
ATOM     51  C   UNL A   1      42.886  29.148  34.069  1.00  0.00     0.049 A 
ATOM     52  C   UNL A   1      38.457  31.001  31.199  1.00  0.00     0.074 A 
ATOM     53  C   UNL A   1      43.079  29.682  35.331  1.00  0.00     0.029 A 
ATOM     54  N   UNL A   1      41.719  29.711  33.572  1.00  0.00    -0.354 N 
ATOM     55  N   UNL A   1      39.454  30.680  31.989  1.00  0.00    -0.248 NA
ATOM     56  C   UNL A   1      37.454  31.872  31.831  1.00  0.00     0.031 C 
ATOM     57  C   UNL A   1      41.997  30.518  35.623  1.00  0.00     0.029 A 
ATOM     58  C   UNL A   1      41.159  30.554  34.520  1.00  0.00     0.049 A 
ATOM     59  H   UNL A   1      41.345  29.538  32.678  1.00  0.00     0.167 HD
ATOM     60  C   UNL A   1      39.208  31.322  33.198  1.00  0.00     0.074 A 
ATOM     61  C   UNL A   1      37.980  32.069  33.032  1.00  0.00     0.031 C 
ATOM     62  C   UNL A   1      39.934  31.291  34.344  1.00  0.00     0.037 A 
BRANCH  49  63
ATOM     63  C   UNL A   1      44.877  27.598  34.085  1.00  0.00     0.064 A 
ATOM     64  C   UNL A   1      46.148  28.187  34.010  1.00  0.00     0.173 A 
ATOM     65  C   UNL A   1      44.728  26.456  34.885  1.00  0.00     0.173 A 
ATOM     66  F   UNL A   1      46.347  29.274  33.250  1.00  0.00    -0.203 F 
ATOM     67  C   UNL A   1      47.232  27.637  34.691  1.00  0.00     0.198 A 
ATOM     68  C   UNL A   1      45.807  25.927  35.589  1.00  0.00     0.198 A 
ATOM     69  F   UNL A   1      43.532  25.857  34.995  1.00  0.00    -0.203 F 
ATOM     70  F   UNL A   1      48.447  28.187  34.568  1.00  0.00    -0.200 F 
ATOM     71  C   UNL A   1      47.059  26.513  35.485  1.00  0.00     0.200 A 
ATOM     72  F   UNL A   1      45.634  24.849  36.366  1.00  0.00    -0.200 F 
ATOM     73  F   UNL A   1      48.101  25.990  36.146  1.00  0.00    -0.200 F 
ENDBRANCH  49  63
BRANCH  50  74
ATOM     74  C   UNL A   1      37.005  31.095  29.045  1.00  0.00     0.064 A 
ATOM     75  C   UNL A   1      36.925  32.417  28.586  1.00  0.00     0.173 A 
ATOM     76  C   UNL A   1      35.898  30.261  28.823  1.00  0.00     0.173 A 
ATOM     77  F   UNL A   1      37.945  33.262  28.802  1.00  0.00    -0.203 F 
ATOM     78  C   UNL A   1      35.780  32.891  27.950  1.00  0.00     0.198 A 
ATOM     79  C   UNL A   1      34.766  30.728  28.158  1.00  0.00     0.198 A 
ATOM     80  F   UNL A   1      35.917  28.989  29.249  1.00  0.00    -0.203 F 
ATOM     81  F   UNL A   1      35.712  34.174  27.569  1.00  0.00    -0.200 F 
ATOM     82  C   UNL A   1      34.704  32.045  27.730  1.00  0.00     0.200 A 
ATOM     83  F   UNL A   1      33.732  29.904  27.940  1.00  0.00    -0.200 F 
ATOM     84  F   UNL A   1      33.604  32.501  27.116  1.00  0.00    -0.200 F 
ENDBRANCH  50  74
BRANCH  62  85
ATOM     85  C   UNL A   1      39.429  32.097  35.507  1.00  0.00     0.064 A 
ATOM     86  C   UNL A   1      39.780  33.445  35.674  1.00  0.00     0.173 A 
ATOM     87  C   UNL A   1      38.544  31.530  36.438  1.00  0.00     0.173 A 
ATOM     88  F   UNL A   1      40.635  34.031  34.822  1.00  0.00    -0.203 F 
ATOM     89  C   UNL A   1      39.278  34.191  36.738  1.00  0.00     0.198 A 
ATOM     90  C   UNL A   1      38.019  32.287  37.482  1.00  0.00     0.198 A 
ATOM     91  F   UNL A   1      38.171  30.248  36.322  1.00  0.00    -0.203 F 
ATOM     92  F   UNL A   1      39.661  35.464  36.902  1.00  0.00    -0.200 F 
ATOM     93  C   UNL A   1      38.391  33.615  37.635  1.00  0.00     0.200 A 
ATOM     94  F   UNL A   1      37.149  31.733  38.338  1.00  0.00    -0.200 F 
ATOM     95  F   UNL A   1      37.900  34.336  38.652  1.00  0.00    -0.200 F 
ENDBRANCH  62  85
ENDBRANCH  36  37
ENDBRANCH  29  31
ENDBRANCH  28  29
ENDBRANCH  27  28
ENDBRANCH  26  27
ENDBRANCH  25  26
ENDBRANCH  24  25
ENDBRANCH   1  24
TORSDOF 20
ENDMDL
MODEL 2
REMARK VINA RESULT:     -10.5      0.714      2.154
REMARK SMILES [NH3+][C@H](c1ccc(C(=O)OCCOCCOCCOC(=O)c2ccc(-c3c4nc(c(-c5c(F)c(F)c(F)c(F)c5F)c5ccc([nH]5)c(-c5c(F)c(F)c(F)c(F)c5F)c5nc(c(-c6c(F)c(F)c(F)c(F)c6F)c6ccc3[nH]6)C=C5)C=C4)cc2)cc1Cl)C(F)(F)F
REMARK SMILES IDX 13 1 12 2 11 3 10 4 9 5 7 6 8 7 6 8 3 9 4 10 85 11 5 12
REMARK SMILES IDX 84 13 86 14 2 15 1 16 87 20 88 21 89 22 90 23 14 24 15 25
REMARK SMILES IDX 16 26 17 27 18 28 19 29 20 30 21 31 22 32 83 33 23 34 82 35
REMARK SMILES IDX 24 36 25 37 26 38 76 39 27 40 81 41 75 42 77 43 28 44 80 45
REMARK SMILES IDX 74 46 73 47 29 49 61 50 41 51 60 52 42 53 45 54 59 55 78 56
REMARK SMILES IDX 43 57 44 58 58 60 79 61 46 62 30 63 31 64 39 65 32 66 33 67
REMARK SMILES IDX 37 68 40 69 34 70 35 71 38 72 36 73 62 74 63 75 71 76 64 77
REMARK SMILES IDX 65 78 69 79 72 80 66 81 67 82 70 83 68 84 47 85 48 86 56 87
REMARK SMILES IDX 49 88 50 89 54 90 57 91 51 92 52 93 55 94 53 95
REMARK H PARENT 1 17 1 18 1 19 77 48 45 59
REMARK Flexibility Score: inf
ROOT
ATOM      1  C   UNL A   1      38.254  21.084  25.602  1.00  0.00     0.188 C 
ENDROOT
BRANCH   1   2
ATOM      2  O   UNL A   1      37.186  22.003  25.455  1.00  0.00    -0.376 OA
BRANCH   2   3
ATOM      3  C   UNL A   1      36.300  21.905  24.350  1.00  0.00     0.202 C 
BRANCH   3   4
ATOM      4  C   UNL A   1      34.982  22.694  24.313  1.00  0.00     0.261 C 
BRANCH   4   5
ATOM      5  O   UNL A   1      34.981  23.918  25.062  1.00  0.00    -0.460 OA
BRANCH   5   6
ATOM      6  C   UNL A   1      33.861  24.139  25.791  1.00  0.00     0.338 C 
ATOM      7  O   UNL A   1      33.570  23.632  26.862  1.00  0.00    -0.246 OA
BRANCH   6   8
ATOM      8  C   UNL A   1      33.066  25.245  25.215  1.00  0.00     0.061 A 
ATOM      9  C   UNL A   1      31.667  27.545  24.398  1.00  0.00     0.037 A 
ATOM     10  C   UNL A   1      33.075  27.507  24.360  1.00  0.00     0.013 A 
ATOM     11  C   UNL A   1      30.982  26.351  24.706  1.00  0.00     0.051 A 
ATOM     12  C   UNL A   1      33.766  26.377  24.788  1.00  0.00     0.016 A 
ATOM     13  C   UNL A   1      31.676  25.204  25.115  1.00  0.00     0.036 A 
ATOM     14  Cl  UNL A   1      29.259  26.241  24.635  1.00  0.00    -0.084 Cl
BRANCH   9  15
ATOM     15  C   UNL A   1      30.954  28.888  24.225  1.00  0.00     0.320 C 
BRANCH  15  16
ATOM     16  N   UNL A   1      31.703  29.936  24.988  1.00  0.00    -0.344 N 
ATOM     17  H   UNL A   1      32.195  29.500  25.769  1.00  0.00     0.345 HD
ATOM     18  H   UNL A   1      31.047  30.631  25.343  1.00  0.00     0.345 HD
ATOM     19  H   UNL A   1      32.378  30.388  24.372  1.00  0.00     0.345 HD
ENDBRANCH  15  16
BRANCH  15  20
ATOM     20  C   UNL A   1      30.662  29.234  22.735  1.00  0.00     0.445 C 
ATOM     21  F   UNL A   1      30.079  28.204  22.083  1.00  0.00    -0.165 F 
ATOM     22  F   UNL A   1      29.829  30.297  22.635  1.00  0.00    -0.165 F 
ATOM     23  F   UNL A   1      31.801  29.550  22.070  1.00  0.00    -0.165 F 
ENDBRANCH  15  20
ENDBRANCH   9  15
ENDBRANCH   6   8
ENDBRANCH   5   6
ENDBRANCH   4   5
ENDBRANCH   3   4
ENDBRANCH   2   3
ENDBRANCH   1   2
BRANCH   1  24
ATOM     24  C   UNL A   1      39.616  21.540  26.166  1.00  0.00     0.188 C 
BRANCH  24  25
ATOM     25  O   UNL A   1      40.487  20.528  26.603  1.00  0.00    -0.376 OA
BRANCH  25  26
ATOM     26  C   UNL A   1      41.818  20.462  26.122  1.00  0.00     0.202 C 
BRANCH  26  27
ATOM     27  C   UNL A   1      42.810  21.639  26.011  1.00  0.00     0.261 C 
BRANCH  27  28
ATOM     28  O   UNL A   1      42.578  22.643  25.020  1.00  0.00    -0.460 OA
BRANCH  28  29
ATOM     29  C   UNL A   1      43.436  23.693  25.020  1.00  0.00     0.338 C 
ATOM     30  O   UNL A   1      44.371  23.889  24.268  1.00  0.00    -0.246 OA
BRANCH  29  31
ATOM     31  C   UNL A   1      42.948  24.684  25.999  1.00  0.00     0.060 A 
ATOM     32  C   UNL A   1      43.504  25.971  25.998  1.00  0.00     0.016 A 
ATOM     33  C   UNL A   1      41.954  24.340  26.914  1.00  0.00     0.016 A 
ATOM     34  C   UNL A   1      43.055  26.925  26.912  1.00  0.00     0.010 A 
ATOM     35  C   UNL A   1      41.524  25.290  27.845  1.00  0.00     0.010 A 
ATOM     36  C   UNL A   1      42.077  26.584  27.856  1.00  0.00    -0.014 A 
BRANCH  36  37
ATOM     37  C   UNL A   1      41.704  27.533  28.932  1.00  0.00     0.031 A 
ATOM     38  C   UNL A   1      42.503  27.545  30.204  1.00  0.00     0.074 A 
ATOM     39  C   UNL A   1      40.652  28.359  28.788  1.00  0.00     0.049 A 
ATOM     40  N   UNL A   1      42.289  28.201  31.315  1.00  0.00    -0.248 NA
ATOM     41  C   UNL A   1      43.705  26.698  30.223  1.00  0.00     0.031 C 
ATOM     42  C   UNL A   1      39.827  28.474  27.588  1.00  0.00     0.029 A 
ATOM     43  N   UNL A   1      40.087  29.243  29.674  1.00  0.00    -0.354 N 
ATOM     44  C   UNL A   1      43.321  27.840  32.169  1.00  0.00     0.074 A 
ATOM     45  C   UNL A   1      44.149  26.890  31.456  1.00  0.00     0.031 C 
ATOM     46  C   UNL A   1      38.844  29.360  27.821  1.00  0.00     0.029 A 
ATOM     47  C   UNL A   1      38.945  29.840  29.199  1.00  0.00     0.049 A 
ATOM     48  H   UNL A   1      40.464  29.431  30.565  1.00  0.00     0.167 HD
ATOM     49  C   UNL A   1      43.558  28.266  33.432  1.00  0.00     0.037 A 
ATOM     50  C   UNL A   1      38.063  30.648  29.820  1.00  0.00     0.037 A 
ATOM     51  C   UNL A   1      42.727  29.206  34.140  1.00  0.00     0.049 A 
ATOM     52  C   UNL A   1      38.291  31.026  31.262  1.00  0.00     0.074 A 
ATOM     53  C   UNL A   1      42.899  29.722  35.413  1.00  0.00     0.029 A 
ATOM     54  N   UNL A   1      41.555  29.756  33.643  1.00  0.00    -0.354 N 
ATOM     55  N   UNL A   1      39.286  30.710  32.055  1.00  0.00    -0.248 NA
ATOM     56  C   UNL A   1      37.266  31.868  31.898  1.00  0.00     0.031 C 
ATOM     57  C   UNL A   1      41.800  30.534  35.708  1.00  0.00     0.029 A 
ATOM     58  C   UNL A   1      40.972  30.572  34.598  1.00  0.00     0.049 A 
ATOM     59  H   UNL A   1      41.192  29.591  32.742  1.00  0.00     0.167 HD
ATOM     60  C   UNL A   1      39.018  31.327  33.272  1.00  0.00     0.074 A 
ATOM     61  C   UNL A   1      37.778  32.055  33.107  1.00  0.00     0.031 C 
ATOM     62  C   UNL A   1      39.734  31.290  34.424  1.00  0.00     0.037 A 
BRANCH  49  63
ATOM     63  C   UNL A   1      44.746  27.692  34.149  1.00  0.00     0.064 A 
ATOM     64  C   UNL A   1      44.674  26.472  34.838  1.00  0.00     0.173 A 
ATOM     65  C   UNL A   1      45.982  28.355  34.114  1.00  0.00     0.173 A 
ATOM     66  F   UNL A   1      43.513  25.804  34.911  1.00  0.00    -0.203 F 
ATOM     67  C   UNL A   1      45.791  25.950  35.486  1.00  0.00     0.198 A 
ATOM     68  C   UNL A   1      47.103  27.814  34.737  1.00  0.00     0.198 A 
ATOM     69  F   UNL A   1      46.106  29.523  33.466  1.00  0.00    -0.203 F 
ATOM     70  F   UNL A   1      45.688  24.807  36.177  1.00  0.00    -0.200 F 
ATOM     71  C   UNL A   1      47.005  26.617  35.429  1.00  0.00     0.200 A 
ATOM     72  F   UNL A   1      48.279  28.454  34.669  1.00  0.00    -0.200 F 
ATOM     73  F   UNL A   1      48.080  26.109  36.047  1.00  0.00    -0.200 F 
ENDBRANCH  49  63
BRANCH  50  74
ATOM     74  C   UNL A   1      36.856  31.130  29.096  1.00  0.00     0.064 A 
ATOM     75  C   UNL A   1      35.782  30.271  28.827  1.00  0.00     0.173 A 
ATOM     76  C   UNL A   1      36.763  32.452  28.634  1.00  0.00     0.173 A 
ATOM     77  F   UNL A   1      35.837  28.989  29.221  1.00  0.00    -0.203 F 
ATOM     78  C   UNL A   1      34.671  30.708  28.109  1.00  0.00     0.198 A 
ATOM     79  C   UNL A   1      35.637  32.897  27.944  1.00  0.00     0.198 A 
ATOM     80  F   UNL A   1      37.766  33.314  28.856  1.00  0.00    -0.203 F 
ATOM     81  F   UNL A   1      33.682  29.850  27.822  1.00  0.00    -0.200 F 
ATOM     82  C   UNL A   1      34.595  32.022  27.675  1.00  0.00     0.200 A 
ATOM     83  F   UNL A   1      35.565  34.170  27.534  1.00  0.00    -0.200 F 
ATOM     84  F   UNL A   1      33.526  32.443  26.987  1.00  0.00    -0.200 F 
ENDBRANCH  50  74
BRANCH  62  85
ATOM     85  C   UNL A   1      39.205  32.068  35.596  1.00  0.00     0.064 A 
ATOM     86  C   UNL A   1      38.405  31.464  36.577  1.00  0.00     0.173 A 
ATOM     87  C   UNL A   1      39.545  33.419  35.767  1.00  0.00     0.173 A 
ATOM     88  F   UNL A   1      38.038  30.180  36.453  1.00  0.00    -0.203 F 
ATOM     89  C   UNL A   1      37.949  32.189  37.676  1.00  0.00     0.198 A 
ATOM     90  C   UNL A   1      39.115  34.131  36.883  1.00  0.00     0.198 A 
ATOM     91  F   UNL A   1      40.313  34.043  34.862  1.00  0.00    -0.203 F 
ATOM     92  F   UNL A   1      37.150  31.603  38.578  1.00  0.00    -0.200 F 
ATOM     93  C   UNL A   1      38.312  33.518  37.834  1.00  0.00     0.200 A 
ATOM     94  F   UNL A   1      39.479  35.411  37.042  1.00  0.00    -0.200 F 
ATOM     95  F   UNL A   1      37.883  34.210  38.898  1.00  0.00    -0.200 F 
ENDBRANCH  62  85
ENDBRANCH  36  37
ENDBRANCH  29  31
ENDBRANCH  28  29
ENDBRANCH  27  28
ENDBRANCH  26  27
ENDBRANCH  25  26
ENDBRANCH  24  25
ENDBRANCH   1  24
TORSDOF 20
ENDMDL
MODEL 3
REMARK VINA RESULT:     -10.4      4.165      9.322
REMARK SMILES [NH3+][C@H](c1ccc(C(=O)OCCOCCOCCOC(=O)c2ccc(-c3c4nc(c(-c5c(F)c(F)c(F)c(F)c5F)c5ccc([nH]5)c(-c5c(F)c(F)c(F)c(F)c5F)c5nc(c(-c6c(F)c(F)c(F)c(F)c6F)c6ccc3[nH]6)C=C5)C=C4)cc2)cc1Cl)C(F)(F)F
REMARK SMILES IDX 13 1 12 2 11 3 10 4 9 5 7 6 8 7 6 8 3 9 4 10 85 11 5 12
REMARK SMILES IDX 84 13 86 14 2 15 1 16 87 20 88 21 89 22 90 23 14 24 15 25
REMARK SMILES IDX 16 26 17 27 18 28 19 29 20 30 21 31 22 32 83 33 23 34 82 35
REMARK SMILES IDX 24 36 25 37 26 38 76 39 27 40 81 41 75 42 77 43 28 44 80 45
REMARK SMILES IDX 74 46 73 47 29 49 61 50 41 51 60 52 42 53 45 54 59 55 78 56
REMARK SMILES IDX 43 57 44 58 58 60 79 61 46 62 30 63 31 64 39 65 32 66 33 67
REMARK SMILES IDX 37 68 40 69 34 70 35 71 38 72 36 73 62 74 63 75 71 76 64 77
REMARK SMILES IDX 65 78 69 79 72 80 66 81 67 82 70 83 68 84 47 85 48 86 56 87
REMARK SMILES IDX 49 88 50 89 54 90 57 91 51 92 52 93 55 94 53 95
REMARK H PARENT 1 17 1 18 1 19 77 48 45 59
REMARK Flexibility Score: inf
ROOT
ATOM      1  C   UNL A   1      35.669  32.448  28.059  1.00  0.00     0.188 C 
ENDROOT
BRANCH   1   2
ATOM      2  O   UNL A   1      34.640  31.803  27.327  1.00  0.00    -0.376 OA
BRANCH   2   3
ATOM      3  C   UNL A   1      34.430  30.405  27.462  1.00  0.00     0.202 C 
BRANCH   3   4
ATOM      4  C   UNL A   1      33.116  29.750  27.010  1.00  0.00     0.261 C 
BRANCH   4   5
ATOM      5  O   UNL A   1      33.055  29.399  25.620  1.00  0.00    -0.460 OA
BRANCH   5   6
ATOM      6  C   UNL A   1      32.073  28.523  25.295  1.00  0.00     0.338 C 
ATOM      7  O   UNL A   1      31.023  28.775  24.728  1.00  0.00    -0.246 OA
BRANCH   6   8
ATOM      8  C   UNL A   1      32.501  27.132  25.555  1.00  0.00     0.061 A 
ATOM      9  C   UNL A   1      33.340  24.451  25.692  1.00  0.00     0.037 A 
ATOM     10  C   UNL A   1      34.226  25.461  25.268  1.00  0.00     0.013 A 
ATOM     11  C   UNL A   1      32.081  24.841  26.191  1.00  0.00     0.051 A 
ATOM     12  C   UNL A   1      33.801  26.784  25.178  1.00  0.00     0.016 A 
ATOM     13  C   UNL A   1      31.659  26.176  26.122  1.00  0.00     0.036 A 
ATOM     14  Cl  UNL A   1      30.975  23.704  26.875  1.00  0.00    -0.084 Cl
BRANCH   9  15
ATOM     15  C   UNL A   1      33.731  22.985  25.485  1.00  0.00     0.320 C 
BRANCH  15  16
ATOM     16  N   UNL A   1      34.171  22.798  24.066  1.00  0.00    -0.344 N 
ATOM     17  H   UNL A   1      34.540  21.853  23.947  1.00  0.00     0.345 HD
ATOM     18  H   UNL A   1      34.897  23.478  23.843  1.00  0.00     0.345 HD
ATOM     19  H   UNL A   1      33.376  22.932  23.442  1.00  0.00     0.345 HD
ENDBRANCH  15  16
BRANCH  15  20
ATOM     20  C   UNL A   1      34.725  22.462  26.562  1.00  0.00     0.445 C 
ATOM     21  F   UNL A   1      34.782  21.112  26.583  1.00  0.00    -0.165 F 
ATOM     22  F   UNL A   1      35.981  22.914  26.330  1.00  0.00    -0.165 F 
ATOM     23  F   UNL A   1      34.370  22.878  27.804  1.00  0.00    -0.165 F 
ENDBRANCH  15  20
ENDBRANCH   9  15
ENDBRANCH   6   8
ENDBRANCH   5   6
ENDBRANCH   4   5
ENDBRANCH   3   4
ENDBRANCH   2   3
ENDBRANCH   1   2
BRANCH   1  24
ATOM     24  C   UNL A   1      35.402  33.783  28.786  1.00  0.00     0.188 C 
BRANCH  24  25
ATOM     25  O   UNL A   1      34.091  34.001  29.241  1.00  0.00    -0.376 OA
BRANCH  25  26
ATOM     26  C   UNL A   1      33.404  35.197  28.919  1.00  0.00     0.202 C 
BRANCH  26  27
ATOM     27  C   UNL A   1      32.863  36.239  29.920  1.00  0.00     0.261 C 
BRANCH  27  28
ATOM     28  O   UNL A   1      32.112  35.783  31.048  1.00  0.00    -0.460 OA
BRANCH  28  29
ATOM     29  C   UNL A   1      32.619  36.090  32.268  1.00  0.00     0.338 C 
ATOM     30  O   UNL A   1      32.144  36.834  33.104  1.00  0.00    -0.246 OA
BRANCH  29  31
ATOM     31  C   UNL A   1      33.792  35.227  32.507  1.00  0.00     0.060 A 
ATOM     32  C   UNL A   1      33.589  33.914  32.954  1.00  0.00     0.016 A 
ATOM     33  C   UNL A   1      35.081  35.714  32.297  1.00  0.00     0.016 A 
ATOM     34  C   UNL A   1      34.682  33.078  33.183  1.00  0.00     0.010 A 
ATOM     35  C   UNL A   1      36.176  34.884  32.550  1.00  0.00     0.010 A 
ATOM     36  C   UNL A   1      35.984  33.565  33.003  1.00  0.00    -0.014 A 
BRANCH  36  37
ATOM     37  C   UNL A   1      37.156  32.744  33.392  1.00  0.00     0.031 A 
ATOM     38  C   UNL A   1      37.857  33.041  34.687  1.00  0.00     0.074 A 
ATOM     39  C   UNL A   1      37.606  31.762  32.591  1.00  0.00     0.049 A 
ATOM     40  N   UNL A   1      38.963  32.535  35.170  1.00  0.00    -0.248 NA
ATOM     41  C   UNL A   1      37.223  34.047  35.552  1.00  0.00     0.031 C 
ATOM     42  C   UNL A   1      36.988  31.348  31.333  1.00  0.00     0.029 A 
ATOM     43  N   UNL A   1      38.706  30.948  32.712  1.00  0.00    -0.354 N 
ATOM     44  C   UNL A   1      39.165  33.168  36.389  1.00  0.00     0.074 A 
ATOM     45  C   UNL A   1      38.079  34.110  36.562  1.00  0.00     0.031 C 
ATOM     46  C   UNL A   1      37.733  30.374  30.784  1.00  0.00     0.029 A 
ATOM     47  C   UNL A   1      38.901  30.127  31.628  1.00  0.00     0.049 A 
ATOM     48  H   UNL A   1      39.299  30.954  33.498  1.00  0.00     0.167 HD
ATOM     49  C   UNL A   1      40.163  32.975  37.283  1.00  0.00     0.037 A 
ATOM     50  C   UNL A   1      39.927  29.302  31.336  1.00  0.00     0.037 A 
ATOM     51  C   UNL A   1      41.245  32.043  37.102  1.00  0.00     0.049 A 
ATOM     52  C   UNL A   1      41.080  29.183  32.299  1.00  0.00     0.074 A 
ATOM     53  C   UNL A   1      42.289  31.755  37.964  1.00  0.00     0.029 A 
ATOM     54  N   UNL A   1      41.433  31.259  35.973  1.00  0.00    -0.354 N 
ATOM     55  N   UNL A   1      41.250  29.756  33.466  1.00  0.00    -0.248 NA
ATOM     56  C   UNL A   1      42.192  28.306  31.898  1.00  0.00     0.031 C 
ATOM     57  C   UNL A   1      43.141  30.846  37.330  1.00  0.00     0.029 A 
ATOM     58  C   UNL A   1      42.598  30.520  36.098  1.00  0.00     0.049 A 
ATOM     59  H   UNL A   1      40.827  31.232  35.198  1.00  0.00     0.167 HD
ATOM     60  C   UNL A   1      42.472  29.298  33.945  1.00  0.00     0.074 A 
ATOM     61  C   UNL A   1      42.992  28.381  32.954  1.00  0.00     0.031 C 
ATOM     62  C   UNL A   1      43.108  29.611  35.102  1.00  0.00     0.037 A 
BRANCH  49  63
ATOM     63  C   UNL A   1      40.155  33.818  38.526  1.00  0.00     0.064 A 
ATOM     64  C   UNL A   1      40.891  35.009  38.616  1.00  0.00     0.173 A 
ATOM     65  C   UNL A   1      39.370  33.446  39.627  1.00  0.00     0.173 A 
ATOM     66  F   UNL A   1      41.667  35.403  37.594  1.00  0.00    -0.203 F 
ATOM     67  C   UNL A   1      40.861  35.783  39.773  1.00  0.00     0.198 A 
ATOM     68  C   UNL A   1      39.318  34.239  40.771  1.00  0.00     0.198 A 
ATOM     69  F   UNL A   1      38.643  32.319  39.592  1.00  0.00    -0.203 F 
ATOM     70  F   UNL A   1      41.609  36.892  39.855  1.00  0.00    -0.200 F 
ATOM     71  C   UNL A   1      40.069  35.402  40.846  1.00  0.00     0.200 A 
ATOM     72  F   UNL A   1      38.542  33.876  41.801  1.00  0.00    -0.200 F 
ATOM     73  F   UNL A   1      40.035  36.152  41.956  1.00  0.00    -0.200 F 
ENDBRANCH  49  63
BRANCH  50  74
ATOM     74  C   UNL A   1      39.932  28.546  30.054  1.00  0.00     0.064 A 
ATOM     75  C   UNL A   1      39.364  27.268  29.966  1.00  0.00     0.173 A 
ATOM     76  C   UNL A   1      40.529  29.075  28.899  1.00  0.00     0.173 A 
ATOM     77  F   UNL A   1      38.809  26.707  31.051  1.00  0.00    -0.203 F 
ATOM     78  C   UNL A   1      39.408  26.541  28.778  1.00  0.00     0.198 A 
ATOM     79  C   UNL A   1      40.544  28.359  27.704  1.00  0.00     0.198 A 
ATOM     80  F   UNL A   1      41.095  30.290  28.931  1.00  0.00    -0.203 F 
ATOM     81  F   UNL A   1      38.903  25.300  28.737  1.00  0.00    -0.200 F 
ATOM     82  C   UNL A   1      39.991  27.089  27.647  1.00  0.00     0.200 A 
ATOM     83  F   UNL A   1      41.100  28.897  26.610  1.00  0.00    -0.200 F 
ATOM     84  F   UNL A   1      40.031  26.390  26.505  1.00  0.00    -0.200 F 
ENDBRANCH  50  74
BRANCH  62  85
ATOM     85  C   UNL A   1      44.430  28.951  35.369  1.00  0.00     0.064 A 
ATOM     86  C   UNL A   1      45.642  29.557  35.005  1.00  0.00     0.173 A 
ATOM     87  C   UNL A   1      44.490  27.720  36.043  1.00  0.00     0.173 A 
ATOM     88  F   UNL A   1      45.640  30.726  34.345  1.00  0.00    -0.203 F 
ATOM     89  C   UNL A   1      46.862  28.949  35.289  1.00  0.00     0.198 A 
ATOM     90  C   UNL A   1      45.713  27.131  36.354  1.00  0.00     0.198 A 
ATOM     91  F   UNL A   1      43.362  27.100  36.419  1.00  0.00    -0.203 F 
ATOM     92  F   UNL A   1      48.005  29.527  34.894  1.00  0.00    -0.200 F 
ATOM     93  C   UNL A   1      46.898  27.742  35.972  1.00  0.00     0.200 A 
ATOM     94  F   UNL A   1      45.745  25.973  37.027  1.00  0.00    -0.200 F 
ATOM     95  F   UNL A   1      48.073  27.165  36.255  1.00  0.00    -0.200 F 
ENDBRANCH  62  85
ENDBRANCH  36  37
ENDBRANCH  29  31
ENDBRANCH  28  29
ENDBRANCH  27  28
ENDBRANCH  26  27
ENDBRANCH  25  26
ENDBRANCH  24  25
ENDBRANCH   1  24
TORSDOF 20
ENDMDL
