MODEL 1
REMARK VINA RESULT:     -13.1      0.000      0.000
REMARK SMILES Cc1ccc(NC(=O)N2CCCC[C@@H]2C(=O)OCCOCCOCCOC(=O)c2ccc(-c3c4nc(c(-c5c(F)c(F)c(F)c(F)c5F)c5ccc([nH]5)c(-c5c(F)c(F)c(F)c(F)c5F)c5nc(c(-c6c(F)c(F)c(F)c(F)c6F)c6ccc3[nH]6)C=C5)C=C4)cc2)cc1
REMARK SMILES IDX 21 1 20 2 19 3 18 4 17 5 15 6 16 7 14 8 9 9 10 10 11 11
REMARK SMILES IDX 13 12 12 13 7 14 6 15 8 17 5 18 1 19 2 20 3 21 93 22 4 23
REMARK SMILES IDX 92 24 22 25 23 26 24 27 25 28 26 29 27 30 28 31 29 32 30 33
REMARK SMILES IDX 91 34 31 35 90 36 32 37 33 38 34 39 84 40 35 41 89 42 83 43
REMARK SMILES IDX 85 44 36 45 88 46 82 47 81 48 37 50 69 51 49 52 68 53 50 54
REMARK SMILES IDX 53 55 67 56 86 57 51 58 52 59 66 61 87 62 54 63 38 64 39 65
REMARK SMILES IDX 47 66 40 67 41 68 45 69 48 70 42 71 43 72 46 73 44 74 70 75
REMARK SMILES IDX 71 76 79 77 72 78 73 79 77 80 80 81 74 82 75 83 78 84 76 85
REMARK SMILES IDX 55 86 56 87 64 88 57 89 58 90 62 91 65 92 59 93 60 94 63 95
REMARK SMILES IDX 61 96
REMARK H PARENT 6 16 85 49 53 60
REMARK Flexibility Score: inf
ROOT
ATOM      1  C   UNL A   1      30.391  27.145  24.561  1.00  0.00     0.188 C 
ENDROOT
BRANCH   1   2
ATOM      2  O   UNL A   1      30.409  26.397  25.797  1.00  0.00    -0.376 OA
BRANCH   2   3
ATOM      3  C   UNL A   1      29.952  25.043  26.061  1.00  0.00     0.202 C 
BRANCH   3   4
ATOM      4  C   UNL A   1      30.650  23.561  26.783  1.00  0.00     0.261 C 
BRANCH   4   5
ATOM      5  O   UNL A   1      32.208  22.645  26.559  1.00  0.00    -0.462 OA
BRANCH   5   6
ATOM      6  C   UNL A   1      33.673  22.795  26.808  1.00  0.00     0.329 C 
ATOM      7  O   UNL A   1      34.324  22.231  27.695  1.00  0.00    -0.250 OA
BRANCH   6   8
ATOM      8  C   UNL A   1      34.664  23.514  25.912  1.00  0.00     0.196 C 
ATOM      9  N   UNL A   1      34.421  23.188  24.414  1.00  0.00    -0.311 N 
ATOM     10  C   UNL A   1      35.490  23.366  23.453  1.00  0.00     0.122 C 
ATOM     11  C   UNL A   1      36.871  23.118  24.021  1.00  0.00     0.022 C 
ATOM     12  C   UNL A   1      36.084  23.281  26.360  1.00  0.00     0.037 C 
ATOM     13  C   UNL A   1      37.049  23.855  25.339  1.00  0.00     0.005 C 
BRANCH   9  14
ATOM     14  C   UNL A   1      33.217  22.877  23.810  1.00  0.00     0.322 C 
ATOM     15  N   UNL A   1      32.799  21.621  23.518  1.00  0.00    -0.308 N 
ATOM     16  H   UNL A   1      32.048  21.640  22.883  1.00  0.00     0.171 HD
ATOM     17  O   UNL A   1      32.396  23.783  23.603  1.00  0.00    -0.248 OA
BRANCH  15  18
ATOM     18  C   UNL A   1      33.131  20.299  23.859  1.00  0.00     0.042 A 
ATOM     19  C   UNL A   1      34.032  16.090  24.361  1.00  0.00     0.044 C 
ATOM     20  C   UNL A   1      33.661  17.546  24.301  1.00  0.00    -0.051 A 
ATOM     21  C   UNL A   1      34.584  18.536  24.668  1.00  0.00     0.005 A 
ATOM     22  C   UNL A   1      32.412  17.948  23.833  1.00  0.00     0.005 A 
ATOM     23  C   UNL A   1      34.315  19.901  24.458  1.00  0.00     0.026 A 
ATOM     24  C   UNL A   1      32.159  19.312  23.603  1.00  0.00     0.026 A 
ENDBRANCH  15  18
ENDBRANCH   9  14
ENDBRANCH   6   8
ENDBRANCH   5   6
ENDBRANCH   4   5
ENDBRANCH   3   4
ENDBRANCH   2   3
ENDBRANCH   1   2
BRANCH   1  25
ATOM     25  C   UNL A   1      31.123  28.450  24.413  1.00  0.00     0.188 C 
BRANCH  25  26
ATOM     26  O   UNL A   1      31.505  28.847  25.701  1.00  0.00    -0.376 OA
BRANCH  26  27
ATOM     27  C   UNL A   1      31.866  30.191  25.851  1.00  0.00     0.202 C 
BRANCH  27  28
ATOM     28  C   UNL A   1      32.535  30.447  27.207  1.00  0.00     0.261 C 
BRANCH  28  29
ATOM     29  O   UNL A   1      33.846  31.054  27.031  1.00  0.00    -0.460 OA
BRANCH  29  30
ATOM     30  C   UNL A   1      34.599  31.347  28.165  1.00  0.00     0.338 C 
ATOM     31  O   UNL A   1      34.760  32.438  28.615  1.00  0.00    -0.246 OA
BRANCH  30  32
ATOM     32  C   UNL A   1      35.402  30.114  28.560  1.00  0.00     0.060 A 
ATOM     33  C   UNL A   1      36.038  29.882  29.794  1.00  0.00     0.016 A 
ATOM     34  C   UNL A   1      35.934  29.454  27.524  1.00  0.00     0.016 A 
ATOM     35  C   UNL A   1      37.372  29.259  29.888  1.00  0.00     0.010 A 
ATOM     36  C   UNL A   1      37.309  29.298  27.636  1.00  0.00     0.010 A 
ATOM     37  C   UNL A   1      38.190  29.098  28.772  1.00  0.00    -0.014 A 
BRANCH  37  38
ATOM     38  C   UNL A   1      39.920  28.628  28.735  1.00  0.00     0.031 A 
ATOM     39  C   UNL A   1      40.717  27.064  28.288  1.00  0.00     0.074 A 
ATOM     40  C   UNL A   1      40.863  29.490  29.178  1.00  0.00     0.049 A 
ATOM     41  N   UNL A   1      41.750  26.545  28.924  1.00  0.00    -0.248 NA
ATOM     42  C   UNL A   1      40.232  25.921  27.342  1.00  0.00     0.031 C 
ATOM     43  C   UNL A   1      42.315  29.385  29.027  1.00  0.00     0.029 A 
ATOM     44  N   UNL A   1      40.709  30.730  29.808  1.00  0.00    -0.354 N 
ATOM     45  C   UNL A   1      41.973  25.267  28.375  1.00  0.00     0.074 A 
ATOM     46  C   UNL A   1      40.756  24.833  27.856  1.00  0.00     0.031 C 
ATOM     47  C   UNL A   1      42.901  30.307  29.811  1.00  0.00     0.029 A 
ATOM     48  C   UNL A   1      41.852  30.928  30.597  1.00  0.00     0.049 A 
ATOM     49  H   UNL A   1      39.945  31.344  29.717  1.00  0.00     0.167 HD
ATOM     50  C   UNL A   1      43.204  24.784  28.051  1.00  0.00     0.037 A 
ATOM     51  C   UNL A   1      41.716  30.919  31.950  1.00  0.00     0.037 A 
ATOM     52  C   UNL A   1      44.161  25.550  28.810  1.00  0.00     0.049 A 
ATOM     53  C   UNL A   1      42.408  29.702  32.564  1.00  0.00     0.074 A 
ATOM     54  C   UNL A   1      44.923  26.674  28.573  1.00  0.00     0.029 A 
ATOM     55  N   UNL A   1      44.016  25.459  30.176  1.00  0.00    -0.354 N 
ATOM     56  N   UNL A   1      43.057  28.794  31.879  1.00  0.00    -0.248 NA
ATOM     57  C   UNL A   1      42.408  29.395  33.993  1.00  0.00     0.031 C 
ATOM     58  C   UNL A   1      45.093  27.332  29.840  1.00  0.00     0.029 A 
ATOM     59  C   UNL A   1      44.476  26.577  30.829  1.00  0.00     0.049 A 
ATOM     60  H   UNL A   1      43.626  24.678  30.634  1.00  0.00     0.167 HD
ATOM     61  C   UNL A   1      43.498  27.797  32.699  1.00  0.00     0.074 A 
ATOM     62  C   UNL A   1      43.061  28.218  34.021  1.00  0.00     0.031 C 
ATOM     63  C   UNL A   1      44.173  26.692  32.252  1.00  0.00     0.037 A 
BRANCH  50  64
ATOM     64  C   UNL A   1      43.516  23.763  26.933  1.00  0.00     0.064 A 
ATOM     65  C   UNL A   1      43.134  22.419  27.132  1.00  0.00     0.173 A 
ATOM     66  C   UNL A   1      44.239  23.955  25.717  1.00  0.00     0.173 A 
ATOM     67  F   UNL A   1      42.426  22.061  28.211  1.00  0.00    -0.203 F 
ATOM     68  C   UNL A   1      43.479  21.381  26.248  1.00  0.00     0.198 A 
ATOM     69  C   UNL A   1      44.586  22.917  24.839  1.00  0.00     0.198 A 
ATOM     70  F   UNL A   1      44.672  25.136  25.280  1.00  0.00    -0.203 F 
ATOM     71  F   UNL A   1      43.103  20.126  26.524  1.00  0.00    -0.200 F 
ATOM     72  C   UNL A   1      44.214  21.626  25.107  1.00  0.00     0.200 A 
ATOM     73  F   UNL A   1      45.301  23.193  23.735  1.00  0.00    -0.200 F 
ATOM     74  F   UNL A   1      44.561  20.634  24.277  1.00  0.00    -0.200 F 
ENDBRANCH  50  64
BRANCH  51  75
ATOM     75  C   UNL A   1      40.417  31.566  32.352  1.00  0.00     0.064 A 
ATOM     76  C   UNL A   1      40.155  32.905  31.992  1.00  0.00     0.173 A 
ATOM     77  C   UNL A   1      39.292  30.793  32.633  1.00  0.00     0.173 A 
ATOM     78  F   UNL A   1      41.170  33.708  31.641  1.00  0.00    -0.203 F 
ATOM     79  C   UNL A   1      38.849  33.399  31.848  1.00  0.00     0.198 A 
ATOM     80  C   UNL A   1      37.988  31.310  32.574  1.00  0.00     0.198 A 
ATOM     81  F   UNL A   1      39.446  29.473  32.734  1.00  0.00    -0.203 F 
ATOM     82  F   UNL A   1      38.642  34.631  31.359  1.00  0.00    -0.200 F 
ATOM     83  C   UNL A   1      37.764  32.596  32.131  1.00  0.00     0.200 A 
ATOM     84  F   UNL A   1      36.931  30.522  32.809  1.00  0.00    -0.200 F 
ATOM     85  F   UNL A   1      36.511  33.022  31.907  1.00  0.00    -0.200 F 
ENDBRANCH  51  75
BRANCH  63  86
ATOM     86  C   UNL A   1      44.624  25.594  33.179  1.00  0.00     0.064 A 
ATOM     87  C   UNL A   1      45.962  25.189  33.212  1.00  0.00     0.173 A 
ATOM     88  C   UNL A   1      43.725  24.821  33.953  1.00  0.00     0.173 A 
ATOM     89  F   UNL A   1      46.885  25.822  32.474  1.00  0.00    -0.203 F 
ATOM     90  C   UNL A   1      46.381  24.112  33.997  1.00  0.00     0.198 A 
ATOM     91  C   UNL A   1      44.128  23.691  34.658  1.00  0.00     0.198 A 
ATOM     92  F   UNL A   1      42.431  25.149  34.074  1.00  0.00    -0.203 F 
ATOM     93  F   UNL A   1      47.683  23.811  34.062  1.00  0.00    -0.200 F 
ATOM     94  C   UNL A   1      45.462  23.350  34.698  1.00  0.00     0.200 A 
ATOM     95  F   UNL A   1      43.217  22.944  35.298  1.00  0.00    -0.200 F 
ATOM     96  F   UNL A   1      45.864  22.295  35.419  1.00  0.00    -0.200 F 
ENDBRANCH  63  86
ENDBRANCH  37  38
ENDBRANCH  30  32
ENDBRANCH  29  30
ENDBRANCH  28  29
ENDBRANCH  27  28
ENDBRANCH  26  27
ENDBRANCH  25  26
ENDBRANCH   1  25
TORSDOF 19
ENDMDL
MODEL 2
REMARK VINA RESULT:     -12.9      2.297      4.524
REMARK SMILES Cc1ccc(NC(=O)N2CCCC[C@@H]2C(=O)OCCOCCOCCOC(=O)c2ccc(-c3c4nc(c(-c5c(F)c(F)c(F)c(F)c5F)c5ccc([nH]5)c(-c5c(F)c(F)c(F)c(F)c5F)c5nc(c(-c6c(F)c(F)c(F)c(F)c6F)c6ccc3[nH]6)C=C5)C=C4)cc2)cc1
REMARK SMILES IDX 21 1 20 2 19 3 18 4 17 5 15 6 16 7 14 8 9 9 10 10 11 11
REMARK SMILES IDX 13 12 12 13 7 14 6 15 8 17 5 18 1 19 2 20 3 21 93 22 4 23
REMARK SMILES IDX 92 24 22 25 23 26 24 27 25 28 26 29 27 30 28 31 29 32 30 33
REMARK SMILES IDX 91 34 31 35 90 36 32 37 33 38 34 39 84 40 35 41 89 42 83 43
REMARK SMILES IDX 85 44 36 45 88 46 82 47 81 48 37 50 69 51 49 52 68 53 50 54
REMARK SMILES IDX 53 55 67 56 86 57 51 58 52 59 66 61 87 62 54 63 38 64 39 65
REMARK SMILES IDX 47 66 40 67 41 68 45 69 48 70 42 71 43 72 46 73 44 74 70 75
REMARK SMILES IDX 71 76 79 77 72 78 73 79 77 80 80 81 74 82 75 83 78 84 76 85
REMARK SMILES IDX 55 86 56 87 64 88 57 89 58 90 62 91 65 92 59 93 60 94 63 95
REMARK SMILES IDX 61 96
REMARK H PARENT 6 16 85 49 53 60
REMARK Flexibility Score: inf
ROOT
ATOM      1  C   UNL A   1      31.794  32.720  26.855  1.00  0.00     0.188 C 
ENDROOT
BRANCH   1   2
ATOM      2  O   UNL A   1      31.633  31.284  26.850  1.00  0.00    -0.376 OA
BRANCH   2   3
ATOM      3  C   UNL A   1      31.733  30.350  25.741  1.00  0.00     0.202 C 
BRANCH   3   4
ATOM      4  C   UNL A   1      33.050  29.474  24.903  1.00  0.00     0.261 C 
BRANCH   4   5
ATOM      5  O   UNL A   1      33.567  27.730  24.816  1.00  0.00    -0.462 OA
BRANCH   5   6
ATOM      6  C   UNL A   1      33.107  26.374  25.240  1.00  0.00     0.329 C 
ATOM      7  O   UNL A   1      32.291  26.128  26.136  1.00  0.00    -0.250 OA
BRANCH   6   8
ATOM      8  C   UNL A   1      33.409  25.065  24.536  1.00  0.00     0.196 C 
ATOM      9  N   UNL A   1      33.077  25.142  23.022  1.00  0.00    -0.311 N 
ATOM     10  C   UNL A   1      32.838  23.925  22.272  1.00  0.00     0.122 C 
ATOM     11  C   UNL A   1      32.202  22.819  23.086  1.00  0.00     0.022 C 
ATOM     12  C   UNL A   1      32.767  23.898  25.239  1.00  0.00     0.037 C 
ATOM     13  C   UNL A   1      32.932  22.639  24.407  1.00  0.00     0.005 C 
BRANCH   9  14
ATOM     14  C   UNL A   1      33.126  26.260  22.210  1.00  0.00     0.322 C 
ATOM     15  N   UNL A   1      32.079  27.086  21.965  1.00  0.00    -0.308 N 
ATOM     16  H   UNL A   1      32.259  27.658  21.186  1.00  0.00     0.171 HD
ATOM     17  O   UNL A   1      34.218  26.615  21.740  1.00  0.00    -0.248 OA
BRANCH  15  18
ATOM     18  C   UNL A   1      30.810  27.359  22.504  1.00  0.00     0.042 A 
ATOM     19  C   UNL A   1      26.742  28.344  23.625  1.00  0.00     0.044 C 
ATOM     20  C   UNL A   1      28.192  28.061  23.344  1.00  0.00    -0.051 A 
ATOM     21  C   UNL A   1      28.757  26.823  23.675  1.00  0.00     0.005 A 
ATOM     22  C   UNL A   1      28.993  29.003  22.701  1.00  0.00     0.005 A 
ATOM     23  C   UNL A   1      30.060  26.480  23.268  1.00  0.00     0.026 A 
ATOM     24  C   UNL A   1      30.284  28.645  22.275  1.00  0.00     0.026 A 
ENDBRANCH  15  18
ENDBRANCH   9  14
ENDBRANCH   6   8
ENDBRANCH   5   6
ENDBRANCH   4   5
ENDBRANCH   3   4
ENDBRANCH   2   3
ENDBRANCH   1   2
BRANCH   1  25
ATOM     25  C   UNL A   1      32.892  33.393  27.632  1.00  0.00     0.188 C 
BRANCH  25  26
ATOM     26  O   UNL A   1      32.352  34.573  28.157  1.00  0.00    -0.376 OA
BRANCH  26  27
ATOM     27  C   UNL A   1      33.259  35.454  28.757  1.00  0.00     0.202 C 
BRANCH  27  28
ATOM     28  C   UNL A   1      33.604  35.021  30.187  1.00  0.00     0.261 C 
BRANCH  28  29
ATOM     29  O   UNL A   1      34.837  34.249  30.211  1.00  0.00    -0.460 OA
BRANCH  29  30
ATOM     30  C   UNL A   1      34.779  32.920  30.622  1.00  0.00     0.338 C 
ATOM     31  O   UNL A   1      34.309  32.542  31.649  1.00  0.00    -0.246 OA
BRANCH  30  32
ATOM     32  C   UNL A   1      35.652  32.077  29.701  1.00  0.00     0.060 A 
ATOM     33  C   UNL A   1      35.817  30.680  29.742  1.00  0.00     0.016 A 
ATOM     34  C   UNL A   1      36.677  32.746  29.158  1.00  0.00     0.016 A 
ATOM     35  C   UNL A   1      37.128  30.035  29.537  1.00  0.00     0.010 A 
ATOM     36  C   UNL A   1      37.904  32.147  29.413  1.00  0.00     0.010 A 
ATOM     37  C   UNL A   1      38.316  30.762  29.549  1.00  0.00    -0.014 A 
BRANCH  37  38
ATOM     38  C   UNL A   1      39.994  30.129  29.596  1.00  0.00     0.031 A 
ATOM     39  C   UNL A   1      40.667  28.514  29.130  1.00  0.00     0.074 A 
ATOM     40  C   UNL A   1      40.982  30.879  30.132  1.00  0.00     0.049 A 
ATOM     41  N   UNL A   1      41.604  27.874  29.803  1.00  0.00    -0.248 NA
ATOM     42  C   UNL A   1      40.140  27.460  28.106  1.00  0.00     0.031 C 
ATOM     43  C   UNL A   1      42.425  30.640  30.066  1.00  0.00     0.029 A 
ATOM     44  N   UNL A   1      40.904  32.103  30.807  1.00  0.00    -0.354 N 
ATOM     45  C   UNL A   1      41.741  26.602  29.214  1.00  0.00     0.074 A 
ATOM     46  C   UNL A   1      40.525  26.308  28.603  1.00  0.00     0.031 C 
ATOM     47  C   UNL A   1      43.043  31.471  30.924  1.00  0.00     0.029 A 
ATOM     48  C   UNL A   1      42.008  32.160  31.671  1.00  0.00     0.049 A 
ATOM     49  H   UNL A   1      40.209  32.791  30.696  1.00  0.00     0.167 HD
ATOM     50  C   UNL A   1      42.940  26.015  28.943  1.00  0.00     0.037 A 
ATOM     51  C   UNL A   1      41.784  32.112  33.012  1.00  0.00     0.037 A 
ATOM     52  C   UNL A   1      43.914  26.656  29.792  1.00  0.00     0.049 A 
ATOM     53  C   UNL A   1      42.318  30.812  33.613  1.00  0.00     0.074 A 
ATOM     54  C   UNL A   1      44.791  27.710  29.652  1.00  0.00     0.029 A 
ATOM     55  N   UNL A   1      43.672  26.527  31.141  1.00  0.00    -0.354 N 
ATOM     56  N   UNL A   1      42.922  29.872  32.929  1.00  0.00    -0.248 NA
ATOM     57  C   UNL A   1      42.197  30.452  35.024  1.00  0.00     0.031 C 
ATOM     58  C   UNL A   1      44.940  28.300  30.954  1.00  0.00     0.029 A 
ATOM     59  C   UNL A   1      44.192  27.571  31.870  1.00  0.00     0.049 A 
ATOM     60  H   UNL A   1      43.182  25.771  31.540  1.00  0.00     0.167 HD
ATOM     61  C   UNL A   1      43.213  28.807  33.730  1.00  0.00     0.074 A 
ATOM     62  C   UNL A   1      42.734  29.218  35.039  1.00  0.00     0.031 C 
ATOM     63  C   UNL A   1      43.809  27.660  33.276  1.00  0.00     0.037 A 
BRANCH  50  64
ATOM     64  C   UNL A   1      43.226  25.013  27.802  1.00  0.00     0.064 A 
ATOM     65  C   UNL A   1      43.985  25.458  26.699  1.00  0.00     0.173 A 
ATOM     66  C   UNL A   1      42.750  23.678  27.639  1.00  0.00     0.173 A 
ATOM     67  F   UNL A   1      44.532  26.681  26.693  1.00  0.00    -0.203 F 
ATOM     68  C   UNL A   1      44.199  24.680  25.547  1.00  0.00     0.198 A 
ATOM     69  C   UNL A   1      42.961  22.905  26.487  1.00  0.00     0.198 A 
ATOM     70  F   UNL A   1      42.048  23.014  28.555  1.00  0.00    -0.203 F 
ATOM     71  F   UNL A   1      44.908  25.187  24.530  1.00  0.00    -0.200 F 
ATOM     72  C   UNL A   1      43.678  23.408  25.435  1.00  0.00     0.200 A 
ATOM     73  F   UNL A   1      42.440  21.668  26.413  1.00  0.00    -0.200 F 
ATOM     74  F   UNL A   1      43.864  22.677  24.328  1.00  0.00    -0.200 F 
ENDBRANCH  50  64
BRANCH  51  75
ATOM     75  C   UNL A   1      40.528  32.866  33.363  1.00  0.00     0.064 A 
ATOM     76  C   UNL A   1      39.334  32.162  33.628  1.00  0.00     0.173 A 
ATOM     77  C   UNL A   1      40.594  34.151  33.897  1.00  0.00     0.173 A 
ATOM     78  F   UNL A   1      39.205  30.894  33.211  1.00  0.00    -0.203 F 
ATOM     79  C   UNL A   1      38.319  32.690  34.442  1.00  0.00     0.198 A 
ATOM     80  C   UNL A   1      39.543  34.714  34.638  1.00  0.00     0.198 A 
ATOM     81  F   UNL A   1      41.774  34.771  33.899  1.00  0.00    -0.203 F 
ATOM     82  F   UNL A   1      37.271  31.931  34.792  1.00  0.00    -0.200 F 
ATOM     83  C   UNL A   1      38.430  33.966  34.955  1.00  0.00     0.200 A 
ATOM     84  F   UNL A   1      39.663  35.937  35.172  1.00  0.00    -0.200 F 
ATOM     85  F   UNL A   1      37.515  34.448  35.810  1.00  0.00    -0.200 F 
ENDBRANCH  51  75
BRANCH  63  86
ATOM     86  C   UNL A   1      44.095  26.489  34.180  1.00  0.00     0.064 A 
ATOM     87  C   UNL A   1      43.052  25.766  34.767  1.00  0.00     0.173 A 
ATOM     88  C   UNL A   1      45.402  26.140  34.598  1.00  0.00     0.173 A 
ATOM     89  F   UNL A   1      41.775  26.053  34.477  1.00  0.00    -0.203 F 
ATOM     90  C   UNL A   1      43.298  24.737  35.678  1.00  0.00     0.198 A 
ATOM     91  C   UNL A   1      45.640  25.180  35.578  1.00  0.00     0.198 A 
ATOM     92  F   UNL A   1      46.493  26.697  34.055  1.00  0.00    -0.203 F 
ATOM     93  F   UNL A   1      42.275  24.017  36.153  1.00  0.00    -0.200 F 
ATOM     94  C   UNL A   1      44.588  24.462  36.101  1.00  0.00     0.200 A 
ATOM     95  F   UNL A   1      46.892  24.956  36.001  1.00  0.00    -0.200 F 
ATOM     96  F   UNL A   1      44.815  23.499  37.004  1.00  0.00    -0.200 F 
ENDBRANCH  63  86
ENDBRANCH  37  38
ENDBRANCH  30  32
ENDBRANCH  29  30
ENDBRANCH  28  29
ENDBRANCH  27  28
ENDBRANCH  26  27
ENDBRANCH  25  26
ENDBRANCH   1  25
TORSDOF 19
ENDMDL
MODEL 3
REMARK VINA RESULT:     -12.8      3.240      9.782
REMARK SMILES Cc1ccc(NC(=O)N2CCCC[C@@H]2C(=O)OCCOCCOCCOC(=O)c2ccc(-c3c4nc(c(-c5c(F)c(F)c(F)c(F)c5F)c5ccc([nH]5)c(-c5c(F)c(F)c(F)c(F)c5F)c5nc(c(-c6c(F)c(F)c(F)c(F)c6F)c6ccc3[nH]6)C=C5)C=C4)cc2)cc1
REMARK SMILES IDX 21 1 20 2 19 3 18 4 17 5 15 6 16 7 14 8 9 9 10 10 11 11
REMARK SMILES IDX 13 12 12 13 7 14 6 15 8 17 5 18 1 19 2 20 3 21 93 22 4 23
REMARK SMILES IDX 92 24 22 25 23 26 24 27 25 28 26 29 27 30 28 31 29 32 30 33
REMARK SMILES IDX 91 34 31 35 90 36 32 37 33 38 34 39 84 40 35 41 89 42 83 43
REMARK SMILES IDX 85 44 36 45 88 46 82 47 81 48 37 50 69 51 49 52 68 53 50 54
REMARK SMILES IDX 53 55 67 56 86 57 51 58 52 59 66 61 87 62 54 63 38 64 39 65
REMARK SMILES IDX 47 66 40 67 41 68 45 69 48 70 42 71 43 72 46 73 44 74 70 75
REMARK SMILES IDX 71 76 79 77 72 78 73 79 77 80 80 81 74 82 75 83 78 84 76 85
REMARK SMILES IDX 55 86 56 87 64 88 57 89 58 90 62 91 65 92 59 93 60 94 63 95
REMARK SMILES IDX 61 96
REMARK H PARENT 6 16 85 49 53 60
REMARK Flexibility Score: inf
ROOT
ATOM      1  C   UNL A   1      37.829  21.318  25.368  1.00  0.00     0.188 C 
ENDROOT
BRANCH   1   2
ATOM      2  O   UNL A   1      36.993  21.801  24.293  1.00  0.00    -0.376 OA
BRANCH   2   3
ATOM      3  C   UNL A   1      36.426  23.124  24.089  1.00  0.00     0.202 C 
BRANCH   3   4
ATOM      4  C   UNL A   1      35.351  24.225  25.004  1.00  0.00     0.261 C 
BRANCH   4   5
ATOM      5  O   UNL A   1      34.303  25.646  24.558  1.00  0.00    -0.462 OA
BRANCH   5   6
ATOM      6  C   UNL A   1      33.738  26.889  25.163  1.00  0.00     0.329 C 
ATOM      7  O   UNL A   1      34.201  27.506  26.129  1.00  0.00    -0.250 OA
BRANCH   6   8
ATOM      8  C   UNL A   1      32.607  27.726  24.595  1.00  0.00     0.196 C 
ATOM      9  N   UNL A   1      31.220  27.156  24.994  1.00  0.00    -0.311 N 
ATOM     10  C   UNL A   1      30.048  27.489  24.209  1.00  0.00     0.122 C 
ATOM     11  C   UNL A   1      30.337  27.697  22.737  1.00  0.00     0.022 C 
ATOM     12  C   UNL A   1      32.770  27.943  23.114  1.00  0.00     0.037 C 
ATOM     13  C   UNL A   1      31.532  28.619  22.552  1.00  0.00     0.005 C 
BRANCH   9  14
ATOM     14  C   UNL A   1      30.901  26.457  26.144  1.00  0.00     0.322 C 
ATOM     15  N   UNL A   1      30.877  25.105  26.246  1.00  0.00    -0.308 N 
ATOM     16  H   UNL A   1      30.396  24.824  27.057  1.00  0.00     0.171 HD
ATOM     17  O   UNL A   1      30.719  27.084  27.198  1.00  0.00    -0.248 OA
BRANCH  15  18
ATOM     18  C   UNL A   1      31.341  23.990  25.528  1.00  0.00     0.042 A 
ATOM     19  C   UNL A   1      32.453  20.233  23.677  1.00  0.00     0.044 C 
ATOM     20  C   UNL A   1      32.189  21.573  24.306  1.00  0.00    -0.051 A 
ATOM     21  C   UNL A   1      31.661  22.628  23.549  1.00  0.00     0.005 A 
ATOM     22  C   UNL A   1      32.415  21.783  25.665  1.00  0.00     0.005 A 
ATOM     23  C   UNL A   1      31.251  23.830  24.155  1.00  0.00     0.026 A 
ATOM     24  C   UNL A   1      31.981  22.976  26.268  1.00  0.00     0.026 A 
ENDBRANCH  15  18
ENDBRANCH   9  14
ENDBRANCH   6   8
ENDBRANCH   5   6
ENDBRANCH   4   5
ENDBRANCH   3   4
ENDBRANCH   2   3
ENDBRANCH   1   2
BRANCH   1  25
ATOM     25  C   UNL A   1      38.805  22.216  26.077  1.00  0.00     0.188 C 
BRANCH  25  26
ATOM     26  O   UNL A   1      39.632  21.386  26.846  1.00  0.00    -0.376 OA
BRANCH  26  27
ATOM     27  C   UNL A   1      40.517  20.568  26.134  1.00  0.00     0.202 C 
BRANCH  27  28
ATOM     28  C   UNL A   1      41.957  21.088  26.218  1.00  0.00     0.261 C 
BRANCH  28  29
ATOM     29  O   UNL A   1      42.108  22.318  25.454  1.00  0.00    -0.460 OA
BRANCH  29  30
ATOM     30  C   UNL A   1      42.755  23.396  26.053  1.00  0.00     0.338 C 
ATOM     31  O   UNL A   1      43.895  23.402  26.397  1.00  0.00    -0.246 OA
BRANCH  30  32
ATOM     32  C   UNL A   1      41.718  24.438  26.452  1.00  0.00     0.060 A 
ATOM     33  C   UNL A   1      41.562  25.724  25.902  1.00  0.00     0.016 A 
ATOM     34  C   UNL A   1      41.267  24.308  27.705  1.00  0.00     0.016 A 
ATOM     35  C   UNL A   1      41.259  26.905  26.733  1.00  0.00     0.010 A 
ATOM     36  C   UNL A   1      41.426  25.464  28.457  1.00  0.00     0.010 A 
ATOM     37  C   UNL A   1      41.363  26.875  28.121  1.00  0.00    -0.014 A 
BRANCH  37  38
ATOM     38  C   UNL A   1      41.309  28.260  29.260  1.00  0.00     0.031 A 
ATOM     39  C   UNL A   1      40.071  29.561  29.488  1.00  0.00     0.074 A 
ATOM     40  C   UNL A   1      42.363  28.509  30.069  1.00  0.00     0.049 A 
ATOM     41  N   UNL A   1      40.356  30.828  29.726  1.00  0.00    -0.248 NA
ATOM     42  C   UNL A   1      38.540  29.561  29.182  1.00  0.00     0.031 C 
ATOM     43  C   UNL A   1      42.424  29.435  31.200  1.00  0.00     0.029 A 
ATOM     44  N   UNL A   1      43.624  27.902  30.100  1.00  0.00    -0.354 N 
ATOM     45  C   UNL A   1      39.140  31.538  29.688  1.00  0.00     0.074 A 
ATOM     46  C   UNL A   1      38.271  30.809  28.880  1.00  0.00     0.031 C 
ATOM     47  C   UNL A   1      43.707  29.569  31.583  1.00  0.00     0.029 A 
ATOM     48  C   UNL A   1      44.517  28.852  30.617  1.00  0.00     0.049 A 
ATOM     49  H   UNL A   1      43.842  26.987  29.813  1.00  0.00     0.167 HD
ATOM     50  C   UNL A   1      38.785  32.487  30.598  1.00  0.00     0.037 A 
ATOM     51  C   UNL A   1      45.468  29.365  29.792  1.00  0.00     0.037 A 
ATOM     52  C   UNL A   1      40.007  32.946  31.213  1.00  0.00     0.049 A 
ATOM     53  C   UNL A   1      45.214  30.846  29.513  1.00  0.00     0.074 A 
ATOM     54  C   UNL A   1      40.714  32.616  32.349  1.00  0.00     0.029 A 
ATOM     55  N   UNL A   1      40.911  33.510  30.342  1.00  0.00    -0.354 N 
ATOM     56  N   UNL A   1      44.218  31.535  30.011  1.00  0.00    -0.248 NA
ATOM     57  C   UNL A   1      46.043  31.667  28.633  1.00  0.00     0.031 C 
ATOM     58  C   UNL A   1      42.100  32.863  32.059  1.00  0.00     0.029 A 
ATOM     59  C   UNL A   1      42.209  33.382  30.775  1.00  0.00     0.049 A 
ATOM     60  H   UNL A   1      40.656  33.956  29.501  1.00  0.00     0.167 HD
ATOM     61  C   UNL A   1      44.218  32.806  29.519  1.00  0.00     0.074 A 
ATOM     62  C   UNL A   1      45.384  32.841  28.652  1.00  0.00     0.031 C 
ATOM     63  C   UNL A   1      43.267  33.740  29.835  1.00  0.00     0.037 A 
BRANCH  50  64
ATOM     64  C   UNL A   1      37.344  32.841  31.031  1.00  0.00     0.064 A 
ATOM     65  C   UNL A   1      36.554  33.608  30.148  1.00  0.00     0.173 A 
ATOM     66  C   UNL A   1      36.689  32.581  32.271  1.00  0.00     0.173 A 
ATOM     67  F   UNL A   1      37.002  33.926  28.927  1.00  0.00    -0.203 F 
ATOM     68  C   UNL A   1      35.280  34.100  30.485  1.00  0.00     0.198 A 
ATOM     69  C   UNL A   1      35.420  33.076  32.607  1.00  0.00     0.198 A 
ATOM     70  F   UNL A   1      37.206  31.845  33.253  1.00  0.00    -0.203 F 
ATOM     71  F   UNL A   1      34.605  34.846  29.601  1.00  0.00    -0.200 F 
ATOM     72  C   UNL A   1      34.717  33.845  31.718  1.00  0.00     0.200 A 
ATOM     73  F   UNL A   1      34.901  32.806  33.817  1.00  0.00    -0.200 F 
ATOM     74  F   UNL A   1      33.514  34.333  32.046  1.00  0.00    -0.200 F 
ENDBRANCH  50  64
BRANCH  51  75
ATOM     75  C   UNL A   1      45.978  28.304  28.852  1.00  0.00     0.064 A 
ATOM     76  C   UNL A   1      46.860  27.309  29.324  1.00  0.00     0.173 A 
ATOM     77  C   UNL A   1      45.270  27.974  27.698  1.00  0.00     0.173 A 
ATOM     78  F   UNL A   1      47.536  27.509  30.465  1.00  0.00    -0.203 F 
ATOM     79  C   UNL A   1      46.957  26.046  28.718  1.00  0.00     0.198 A 
ATOM     80  C   UNL A   1      45.430  26.744  27.041  1.00  0.00     0.198 A 
ATOM     81  F   UNL A   1      44.249  28.754  27.343  1.00  0.00    -0.203 F 
ATOM     82  F   UNL A   1      47.693  25.079  29.286  1.00  0.00    -0.200 F 
ATOM     83  C   UNL A   1      46.232  25.761  27.580  1.00  0.00     0.200 A 
ATOM     84  F   UNL A   1      44.698  26.448  25.958  1.00  0.00    -0.200 F 
ATOM     85  F   UNL A   1      46.240  24.530  27.045  1.00  0.00    -0.200 F 
ENDBRANCH  51  75
BRANCH  63  86
ATOM     86  C   UNL A   1      43.278  35.130  29.254  1.00  0.00     0.064 A 
ATOM     87  C   UNL A   1      43.492  36.246  30.070  1.00  0.00     0.173 A 
ATOM     88  C   UNL A   1      42.940  35.405  27.907  1.00  0.00     0.173 A 
ATOM     89  F   UNL A   1      43.767  36.095  31.373  1.00  0.00    -0.203 F 
ATOM     90  C   UNL A   1      43.414  37.545  29.565  1.00  0.00     0.198 A 
ATOM     91  C   UNL A   1      42.768  36.701  27.430  1.00  0.00     0.198 A 
ATOM     92  F   UNL A   1      42.788  34.429  27.001  1.00  0.00    -0.203 F 
ATOM     93  F   UNL A   1      43.707  38.581  30.361  1.00  0.00    -0.200 F 
ATOM     94  C   UNL A   1      43.029  37.773  28.255  1.00  0.00     0.200 A 
ATOM     95  F   UNL A   1      42.357  36.899  26.169  1.00  0.00    -0.200 F 
ATOM     96  F   UNL A   1      42.920  39.023  27.786  1.00  0.00    -0.200 F 
ENDBRANCH  63  86
ENDBRANCH  37  38
ENDBRANCH  30  32
ENDBRANCH  29  30
ENDBRANCH  28  29
ENDBRANCH  27  28
ENDBRANCH  26  27
ENDBRANCH  25  26
ENDBRANCH   1  25
TORSDOF 19
ENDMDL
