MODEL 1
REMARK VINA RESULT:     -10.6      0.000      0.000
REMARK SMILES COc1ccc([C@H](CC(=O)OCCOCCOCCOC(=O)c2ccc(-c3c4nc(c(-c5c(F)c(F)c(F)c(F)c5F)c5ccc([nH]5)c(-c5c(F)c(F)c(F)c(F)c5F)c5nc(c(-c6c(F)c(F)c(F)c(F)c6F)c6ccc3[nH]6)C=C5)C=C4)cc2)NC(C)=O)cc1
REMARK SMILES IDX 15 1 14 2 13 3 12 4 11 5 9 6 10 7 8 8 7 9 6 10 3 11 4 12
REMARK SMILES IDX 91 13 5 14 90 15 2 16 1 17 86 18 87 19 88 21 89 22 16 23
REMARK SMILES IDX 17 24 18 25 19 26 20 27 21 28 22 29 23 30 24 31 85 32 25 33
REMARK SMILES IDX 84 34 26 35 27 36 28 37 78 38 29 39 83 40 77 41 79 42 30 43
REMARK SMILES IDX 82 44 76 45 75 46 31 48 63 49 43 50 62 51 44 52 47 53 61 54
REMARK SMILES IDX 80 55 45 56 46 57 60 59 81 60 48 61 32 62 33 63 41 64 34 65
REMARK SMILES IDX 35 66 39 67 42 68 36 69 37 70 40 71 38 72 64 73 65 74 73 75
REMARK SMILES IDX 66 76 67 77 71 78 74 79 68 80 69 81 72 82 70 83 49 84 50 85
REMARK SMILES IDX 58 86 51 87 52 88 56 89 59 90 53 91 54 92 57 93 55 94
REMARK H PARENT 86 20 79 47 47 58
REMARK Flexibility Score: inf
ROOT
ATOM      1  C   UNL A   1      33.786  26.471  25.833  1.00  0.00     0.188 C 
ENDROOT
BRANCH   1   2
ATOM      2  O   UNL A   1      34.314  25.151  25.896  1.00  0.00    -0.376 OA
BRANCH   2   3
ATOM      3  C   UNL A   1      34.653  24.491  24.674  1.00  0.00     0.202 C 
BRANCH   3   4
ATOM      4  C   UNL A   1      35.957  23.686  24.674  1.00  0.00     0.261 C 
BRANCH   4   5
ATOM      5  O   UNL A   1      36.108  22.878  25.862  1.00  0.00    -0.463 OA
BRANCH   5   6
ATOM      6  C   UNL A   1      35.763  21.578  25.712  1.00  0.00     0.308 C 
ATOM      7  O   UNL A   1      36.505  20.732  25.222  1.00  0.00    -0.252 OA
BRANCH   6   8
ATOM      8  C   UNL A   1      34.509  21.196  26.473  1.00  0.00     0.152 C 
BRANCH   8   9
ATOM      9  C   UNL A   1      33.307  20.483  25.819  1.00  0.00     0.123 C 
BRANCH   9  10
ATOM     10  C   UNL A   1      32.456  21.475  24.979  1.00  0.00    -0.025 A 
ATOM     11  C   UNL A   1      31.233  23.509  23.426  1.00  0.00     0.118 A 
ATOM     12  C   UNL A   1      31.014  23.436  24.796  1.00  0.00     0.047 A 
ATOM     13  C   UNL A   1      32.041  22.553  22.814  1.00  0.00     0.047 A 
ATOM     14  C   UNL A   1      31.617  22.439  25.563  1.00  0.00     0.010 A 
ATOM     15  C   UNL A   1      32.633  21.536  23.582  1.00  0.00     0.010 A 
BRANCH  11  16
ATOM     16  O   UNL A   1      30.654  24.587  22.820  1.00  0.00    -0.497 OA
ATOM     17  C   UNL A   1      31.333  25.826  22.959  1.00  0.00     0.278 C 
ENDBRANCH  11  16
ENDBRANCH   9  10
BRANCH   9  18
ATOM     18  N   UNL A   1      33.692  19.460  24.834  1.00  0.00    -0.349 N 
ATOM     19  C   UNL A   1      32.949  18.317  24.626  1.00  0.00     0.217 C 
ATOM     20  H   UNL A   1      34.512  19.596  24.305  1.00  0.00     0.164 HD
ATOM     21  C   UNL A   1      33.136  17.687  23.264  1.00  0.00     0.114 C 
ATOM     22  O   UNL A   1      32.144  17.874  25.438  1.00  0.00    -0.275 OA
ENDBRANCH   9  18
ENDBRANCH   8   9
ENDBRANCH   6   8
ENDBRANCH   5   6
ENDBRANCH   4   5
ENDBRANCH   3   4
ENDBRANCH   2   3
ENDBRANCH   1   2
BRANCH   1  23
ATOM     23  C   UNL A   1      32.321  26.692  26.224  1.00  0.00     0.188 C 
BRANCH  23  24
ATOM     24  O   UNL A   1      32.030  28.045  26.509  1.00  0.00    -0.376 OA
BRANCH  24  25
ATOM     25  C   UNL A   1      31.710  28.869  25.403  1.00  0.00     0.202 C 
BRANCH  25  26
ATOM     26  C   UNL A   1      31.925  30.343  25.759  1.00  0.00     0.261 C 
BRANCH  26  27
ATOM     27  O   UNL A   1      32.458  30.540  27.086  1.00  0.00    -0.460 OA
BRANCH  27  28
ATOM     28  C   UNL A   1      33.159  31.679  27.272  1.00  0.00     0.338 C 
ATOM     29  O   UNL A   1      32.726  32.826  27.253  1.00  0.00    -0.246 OA
BRANCH  28  30
ATOM     30  C   UNL A   1      34.515  31.339  27.736  1.00  0.00     0.060 A 
ATOM     31  C   UNL A   1      34.821  29.990  27.971  1.00  0.00     0.016 A 
ATOM     32  C   UNL A   1      35.461  32.334  27.979  1.00  0.00     0.016 A 
ATOM     33  C   UNL A   1      36.056  29.637  28.507  1.00  0.00     0.010 A 
ATOM     34  C   UNL A   1      36.693  31.981  28.532  1.00  0.00     0.010 A 
ATOM     35  C   UNL A   1      36.978  30.637  28.838  1.00  0.00    -0.014 A 
BRANCH  35  36
ATOM     36  C   UNL A   1      38.149  30.308  29.683  1.00  0.00     0.031 A 
ATOM     37  C   UNL A   1      39.175  29.354  29.140  1.00  0.00     0.074 A 
ATOM     38  C   UNL A   1      38.304  30.853  30.901  1.00  0.00     0.049 A 
ATOM     39  N   UNL A   1      40.218  28.828  29.725  1.00  0.00    -0.248 NA
ATOM     40  C   UNL A   1      38.989  28.930  27.742  1.00  0.00     0.031 C 
ATOM     41  C   UNL A   1      37.404  31.827  31.512  1.00  0.00     0.029 A 
ATOM     42  N   UNL A   1      39.273  30.643  31.850  1.00  0.00    -0.354 N 
ATOM     43  C   UNL A   1      40.802  27.997  28.777  1.00  0.00     0.074 A 
ATOM     44  C   UNL A   1      39.986  28.073  27.585  1.00  0.00     0.031 C 
ATOM     45  C   UNL A   1      37.850  32.114  32.747  1.00  0.00     0.029 A 
ATOM     46  C   UNL A   1      39.043  31.316  33.024  1.00  0.00     0.049 A 
ATOM     47  H   UNL A   1      40.059  30.069  31.702  1.00  0.00     0.167 HD
ATOM     48  C   UNL A   1      41.918  27.239  28.892  1.00  0.00     0.037 A 
ATOM     49  C   UNL A   1      39.700  31.259  34.198  1.00  0.00     0.037 A 
ATOM     50  C   UNL A   1      42.726  27.172  30.081  1.00  0.00     0.049 A 
ATOM     51  C   UNL A   1      40.913  30.373  34.321  1.00  0.00     0.074 A 
ATOM     52  C   UNL A   1      43.879  26.441  30.304  1.00  0.00     0.029 A 
ATOM     53  N   UNL A   1      42.457  27.864  31.254  1.00  0.00    -0.354 N 
ATOM     54  N   UNL A   1      41.458  29.586  33.425  1.00  0.00    -0.248 NA
ATOM     55  C   UNL A   1      41.603  30.372  35.619  1.00  0.00     0.031 C 
ATOM     56  C   UNL A   1      44.284  26.656  31.626  1.00  0.00     0.029 A 
ATOM     57  C   UNL A   1      43.413  27.562  32.211  1.00  0.00     0.049 A 
ATOM     58  H   UNL A   1      41.699  28.478  31.387  1.00  0.00     0.167 HD
ATOM     59  C   UNL A   1      42.561  29.011  34.041  1.00  0.00     0.074 A 
ATOM     60  C   UNL A   1      42.619  29.553  35.383  1.00  0.00     0.031 C 
ATOM     61  C   UNL A   1      43.449  28.113  33.542  1.00  0.00     0.037 A 
BRANCH  48  62
ATOM     62  C   UNL A   1      42.301  26.395  27.712  1.00  0.00     0.064 A 
ATOM     63  C   UNL A   1      41.714  25.143  27.474  1.00  0.00     0.173 A 
ATOM     64  C   UNL A   1      43.273  26.846  26.805  1.00  0.00     0.173 A 
ATOM     65  F   UNL A   1      40.796  24.656  28.322  1.00  0.00    -0.203 F 
ATOM     66  C   UNL A   1      42.110  24.360  26.392  1.00  0.00     0.198 A 
ATOM     67  C   UNL A   1      43.643  26.075  25.707  1.00  0.00     0.198 A 
ATOM     68  F   UNL A   1      43.865  28.036  26.986  1.00  0.00    -0.203 F 
ATOM     69  F   UNL A   1      41.578  23.142  26.219  1.00  0.00    -0.200 F 
ATOM     70  C   UNL A   1      43.070  24.828  25.508  1.00  0.00     0.200 A 
ATOM     71  F   UNL A   1      44.565  26.532  24.848  1.00  0.00    -0.200 F 
ATOM     72  F   UNL A   1      43.450  24.073  24.467  1.00  0.00    -0.200 F 
ENDBRANCH  48  62
BRANCH  49  73
ATOM     73  C   UNL A   1      39.205  32.048  35.356  1.00  0.00     0.064 A 
ATOM     74  C   UNL A   1      38.427  31.455  36.360  1.00  0.00     0.173 A 
ATOM     75  C   UNL A   1      39.511  33.410  35.486  1.00  0.00     0.173 A 
ATOM     76  F   UNL A   1      38.086  30.161  36.267  1.00  0.00    -0.203 F 
ATOM     77  C   UNL A   1      37.968  32.198  37.446  1.00  0.00     0.198 A 
ATOM     78  C   UNL A   1      39.075  34.145  36.587  1.00  0.00     0.198 A 
ATOM     79  F   UNL A   1      40.251  34.025  34.552  1.00  0.00    -0.203 F 
ATOM     80  F   UNL A   1      37.197  31.616  38.375  1.00  0.00    -0.200 F 
ATOM     81  C   UNL A   1      38.300  33.540  37.564  1.00  0.00     0.200 A 
ATOM     82  F   UNL A   1      39.409  35.438  36.702  1.00  0.00    -0.200 F 
ATOM     83  F   UNL A   1      37.868  34.250  38.615  1.00  0.00    -0.200 F 
ENDBRANCH  49  73
BRANCH  61  84
ATOM     84  C   UNL A   1      44.571  27.687  34.442  1.00  0.00     0.064 A 
ATOM     85  C   UNL A   1      45.790  28.381  34.481  1.00  0.00     0.173 A 
ATOM     86  C   UNL A   1      44.412  26.590  35.304  1.00  0.00     0.173 A 
ATOM     87  F   UNL A   1      45.995  29.428  33.667  1.00  0.00    -0.203 F 
ATOM     88  C   UNL A   1      46.818  27.974  35.327  1.00  0.00     0.198 A 
ATOM     89  C   UNL A   1      45.432  26.203  36.168  1.00  0.00     0.198 A 
ATOM     90  F   UNL A   1      43.263  25.898  35.311  1.00  0.00    -0.203 F 
ATOM     91  F   UNL A   1      47.991  28.622  35.311  1.00  0.00    -0.200 F 
ATOM     92  C   UNL A   1      46.637  26.891  36.174  1.00  0.00     0.200 A 
ATOM     93  F   UNL A   1      45.250  25.165  36.995  1.00  0.00    -0.200 F 
ATOM     94  F   UNL A   1      47.626  26.503  36.989  1.00  0.00    -0.200 F 
ENDBRANCH  61  84
ENDBRANCH  35  36
ENDBRANCH  28  30
ENDBRANCH  27  28
ENDBRANCH  26  27
ENDBRANCH  25  26
ENDBRANCH  24  25
ENDBRANCH  23  24
ENDBRANCH   1  23
TORSDOF 21
ENDMDL
MODEL 2
REMARK VINA RESULT:     -10.2      1.280      3.294
REMARK SMILES COc1ccc([C@H](CC(=O)OCCOCCOCCOC(=O)c2ccc(-c3c4nc(c(-c5c(F)c(F)c(F)c(F)c5F)c5ccc([nH]5)c(-c5c(F)c(F)c(F)c(F)c5F)c5nc(c(-c6c(F)c(F)c(F)c(F)c6F)c6ccc3[nH]6)C=C5)C=C4)cc2)NC(C)=O)cc1
REMARK SMILES IDX 15 1 14 2 13 3 12 4 11 5 9 6 10 7 8 8 7 9 6 10 3 11 4 12
REMARK SMILES IDX 91 13 5 14 90 15 2 16 1 17 86 18 87 19 88 21 89 22 16 23
REMARK SMILES IDX 17 24 18 25 19 26 20 27 21 28 22 29 23 30 24 31 85 32 25 33
REMARK SMILES IDX 84 34 26 35 27 36 28 37 78 38 29 39 83 40 77 41 79 42 30 43
REMARK SMILES IDX 82 44 76 45 75 46 31 48 63 49 43 50 62 51 44 52 47 53 61 54
REMARK SMILES IDX 80 55 45 56 46 57 60 59 81 60 48 61 32 62 33 63 41 64 34 65
REMARK SMILES IDX 35 66 39 67 42 68 36 69 37 70 40 71 38 72 64 73 65 74 73 75
REMARK SMILES IDX 66 76 67 77 71 78 74 79 68 80 69 81 72 82 70 83 49 84 50 85
REMARK SMILES IDX 58 86 51 87 52 88 56 89 59 90 53 91 54 92 57 93 55 94
REMARK H PARENT 86 20 79 47 47 58
REMARK Flexibility Score: inf
ROOT
ATOM      1  C   UNL A   1      30.286  27.572  23.225  1.00  0.00     0.188 C 
ENDROOT
BRANCH   1   2
ATOM      2  O   UNL A   1      29.740  26.780  24.274  1.00  0.00    -0.376 OA
BRANCH   2   3
ATOM      3  C   UNL A   1      30.430  25.589  24.661  1.00  0.00     0.202 C 
BRANCH   3   4
ATOM      4  C   UNL A   1      30.246  25.138  26.115  1.00  0.00     0.261 C 
BRANCH   4   5
ATOM      5  O   UNL A   1      31.413  24.468  26.638  1.00  0.00    -0.463 OA
BRANCH   5   6
ATOM      6  C   UNL A   1      31.392  23.119  26.522  1.00  0.00     0.308 C 
ATOM      7  O   UNL A   1      30.398  22.484  26.185  1.00  0.00    -0.252 OA
BRANCH   6   8
ATOM      8  C   UNL A   1      32.772  22.491  26.545  1.00  0.00     0.152 C 
BRANCH   8   9
ATOM      9  C   UNL A   1      33.662  22.361  25.291  1.00  0.00     0.123 C 
BRANCH   9  10
ATOM     10  C   UNL A   1      33.719  20.891  24.793  1.00  0.00    -0.025 A 
ATOM     11  C   UNL A   1      33.659  18.111  24.236  1.00  0.00     0.118 A 
ATOM     12  C   UNL A   1      34.841  18.730  24.627  1.00  0.00     0.047 A 
ATOM     13  C   UNL A   1      32.505  18.877  24.096  1.00  0.00     0.047 A 
ATOM     14  C   UNL A   1      34.873  20.096  24.904  1.00  0.00     0.010 A 
ATOM     15  C   UNL A   1      32.539  20.256  24.355  1.00  0.00     0.010 A 
BRANCH  11  16
ATOM     16  O   UNL A   1      33.756  16.757  24.087  1.00  0.00    -0.497 OA
ATOM     17  C   UNL A   1      32.992  15.968  24.986  1.00  0.00     0.278 C 
ENDBRANCH  11  16
ENDBRANCH   9  10
BRANCH   9  18
ATOM     18  N   UNL A   1      33.145  23.088  24.122  1.00  0.00    -0.349 N 
ATOM     19  C   UNL A   1      33.949  23.453  23.062  1.00  0.00     0.217 C 
ATOM     20  H   UNL A   1      32.188  23.324  24.095  1.00  0.00     0.164 HD
ATOM     21  C   UNL A   1      33.212  23.660  21.757  1.00  0.00     0.114 C 
ATOM     22  O   UNL A   1      35.169  23.536  23.135  1.00  0.00    -0.275 OA
ENDBRANCH   9  18
ENDBRANCH   8   9
ENDBRANCH   6   8
ENDBRANCH   5   6
ENDBRANCH   4   5
ENDBRANCH   3   4
ENDBRANCH   2   3
ENDBRANCH   1   2
BRANCH   1  23
ATOM     23  C   UNL A   1      31.361  28.607  23.574  1.00  0.00     0.188 C 
BRANCH  23  24
ATOM     24  O   UNL A   1      31.022  29.386  24.703  1.00  0.00    -0.376 OA
BRANCH  24  25
ATOM     25  C   UNL A   1      31.750  29.129  25.890  1.00  0.00     0.202 C 
BRANCH  25  26
ATOM     26  C   UNL A   1      31.993  30.431  26.657  1.00  0.00     0.261 C 
BRANCH  26  27
ATOM     27  O   UNL A   1      33.301  30.996  26.426  1.00  0.00    -0.460 OA
BRANCH  27  28
ATOM     28  C   UNL A   1      33.737  31.865  27.362  1.00  0.00     0.338 C 
ATOM     29  O   UNL A   1      33.099  32.773  27.884  1.00  0.00    -0.246 OA
BRANCH  28  30
ATOM     30  C   UNL A   1      35.056  31.426  27.849  1.00  0.00     0.060 A 
ATOM     31  C   UNL A   1      35.233  30.072  28.167  1.00  0.00     0.016 A 
ATOM     32  C   UNL A   1      36.094  32.339  28.031  1.00  0.00     0.016 A 
ATOM     33  C   UNL A   1      36.430  29.635  28.728  1.00  0.00     0.010 A 
ATOM     34  C   UNL A   1      37.289  31.905  28.608  1.00  0.00     0.010 A 
ATOM     35  C   UNL A   1      37.445  30.561  28.998  1.00  0.00    -0.014 A 
BRANCH  35  36
ATOM     36  C   UNL A   1      38.582  30.174  29.865  1.00  0.00     0.031 A 
ATOM     37  C   UNL A   1      39.583  29.190  29.331  1.00  0.00     0.074 A 
ATOM     38  C   UNL A   1      38.729  30.694  31.095  1.00  0.00     0.049 A 
ATOM     39  N   UNL A   1      40.592  28.616  29.931  1.00  0.00    -0.248 NA
ATOM     40  C   UNL A   1      39.415  28.795  27.922  1.00  0.00     0.031 C 
ATOM     41  C   UNL A   1      37.852  31.692  31.701  1.00  0.00     0.029 A 
ATOM     42  N   UNL A   1      39.666  30.433  32.062  1.00  0.00    -0.354 N 
ATOM     43  C   UNL A   1      41.166  27.778  28.984  1.00  0.00     0.074 A 
ATOM     44  C   UNL A   1      40.382  27.903  27.775  1.00  0.00     0.031 C 
ATOM     45  C   UNL A   1      38.279  31.944  32.950  1.00  0.00     0.029 A 
ATOM     46  C   UNL A   1      39.433  31.096  33.241  1.00  0.00     0.049 A 
ATOM     47  H   UNL A   1      40.433  29.831  31.923  1.00  0.00     0.167 HD
ATOM     48  C   UNL A   1      42.249  26.976  29.112  1.00  0.00     0.037 A 
ATOM     49  C   UNL A   1      40.060  30.997  34.429  1.00  0.00     0.037 A 
ATOM     50  C   UNL A   1      43.025  26.859  30.318  1.00  0.00     0.049 A 
ATOM     51  C   UNL A   1      41.235  30.063  34.567  1.00  0.00     0.074 A 
ATOM     52  C   UNL A   1      44.144  26.081  30.556  1.00  0.00     0.029 A 
ATOM     53  N   UNL A   1      42.755  27.543  31.496  1.00  0.00    -0.354 N 
ATOM     54  N   UNL A   1      41.771  29.269  33.671  1.00  0.00    -0.248 NA
ATOM     55  C   UNL A   1      41.893  30.015  35.880  1.00  0.00     0.031 C 
ATOM     56  C   UNL A   1      44.525  26.260  31.891  1.00  0.00     0.029 A 
ATOM     57  C   UNL A   1      43.675  27.190  32.470  1.00  0.00     0.049 A 
ATOM     58  H   UNL A   1      42.019  28.183  31.621  1.00  0.00     0.167 HD
ATOM     59  C   UNL A   1      42.836  28.642  34.303  1.00  0.00     0.074 A 
ATOM     60  C   UNL A   1      42.882  29.161  35.655  1.00  0.00     0.031 C 
ATOM     61  C   UNL A   1      43.701  27.719  33.810  1.00  0.00     0.037 A 
BRANCH  48  62
ATOM     62  C   UNL A   1      42.628  26.136  27.928  1.00  0.00     0.064 A 
ATOM     63  C   UNL A   1      43.586  26.558  26.994  1.00  0.00     0.173 A 
ATOM     64  C   UNL A   1      42.020  24.887  27.722  1.00  0.00     0.173 A 
ATOM     65  F   UNL A   1      44.181  27.753  27.132  1.00  0.00    -0.203 F 
ATOM     66  C   UNL A   1      43.896  25.778  25.882  1.00  0.00     0.198 A 
ATOM     67  C   UNL A   1      42.355  24.096  26.627  1.00  0.00     0.198 A 
ATOM     68  F   UNL A   1      41.097  24.435  28.585  1.00  0.00    -0.203 F 
ATOM     69  F   UNL A   1      44.772  26.230  24.973  1.00  0.00    -0.200 F 
ATOM     70  C   UNL A   1      43.285  24.547  25.703  1.00  0.00     0.200 A 
ATOM     71  F   UNL A   1      41.769  22.902  26.460  1.00  0.00    -0.200 F 
ATOM     72  F   UNL A   1      43.585  23.798  24.632  1.00  0.00    -0.200 F 
ENDBRANCH  48  62
BRANCH  49  73
ATOM     73  C   UNL A   1      39.567  31.785  35.588  1.00  0.00     0.064 A 
ATOM     74  C   UNL A   1      40.088  33.053  35.879  1.00  0.00     0.173 A 
ATOM     75  C   UNL A   1      38.555  31.288  36.423  1.00  0.00     0.173 A 
ATOM     76  F   UNL A   1      41.075  33.561  35.127  1.00  0.00    -0.203 F 
ATOM     77  C   UNL A   1      39.619  33.791  36.966  1.00  0.00     0.198 A 
ATOM     78  C   UNL A   1      38.068  32.038  37.491  1.00  0.00     0.198 A 
ATOM     79  F   UNL A   1      38.025  30.078  36.188  1.00  0.00    -0.203 F 
ATOM     80  F   UNL A   1      40.157  34.986  37.243  1.00  0.00    -0.200 F 
ATOM     81  C   UNL A   1      38.604  33.286  37.765  1.00  0.00     0.200 A 
ATOM     82  F   UNL A   1      37.079  31.551  38.253  1.00  0.00    -0.200 F 
ATOM     83  F   UNL A   1      38.146  34.001  38.802  1.00  0.00    -0.200 F 
ENDBRANCH  49  73
BRANCH  61  84
ATOM     84  C   UNL A   1      44.784  27.236  34.729  1.00  0.00     0.064 A 
ATOM     85  C   UNL A   1      44.615  26.103  35.538  1.00  0.00     0.173 A 
ATOM     86  C   UNL A   1      46.022  27.898  34.776  1.00  0.00     0.173 A 
ATOM     87  F   UNL A   1      43.446  25.444  35.538  1.00  0.00    -0.203 F 
ATOM     88  C   UNL A   1      45.634  25.666  36.380  1.00  0.00     0.198 A 
ATOM     89  C   UNL A   1      47.048  27.442  35.598  1.00  0.00     0.198 A 
ATOM     90  F   UNL A   1      46.238  28.982  34.017  1.00  0.00    -0.203 F 
ATOM     91  F   UNL A   1      45.432  24.610  37.179  1.00  0.00    -0.200 F 
ATOM     92  C   UNL A   1      46.851  26.331  36.405  1.00  0.00     0.200 A 
ATOM     93  F   UNL A   1      48.227  28.078  35.611  1.00  0.00    -0.200 F 
ATOM     94  F   UNL A   1      47.831  25.908  37.214  1.00  0.00    -0.200 F 
ENDBRANCH  61  84
ENDBRANCH  35  36
ENDBRANCH  28  30
ENDBRANCH  27  28
ENDBRANCH  26  27
ENDBRANCH  25  26
ENDBRANCH  24  25
ENDBRANCH  23  24
ENDBRANCH   1  23
TORSDOF 21
ENDMDL
MODEL 3
REMARK VINA RESULT:     -10.2      0.470      2.044
REMARK SMILES COc1ccc([C@H](CC(=O)OCCOCCOCCOC(=O)c2ccc(-c3c4nc(c(-c5c(F)c(F)c(F)c(F)c5F)c5ccc([nH]5)c(-c5c(F)c(F)c(F)c(F)c5F)c5nc(c(-c6c(F)c(F)c(F)c(F)c6F)c6ccc3[nH]6)C=C5)C=C4)cc2)NC(C)=O)cc1
REMARK SMILES IDX 15 1 14 2 13 3 12 4 11 5 9 6 10 7 8 8 7 9 6 10 3 11 4 12
REMARK SMILES IDX 91 13 5 14 90 15 2 16 1 17 86 18 87 19 88 21 89 22 16 23
REMARK SMILES IDX 17 24 18 25 19 26 20 27 21 28 22 29 23 30 24 31 85 32 25 33
REMARK SMILES IDX 84 34 26 35 27 36 28 37 78 38 29 39 83 40 77 41 79 42 30 43
REMARK SMILES IDX 82 44 76 45 75 46 31 48 63 49 43 50 62 51 44 52 47 53 61 54
REMARK SMILES IDX 80 55 45 56 46 57 60 59 81 60 48 61 32 62 33 63 41 64 34 65
REMARK SMILES IDX 35 66 39 67 42 68 36 69 37 70 40 71 38 72 64 73 65 74 73 75
REMARK SMILES IDX 66 76 67 77 71 78 74 79 68 80 69 81 72 82 70 83 49 84 50 85
REMARK SMILES IDX 58 86 51 87 52 88 56 89 59 90 53 91 54 92 57 93 55 94
REMARK H PARENT 86 20 79 47 47 58
REMARK Flexibility Score: inf
ROOT
ATOM      1  C   UNL A   1      33.118  26.577  25.931  1.00  0.00     0.188 C 
ENDROOT
BRANCH   1   2
ATOM      2  O   UNL A   1      33.859  25.366  26.034  1.00  0.00    -0.376 OA
BRANCH   2   3
ATOM      3  C   UNL A   1      34.665  24.961  24.925  1.00  0.00     0.202 C 
BRANCH   3   4
ATOM      4  C   UNL A   1      35.914  24.136  25.257  1.00  0.00     0.261 C 
BRANCH   4   5
ATOM      5  O   UNL A   1      35.592  22.857  25.846  1.00  0.00    -0.463 OA
BRANCH   5   6
ATOM      6  C   UNL A   1      35.935  21.785  25.095  1.00  0.00     0.308 C 
ATOM      7  O   UNL A   1      36.886  21.777  24.318  1.00  0.00    -0.252 OA
BRANCH   6   8
ATOM      8  C   UNL A   1      35.239  20.506  25.518  1.00  0.00     0.152 C 
BRANCH   8   9
ATOM      9  C   UNL A   1      33.772  20.186  25.164  1.00  0.00     0.123 C 
BRANCH   9  10
ATOM     10  C   UNL A   1      32.995  21.473  24.771  1.00  0.00    -0.025 A 
ATOM     11  C   UNL A   1      31.260  23.583  24.010  1.00  0.00     0.118 A 
ATOM     12  C   UNL A   1      32.157  23.039  23.097  1.00  0.00     0.047 A 
ATOM     13  C   UNL A   1      31.240  23.098  25.315  1.00  0.00     0.047 A 
ATOM     14  C   UNL A   1      33.009  21.999  23.468  1.00  0.00     0.010 A 
ATOM     15  C   UNL A   1      32.111  22.064  25.696  1.00  0.00     0.010 A 
BRANCH  11  16
ATOM     16  O   UNL A   1      30.428  24.529  23.484  1.00  0.00    -0.497 OA
ATOM     17  C   UNL A   1      31.052  25.606  22.801  1.00  0.00     0.278 C 
ENDBRANCH  11  16
ENDBRANCH   9  10
BRANCH   9  18
ATOM     18  N   UNL A   1      33.624  19.332  23.975  1.00  0.00    -0.349 N 
ATOM     19  C   UNL A   1      32.618  18.395  23.858  1.00  0.00     0.217 C 
ATOM     20  H   UNL A   1      34.267  19.433  23.236  1.00  0.00     0.164 HD
ATOM     21  C   UNL A   1      32.264  18.030  22.433  1.00  0.00     0.114 C 
ATOM     22  O   UNL A   1      32.002  17.939  24.814  1.00  0.00    -0.275 OA
ENDBRANCH   9  18
ENDBRANCH   8   9
ENDBRANCH   6   8
ENDBRANCH   5   6
ENDBRANCH   4   5
ENDBRANCH   3   4
ENDBRANCH   2   3
ENDBRANCH   1   2
BRANCH   1  23
ATOM     23  C   UNL A   1      31.666  26.589  26.419  1.00  0.00     0.188 C 
BRANCH  23  24
ATOM     24  O   UNL A   1      31.054  27.855  26.282  1.00  0.00    -0.376 OA
BRANCH  24  25
ATOM     25  C   UNL A   1      31.556  28.692  25.257  1.00  0.00     0.202 C 
BRANCH  25  26
ATOM     26  C   UNL A   1      31.824  30.097  25.801  1.00  0.00     0.261 C 
BRANCH  26  27
ATOM     27  O   UNL A   1      32.662  30.106  26.977  1.00  0.00    -0.460 OA
BRANCH  27  28
ATOM     28  C   UNL A   1      33.273  31.278  27.252  1.00  0.00     0.338 C 
ATOM     29  O   UNL A   1      32.755  32.389  27.301  1.00  0.00    -0.246 OA
BRANCH  28  30
ATOM     30  C   UNL A   1      34.645  31.009  27.716  1.00  0.00     0.060 A 
ATOM     31  C   UNL A   1      35.034  29.676  27.908  1.00  0.00     0.016 A 
ATOM     32  C   UNL A   1      35.524  32.054  28.000  1.00  0.00     0.016 A 
ATOM     33  C   UNL A   1      36.285  29.383  28.444  1.00  0.00     0.010 A 
ATOM     34  C   UNL A   1      36.772  31.761  28.552  1.00  0.00     0.010 A 
ATOM     35  C   UNL A   1      37.140  30.428  28.816  1.00  0.00    -0.014 A 
BRANCH  35  36
ATOM     36  C   UNL A   1      38.323  30.145  29.660  1.00  0.00     0.031 A 
ATOM     37  C   UNL A   1      39.360  29.191  29.138  1.00  0.00     0.074 A 
ATOM     38  C   UNL A   1      38.480  30.731  30.859  1.00  0.00     0.049 A 
ATOM     39  N   UNL A   1      40.417  28.701  29.730  1.00  0.00    -0.248 NA
ATOM     40  C   UNL A   1      39.169  28.719  27.756  1.00  0.00     0.031 C 
ATOM     41  C   UNL A   1      37.569  31.708  31.447  1.00  0.00     0.029 A 
ATOM     42  N   UNL A   1      39.461  30.567  31.804  1.00  0.00    -0.354 N 
ATOM     43  C   UNL A   1      41.006  27.850  28.803  1.00  0.00     0.074 A 
ATOM     44  C   UNL A   1      40.179  27.874  27.617  1.00  0.00     0.031 C 
ATOM     45  C   UNL A   1      38.021  32.042  32.668  1.00  0.00     0.029 A 
ATOM     46  C   UNL A   1      39.230  31.273  32.959  1.00  0.00     0.049 A 
ATOM     47  H   UNL A   1      40.255  30.001  31.667  1.00  0.00     0.167 HD
ATOM     48  C   UNL A   1      42.136  27.114  28.931  1.00  0.00     0.037 A 
ATOM     49  C   UNL A   1      39.898  31.265  34.127  1.00  0.00     0.037 A 
ATOM     50  C   UNL A   1      42.955  27.098  30.114  1.00  0.00     0.049 A 
ATOM     51  C   UNL A   1      41.127  30.403  34.268  1.00  0.00     0.074 A 
ATOM     52  C   UNL A   1      44.122  26.394  30.349  1.00  0.00     0.029 A 
ATOM     53  N   UNL A   1      42.685  27.822  31.267  1.00  0.00    -0.354 N 
ATOM     54  N   UNL A   1      41.677  29.596  33.392  1.00  0.00    -0.248 NA
ATOM     55  C   UNL A   1      41.828  30.454  35.558  1.00  0.00     0.031 C 
ATOM     56  C   UNL A   1      44.535  26.657  31.660  1.00  0.00     0.029 A 
ATOM     57  C   UNL A   1      43.654  27.567  32.225  1.00  0.00     0.049 A 
ATOM     58  H   UNL A   1      41.919  28.428  31.387  1.00  0.00     0.167 HD
ATOM     59  C   UNL A   1      42.795  29.059  34.015  1.00  0.00     0.074 A 
ATOM     60  C   UNL A   1      42.855  29.644  35.339  1.00  0.00     0.031 C 
ATOM     61  C   UNL A   1      43.693  28.161  33.537  1.00  0.00     0.037 A 
BRANCH  48  62
ATOM     62  C   UNL A   1      42.522  26.240  27.775  1.00  0.00     0.064 A 
ATOM     63  C   UNL A   1      43.498  26.627  26.845  1.00  0.00     0.173 A 
ATOM     64  C   UNL A   1      41.903  24.993  27.593  1.00  0.00     0.173 A 
ATOM     65  F   UNL A   1      44.104  27.819  26.960  1.00  0.00    -0.203 F 
ATOM     66  C   UNL A   1      43.816  25.815  25.758  1.00  0.00     0.198 A 
ATOM     67  C   UNL A   1      42.246  24.170  26.524  1.00  0.00     0.198 A 
ATOM     68  F   UNL A   1      40.963  24.573  28.454  1.00  0.00    -0.203 F 
ATOM     69  F   UNL A   1      44.709  26.234  24.850  1.00  0.00    -0.200 F 
ATOM     70  C   UNL A   1      43.194  24.586  25.602  1.00  0.00     0.200 A 
ATOM     71  F   UNL A   1      41.650  22.978  26.380  1.00  0.00    -0.200 F 
ATOM     72  F   UNL A   1      43.501  23.806  24.556  1.00  0.00    -0.200 F 
ENDBRANCH  48  62
BRANCH  49  73
ATOM     73  C   UNL A   1      39.400  32.081  35.265  1.00  0.00     0.064 A 
ATOM     74  C   UNL A   1      39.738  33.435  35.391  1.00  0.00     0.173 A 
ATOM     75  C   UNL A   1      38.565  31.522  36.244  1.00  0.00     0.173 A 
ATOM     76  F   UNL A   1      40.555  34.008  34.496  1.00  0.00    -0.203 F 
ATOM     77  C   UNL A   1      39.265  34.197  36.459  1.00  0.00     0.198 A 
ATOM     78  C   UNL A   1      38.069  32.292  37.294  1.00  0.00     0.198 A 
ATOM     79  F   UNL A   1      38.213  30.230  36.169  1.00  0.00    -0.203 F 
ATOM     80  F   UNL A   1      39.630  35.481  36.576  1.00  0.00    -0.200 F 
ATOM     81  C   UNL A   1      38.424  33.627  37.403  1.00  0.00     0.200 A 
ATOM     82  F   UNL A   1      37.248  31.741  38.198  1.00  0.00    -0.200 F 
ATOM     83  F   UNL A   1      37.960  34.365  38.422  1.00  0.00    -0.200 F 
ENDBRANCH  49  73
BRANCH  61  84
ATOM     84  C   UNL A   1      44.830  27.782  34.440  1.00  0.00     0.064 A 
ATOM     85  C   UNL A   1      44.737  26.702  35.330  1.00  0.00     0.173 A 
ATOM     86  C   UNL A   1      46.043  28.488  34.388  1.00  0.00     0.173 A 
ATOM     87  F   UNL A   1      43.595  26.004  35.425  1.00  0.00    -0.203 F 
ATOM     88  C   UNL A   1      45.805  26.361  36.156  1.00  0.00     0.198 A 
ATOM     89  C   UNL A   1      47.117  28.127  35.195  1.00  0.00     0.198 A 
ATOM     90  F   UNL A   1      46.186  29.524  33.548  1.00  0.00    -0.203 F 
ATOM     91  F   UNL A   1      45.676  25.357  37.033  1.00  0.00    -0.200 F 
ATOM     92  C   UNL A   1      46.995  27.069  36.083  1.00  0.00     0.200 A 
ATOM     93  F   UNL A   1      48.271  28.803  35.114  1.00  0.00    -0.200 F 
ATOM     94  F   UNL A   1      48.023  26.738  36.877  1.00  0.00    -0.200 F 
ENDBRANCH  61  84
ENDBRANCH  35  36
ENDBRANCH  28  30
ENDBRANCH  27  28
ENDBRANCH  26  27
ENDBRANCH  25  26
ENDBRANCH  24  25
ENDBRANCH  23  24
ENDBRANCH   1  23
TORSDOF 21
ENDMDL
