MODEL 1
REMARK VINA RESULT:     -11.5      0.000      0.000
REMARK SMILES CC[NH+]1CCN(c2ccc(NC(=O)C3CCCC3)c(C(=O)OCCOCCOCCOC(=O)c3ccc(-c4c5nc(c(-c6c(F)c(F)c(F)c(F)c6F)c6ccc([nH]6)c(-c6c(F)c(F)c(F)c(F)c6F)c6nc(c(-c7c(F)c(F)c(F)c(F)c7F)c7ccc4[nH]7)C=C6)C=C5)cc3)c2)CC1
REMARK SMILES IDX 26 1 25 2 24 3 23 4 22 5 20 6 21 7 19 8 7 9 8 10 97 11 9 12
REMARK SMILES IDX 10 13 6 14 3 15 4 16 99 17 5 19 98 20 2 21 1 22 11 23 12 24
REMARK SMILES IDX 13 26 14 27 15 28 18 29 16 30 17 31 27 32 28 33 29 34 30 35
REMARK SMILES IDX 31 36 32 37 33 38 34 39 35 40 96 41 36 42 95 43 37 44 38 45
REMARK SMILES IDX 39 46 89 47 40 48 94 49 88 50 90 51 41 52 93 53 87 54 86 55
REMARK SMILES IDX 42 57 74 58 54 59 73 60 55 61 58 62 72 63 91 64 56 65 57 66
REMARK SMILES IDX 71 68 92 69 59 70 43 71 44 72 52 73 45 74 46 75 50 76 53 77
REMARK SMILES IDX 47 78 48 79 51 80 49 81 75 82 76 83 84 84 77 85 78 86 82 87
REMARK SMILES IDX 85 88 79 89 80 90 83 91 81 92 60 93 61 94 69 95 62 96 63 97
REMARK SMILES IDX 67 98 70 99 64 100 65 101 68 102 66 103
REMARK H PARENT 3 18 11 25 90 56 58 67
REMARK Flexibility Score: inf
ROOT
ATOM      1  C   UNL A   1      32.246  29.421  26.638  1.00  0.00     0.188 C 
ENDROOT
BRANCH   1   2
ATOM      2  O   UNL A   1      32.854  28.259  26.082  1.00  0.00    -0.376 OA
BRANCH   2   3
ATOM      3  C   UNL A   1      32.876  27.058  26.848  1.00  0.00     0.202 C 
BRANCH   3   4
ATOM      4  C   UNL A   1      31.701  26.099  26.636  1.00  0.00     0.261 C 
BRANCH   4   5
ATOM      5  O   UNL A   1      32.145  24.752  26.391  1.00  0.00    -0.460 OA
BRANCH   5   6
ATOM      6  C   UNL A   1      31.202  23.773  26.477  1.00  0.00     0.340 C 
ATOM      7  O   UNL A   1      30.257  23.729  27.231  1.00  0.00    -0.246 OA
BRANCH   6   8
ATOM      8  C   UNL A   1      31.349  22.913  25.275  1.00  0.00     0.085 A 
ATOM      9  C   UNL A   1      32.394  20.953  24.229  1.00  0.00     0.038 A 
ATOM     10  C   UNL A   1      32.210  21.626  23.012  1.00  0.00     0.028 A 
ATOM     11  C   UNL A   1      32.021  21.677  25.371  1.00  0.00     0.043 A 
ATOM     12  C   UNL A   1      31.563  22.858  22.923  1.00  0.00     0.029 A 
ATOM     13  C   UNL A   1      30.963  23.418  24.028  1.00  0.00     0.055 A 
BRANCH   9  14
ATOM     14  N   UNL A   1      32.992  19.706  24.291  1.00  0.00    -0.360 N 
ATOM     15  N   UNL A   1      34.327  17.062  24.095  1.00  0.00    -0.332 N 
ATOM     16  C   UNL A   1      33.113  17.428  23.345  1.00  0.00     0.283 C 
ATOM     17  C   UNL A   1      35.072  18.313  24.392  1.00  0.00     0.283 C 
ATOM     18  H   UNL A   1      34.872  16.433  23.506  1.00  0.00     0.348 HD
ATOM     19  C   UNL A   1      32.223  18.472  24.039  1.00  0.00     0.178 C 
ATOM     20  C   UNL A   1      34.247  19.463  25.039  1.00  0.00     0.178 C 
BRANCH  15  21
ATOM     21  C   UNL A   1      34.089  16.284  25.318  1.00  0.00     0.258 C 
ATOM     22  C   UNL A   1      32.892  15.335  25.268  1.00  0.00     0.071 C 
ENDBRANCH  15  21
ENDBRANCH   9  14
BRANCH  13  23
ATOM     23  N   UNL A   1      30.084  24.502  23.909  1.00  0.00    -0.325 N 
ATOM     24  C   UNL A   1      30.240  25.802  23.550  1.00  0.00     0.227 C 
ATOM     25  H   UNL A   1      29.154  24.271  24.135  1.00  0.00     0.169 HD
ATOM     26  O   UNL A   1      29.245  26.521  23.746  1.00  0.00    -0.274 OA
BRANCH  24  27
ATOM     27  C   UNL A   1      31.457  26.445  22.853  1.00  0.00     0.079 C 
ATOM     28  C   UNL A   1      32.916  26.270  23.260  1.00  0.00     0.013 C 
ATOM     29  C   UNL A   1      31.477  25.930  21.392  1.00  0.00     0.013 C 
ATOM     30  C   UNL A   1      33.708  26.629  22.015  1.00  0.00     0.001 C 
ATOM     31  C   UNL A   1      32.926  25.969  20.904  1.00  0.00     0.001 C 
ENDBRANCH  24  27
ENDBRANCH  13  23
ENDBRANCH   6   8
ENDBRANCH   5   6
ENDBRANCH   4   5
ENDBRANCH   3   4
ENDBRANCH   2   3
ENDBRANCH   1   2
BRANCH   1  32
ATOM     32  C   UNL A   1      31.413  30.328  25.714  1.00  0.00     0.188 C 
BRANCH  32  33
ATOM     33  O   UNL A   1      31.379  31.670  26.176  1.00  0.00    -0.376 OA
BRANCH  33  34
ATOM     34  C   UNL A   1      32.276  32.009  27.216  1.00  0.00     0.202 C 
BRANCH  34  35
ATOM     35  C   UNL A   1      32.695  33.483  27.246  1.00  0.00     0.261 C 
BRANCH  35  36
ATOM     36  O   UNL A   1      32.338  34.208  28.434  1.00  0.00    -0.460 OA
BRANCH  36  37
ATOM     37  C   UNL A   1      33.131  35.236  28.803  1.00  0.00     0.338 C 
ATOM     38  O   UNL A   1      32.901  36.426  28.687  1.00  0.00    -0.246 OA
BRANCH  37  39
ATOM     39  C   UNL A   1      34.297  34.665  29.512  1.00  0.00     0.060 A 
ATOM     40  C   UNL A   1      35.554  34.691  28.896  1.00  0.00     0.016 A 
ATOM     41  C   UNL A   1      34.148  34.119  30.790  1.00  0.00     0.016 A 
ATOM     42  C   UNL A   1      36.666  34.161  29.560  1.00  0.00     0.010 A 
ATOM     43  C   UNL A   1      35.256  33.577  31.445  1.00  0.00     0.010 A 
ATOM     44  C   UNL A   1      36.521  33.583  30.831  1.00  0.00    -0.014 A 
BRANCH  44  45
ATOM     45  C   UNL A   1      37.662  32.907  31.495  1.00  0.00     0.031 A 
ATOM     46  C   UNL A   1      38.307  31.724  30.835  1.00  0.00     0.074 A 
ATOM     47  C   UNL A   1      38.108  33.327  32.694  1.00  0.00     0.049 A 
ATOM     48  N   UNL A   1      39.262  30.943  31.274  1.00  0.00    -0.248 NA
ATOM     49  C   UNL A   1      37.811  31.374  29.495  1.00  0.00     0.031 C 
ATOM     50  C   UNL A   1      37.597  34.483  33.422  1.00  0.00     0.029 A 
ATOM     51  N   UNL A   1      39.090  32.818  33.509  1.00  0.00    -0.354 N 
ATOM     52  C   UNL A   1      39.479  30.009  30.270  1.00  0.00     0.074 A 
ATOM     53  C   UNL A   1      38.544  30.309  29.205  1.00  0.00     0.031 C 
ATOM     54  C   UNL A   1      38.262  34.594  34.584  1.00  0.00     0.029 A 
ATOM     55  C   UNL A   1      39.217  33.494  34.697  1.00  0.00     0.049 A 
ATOM     56  H   UNL A   1      39.647  32.045  33.265  1.00  0.00     0.167 HD
ATOM     57  C   UNL A   1      40.376  28.995  30.240  1.00  0.00     0.037 A 
ATOM     58  C   UNL A   1      39.997  33.238  35.766  1.00  0.00     0.037 A 
ATOM     59  C   UNL A   1      41.296  28.685  31.302  1.00  0.00     0.049 A 
ATOM     60  C   UNL A   1      40.924  32.050  35.742  1.00  0.00     0.074 A 
ATOM     61  C   UNL A   1      42.256  27.689  31.350  1.00  0.00     0.029 A 
ATOM     62  N   UNL A   1      41.360  29.360  32.513  1.00  0.00    -0.354 N 
ATOM     63  N   UNL A   1      41.142  31.188  34.780  1.00  0.00    -0.248 NA
ATOM     64  C   UNL A   1      41.708  31.796  36.961  1.00  0.00     0.031 C 
ATOM     65  C   UNL A   1      42.868  27.729  32.608  1.00  0.00     0.029 A 
ATOM     66  C   UNL A   1      42.320  28.779  33.327  1.00  0.00     0.049 A 
ATOM     67  H   UNL A   1      40.805  30.135  32.757  1.00  0.00     0.167 HD
ATOM     68  C   UNL A   1      42.093  30.301  35.269  1.00  0.00     0.074 A 
ATOM     69  C   UNL A   1      42.427  30.740  36.607  1.00  0.00     0.031 C 
ATOM     70  C   UNL A   1      42.638  29.218  34.661  1.00  0.00     0.037 A 
BRANCH  57  71
ATOM     71  C   UNL A   1      40.384  28.120  29.023  1.00  0.00     0.064 A 
ATOM     72  C   UNL A   1      41.165  28.432  27.900  1.00  0.00     0.173 A 
ATOM     73  C   UNL A   1      39.630  26.938  28.994  1.00  0.00     0.173 A 
ATOM     74  F   UNL A   1      41.892  29.559  27.874  1.00  0.00    -0.203 F 
ATOM     75  C   UNL A   1      41.174  27.599  26.783  1.00  0.00     0.198 A 
ATOM     76  C   UNL A   1      39.659  26.097  27.885  1.00  0.00     0.198 A 
ATOM     77  F   UNL A   1      38.870  26.595  30.045  1.00  0.00    -0.203 F 
ATOM     78  F   UNL A   1      41.896  27.935  25.705  1.00  0.00    -0.200 F 
ATOM     79  C   UNL A   1      40.426  26.430  26.779  1.00  0.00     0.200 A 
ATOM     80  F   UNL A   1      38.944  24.964  27.887  1.00  0.00    -0.200 F 
ATOM     81  F   UNL A   1      40.440  25.629  25.706  1.00  0.00    -0.200 F 
ENDBRANCH  57  71
BRANCH  58  82
ATOM     82  C   UNL A   1      39.918  34.108  36.968  1.00  0.00     0.064 A 
ATOM     83  C   UNL A   1      39.056  33.798  38.028  1.00  0.00     0.173 A 
ATOM     84  C   UNL A   1      40.681  35.281  37.068  1.00  0.00     0.173 A 
ATOM     85  F   UNL A   1      38.275  32.711  37.961  1.00  0.00    -0.203 F 
ATOM     86  C   UNL A   1      38.950  34.637  39.137  1.00  0.00     0.198 A 
ATOM     87  C   UNL A   1      40.594  36.105  38.188  1.00  0.00     0.198 A 
ATOM     88  F   UNL A   1      41.507  35.632  36.070  1.00  0.00    -0.203 F 
ATOM     89  F   UNL A   1      38.076  34.347  40.112  1.00  0.00    -0.200 F 
ATOM     90  C   UNL A   1      39.723  35.786  39.219  1.00  0.00     0.200 A 
ATOM     91  F   UNL A   1      41.339  37.216  38.260  1.00  0.00    -0.200 F 
ATOM     92  F   UNL A   1      39.613  36.595  40.280  1.00  0.00    -0.200 F 
ENDBRANCH  58  82
BRANCH  70  93
ATOM     93  C   UNL A   1      43.659  28.434  35.435  1.00  0.00     0.064 A 
ATOM     94  C   UNL A   1      43.278  27.464  36.374  1.00  0.00     0.173 A 
ATOM     95  C   UNL A   1      45.030  28.624  35.205  1.00  0.00     0.173 A 
ATOM     96  F   UNL A   1      41.980  27.255  36.640  1.00  0.00    -0.203 F 
ATOM     97  C   UNL A   1      44.233  26.727  37.069  1.00  0.00     0.198 A 
ATOM     98  C   UNL A   1      45.981  27.866  35.882  1.00  0.00     0.198 A 
ATOM     99  F   UNL A   1      45.446  29.534  34.312  1.00  0.00    -0.203 F 
ATOM    100  F   UNL A   1      43.847  25.834  37.990  1.00  0.00    -0.200 F 
ATOM    101  C   UNL A   1      45.583  26.924  36.817  1.00  0.00     0.200 A 
ATOM    102  F   UNL A   1      47.285  28.048  35.629  1.00  0.00    -0.200 F 
ATOM    103  F   UNL A   1      46.501  26.207  37.482  1.00  0.00    -0.200 F 
ENDBRANCH  70  93
ENDBRANCH  44  45
ENDBRANCH  37  39
ENDBRANCH  36  37
ENDBRANCH  35  36
ENDBRANCH  34  35
ENDBRANCH  33  34
ENDBRANCH  32  33
ENDBRANCH   1  32
TORSDOF 21
ENDMDL
MODEL 2
REMARK VINA RESULT:     -11.2      2.045      8.351
REMARK SMILES CC[NH+]1CCN(c2ccc(NC(=O)C3CCCC3)c(C(=O)OCCOCCOCCOC(=O)c3ccc(-c4c5nc(c(-c6c(F)c(F)c(F)c(F)c6F)c6ccc([nH]6)c(-c6c(F)c(F)c(F)c(F)c6F)c6nc(c(-c7c(F)c(F)c(F)c(F)c7F)c7ccc4[nH]7)C=C6)C=C5)cc3)c2)CC1
REMARK SMILES IDX 26 1 25 2 24 3 23 4 22 5 20 6 21 7 19 8 7 9 8 10 97 11 9 12
REMARK SMILES IDX 10 13 6 14 3 15 4 16 99 17 5 19 98 20 2 21 1 22 11 23 12 24
REMARK SMILES IDX 13 26 14 27 15 28 18 29 16 30 17 31 27 32 28 33 29 34 30 35
REMARK SMILES IDX 31 36 32 37 33 38 34 39 35 40 96 41 36 42 95 43 37 44 38 45
REMARK SMILES IDX 39 46 89 47 40 48 94 49 88 50 90 51 41 52 93 53 87 54 86 55
REMARK SMILES IDX 42 57 74 58 54 59 73 60 55 61 58 62 72 63 91 64 56 65 57 66
REMARK SMILES IDX 71 68 92 69 59 70 43 71 44 72 52 73 45 74 46 75 50 76 53 77
REMARK SMILES IDX 47 78 48 79 51 80 49 81 75 82 76 83 84 84 77 85 78 86 82 87
REMARK SMILES IDX 85 88 79 89 80 90 83 91 81 92 60 93 61 94 69 95 62 96 63 97
REMARK SMILES IDX 67 98 70 99 64 100 65 101 68 102 66 103
REMARK H PARENT 3 18 11 25 90 56 58 67
REMARK Flexibility Score: inf
ROOT
ATOM      1  C   UNL A   1      32.500  29.596  26.880  1.00  0.00     0.188 C 
ENDROOT
BRANCH   1   2
ATOM      2  O   UNL A   1      33.824  29.188  26.549  1.00  0.00    -0.376 OA
BRANCH   2   3
ATOM      3  C   UNL A   1      34.046  27.846  26.124  1.00  0.00     0.202 C 
BRANCH   3   4
ATOM      4  C   UNL A   1      33.626  27.512  24.690  1.00  0.00     0.261 C 
BRANCH   4   5
ATOM      5  O   UNL A   1      34.021  26.181  24.311  1.00  0.00    -0.460 OA
BRANCH   5   6
ATOM      6  C   UNL A   1      33.635  25.757  23.076  1.00  0.00     0.340 C 
ATOM      7  O   UNL A   1      34.317  25.202  22.245  1.00  0.00    -0.246 OA
BRANCH   6   8
ATOM      8  C   UNL A   1      32.152  25.810  23.036  1.00  0.00     0.085 A 
ATOM      9  C   UNL A   1      30.112  27.177  23.067  1.00  0.00     0.038 A 
ATOM     10  C   UNL A   1      29.480  26.047  23.606  1.00  0.00     0.028 A 
ATOM     11  C   UNL A   1      31.495  27.046  22.869  1.00  0.00     0.043 A 
ATOM     12  C   UNL A   1      30.138  24.830  23.789  1.00  0.00     0.029 A 
ATOM     13  C   UNL A   1      31.423  24.651  23.330  1.00  0.00     0.055 A 
BRANCH   9  14
ATOM     14  N   UNL A   1      29.429  28.360  22.845  1.00  0.00    -0.360 N 
ATOM     15  N   UNL A   1      27.957  30.809  22.044  1.00  0.00    -0.332 N 
ATOM     16  C   UNL A   1      29.275  30.432  21.509  1.00  0.00     0.283 C 
ATOM     17  C   UNL A   1      27.265  29.566  22.470  1.00  0.00     0.283 C 
ATOM     18  H   UNL A   1      27.448  31.284  21.298  1.00  0.00     0.348 HD
ATOM     19  C   UNL A   1      30.140  29.598  22.468  1.00  0.00     0.178 C 
ATOM     20  C   UNL A   1      28.077  28.614  23.395  1.00  0.00     0.178 C 
BRANCH  15  21
ATOM     21  C   UNL A   1      27.989  31.797  23.132  1.00  0.00     0.258 C 
ATOM     22  C   UNL A   1      28.745  33.087  22.823  1.00  0.00     0.071 C 
ENDBRANCH  15  21
ENDBRANCH   9  14
BRANCH  13  23
ATOM     23  N   UNL A   1      31.999  23.377  23.254  1.00  0.00    -0.325 N 
ATOM     24  C   UNL A   1      32.774  22.645  24.096  1.00  0.00     0.227 C 
ATOM     25  H   UNL A   1      31.799  22.912  22.410  1.00  0.00     0.169 HD
ATOM     26  O   UNL A   1      33.256  21.614  23.598  1.00  0.00    -0.274 OA
BRANCH  24  27
ATOM     27  C   UNL A   1      33.037  22.904  25.594  1.00  0.00     0.079 C 
ATOM     28  C   UNL A   1      32.056  22.645  26.733  1.00  0.00     0.013 C 
ATOM     29  C   UNL A   1      34.239  22.020  26.010  1.00  0.00     0.013 C 
ATOM     30  C   UNL A   1      32.926  22.546  27.973  1.00  0.00     0.001 C 
ATOM     31  C   UNL A   1      34.106  21.727  27.506  1.00  0.00     0.001 C 
ENDBRANCH  24  27
ENDBRANCH  13  23
ENDBRANCH   6   8
ENDBRANCH   5   6
ENDBRANCH   4   5
ENDBRANCH   3   4
ENDBRANCH   2   3
ENDBRANCH   1   2
BRANCH   1  32
ATOM     32  C   UNL A   1      31.623  30.213  25.774  1.00  0.00     0.188 C 
BRANCH  32  33
ATOM     33  O   UNL A   1      31.408  31.601  25.978  1.00  0.00    -0.376 OA
BRANCH  33  34
ATOM     34  C   UNL A   1      31.780  32.125  27.239  1.00  0.00     0.202 C 
BRANCH  34  35
ATOM     35  C   UNL A   1      32.521  33.465  27.183  1.00  0.00     0.261 C 
BRANCH  35  36
ATOM     36  O   UNL A   1      32.306  34.344  28.299  1.00  0.00    -0.460 OA
BRANCH  36  37
ATOM     37  C   UNL A   1      33.322  35.153  28.666  1.00  0.00     0.338 C 
ATOM     38  O   UNL A   1      33.334  36.369  28.674  1.00  0.00    -0.246 OA
BRANCH  37  39
ATOM     39  C   UNL A   1      34.402  34.294  29.199  1.00  0.00     0.060 A 
ATOM     40  C   UNL A   1      34.086  33.280  30.111  1.00  0.00     0.016 A 
ATOM     41  C   UNL A   1      35.724  34.483  28.784  1.00  0.00     0.016 A 
ATOM     42  C   UNL A   1      35.099  32.455  30.615  1.00  0.00     0.010 A 
ATOM     43  C   UNL A   1      36.735  33.669  29.300  1.00  0.00     0.010 A 
ATOM     44  C   UNL A   1      36.432  32.657  30.228  1.00  0.00    -0.014 A 
BRANCH  44  45
ATOM     45  C   UNL A   1      37.532  31.876  30.846  1.00  0.00     0.031 A 
ATOM     46  C   UNL A   1      37.971  32.196  32.245  1.00  0.00     0.074 A 
ATOM     47  C   UNL A   1      38.155  30.902  30.158  1.00  0.00     0.049 A 
ATOM     48  N   UNL A   1      38.957  31.692  32.945  1.00  0.00    -0.248 NA
ATOM     49  C   UNL A   1      37.191  33.222  32.955  1.00  0.00     0.031 C 
ATOM     50  C   UNL A   1      37.802  30.466  28.811  1.00  0.00     0.029 A 
ATOM     51  N   UNL A   1      39.224  30.109  30.502  1.00  0.00    -0.354 N 
ATOM     52  C   UNL A   1      38.920  32.339  34.172  1.00  0.00     0.074 A 
ATOM     53  C   UNL A   1      37.825  33.286  34.117  1.00  0.00     0.031 C 
ATOM     54  C   UNL A   1      38.644  29.490  28.435  1.00  0.00     0.029 A 
ATOM     55  C   UNL A   1      39.618  29.259  29.499  1.00  0.00     0.049 A 
ATOM     56  H   UNL A   1      39.663  30.148  31.382  1.00  0.00     0.167 HD
ATOM     57  C   UNL A   1      39.725  32.160  35.245  1.00  0.00     0.037 A 
ATOM     58  C   UNL A   1      40.663  28.410  29.436  1.00  0.00     0.037 A 
ATOM     59  C   UNL A   1      40.822  31.230  35.298  1.00  0.00     0.049 A 
ATOM     60  C   UNL A   1      41.597  28.294  30.613  1.00  0.00     0.074 A 
ATOM     61  C   UNL A   1      41.680  30.965  36.352  1.00  0.00     0.029 A 
ATOM     62  N   UNL A   1      41.225  30.423  34.244  1.00  0.00    -0.354 N 
ATOM     63  N   UNL A   1      41.541  28.890  31.778  1.00  0.00    -0.248 NA
ATOM     64  C   UNL A   1      42.748  27.391  30.459  1.00  0.00     0.031 C 
ATOM     65  C   UNL A   1      42.631  30.034  35.921  1.00  0.00     0.029 A 
ATOM     66  C   UNL A   1      42.339  29.685  34.613  1.00  0.00     0.049 A 
ATOM     67  H   UNL A   1      40.785  30.382  33.365  1.00  0.00     0.167 HD
ATOM     68  C   UNL A   1      42.634  28.426  32.499  1.00  0.00     0.074 A 
ATOM     69  C   UNL A   1      43.328  27.482  31.648  1.00  0.00     0.031 C 
ATOM     70  C   UNL A   1      43.028  28.756  33.754  1.00  0.00     0.037 A 
BRANCH  57  71
ATOM     71  C   UNL A   1      39.467  33.015  36.450  1.00  0.00     0.064 A 
ATOM     72  C   UNL A   1      38.584  32.609  37.462  1.00  0.00     0.173 A 
ATOM     73  C   UNL A   1      40.137  34.236  36.609  1.00  0.00     0.173 A 
ATOM     74  F   UNL A   1      37.909  31.455  37.348  1.00  0.00    -0.203 F 
ATOM     75  C   UNL A   1      38.367  33.408  38.583  1.00  0.00     0.198 A 
ATOM     76  C   UNL A   1      39.935  35.020  37.741  1.00  0.00     0.198 A 
ATOM     77  F   UNL A   1      40.993  34.665  35.670  1.00  0.00    -0.203 F 
ATOM     78  F   UNL A   1      37.491  33.020  39.519  1.00  0.00    -0.200 F 
ATOM     79  C   UNL A   1      39.048  34.609  38.724  1.00  0.00     0.200 A 
ATOM     80  F   UNL A   1      40.600  36.176  37.881  1.00  0.00    -0.200 F 
ATOM     81  F   UNL A   1      38.841  35.373  39.805  1.00  0.00    -0.200 F 
ENDBRANCH  57  71
BRANCH  58  82
ATOM     82  C   UNL A   1      40.904  27.620  28.201  1.00  0.00     0.064 A 
ATOM     83  C   UNL A   1      40.364  26.335  28.050  1.00  0.00     0.173 A 
ATOM     84  C   UNL A   1      41.701  28.121  27.162  1.00  0.00     0.173 A 
ATOM     85  F   UNL A   1      39.630  25.796  29.034  1.00  0.00    -0.203 F 
ATOM     86  C   UNL A   1      40.625  25.577  26.909  1.00  0.00     0.198 A 
ATOM     87  C   UNL A   1      41.940  27.372  26.011  1.00  0.00     0.198 A 
ATOM     88  F   UNL A   1      42.257  29.337  27.268  1.00  0.00    -0.203 F 
ATOM     89  F   UNL A   1      40.143  24.329  26.813  1.00  0.00    -0.200 F 
ATOM     90  C   UNL A   1      41.407  26.098  25.889  1.00  0.00     0.200 A 
ATOM     91  F   UNL A   1      42.699  27.878  25.030  1.00  0.00    -0.200 F 
ATOM     92  F   UNL A   1      41.665  25.364  24.798  1.00  0.00    -0.200 F 
ENDBRANCH  58  82
BRANCH  70  93
ATOM     93  C   UNL A   1      44.262  28.087  34.288  1.00  0.00     0.064 A 
ATOM     94  C   UNL A   1      44.196  26.850  34.945  1.00  0.00     0.173 A 
ATOM     95  C   UNL A   1      45.526  28.667  34.103  1.00  0.00     0.173 A 
ATOM     96  F   UNL A   1      43.009  26.261  35.160  1.00  0.00    -0.203 F 
ATOM     97  C   UNL A   1      45.349  26.228  35.416  1.00  0.00     0.198 A 
ATOM     98  C   UNL A   1      46.679  28.028  34.551  1.00  0.00     0.198 A 
ATOM     99  F   UNL A   1      45.644  29.845  33.474  1.00  0.00    -0.203 F 
ATOM    100  F   UNL A   1      45.258  25.065  36.077  1.00  0.00    -0.200 F 
ATOM    101  C   UNL A   1      46.589  26.814  35.213  1.00  0.00     0.200 A 
ATOM    102  F   UNL A   1      47.878  28.590  34.343  1.00  0.00    -0.200 F 
ATOM    103  F   UNL A   1      47.699  26.209  35.660  1.00  0.00    -0.200 F 
ENDBRANCH  70  93
ENDBRANCH  44  45
ENDBRANCH  37  39
ENDBRANCH  36  37
ENDBRANCH  35  36
ENDBRANCH  34  35
ENDBRANCH  33  34
ENDBRANCH  32  33
ENDBRANCH   1  32
TORSDOF 21
ENDMDL
MODEL 3
REMARK VINA RESULT:     -11.1      1.869      8.339
REMARK SMILES CC[NH+]1CCN(c2ccc(NC(=O)C3CCCC3)c(C(=O)OCCOCCOCCOC(=O)c3ccc(-c4c5nc(c(-c6c(F)c(F)c(F)c(F)c6F)c6ccc([nH]6)c(-c6c(F)c(F)c(F)c(F)c6F)c6nc(c(-c7c(F)c(F)c(F)c(F)c7F)c7ccc4[nH]7)C=C6)C=C5)cc3)c2)CC1
REMARK SMILES IDX 26 1 25 2 24 3 23 4 22 5 20 6 21 7 19 8 7 9 8 10 97 11 9 12
REMARK SMILES IDX 10 13 6 14 3 15 4 16 99 17 5 19 98 20 2 21 1 22 11 23 12 24
REMARK SMILES IDX 13 26 14 27 15 28 18 29 16 30 17 31 27 32 28 33 29 34 30 35
REMARK SMILES IDX 31 36 32 37 33 38 34 39 35 40 96 41 36 42 95 43 37 44 38 45
REMARK SMILES IDX 39 46 89 47 40 48 94 49 88 50 90 51 41 52 93 53 87 54 86 55
REMARK SMILES IDX 42 57 74 58 54 59 73 60 55 61 58 62 72 63 91 64 56 65 57 66
REMARK SMILES IDX 71 68 92 69 59 70 43 71 44 72 52 73 45 74 46 75 50 76 53 77
REMARK SMILES IDX 47 78 48 79 51 80 49 81 75 82 76 83 84 84 77 85 78 86 82 87
REMARK SMILES IDX 85 88 79 89 80 90 83 91 81 92 60 93 61 94 69 95 62 96 63 97
REMARK SMILES IDX 67 98 70 99 64 100 65 101 68 102 66 103
REMARK H PARENT 3 18 11 25 90 56 58 67
REMARK Flexibility Score: inf
ROOT
ATOM      1  C   UNL A   1      32.617  30.079  27.272  1.00  0.00     0.188 C 
ENDROOT
BRANCH   1   2
ATOM      2  O   UNL A   1      34.027  30.286  27.263  1.00  0.00    -0.376 OA
BRANCH   2   3
ATOM      3  C   UNL A   1      34.886  29.170  27.050  1.00  0.00     0.202 C 
BRANCH   3   4
ATOM      4  C   UNL A   1      34.537  28.264  25.867  1.00  0.00     0.261 C 
BRANCH   4   5
ATOM      5  O   UNL A   1      34.086  26.966  26.298  1.00  0.00    -0.460 OA
BRANCH   5   6
ATOM      6  C   UNL A   1      33.864  26.042  25.324  1.00  0.00     0.340 C 
ATOM      7  O   UNL A   1      34.662  25.260  24.858  1.00  0.00    -0.246 OA
BRANCH   6   8
ATOM      8  C   UNL A   1      32.394  25.937  25.143  1.00  0.00     0.085 A 
ATOM      9  C   UNL A   1      30.285  27.034  24.527  1.00  0.00     0.038 A 
ATOM     10  C   UNL A   1      29.666  26.099  25.369  1.00  0.00     0.028 A 
ATOM     11  C   UNL A   1      31.687  26.976  24.504  1.00  0.00     0.043 A 
ATOM     12  C   UNL A   1      30.371  25.084  26.016  1.00  0.00     0.029 A 
ATOM     13  C   UNL A   1      31.708  24.883  25.758  1.00  0.00     0.055 A 
BRANCH   9  14
ATOM     14  N   UNL A   1      29.562  28.002  23.852  1.00  0.00    -0.360 N 
ATOM     15  N   UNL A   1      27.828  30.110  22.685  1.00  0.00    -0.332 N 
ATOM     16  C   UNL A   1      27.325  28.827  23.205  1.00  0.00     0.283 C 
ATOM     17  C   UNL A   1      29.097  30.421  23.391  1.00  0.00     0.283 C 
ATOM     18  H   UNL A   1      27.114  30.815  22.870  1.00  0.00     0.348 HD
ATOM     19  C   UNL A   1      28.327  27.664  23.116  1.00  0.00     0.178 C 
ATOM     20  C   UNL A   1      30.161  29.285  23.417  1.00  0.00     0.178 C 
BRANCH  15  21
ATOM     21  C   UNL A   1      28.005  30.161  21.228  1.00  0.00     0.258 C 
ATOM     22  C   UNL A   1      28.079  31.563  20.626  1.00  0.00     0.071 C 
ENDBRANCH  15  21
ENDBRANCH   9  14
BRANCH  13  23
ATOM     23  N   UNL A   1      32.364  23.719  26.176  1.00  0.00    -0.325 N 
ATOM     24  C   UNL A   1      32.389  22.439  25.720  1.00  0.00     0.227 C 
ATOM     25  H   UNL A   1      32.927  23.857  26.971  1.00  0.00     0.169 HD
ATOM     26  O   UNL A   1      32.950  21.627  26.474  1.00  0.00    -0.274 OA
BRANCH  24  27
ATOM     27  C   UNL A   1      31.891  21.919  24.356  1.00  0.00     0.079 C 
ATOM     28  C   UNL A   1      32.400  22.363  22.988  1.00  0.00     0.013 C 
ATOM     29  C   UNL A   1      32.171  20.396  24.313  1.00  0.00     0.013 C 
ATOM     30  C   UNL A   1      32.012  21.236  22.049  1.00  0.00     0.001 C 
ATOM     31  C   UNL A   1      32.334  19.993  22.847  1.00  0.00     0.001 C 
ENDBRANCH  24  27
ENDBRANCH  13  23
ENDBRANCH   6   8
ENDBRANCH   5   6
ENDBRANCH   4   5
ENDBRANCH   3   4
ENDBRANCH   2   3
ENDBRANCH   1   2
BRANCH   1  32
ATOM     32  C   UNL A   1      31.815  30.435  26.007  1.00  0.00     0.188 C 
BRANCH  32  33
ATOM     33  O   UNL A   1      31.442  31.804  25.981  1.00  0.00    -0.376 OA
BRANCH  33  34
ATOM     34  C   UNL A   1      31.482  32.500  27.212  1.00  0.00     0.202 C 
BRANCH  34  35
ATOM     35  C   UNL A   1      32.493  33.650  27.267  1.00  0.00     0.261 C 
BRANCH  35  36
ATOM     36  O   UNL A   1      32.333  34.569  28.360  1.00  0.00    -0.460 OA
BRANCH  36  37
ATOM     37  C   UNL A   1      33.376  35.369  28.664  1.00  0.00     0.338 C 
ATOM     38  O   UNL A   1      33.418  36.584  28.606  1.00  0.00    -0.246 OA
BRANCH  37  39
ATOM     39  C   UNL A   1      34.445  34.512  29.221  1.00  0.00     0.060 A 
ATOM     40  C   UNL A   1      34.136  33.608  30.245  1.00  0.00     0.016 A 
ATOM     41  C   UNL A   1      35.748  34.594  28.720  1.00  0.00     0.016 A 
ATOM     42  C   UNL A   1      35.138  32.786  30.774  1.00  0.00     0.010 A 
ATOM     43  C   UNL A   1      36.750  33.783  29.260  1.00  0.00     0.010 A 
ATOM     44  C   UNL A   1      36.455  32.882  30.299  1.00  0.00    -0.014 A 
BRANCH  44  45
ATOM     45  C   UNL A   1      37.552  32.110  30.932  1.00  0.00     0.031 A 
ATOM     46  C   UNL A   1      38.006  32.469  32.317  1.00  0.00     0.074 A 
ATOM     47  C   UNL A   1      38.161  31.109  30.269  1.00  0.00     0.049 A 
ATOM     48  N   UNL A   1      38.993  31.977  33.024  1.00  0.00    -0.248 NA
ATOM     49  C   UNL A   1      37.242  33.524  33.000  1.00  0.00     0.031 C 
ATOM     50  C   UNL A   1      37.792  30.635  28.940  1.00  0.00     0.029 A 
ATOM     51  N   UNL A   1      39.224  30.316  30.629  1.00  0.00    -0.354 N 
ATOM     52  C   UNL A   1      38.972  32.662  34.230  1.00  0.00     0.074 A 
ATOM     53  C   UNL A   1      37.886  33.618  34.155  1.00  0.00     0.031 C 
ATOM     54  C   UNL A   1      38.621  29.639  28.587  1.00  0.00     0.029 A 
ATOM     55  C   UNL A   1      39.602  29.432  29.650  1.00  0.00     0.049 A 
ATOM     56  H   UNL A   1      39.671  30.378  31.504  1.00  0.00     0.167 HD
ATOM     57  C   UNL A   1      39.785  32.509  35.302  1.00  0.00     0.037 A 
ATOM     58  C   UNL A   1      40.638  28.571  29.605  1.00  0.00     0.037 A 
ATOM     59  C   UNL A   1      40.873  31.570  35.375  1.00  0.00     0.049 A 
ATOM     60  C   UNL A   1      41.580  28.482  30.778  1.00  0.00     0.074 A 
ATOM     61  C   UNL A   1      41.737  31.329  36.430  1.00  0.00     0.029 A 
ATOM     62  N   UNL A   1      41.259  30.726  34.344  1.00  0.00    -0.354 N 
ATOM     63  N   UNL A   1      41.540  29.114  31.925  1.00  0.00    -0.248 NA
ATOM     64  C   UNL A   1      42.721  27.563  30.643  1.00  0.00     0.031 C 
ATOM     65  C   UNL A   1      42.675  30.376  36.021  1.00  0.00     0.029 A 
ATOM     66  C   UNL A   1      42.369  29.990  34.726  1.00  0.00     0.049 A 
ATOM     67  H   UNL A   1      40.811  30.662  33.470  1.00  0.00     0.167 HD
ATOM     68  C   UNL A   1      42.634  28.662  32.651  1.00  0.00     0.074 A 
ATOM     69  C   UNL A   1      43.312  27.686  31.824  1.00  0.00     0.031 C 
ATOM     70  C   UNL A   1      43.041  29.027  33.891  1.00  0.00     0.037 A 
BRANCH  57  71
ATOM     71  C   UNL A   1      39.545  33.403  36.482  1.00  0.00     0.064 A 
ATOM     72  C   UNL A   1      38.706  33.016  37.537  1.00  0.00     0.173 A 
ATOM     73  C   UNL A   1      40.189  34.645  36.572  1.00  0.00     0.173 A 
ATOM     74  F   UNL A   1      38.057  31.843  37.490  1.00  0.00    -0.203 F 
ATOM     75  C   UNL A   1      38.507  33.852  38.634  1.00  0.00     0.198 A 
ATOM     76  C   UNL A   1      40.004  35.468  37.679  1.00  0.00     0.198 A 
ATOM     77  F   UNL A   1      41.002  35.058  35.588  1.00  0.00    -0.203 F 
ATOM     78  F   UNL A   1      37.672  33.480  39.614  1.00  0.00    -0.200 F 
ATOM     79  C   UNL A   1      39.161  35.074  38.706  1.00  0.00     0.200 A 
ATOM     80  F   UNL A   1      40.644  36.643  37.753  1.00  0.00    -0.200 F 
ATOM     81  F   UNL A   1      38.971  35.874  39.764  1.00  0.00    -0.200 F 
ENDBRANCH  57  71
BRANCH  58  82
ATOM     82  C   UNL A   1      40.861  27.739  28.394  1.00  0.00     0.064 A 
ATOM     83  C   UNL A   1      41.593  28.231  27.306  1.00  0.00     0.173 A 
ATOM     84  C   UNL A   1      40.322  26.449  28.290  1.00  0.00     0.173 A 
ATOM     85  F   UNL A   1      42.093  29.475  27.342  1.00  0.00    -0.203 F 
ATOM     86  C   UNL A   1      41.767  27.468  26.153  1.00  0.00     0.198 A 
ATOM     87  C   UNL A   1      40.517  25.676  27.147  1.00  0.00     0.198 A 
ATOM     88  F   UNL A   1      39.595  25.940  29.296  1.00  0.00    -0.203 F 
ATOM     89  F   UNL A   1      42.424  27.983  25.103  1.00  0.00    -0.200 F 
ATOM     90  C   UNL A   1      41.234  26.189  26.076  1.00  0.00     0.200 A 
ATOM     91  F   UNL A   1      39.997  24.444  27.076  1.00  0.00    -0.200 F 
ATOM     92  F   UNL A   1      41.393  25.460  24.963  1.00  0.00    -0.200 F 
ENDBRANCH  58  82
BRANCH  70  93
ATOM     93  C   UNL A   1      44.273  28.363  34.436  1.00  0.00     0.064 A 
ATOM     94  C   UNL A   1      45.544  28.935  34.275  1.00  0.00     0.173 A 
ATOM     95  C   UNL A   1      44.178  27.167  35.163  1.00  0.00     0.173 A 
ATOM     96  F   UNL A   1      45.689  30.070  33.575  1.00  0.00    -0.203 F 
ATOM     97  C   UNL A   1      46.677  28.322  34.804  1.00  0.00     0.198 A 
ATOM     98  C   UNL A   1      45.310  26.572  35.714  1.00  0.00     0.198 A 
ATOM     99  F   UNL A   1      42.986  26.583  35.352  1.00  0.00    -0.203 F 
ATOM    100  F   UNL A   1      47.886  28.866  34.603  1.00  0.00    -0.200 F 
ATOM    101  C   UNL A   1      46.558  27.145  35.528  1.00  0.00     0.200 A 
ATOM    102  F   UNL A   1      45.192  25.441  36.425  1.00  0.00    -0.200 F 
ATOM    103  F   UNL A   1      47.649  26.561  36.044  1.00  0.00    -0.200 F 
ENDBRANCH  70  93
ENDBRANCH  44  45
ENDBRANCH  37  39
ENDBRANCH  36  37
ENDBRANCH  35  36
ENDBRANCH  34  35
ENDBRANCH  33  34
ENDBRANCH  32  33
ENDBRANCH   1  32
TORSDOF 21
ENDMDL
