MODEL 1
REMARK VINA RESULT:      -9.1      0.000      0.000
REMARK SMILES CS(=O)(=O)c1ccc(/C=C(/C(=O)OCCOCCOCCOC(=O)c2ccc(-c3c4nc(c(-c5c(F)c(F)c(F)c(F)c5F)c5ccc([nH]5)c(-c5c(F)c(F)c(F)c(F)c5F)c5nc(c(-c6c(F)c(F)c(F)c(F)c6F)c6ccc3[nH]6)C=C5)C=C4)cc2)c2ccc(-c3ccc(S(C)(=O)=O)cc3)cc2)cc1
REMARK SMILES IDX 17 1 16 2 15 3 14 4 13 5 11 6 12 7 10 8 9 9 8 10 5 11 6 12
REMARK SMILES IDX 105 13 7 14 104 15 2 16 1 17 3 18 4 19 88 20 89 21 103 22
REMARK SMILES IDX 90 23 102 24 91 25 92 26 93 27 101 28 94 29 100 30 95 31
REMARK SMILES IDX 96 32 97 33 98 34 99 35 18 36 19 37 20 38 21 39 22 40 23 41
REMARK SMILES IDX 24 42 25 43 26 44 87 45 27 46 86 47 28 48 29 49 30 50 80 51
REMARK SMILES IDX 31 52 85 53 79 54 81 55 32 56 84 57 78 58 77 59 33 61 65 62
REMARK SMILES IDX 45 63 64 64 46 65 49 66 63 67 82 68 47 69 48 70 62 72 83 73
REMARK SMILES IDX 50 74 34 75 35 76 43 77 36 78 37 79 41 80 44 81 38 82 39 83
REMARK SMILES IDX 42 84 40 85 66 86 67 87 75 88 68 89 69 90 73 91 76 92 70 93
REMARK SMILES IDX 71 94 74 95 72 96 51 97 52 98 60 99 53 100 54 101 58 102
REMARK SMILES IDX 61 103 55 104 56 105 59 106 57 107
REMARK H PARENT 81 60 49 71
REMARK Flexibility Score: inf
ROOT
ATOM      1  C   UNL A   1      33.852  34.724  32.703  1.00  0.00     0.188 C 
ENDROOT
BRANCH   1   2
ATOM      2  O   UNL A   1      33.413  36.001  32.311  1.00  0.00    -0.376 OA
BRANCH   2   3
ATOM      3  C   UNL A   1      32.509  36.102  31.224  1.00  0.00     0.202 C 
BRANCH   3   4
ATOM      4  C   UNL A   1      32.904  35.850  29.750  1.00  0.00     0.261 C 
BRANCH   4   5
ATOM      5  O   UNL A   1      32.892  34.501  29.262  1.00  0.00    -0.460 OA
BRANCH   5   6
ATOM      6  C   UNL A   1      33.767  34.186  28.271  1.00  0.00     0.338 C 
ATOM      7  O   UNL A   1      34.374  34.997  27.587  1.00  0.00    -0.246 OA
BRANCH   6   8
ATOM      8  C   UNL A   1      34.013  32.702  28.212  1.00  0.00     0.067 C 
ATOM      9  C   UNL A   1      33.105  31.892  27.611  1.00  0.00     0.024 C 
BRANCH   9  10
ATOM     10  C   UNL A   1      33.223  30.443  27.301  1.00  0.00    -0.025 A 
ATOM     11  C   UNL A   1      33.203  27.862  26.200  1.00  0.00     0.067 A 
ATOM     12  C   UNL A   1      34.411  28.538  26.352  1.00  0.00     0.021 A 
ATOM     13  C   UNL A   1      32.022  28.405  26.706  1.00  0.00     0.021 A 
ATOM     14  C   UNL A   1      34.419  29.804  26.945  1.00  0.00     0.009 A 
ATOM     15  C   UNL A   1      32.039  29.689  27.261  1.00  0.00     0.009 A 
BRANCH  11  16
ATOM     16  S   UNL A   1      33.132  26.385  25.214  1.00  0.00     0.175 S 
ATOM     17  C   UNL A   1      33.644  26.906  23.604  1.00  0.00     0.163 C 
ATOM     18  O   UNL A   1      31.741  25.979  25.126  1.00  0.00    -0.224 OA
ATOM     19  O   UNL A   1      34.137  25.481  25.741  1.00  0.00    -0.224 OA
ENDBRANCH  11  16
ENDBRANCH   9  10
BRANCH   8  20
ATOM     20  C   UNL A   1      35.255  32.196  28.837  1.00  0.00    -0.011 A 
ATOM     21  C   UNL A   1      35.175  31.519  30.060  1.00  0.00     0.009 A 
ATOM     22  C   UNL A   1      36.491  32.264  28.190  1.00  0.00     0.009 A 
ATOM     23  C   UNL A   1      36.297  30.898  30.612  1.00  0.00     0.009 A 
ATOM     24  C   UNL A   1      37.612  31.629  28.745  1.00  0.00     0.009 A 
ATOM     25  C   UNL A   1      37.536  30.932  29.965  1.00  0.00    -0.018 A 
BRANCH  25  26
ATOM     26  C   UNL A   1      38.709  30.245  30.537  1.00  0.00    -0.018 A 
ATOM     27  C   UNL A   1      39.988  30.838  30.522  1.00  0.00     0.010 A 
ATOM     28  C   UNL A   1      38.577  28.986  31.143  1.00  0.00     0.010 A 
ATOM     29  C   UNL A   1      41.085  30.219  31.133  1.00  0.00     0.021 A 
ATOM     30  C   UNL A   1      39.665  28.357  31.756  1.00  0.00     0.021 A 
ATOM     31  C   UNL A   1      40.911  28.987  31.764  1.00  0.00     0.067 A 
BRANCH  31  32
ATOM     32  S   UNL A   1      42.255  28.268  32.683  1.00  0.00     0.175 S 
ATOM     33  C   UNL A   1      41.523  27.591  34.143  1.00  0.00     0.163 C 
ATOM     34  O   UNL A   1      42.765  27.171  31.885  1.00  0.00    -0.224 OA
ATOM     35  O   UNL A   1      43.128  29.351  33.099  1.00  0.00    -0.224 OA
ENDBRANCH  31  32
ENDBRANCH  25  26
ENDBRANCH   8  20
ENDBRANCH   6   8
ENDBRANCH   5   6
ENDBRANCH   4   5
ENDBRANCH   3   4
ENDBRANCH   2   3
ENDBRANCH   1   2
BRANCH   1  36
ATOM     36  C   UNL A   1      34.849  34.755  33.882  1.00  0.00     0.188 C 
BRANCH  36  37
ATOM     37  O   UNL A   1      35.109  33.580  34.630  1.00  0.00    -0.376 OA
BRANCH  37  38
ATOM     38  C   UNL A   1      36.445  33.119  34.762  1.00  0.00     0.202 C 
BRANCH  38  39
ATOM     39  C   UNL A   1      37.238  32.599  33.545  1.00  0.00     0.261 C 
BRANCH  39  40
ATOM     40  O   UNL A   1      38.324  33.415  33.077  1.00  0.00    -0.460 OA
BRANCH  40  41
ATOM     41  C   UNL A   1      38.167  33.943  31.835  1.00  0.00     0.338 C 
ATOM     42  O   UNL A   1      37.126  34.206  31.270  1.00  0.00    -0.246 OA
BRANCH  41  43
ATOM     43  C   UNL A   1      39.490  34.346  31.303  1.00  0.00     0.060 A 
ATOM     44  C   UNL A   1      39.618  34.549  29.922  1.00  0.00     0.016 A 
ATOM     45  C   UNL A   1      40.602  34.467  32.139  1.00  0.00     0.016 A 
ATOM     46  C   UNL A   1      40.860  34.859  29.370  1.00  0.00     0.010 A 
ATOM     47  C   UNL A   1      41.853  34.754  31.579  1.00  0.00     0.010 A 
ATOM     48  C   UNL A   1      41.993  34.930  30.190  1.00  0.00    -0.014 A 
BRANCH  48  49
ATOM     49  C   UNL A   1      43.339  35.027  29.570  1.00  0.00     0.031 A 
ATOM     50  C   UNL A   1      43.884  36.388  29.237  1.00  0.00     0.074 A 
ATOM     51  C   UNL A   1      44.075  33.927  29.332  1.00  0.00     0.049 A 
ATOM     52  N   UNL A   1      45.032  36.716  28.704  1.00  0.00    -0.248 NA
ATOM     53  C   UNL A   1      43.011  37.532  29.544  1.00  0.00     0.031 C 
ATOM     54  C   UNL A   1      43.659  32.560  29.623  1.00  0.00     0.029 A 
ATOM     55  N   UNL A   1      45.327  33.787  28.782  1.00  0.00    -0.354 N 
ATOM     56  C   UNL A   1      45.017  38.103  28.602  1.00  0.00     0.074 A 
ATOM     57  C   UNL A   1      43.736  38.550  29.106  1.00  0.00     0.031 C 
ATOM     58  C   UNL A   1      44.639  31.716  29.260  1.00  0.00     0.029 A 
ATOM     59  C   UNL A   1      45.729  32.479  28.654  1.00  0.00     0.049 A 
ATOM     60  H   UNL A   1      45.884  34.552  28.507  1.00  0.00     0.167 HD
ATOM     61  C   UNL A   1      45.985  38.925  28.131  1.00  0.00     0.037 A 
ATOM     62  C   UNL A   1      46.833  31.956  28.082  1.00  0.00     0.037 A 
ATOM     63  C   UNL A   1      47.248  38.468  27.614  1.00  0.00     0.049 A 
ATOM     64  C   UNL A   1      47.865  32.891  27.499  1.00  0.00     0.074 A 
ATOM     65  C   UNL A   1      48.305  39.220  27.131  1.00  0.00     0.029 A 
ATOM     66  N   UNL A   1      47.618  37.136  27.490  1.00  0.00    -0.354 N 
ATOM     67  N   UNL A   1      47.889  34.203  27.499  1.00  0.00    -0.248 NA
ATOM     68  C   UNL A   1      49.043  32.275  26.873  1.00  0.00     0.031 C 
ATOM     69  C   UNL A   1      49.287  38.342  26.660  1.00  0.00     0.029 A 
ATOM     70  C   UNL A   1      48.876  37.043  26.916  1.00  0.00     0.049 A 
ATOM     71  H   UNL A   1      47.067  36.370  27.770  1.00  0.00     0.167 HD
ATOM     72  C   UNL A   1      49.091  34.568  26.902  1.00  0.00     0.074 A 
ATOM     73  C   UNL A   1      49.783  33.337  26.584  1.00  0.00     0.031 C 
ATOM     74  C   UNL A   1      49.577  35.810  26.644  1.00  0.00     0.037 A 
BRANCH  61  75
ATOM     75  C   UNL A   1      45.697  40.401  28.118  1.00  0.00     0.064 A 
ATOM     76  C   UNL A   1      46.023  41.229  29.203  1.00  0.00     0.173 A 
ATOM     77  C   UNL A   1      45.108  40.999  26.993  1.00  0.00     0.173 A 
ATOM     78  F   UNL A   1      46.574  40.707  30.309  1.00  0.00    -0.203 F 
ATOM     79  C   UNL A   1      45.742  42.594  29.174  1.00  0.00     0.198 A 
ATOM     80  C   UNL A   1      44.859  42.368  26.955  1.00  0.00     0.198 A 
ATOM     81  F   UNL A   1      44.779  40.256  25.926  1.00  0.00    -0.203 F 
ATOM     82  F   UNL A   1      46.013  43.354  30.244  1.00  0.00    -0.200 F 
ATOM     83  C   UNL A   1      45.168  43.163  28.047  1.00  0.00     0.200 A 
ATOM     84  F   UNL A   1      44.317  42.919  25.859  1.00  0.00    -0.200 F 
ATOM     85  F   UNL A   1      44.903  44.476  28.019  1.00  0.00    -0.200 F 
ENDBRANCH  61  75
BRANCH  62  86
ATOM     86  C   UNL A   1      47.019  30.478  28.026  1.00  0.00     0.064 A 
ATOM     87  C   UNL A   1      46.506  29.714  26.968  1.00  0.00     0.173 A 
ATOM     88  C   UNL A   1      47.704  29.790  29.037  1.00  0.00     0.173 A 
ATOM     89  F   UNL A   1      45.811  30.312  25.993  1.00  0.00    -0.203 F 
ATOM     90  C   UNL A   1      46.660  28.330  26.922  1.00  0.00     0.198 A 
ATOM     91  C   UNL A   1      47.882  28.407  28.980  1.00  0.00     0.198 A 
ATOM     92  F   UNL A   1      48.211  30.462  30.080  1.00  0.00    -0.203 F 
ATOM     93  F   UNL A   1      46.119  27.631  25.916  1.00  0.00    -0.200 F 
ATOM     94  C   UNL A   1      47.353  27.677  27.927  1.00  0.00     0.200 A 
ATOM     95  F   UNL A   1      48.561  27.782  29.952  1.00  0.00    -0.200 F 
ATOM     96  F   UNL A   1      47.503  26.346  27.886  1.00  0.00    -0.200 F 
ENDBRANCH  62  86
BRANCH  74  97
ATOM     97  C   UNL A   1      50.960  35.913  26.057  1.00  0.00     0.064 A 
ATOM     98  C   UNL A   1      52.116  35.866  26.850  1.00  0.00     0.173 A 
ATOM     99  C   UNL A   1      51.129  36.009  24.665  1.00  0.00     0.173 A 
ATOM    100  F   UNL A   1      52.014  35.782  28.185  1.00  0.00    -0.203 F 
ATOM    101  C   UNL A   1      53.384  35.949  26.278  1.00  0.00     0.198 A 
ATOM    102  C   UNL A   1      52.398  36.049  24.093  1.00  0.00     0.198 A 
ATOM    103  F   UNL A   1      50.060  36.047  23.856  1.00  0.00    -0.203 F 
ATOM    104  F   UNL A   1      54.470  35.962  27.063  1.00  0.00    -0.200 F 
ATOM    105  C   UNL A   1      53.525  36.031  24.900  1.00  0.00     0.200 A 
ATOM    106  F   UNL A   1      52.530  36.105  22.761  1.00  0.00    -0.200 F 
ATOM    107  F   UNL A   1      54.745  36.098  24.352  1.00  0.00    -0.200 F 
ENDBRANCH  74  97
ENDBRANCH  48  49
ENDBRANCH  41  43
ENDBRANCH  40  41
ENDBRANCH  39  40
ENDBRANCH  38  39
ENDBRANCH  37  38
ENDBRANCH  36  37
ENDBRANCH   1  36
TORSDOF 22
ENDMDL
MODEL 2
REMARK VINA RESULT:      -9.0      3.651      9.373
REMARK SMILES CS(=O)(=O)c1ccc(/C=C(/C(=O)OCCOCCOCCOC(=O)c2ccc(-c3c4nc(c(-c5c(F)c(F)c(F)c(F)c5F)c5ccc([nH]5)c(-c5c(F)c(F)c(F)c(F)c5F)c5nc(c(-c6c(F)c(F)c(F)c(F)c6F)c6ccc3[nH]6)C=C5)C=C4)cc2)c2ccc(-c3ccc(S(C)(=O)=O)cc3)cc2)cc1
REMARK SMILES IDX 17 1 16 2 15 3 14 4 13 5 11 6 12 7 10 8 9 9 8 10 5 11 6 12
REMARK SMILES IDX 105 13 7 14 104 15 2 16 1 17 3 18 4 19 88 20 89 21 103 22
REMARK SMILES IDX 90 23 102 24 91 25 92 26 93 27 101 28 94 29 100 30 95 31
REMARK SMILES IDX 96 32 97 33 98 34 99 35 18 36 19 37 20 38 21 39 22 40 23 41
REMARK SMILES IDX 24 42 25 43 26 44 87 45 27 46 86 47 28 48 29 49 30 50 80 51
REMARK SMILES IDX 31 52 85 53 79 54 81 55 32 56 84 57 78 58 77 59 33 61 65 62
REMARK SMILES IDX 45 63 64 64 46 65 49 66 63 67 82 68 47 69 48 70 62 72 83 73
REMARK SMILES IDX 50 74 34 75 35 76 43 77 36 78 37 79 41 80 44 81 38 82 39 83
REMARK SMILES IDX 42 84 40 85 66 86 67 87 75 88 68 89 69 90 73 91 76 92 70 93
REMARK SMILES IDX 71 94 74 95 72 96 51 97 52 98 60 99 53 100 54 101 58 102
REMARK SMILES IDX 61 103 55 104 56 105 59 106 57 107
REMARK H PARENT 81 60 49 71
REMARK Flexibility Score: inf
ROOT
ATOM      1  C   UNL A   1      33.784  35.002  32.445  1.00  0.00     0.188 C 
ENDROOT
BRANCH   1   2
ATOM      2  O   UNL A   1      32.982  36.066  31.993  1.00  0.00    -0.376 OA
BRANCH   2   3
ATOM      3  C   UNL A   1      32.570  36.075  30.638  1.00  0.00     0.202 C 
BRANCH   3   4
ATOM      4  C   UNL A   1      33.509  35.764  29.450  1.00  0.00     0.261 C 
BRANCH   4   5
ATOM      5  O   UNL A   1      33.390  34.489  28.803  1.00  0.00    -0.460 OA
BRANCH   5   6
ATOM      6  C   UNL A   1      34.405  34.105  27.984  1.00  0.00     0.338 C 
ATOM      7  O   UNL A   1      34.778  34.718  26.995  1.00  0.00    -0.246 OA
BRANCH   6   8
ATOM      8  C   UNL A   1      35.120  32.897  28.529  1.00  0.00     0.067 C 
ATOM      9  C   UNL A   1      36.165  33.061  29.380  1.00  0.00     0.024 C 
BRANCH   9  10
ATOM     10  C   UNL A   1      36.897  32.023  30.152  1.00  0.00    -0.025 A 
ATOM     11  C   UNL A   1      37.971  29.688  31.278  1.00  0.00     0.067 A 
ATOM     12  C   UNL A   1      38.760  30.478  30.446  1.00  0.00     0.021 A 
ATOM     13  C   UNL A   1      36.698  30.114  31.656  1.00  0.00     0.021 A 
ATOM     14  C   UNL A   1      38.234  31.665  29.926  1.00  0.00     0.009 A 
ATOM     15  C   UNL A   1      36.170  31.283  31.098  1.00  0.00     0.009 A 
BRANCH  11  16
ATOM     16  S   UNL A   1      38.515  28.056  31.727  1.00  0.00     0.175 S 
ATOM     17  C   UNL A   1      40.189  28.279  32.250  1.00  0.00     0.163 C 
ATOM     18  O   UNL A   1      38.533  27.251  30.520  1.00  0.00    -0.224 OA
ATOM     19  O   UNL A   1      37.728  27.654  32.876  1.00  0.00    -0.224 OA
ENDBRANCH  11  16
ENDBRANCH   9  10
BRANCH   8  20
ATOM     20  C   UNL A   1      34.639  31.570  28.089  1.00  0.00    -0.011 A 
ATOM     21  C   UNL A   1      33.276  31.396  27.815  1.00  0.00     0.009 A 
ATOM     22  C   UNL A   1      35.514  30.516  27.819  1.00  0.00     0.009 A 
ATOM     23  C   UNL A   1      32.801  30.206  27.258  1.00  0.00     0.009 A 
ATOM     24  C   UNL A   1      35.033  29.328  27.249  1.00  0.00     0.009 A 
ATOM     25  C   UNL A   1      33.668  29.151  26.956  1.00  0.00    -0.018 A 
BRANCH  25  26
ATOM     26  C   UNL A   1      33.165  27.911  26.336  1.00  0.00    -0.018 A 
ATOM     27  C   UNL A   1      34.042  26.959  25.779  1.00  0.00     0.010 A 
ATOM     28  C   UNL A   1      31.789  27.630  26.312  1.00  0.00     0.010 A 
ATOM     29  C   UNL A   1      33.568  25.748  25.260  1.00  0.00     0.021 A 
ATOM     30  C   UNL A   1      31.304  26.425  25.795  1.00  0.00     0.021 A 
ATOM     31  C   UNL A   1      32.200  25.481  25.289  1.00  0.00     0.067 A 
BRANCH  31  32
ATOM     32  S   UNL A   1      31.602  23.882  24.784  1.00  0.00     0.175 S 
ATOM     33  C   UNL A   1      33.041  22.953  24.347  1.00  0.00     0.163 C 
ATOM     34  O   UNL A   1      31.010  23.271  25.958  1.00  0.00    -0.224 OA
ATOM     35  O   UNL A   1      30.823  24.069  23.573  1.00  0.00    -0.224 OA
ENDBRANCH  31  32
ENDBRANCH  25  26
ENDBRANCH   8  20
ENDBRANCH   6   8
ENDBRANCH   5   6
ENDBRANCH   4   5
ENDBRANCH   3   4
ENDBRANCH   2   3
ENDBRANCH   1   2
BRANCH   1  36
ATOM     36  C   UNL A   1      35.027  35.465  33.234  1.00  0.00     0.188 C 
BRANCH  36  37
ATOM     37  O   UNL A   1      36.321  35.028  32.854  1.00  0.00    -0.376 OA
BRANCH  37  38
ATOM     38  C   UNL A   1      36.799  33.775  33.321  1.00  0.00     0.202 C 
BRANCH  38  39
ATOM     39  C   UNL A   1      37.957  33.687  34.336  1.00  0.00     0.261 C 
BRANCH  39  40
ATOM     40  O   UNL A   1      39.188  33.109  33.873  1.00  0.00    -0.460 OA
BRANCH  40  41
ATOM     41  C   UNL A   1      39.998  33.944  33.171  1.00  0.00     0.338 C 
ATOM     42  O   UNL A   1      40.130  35.141  33.314  1.00  0.00    -0.246 OA
BRANCH  41  43
ATOM     43  C   UNL A   1      40.879  33.142  32.288  1.00  0.00     0.060 A 
ATOM     44  C   UNL A   1      41.595  32.078  32.851  1.00  0.00     0.016 A 
ATOM     45  C   UNL A   1      41.044  33.468  30.940  1.00  0.00     0.016 A 
ATOM     46  C   UNL A   1      42.489  31.343  32.073  1.00  0.00     0.010 A 
ATOM     47  C   UNL A   1      41.961  32.744  30.167  1.00  0.00     0.010 A 
ATOM     48  C   UNL A   1      42.704  31.693  30.735  1.00  0.00    -0.014 A 
BRANCH  48  49
ATOM     49  C   UNL A   1      43.820  31.062  29.985  1.00  0.00     0.031 A 
ATOM     50  C   UNL A   1      43.653  29.651  29.493  1.00  0.00     0.074 A 
ATOM     51  C   UNL A   1      44.952  31.740  29.722  1.00  0.00     0.049 A 
ATOM     52  N   UNL A   1      44.483  28.905  28.812  1.00  0.00    -0.248 NA
ATOM     53  C   UNL A   1      42.378  28.995  29.819  1.00  0.00     0.031 C 
ATOM     54  C   UNL A   1      45.222  33.113  30.135  1.00  0.00     0.029 A 
ATOM     55  N   UNL A   1      46.089  31.362  29.050  1.00  0.00    -0.354 N 
ATOM     56  C   UNL A   1      43.835  27.687  28.636  1.00  0.00     0.074 A 
ATOM     57  C   UNL A   1      42.555  27.788  29.302  1.00  0.00     0.031 C 
ATOM     58  C   UNL A   1      46.442  33.470  29.701  1.00  0.00     0.029 A 
ATOM     59  C   UNL A   1      47.065  32.330  29.031  1.00  0.00     0.049 A 
ATOM     60  H   UNL A   1      46.195  30.481  28.621  1.00  0.00     0.167 HD
ATOM     61  C   UNL A   1      44.272  26.587  27.978  1.00  0.00     0.037 A 
ATOM     62  C   UNL A   1      48.328  32.287  28.559  1.00  0.00     0.037 A 
ATOM     63  C   UNL A   1      45.556  26.489  27.334  1.00  0.00     0.049 A 
ATOM     64  C   UNL A   1      48.816  31.024  27.892  1.00  0.00     0.074 A 
ATOM     65  C   UNL A   1      46.086  25.427  26.623  1.00  0.00     0.029 A 
ATOM     66  N   UNL A   1      46.523  27.485  27.342  1.00  0.00    -0.354 N 
ATOM     67  N   UNL A   1      48.162  29.914  27.640  1.00  0.00    -0.248 NA
ATOM     68  C   UNL A   1      50.203  31.020  27.408  1.00  0.00     0.031 C 
ATOM     69  C   UNL A   1      47.395  25.757  26.255  1.00  0.00     0.029 A 
ATOM     70  C   UNL A   1      47.656  27.053  26.672  1.00  0.00     0.049 A 
ATOM     71  H   UNL A   1      46.419  28.369  27.764  1.00  0.00     0.167 HD
ATOM     72  C   UNL A   1      49.046  29.094  26.946  1.00  0.00     0.074 A 
ATOM     73  C   UNL A   1      50.270  29.850  26.787  1.00  0.00     0.031 C 
ATOM     74  C   UNL A   1      48.857  27.832  26.480  1.00  0.00     0.037 A 
BRANCH  61  75
ATOM     75  C   UNL A   1      43.366  25.386  27.955  1.00  0.00     0.064 A 
ATOM     76  C   UNL A   1      42.332  25.256  27.015  1.00  0.00     0.173 A 
ATOM     77  C   UNL A   1      43.553  24.339  28.871  1.00  0.00     0.173 A 
ATOM     78  F   UNL A   1      42.100  26.233  26.127  1.00  0.00    -0.203 F 
ATOM     79  C   UNL A   1      41.499  24.139  27.015  1.00  0.00     0.198 A 
ATOM     80  C   UNL A   1      42.740  23.209  28.846  1.00  0.00     0.198 A 
ATOM     81  F   UNL A   1      44.529  24.409  29.788  1.00  0.00    -0.203 F 
ATOM     82  F   UNL A   1      40.484  24.063  26.144  1.00  0.00    -0.200 F 
ATOM     83  C   UNL A   1      41.709  23.113  27.925  1.00  0.00     0.200 A 
ATOM     84  F   UNL A   1      42.954  22.213  29.717  1.00  0.00    -0.200 F 
ATOM     85  F   UNL A   1      40.912  22.037  27.919  1.00  0.00    -0.200 F 
ENDBRANCH  61  75
BRANCH  62  86
ATOM     86  C   UNL A   1      49.221  33.472  28.704  1.00  0.00     0.064 A 
ATOM     87  C   UNL A   1      50.059  33.627  29.817  1.00  0.00     0.173 A 
ATOM     88  C   UNL A   1      49.251  34.486  27.736  1.00  0.00     0.173 A 
ATOM     89  F   UNL A   1      50.046  32.710  30.791  1.00  0.00    -0.203 F 
ATOM     90  C   UNL A   1      50.880  34.744  29.966  1.00  0.00     0.198 A 
ATOM     91  C   UNL A   1      50.091  35.592  27.870  1.00  0.00     0.198 A 
ATOM     92  F   UNL A   1      48.468  34.400  26.651  1.00  0.00    -0.203 F 
ATOM     93  F   UNL A   1      51.634  34.875  31.065  1.00  0.00    -0.200 F 
ATOM     94  C   UNL A   1      50.900  35.723  28.988  1.00  0.00     0.200 A 
ATOM     95  F   UNL A   1      50.112  36.533  26.916  1.00  0.00    -0.200 F 
ATOM     96  F   UNL A   1      51.689  36.797  29.128  1.00  0.00    -0.200 F 
ENDBRANCH  62  86
BRANCH  74  97
ATOM     97  C   UNL A   1      49.970  27.207  25.680  1.00  0.00     0.064 A 
ATOM     98  C   UNL A   1      50.138  27.454  24.310  1.00  0.00     0.173 A 
ATOM     99  C   UNL A   1      50.916  26.384  26.314  1.00  0.00     0.173 A 
ATOM    100  F   UNL A   1      49.260  28.227  23.652  1.00  0.00    -0.203 F 
ATOM    101  C   UNL A   1      51.186  26.873  23.598  1.00  0.00     0.198 A 
ATOM    102  C   UNL A   1      51.986  25.839  25.609  1.00  0.00     0.198 A 
ATOM    103  F   UNL A   1      50.812  26.121  27.626  1.00  0.00    -0.203 F 
ATOM    104  F   UNL A   1      51.289  27.077  22.278  1.00  0.00    -0.200 F 
ATOM    105  C   UNL A   1      52.114  26.074  24.250  1.00  0.00     0.200 A 
ATOM    106  F   UNL A   1      52.894  25.087  26.247  1.00  0.00    -0.200 F 
ATOM    107  F   UNL A   1      53.128  25.528  23.565  1.00  0.00    -0.200 F 
ENDBRANCH  74  97
ENDBRANCH  48  49
ENDBRANCH  41  43
ENDBRANCH  40  41
ENDBRANCH  39  40
ENDBRANCH  38  39
ENDBRANCH  37  38
ENDBRANCH  36  37
ENDBRANCH   1  36
TORSDOF 22
ENDMDL
MODEL 3
REMARK VINA RESULT:      -8.9      2.267      3.518
REMARK SMILES CS(=O)(=O)c1ccc(/C=C(/C(=O)OCCOCCOCCOC(=O)c2ccc(-c3c4nc(c(-c5c(F)c(F)c(F)c(F)c5F)c5ccc([nH]5)c(-c5c(F)c(F)c(F)c(F)c5F)c5nc(c(-c6c(F)c(F)c(F)c(F)c6F)c6ccc3[nH]6)C=C5)C=C4)cc2)c2ccc(-c3ccc(S(C)(=O)=O)cc3)cc2)cc1
REMARK SMILES IDX 17 1 16 2 15 3 14 4 13 5 11 6 12 7 10 8 9 9 8 10 5 11 6 12
REMARK SMILES IDX 105 13 7 14 104 15 2 16 1 17 3 18 4 19 88 20 89 21 103 22
REMARK SMILES IDX 90 23 102 24 91 25 92 26 93 27 101 28 94 29 100 30 95 31
REMARK SMILES IDX 96 32 97 33 98 34 99 35 18 36 19 37 20 38 21 39 22 40 23 41
REMARK SMILES IDX 24 42 25 43 26 44 87 45 27 46 86 47 28 48 29 49 30 50 80 51
REMARK SMILES IDX 31 52 85 53 79 54 81 55 32 56 84 57 78 58 77 59 33 61 65 62
REMARK SMILES IDX 45 63 64 64 46 65 49 66 63 67 82 68 47 69 48 70 62 72 83 73
REMARK SMILES IDX 50 74 34 75 35 76 43 77 36 78 37 79 41 80 44 81 38 82 39 83
REMARK SMILES IDX 42 84 40 85 66 86 67 87 75 88 68 89 69 90 73 91 76 92 70 93
REMARK SMILES IDX 71 94 74 95 72 96 51 97 52 98 60 99 53 100 54 101 58 102
REMARK SMILES IDX 61 103 55 104 56 105 59 106 57 107
REMARK H PARENT 81 60 49 71
REMARK Flexibility Score: inf
ROOT
ATOM      1  C   UNL A   1      38.067  34.110  32.545  1.00  0.00     0.188 C 
ENDROOT
BRANCH   1   2
ATOM      2  O   UNL A   1      36.990  34.994  32.357  1.00  0.00    -0.376 OA
BRANCH   2   3
ATOM      3  C   UNL A   1      35.671  34.493  32.491  1.00  0.00     0.202 C 
BRANCH   3   4
ATOM      4  C   UNL A   1      34.868  33.861  31.331  1.00  0.00     0.261 C 
BRANCH   4   5
ATOM      5  O   UNL A   1      35.332  32.621  30.777  1.00  0.00    -0.460 OA
BRANCH   5   6
ATOM      6  C   UNL A   1      35.788  32.640  29.497  1.00  0.00     0.338 C 
ATOM      7  O   UNL A   1      36.501  33.510  29.019  1.00  0.00    -0.246 OA
BRANCH   6   8
ATOM      8  C   UNL A   1      35.428  31.372  28.770  1.00  0.00     0.067 C 
ATOM      9  C   UNL A   1      34.174  31.213  28.275  1.00  0.00     0.024 C 
BRANCH   9  10
ATOM     10  C   UNL A   1      33.658  30.130  27.398  1.00  0.00    -0.025 A 
ATOM     11  C   UNL A   1      32.813  27.736  26.201  1.00  0.00     0.067 A 
ATOM     12  C   UNL A   1      31.869  28.676  26.604  1.00  0.00     0.021 A 
ATOM     13  C   UNL A   1      34.175  28.029  26.273  1.00  0.00     0.021 A 
ATOM     14  C   UNL A   1      32.298  29.887  27.156  1.00  0.00     0.009 A 
ATOM     15  C   UNL A   1      34.591  29.228  26.863  1.00  0.00     0.009 A 
BRANCH  11  16
ATOM     16  S   UNL A   1      32.295  26.096  25.753  1.00  0.00     0.175 S 
ATOM     17  C   UNL A   1      33.781  25.138  25.795  1.00  0.00     0.163 C 
ATOM     18  O   UNL A   1      31.837  26.139  24.376  1.00  0.00    -0.224 OA
ATOM     19  O   UNL A   1      31.422  25.629  26.812  1.00  0.00    -0.224 OA
ENDBRANCH  11  16
ENDBRANCH   9  10
BRANCH   8  20
ATOM     20  C   UNL A   1      36.481  30.341  28.643  1.00  0.00    -0.011 A 
ATOM     21  C   UNL A   1      37.381  30.417  27.572  1.00  0.00     0.009 A 
ATOM     22  C   UNL A   1      36.685  29.365  29.620  1.00  0.00     0.009 A 
ATOM     23  C   UNL A   1      38.478  29.555  27.494  1.00  0.00     0.009 A 
ATOM     24  C   UNL A   1      37.794  28.510  29.541  1.00  0.00     0.009 A 
ATOM     25  C   UNL A   1      38.713  28.590  28.478  1.00  0.00    -0.018 A 
BRANCH  25  26
ATOM     26  C   UNL A   1      39.892  27.706  28.406  1.00  0.00    -0.018 A 
ATOM     27  C   UNL A   1      41.200  28.228  28.348  1.00  0.00     0.010 A 
ATOM     28  C   UNL A   1      39.741  26.310  28.424  1.00  0.00     0.010 A 
ATOM     29  C   UNL A   1      42.319  27.388  28.357  1.00  0.00     0.021 A 
ATOM     30  C   UNL A   1      40.852  25.462  28.433  1.00  0.00     0.021 A 
ATOM     31  C   UNL A   1      42.138  26.006  28.418  1.00  0.00     0.067 A 
BRANCH  31  32
ATOM     32  S   UNL A   1      43.549  24.937  28.596  1.00  0.00     0.175 S 
ATOM     33  C   UNL A   1      44.936  25.885  28.044  1.00  0.00     0.163 C 
ATOM     34  O   UNL A   1      43.708  24.691  30.016  1.00  0.00    -0.224 OA
ATOM     35  O   UNL A   1      43.381  23.834  27.666  1.00  0.00    -0.224 OA
ENDBRANCH  31  32
ENDBRANCH  25  26
ENDBRANCH   8  20
ENDBRANCH   6   8
ENDBRANCH   5   6
ENDBRANCH   4   5
ENDBRANCH   3   4
ENDBRANCH   2   3
ENDBRANCH   1   2
BRANCH   1  36
ATOM     36  C   UNL A   1      38.665  34.169  33.968  1.00  0.00     0.188 C 
BRANCH  36  37
ATOM     37  O   UNL A   1      38.037  33.482  35.037  1.00  0.00    -0.376 OA
BRANCH  37  38
ATOM     38  C   UNL A   1      38.675  32.352  35.611  1.00  0.00     0.202 C 
BRANCH  38  39
ATOM     39  C   UNL A   1      38.205  30.917  35.292  1.00  0.00     0.261 C 
BRANCH  39  40
ATOM     40  O   UNL A   1      38.946  30.194  34.295  1.00  0.00    -0.460 OA
BRANCH  40  41
ATOM     41  C   UNL A   1      38.643  30.500  33.006  1.00  0.00     0.338 C 
ATOM     42  O   UNL A   1      37.542  30.662  32.524  1.00  0.00    -0.246 OA
BRANCH  41  43
ATOM     43  C   UNL A   1      39.892  30.805  32.268  1.00  0.00     0.060 A 
ATOM     44  C   UNL A   1      41.061  31.032  33.006  1.00  0.00     0.016 A 
ATOM     45  C   UNL A   1      39.902  30.922  30.877  1.00  0.00     0.016 A 
ATOM     46  C   UNL A   1      42.242  31.392  32.357  1.00  0.00     0.010 A 
ATOM     47  C   UNL A   1      41.082  31.308  30.230  1.00  0.00     0.010 A 
ATOM     48  C   UNL A   1      42.252  31.567  30.968  1.00  0.00    -0.014 A 
BRANCH  48  49
ATOM     49  C   UNL A   1      43.441  32.173  30.317  1.00  0.00     0.031 A 
ATOM     50  C   UNL A   1      43.353  33.594  29.833  1.00  0.00     0.074 A 
ATOM     51  C   UNL A   1      44.587  31.483  30.181  1.00  0.00     0.049 A 
ATOM     52  N   UNL A   1      44.261  34.331  29.248  1.00  0.00    -0.248 NA
ATOM     53  C   UNL A   1      42.063  34.272  30.034  1.00  0.00     0.031 C 
ATOM     54  C   UNL A   1      44.795  30.107  30.622  1.00  0.00     0.029 A 
ATOM     55  N   UNL A   1      45.792  31.843  29.627  1.00  0.00    -0.354 N 
ATOM     56  C   UNL A   1      43.651  35.555  29.002  1.00  0.00     0.074 A 
ATOM     57  C   UNL A   1      42.289  35.453  29.479  1.00  0.00     0.031 C 
ATOM     58  C   UNL A   1      46.054  29.740  30.331  1.00  0.00     0.029 A 
ATOM     59  C   UNL A   1      46.724  30.832  29.629  1.00  0.00     0.049 A 
ATOM     60  H   UNL A   1      45.971  32.741  29.263  1.00  0.00     0.167 HD
ATOM     61  C   UNL A   1      44.181  36.663  28.429  1.00  0.00     0.037 A 
ATOM     62  C   UNL A   1      47.961  30.784  29.094  1.00  0.00     0.037 A 
ATOM     63  C   UNL A   1      45.532  36.748  27.940  1.00  0.00     0.049 A 
ATOM     64  C   UNL A   1      48.504  32.009  28.398  1.00  0.00     0.074 A 
ATOM     65  C   UNL A   1      46.174  37.830  27.362  1.00  0.00     0.029 A 
ATOM     66  N   UNL A   1      46.446  35.703  27.950  1.00  0.00    -0.354 N 
ATOM     67  N   UNL A   1      47.958  33.194  28.261  1.00  0.00    -0.248 NA
ATOM     68  C   UNL A   1      49.850  31.903  27.818  1.00  0.00     0.031 C 
ATOM     69  C   UNL A   1      47.451  37.420  26.968  1.00  0.00     0.029 A 
ATOM     70  C   UNL A   1      47.636  36.105  27.365  1.00  0.00     0.049 A 
ATOM     71  H   UNL A   1      46.272  34.806  28.319  1.00  0.00     0.167 HD
ATOM     72  C   UNL A   1      48.901  33.981  27.606  1.00  0.00     0.074 A 
ATOM     73  C   UNL A   1      50.066  33.146  27.407  1.00  0.00     0.031 C 
ATOM     74  C   UNL A   1      48.809  35.277  27.211  1.00  0.00     0.037 A 
BRANCH  61  75
ATOM     75  C   UNL A   1      43.283  37.858  28.267  1.00  0.00     0.064 A 
ATOM     76  C   UNL A   1      42.441  38.007  27.155  1.00  0.00     0.173 A 
ATOM     77  C   UNL A   1      43.248  38.857  29.253  1.00  0.00     0.173 A 
ATOM     78  F   UNL A   1      42.445  37.090  26.177  1.00  0.00    -0.203 F 
ATOM     79  C   UNL A   1      41.621  39.126  27.020  1.00  0.00     0.198 A 
ATOM     80  C   UNL A   1      42.403  39.957  29.131  1.00  0.00     0.198 A 
ATOM     81  F   UNL A   1      44.029  38.764  30.340  1.00  0.00    -0.203 F 
ATOM     82  F   UNL A   1      40.867  39.274  25.923  1.00  0.00    -0.200 F 
ATOM     83  C   UNL A   1      41.598  40.096  28.012  1.00  0.00     0.200 A 
ATOM     84  F   UNL A   1      42.372  40.886  30.097  1.00  0.00    -0.200 F 
ATOM     85  F   UNL A   1      40.805  41.168  27.884  1.00  0.00    -0.200 F 
ENDBRANCH  61  75
BRANCH  62  86
ATOM     86  C   UNL A   1      48.770  29.535  29.190  1.00  0.00     0.064 A 
ATOM     87  C   UNL A   1      49.673  29.326  30.241  1.00  0.00     0.173 A 
ATOM     88  C   UNL A   1      48.667  28.523  28.225  1.00  0.00     0.173 A 
ATOM     89  F   UNL A   1      49.841  30.272  31.172  1.00  0.00    -0.203 F 
ATOM     90  C   UNL A   1      50.446  28.169  30.324  1.00  0.00     0.198 A 
ATOM     91  C   UNL A   1      49.420  27.353  28.319  1.00  0.00     0.198 A 
ATOM     92  F   UNL A   1      47.826  28.666  27.191  1.00  0.00    -0.203 F 
ATOM     93  F   UNL A   1      51.328  28.025  31.321  1.00  0.00    -0.200 F 
ATOM     94  C   UNL A   1      50.314  27.180  29.365  1.00  0.00     0.200 A 
ATOM     95  F   UNL A   1      49.282  26.395  27.393  1.00  0.00    -0.200 F 
ATOM     96  F   UNL A   1      51.055  26.066  29.441  1.00  0.00    -0.200 F 
ENDBRANCH  62  86
BRANCH  74  97
ATOM     97  C   UNL A   1      50.028  35.909  26.591  1.00  0.00     0.064 A 
ATOM     98  C   UNL A   1      51.032  36.513  27.362  1.00  0.00     0.173 A 
ATOM     99  C   UNL A   1      50.216  35.859  25.200  1.00  0.00     0.173 A 
ATOM    100  F   UNL A   1      50.901  36.595  28.695  1.00  0.00    -0.203 F 
ATOM    101  C   UNL A   1      52.156  37.077  26.762  1.00  0.00     0.198 A 
ATOM    102  C   UNL A   1      51.360  36.386  24.607  1.00  0.00     0.198 A 
ATOM    103  F   UNL A   1      49.294  35.283  24.414  1.00  0.00    -0.203 F 
ATOM    104  F   UNL A   1      53.071  37.702  27.516  1.00  0.00    -0.200 F 
ATOM    105  C   UNL A   1      52.325  37.005  25.387  1.00  0.00     0.200 A 
ATOM    106  F   UNL A   1      51.530  36.293  23.281  1.00  0.00    -0.200 F 
ATOM    107  F   UNL A   1      53.412  37.536  24.815  1.00  0.00    -0.200 F 
ENDBRANCH  74  97
ENDBRANCH  48  49
ENDBRANCH  41  43
ENDBRANCH  40  41
ENDBRANCH  39  40
ENDBRANCH  38  39
ENDBRANCH  37  38
ENDBRANCH  36  37
ENDBRANCH   1  36
TORSDOF 22
ENDMDL
