MODEL 1
REMARK VINA RESULT:     -11.4      0.000      0.000
REMARK SMILES O=C(OCCOCCOCCOC(=O)[C@@H]1[C@H](C(=O)Nc2ccccc2OC(F)F)[C@@H]2C=C[C@H]1C2)c1ccc(-c2c3nc(c(-c4c(F)c(F)c(F)c(F)c4F)c4ccc([nH]4)c(-c4c(F)c(F)c(F)c(F)c4F)c4nc(c(-c5c(F)c(F)c(F)c(F)c5F)c5ccc2[nH]5)C=C4)C=C3)cc1
REMARK SMILES IDX 8 1 7 2 6 3 5 4 4 5 3 6 2 7 1 8 35 9 36 10 97 11 37 12 96 13
REMARK SMILES IDX 38 14 39 15 40 16 90 17 41 18 95 19 89 20 91 21 42 22 94 23
REMARK SMILES IDX 88 24 87 25 43 27 75 28 55 29 74 30 56 31 59 32 73 33 92 34
REMARK SMILES IDX 57 35 58 36 72 38 93 39 60 40 44 41 45 42 53 43 46 44 47 45
REMARK SMILES IDX 51 46 54 47 48 48 49 49 52 50 50 51 76 52 77 53 85 54 78 55
REMARK SMILES IDX 79 56 83 57 86 58 80 59 81 60 84 61 82 62 61 63 62 64 70 65
REMARK SMILES IDX 63 66 64 67 68 68 71 69 65 70 66 71 69 72 67 73 9 74 10 75
REMARK SMILES IDX 11 76 12 77 13 78 14 79 15 80 16 81 33 82 30 83 32 84 34 85
REMARK SMILES IDX 31 86 17 87 18 88 19 89 20 91 21 92 25 93 22 94 24 95 23 96
REMARK SMILES IDX 26 97 27 98 28 99 29 100
REMARK H PARENT 91 26 59 37 19 90
REMARK Flexibility Score: inf
ROOT
ATOM      1  C   UNL A   1      40.027  21.261  26.467  1.00  0.00     0.188 C 
ENDROOT
BRANCH   1   2
ATOM      2  C   UNL A   1      41.015  21.237  27.647  1.00  0.00     0.188 C 
BRANCH   2   3
ATOM      3  O   UNL A   1      42.247  20.591  27.328  1.00  0.00    -0.376 OA
BRANCH   3   4
ATOM      4  C   UNL A   1      42.615  20.738  25.947  1.00  0.00     0.202 C 
BRANCH   4   5
ATOM      5  C   UNL A   1      43.556  21.918  25.628  1.00  0.00     0.261 C 
BRANCH   5   6
ATOM      6  O   UNL A   1      42.778  23.081  25.311  1.00  0.00    -0.460 OA
BRANCH   6   7
ATOM      7  C   UNL A   1      43.456  24.246  25.212  1.00  0.00     0.338 C 
ATOM      8  O   UNL A   1      44.440  24.433  24.513  1.00  0.00    -0.246 OA
BRANCH   7   9
ATOM      9  C   UNL A   1      43.009  25.157  26.286  1.00  0.00     0.060 A 
ATOM     10  C   UNL A   1      43.587  26.427  26.423  1.00  0.00     0.016 A 
ATOM     11  C   UNL A   1      41.951  24.770  27.112  1.00  0.00     0.016 A 
ATOM     12  C   UNL A   1      43.064  27.344  27.323  1.00  0.00     0.010 A 
ATOM     13  C   UNL A   1      41.426  25.687  28.024  1.00  0.00     0.010 A 
ATOM     14  C   UNL A   1      41.991  26.972  28.136  1.00  0.00    -0.014 A 
BRANCH  14  15
ATOM     15  C   UNL A   1      41.744  27.799  29.331  1.00  0.00     0.031 A 
ATOM     16  C   UNL A   1      40.566  28.720  29.237  1.00  0.00     0.074 A 
ATOM     17  C   UNL A   1      42.438  27.655  30.473  1.00  0.00     0.049 A 
ATOM     18  N   UNL A   1      40.013  29.465  30.153  1.00  0.00    -0.248 NA
ATOM     19  C   UNL A   1      39.892  28.778  27.925  1.00  0.00     0.031 C 
ATOM     20  C   UNL A   1      43.542  26.725  30.687  1.00  0.00     0.029 A 
ATOM     21  N   UNL A   1      42.311  28.301  31.676  1.00  0.00    -0.354 N 
ATOM     22  C   UNL A   1      38.910  30.038  29.538  1.00  0.00     0.074 A 
ATOM     23  C   UNL A   1      38.905  29.619  28.159  1.00  0.00     0.031 C 
ATOM     24  C   UNL A   1      44.035  26.900  31.926  1.00  0.00     0.029 A 
ATOM     25  C   UNL A   1      43.260  27.936  32.600  1.00  0.00     0.049 A 
ATOM     26  H   UNL A   1      41.606  28.964  31.859  1.00  0.00     0.167 HD
ATOM     27  C   UNL A   1      37.962  30.826  30.086  1.00  0.00     0.037 A 
ATOM     28  C   UNL A   1      43.463  28.398  33.848  1.00  0.00     0.037 A 
ATOM     29  C   UNL A   1      38.024  31.296  31.436  1.00  0.00     0.049 A 
ATOM     30  C   UNL A   1      42.477  29.395  34.401  1.00  0.00     0.074 A 
ATOM     31  C   UNL A   1      37.183  32.170  32.092  1.00  0.00     0.029 A 
ATOM     32  N   UNL A   1      39.026  30.941  32.332  1.00  0.00    -0.354 N 
ATOM     33  N   UNL A   1      41.411  29.908  33.830  1.00  0.00    -0.248 NA
ATOM     34  C   UNL A   1      42.698  29.857  35.777  1.00  0.00     0.031 C 
ATOM     35  C   UNL A   1      37.704  32.381  33.373  1.00  0.00     0.029 A 
ATOM     36  C   UNL A   1      38.840  31.598  33.531  1.00  0.00     0.049 A 
ATOM     37  H   UNL A   1      39.760  30.312  32.138  1.00  0.00     0.167 HD
ATOM     38  C   UNL A   1      40.814  30.719  34.784  1.00  0.00     0.074 A 
ATOM     39  C   UNL A   1      41.638  30.629  35.974  1.00  0.00     0.031 C 
ATOM     40  C   UNL A   1      39.683  31.463  34.693  1.00  0.00     0.037 A 
BRANCH  27  41
ATOM     41  C   UNL A   1      36.853  31.242  29.171  1.00  0.00     0.064 A 
ATOM     42  C   UNL A   1      36.739  32.569  28.721  1.00  0.00     0.173 A 
ATOM     43  C   UNL A   1      35.816  30.351  28.865  1.00  0.00     0.173 A 
ATOM     44  F   UNL A   1      37.683  33.471  29.032  1.00  0.00    -0.203 F 
ATOM     45  C   UNL A   1      35.601  32.999  28.043  1.00  0.00     0.198 A 
ATOM     46  C   UNL A   1      34.692  30.779  28.163  1.00  0.00     0.198 A 
ATOM     47  F   UNL A   1      35.867  29.081  29.293  1.00  0.00    -0.203 F 
ATOM     48  F   UNL A   1      35.470  34.290  27.708  1.00  0.00    -0.200 F 
ATOM     49  C   UNL A   1      34.579  32.104  27.767  1.00  0.00     0.200 A 
ATOM     50  F   UNL A   1      33.699  29.918  27.906  1.00  0.00    -0.200 F 
ATOM     51  F   UNL A   1      33.468  32.525  27.147  1.00  0.00    -0.200 F 
ENDBRANCH  27  41
BRANCH  28  52
ATOM     52  C   UNL A   1      44.610  27.904  34.656  1.00  0.00     0.064 A 
ATOM     53  C   UNL A   1      45.852  28.552  34.634  1.00  0.00     0.173 A 
ATOM     54  C   UNL A   1      44.489  26.764  35.467  1.00  0.00     0.173 A 
ATOM     55  F   UNL A   1      46.029  29.632  33.859  1.00  0.00    -0.203 F 
ATOM     56  C   UNL A   1      46.931  28.075  35.379  1.00  0.00     0.198 A 
ATOM     57  C   UNL A   1      45.562  26.300  36.229  1.00  0.00     0.198 A 
ATOM     58  F   UNL A   1      43.326  26.099  35.523  1.00  0.00    -0.203 F 
ATOM     59  F   UNL A   1      48.118  28.694  35.310  1.00  0.00    -0.200 F 
ATOM     60  C   UNL A   1      46.783  26.952  36.180  1.00  0.00     0.200 A 
ATOM     61  F   UNL A   1      45.413  25.218  37.007  1.00  0.00    -0.200 F 
ATOM     62  F   UNL A   1      47.819  26.496  36.898  1.00  0.00    -0.200 F 
ENDBRANCH  28  52
BRANCH  40  63
ATOM     63  C   UNL A   1      39.252  32.205  35.920  1.00  0.00     0.064 A 
ATOM     64  C   UNL A   1      39.679  33.516  36.171  1.00  0.00     0.173 A 
ATOM     65  C   UNL A   1      38.328  31.624  36.801  1.00  0.00     0.173 A 
ATOM     66  F   UNL A   1      40.570  34.104  35.359  1.00  0.00    -0.203 F 
ATOM     67  C   UNL A   1      39.201  34.217  37.273  1.00  0.00     0.198 A 
ATOM     68  C   UNL A   1      37.833  32.339  37.885  1.00  0.00     0.198 A 
ATOM     69  F   UNL A   1      37.887  30.375  36.591  1.00  0.00    -0.203 F 
ATOM     70  F   UNL A   1      39.640  35.460  37.514  1.00  0.00    -0.200 F 
ATOM     71  C   UNL A   1      38.271  33.633  38.122  1.00  0.00     0.200 A 
ATOM     72  F   UNL A   1      36.923  31.780  38.694  1.00  0.00    -0.200 F 
ATOM     73  F   UNL A   1      37.797  34.319  39.171  1.00  0.00    -0.200 F 
ENDBRANCH  40  63
ENDBRANCH  14  15
ENDBRANCH   7   9
ENDBRANCH   6   7
ENDBRANCH   5   6
ENDBRANCH   4   5
ENDBRANCH   3   4
ENDBRANCH   2   3
ENDBRANCH   1   2
BRANCH   1  74
ATOM     74  O   UNL A   1      39.028  22.281  26.432  1.00  0.00    -0.376 OA
BRANCH  74  75
ATOM     75  C   UNL A   1      38.012  22.153  25.410  1.00  0.00     0.202 C 
BRANCH  75  76
ATOM     76  C   UNL A   1      36.648  22.893  25.649  1.00  0.00     0.261 C 
BRANCH  76  77
ATOM     77  O   UNL A   1      36.275  23.905  24.631  1.00  0.00    -0.463 OA
BRANCH  77  78
ATOM     78  C   UNL A   1      35.684  23.424  23.480  1.00  0.00     0.310 C 
ATOM     79  O   UNL A   1      36.374  22.999  22.554  1.00  0.00    -0.252 OA
BRANCH  78  80
ATOM     80  C   UNL A   1      34.139  23.619  23.318  1.00  0.00     0.119 C 
ATOM     81  C   UNL A   1      32.964  24.485  23.976  1.00  0.00     0.100 C 
ATOM     82  C   UNL A   1      33.479  22.186  23.380  1.00  0.00     0.027 C 
ATOM     83  C   UNL A   1      31.819  23.424  24.178  1.00  0.00     0.025 C 
ATOM     84  C   UNL A   1      33.258  21.774  24.821  1.00  0.00    -0.027 C 
ATOM     85  C   UNL A   1      32.028  22.489  23.001  1.00  0.00     0.017 C 
ATOM     86  C   UNL A   1      32.231  22.493  25.289  1.00  0.00    -0.027 C 
BRANCH  81  87
ATOM     87  C   UNL A   1      32.669  25.469  25.130  1.00  0.00     0.229 C 
ATOM     88  O   UNL A   1      33.391  25.385  26.139  1.00  0.00    -0.274 OA
ATOM     89  N   UNL A   1      31.915  26.592  25.080  1.00  0.00    -0.323 N 
ATOM     90  H   UNL A   1      32.096  27.247  25.793  1.00  0.00     0.170 HD
BRANCH  89  91
ATOM     91  C   UNL A   1      30.930  26.963  24.185  1.00  0.00     0.084 A 
ATOM     92  C   UNL A   1      29.677  26.352  24.286  1.00  0.00     0.030 A 
ATOM     93  C   UNL A   1      31.115  27.978  23.284  1.00  0.00     0.149 A 
ATOM     94  C   UNL A   1      28.558  26.963  23.717  1.00  0.00     0.002 A 
ATOM     95  C   UNL A   1      29.979  28.680  22.866  1.00  0.00     0.049 A 
ATOM     96  C   UNL A   1      28.701  28.185  23.080  1.00  0.00     0.004 A 
BRANCH  93  97
ATOM     97  O   UNL A   1      32.283  28.338  22.700  1.00  0.00    -0.433 OA
BRANCH  97  98
ATOM     98  C   UNL A   1      33.401  28.974  23.308  1.00  0.00     0.542 C 
ATOM     99  F   UNL A   1      32.986  29.615  24.430  1.00  0.00    -0.167 F 
ATOM    100  F   UNL A   1      34.346  28.092  23.641  1.00  0.00    -0.167 F 
ENDBRANCH  97  98
ENDBRANCH  93  97
ENDBRANCH  89  91
ENDBRANCH  81  87
ENDBRANCH  78  80
ENDBRANCH  77  78
ENDBRANCH  76  77
ENDBRANCH  75  76
ENDBRANCH  74  75
ENDBRANCH   1  74
TORSDOF 21
ENDMDL
MODEL 2
REMARK VINA RESULT:     -11.3      1.159      2.223
REMARK SMILES O=C(OCCOCCOCCOC(=O)[C@@H]1[C@H](C(=O)Nc2ccccc2OC(F)F)[C@@H]2C=C[C@H]1C2)c1ccc(-c2c3nc(c(-c4c(F)c(F)c(F)c(F)c4F)c4ccc([nH]4)c(-c4c(F)c(F)c(F)c(F)c4F)c4nc(c(-c5c(F)c(F)c(F)c(F)c5F)c5ccc2[nH]5)C=C4)C=C3)cc1
REMARK SMILES IDX 8 1 7 2 6 3 5 4 4 5 3 6 2 7 1 8 35 9 36 10 97 11 37 12 96 13
REMARK SMILES IDX 38 14 39 15 40 16 90 17 41 18 95 19 89 20 91 21 42 22 94 23
REMARK SMILES IDX 88 24 87 25 43 27 75 28 55 29 74 30 56 31 59 32 73 33 92 34
REMARK SMILES IDX 57 35 58 36 72 38 93 39 60 40 44 41 45 42 53 43 46 44 47 45
REMARK SMILES IDX 51 46 54 47 48 48 49 49 52 50 50 51 76 52 77 53 85 54 78 55
REMARK SMILES IDX 79 56 83 57 86 58 80 59 81 60 84 61 82 62 61 63 62 64 70 65
REMARK SMILES IDX 63 66 64 67 68 68 71 69 65 70 66 71 69 72 67 73 9 74 10 75
REMARK SMILES IDX 11 76 12 77 13 78 14 79 15 80 16 81 33 82 30 83 32 84 34 85
REMARK SMILES IDX 31 86 17 87 18 88 19 89 20 91 21 92 25 93 22 94 24 95 23 96
REMARK SMILES IDX 26 97 27 98 28 99 29 100
REMARK H PARENT 91 26 59 37 19 90
REMARK Flexibility Score: inf
ROOT
ATOM      1  C   UNL A   1      40.129  21.432  26.832  1.00  0.00     0.188 C 
ENDROOT
BRANCH   1   2
ATOM      2  C   UNL A   1      40.559  20.114  26.162  1.00  0.00     0.188 C 
BRANCH   2   3
ATOM      3  O   UNL A   1      41.860  20.183  25.582  1.00  0.00    -0.376 OA
BRANCH   3   4
ATOM      4  C   UNL A   1      42.753  21.040  26.311  1.00  0.00     0.202 C 
BRANCH   4   5
ATOM      5  C   UNL A   1      43.561  22.041  25.460  1.00  0.00     0.261 C 
BRANCH   5   6
ATOM      6  O   UNL A   1      42.779  23.223  25.235  1.00  0.00    -0.460 OA
BRANCH   6   7
ATOM      7  C   UNL A   1      43.460  24.389  25.172  1.00  0.00     0.338 C 
ATOM      8  O   UNL A   1      44.464  24.585  24.506  1.00  0.00    -0.246 OA
BRANCH   7   9
ATOM      9  C   UNL A   1      42.981  25.285  26.245  1.00  0.00     0.060 A 
ATOM     10  C   UNL A   1      43.523  26.570  26.388  1.00  0.00     0.016 A 
ATOM     11  C   UNL A   1      41.928  24.868  27.062  1.00  0.00     0.016 A 
ATOM     12  C   UNL A   1      42.970  27.471  27.286  1.00  0.00     0.010 A 
ATOM     13  C   UNL A   1      41.371  25.770  27.972  1.00  0.00     0.010 A 
ATOM     14  C   UNL A   1      41.901  27.068  28.090  1.00  0.00    -0.014 A 
BRANCH  14  15
ATOM     15  C   UNL A   1      41.623  27.886  29.285  1.00  0.00     0.031 A 
ATOM     16  C   UNL A   1      40.429  28.785  29.179  1.00  0.00     0.074 A 
ATOM     17  C   UNL A   1      42.305  27.752  30.436  1.00  0.00     0.049 A 
ATOM     18  N   UNL A   1      39.850  29.516  30.091  1.00  0.00    -0.248 NA
ATOM     19  C   UNL A   1      39.770  28.834  27.859  1.00  0.00     0.031 C 
ATOM     20  C   UNL A   1      43.425  26.842  30.660  1.00  0.00     0.029 A 
ATOM     21  N   UNL A   1      42.151  28.390  31.639  1.00  0.00    -0.354 N 
ATOM     22  C   UNL A   1      38.744  30.069  29.464  1.00  0.00     0.074 A 
ATOM     23  C   UNL A   1      38.764  29.656  28.084  1.00  0.00     0.031 C 
ATOM     24  C   UNL A   1      43.898  27.022  31.905  1.00  0.00     0.029 A 
ATOM     25  C   UNL A   1      43.095  28.040  32.573  1.00  0.00     0.049 A 
ATOM     26  H   UNL A   1      41.431  29.039  31.815  1.00  0.00     0.167 HD
ATOM     27  C   UNL A   1      37.774  30.837  30.003  1.00  0.00     0.037 A 
ATOM     28  C   UNL A   1      43.273  28.502  33.826  1.00  0.00     0.037 A 
ATOM     29  C   UNL A   1      37.810  31.303  31.355  1.00  0.00     0.049 A 
ATOM     30  C   UNL A   1      42.261  29.478  34.370  1.00  0.00     0.074 A 
ATOM     31  C   UNL A   1      36.944  32.158  32.004  1.00  0.00     0.029 A 
ATOM     32  N   UNL A   1      38.808  30.964  32.262  1.00  0.00    -0.354 N 
ATOM     33  N   UNL A   1      41.193  29.972  33.787  1.00  0.00    -0.248 NA
ATOM     34  C   UNL A   1      42.457  29.939  35.750  1.00  0.00     0.031 C 
ATOM     35  C   UNL A   1      37.445  32.375  33.292  1.00  0.00     0.029 A 
ATOM     36  C   UNL A   1      38.594  31.613  33.461  1.00  0.00     0.049 A 
ATOM     37  H   UNL A   1      39.556  30.351  32.076  1.00  0.00     0.167 HD
ATOM     38  C   UNL A   1      40.568  30.767  34.736  1.00  0.00     0.074 A 
ATOM     39  C   UNL A   1      41.380  30.689  35.936  1.00  0.00     0.031 C 
ATOM     40  C   UNL A   1      39.425  31.491  34.633  1.00  0.00     0.037 A 
BRANCH  27  41
ATOM     41  C   UNL A   1      36.669  31.235  29.075  1.00  0.00     0.064 A 
ATOM     42  C   UNL A   1      36.533  32.562  28.632  1.00  0.00     0.173 A 
ATOM     43  C   UNL A   1      35.656  30.324  28.750  1.00  0.00     0.173 A 
ATOM     44  F   UNL A   1      37.453  33.483  28.961  1.00  0.00    -0.203 F 
ATOM     45  C   UNL A   1      35.395  32.972  27.941  1.00  0.00     0.198 A 
ATOM     46  C   UNL A   1      34.533  30.732  28.035  1.00  0.00     0.198 A 
ATOM     47  F   UNL A   1      35.728  29.053  29.171  1.00  0.00    -0.203 F 
ATOM     48  F   UNL A   1      35.241  34.262  27.612  1.00  0.00    -0.200 F 
ATOM     49  C   UNL A   1      34.396  32.057  27.646  1.00  0.00     0.200 A 
ATOM     50  F   UNL A   1      33.561  29.852  27.759  1.00  0.00    -0.200 F 
ATOM     51  F   UNL A   1      33.285  32.459  27.013  1.00  0.00    -0.200 F 
ENDBRANCH  27  41
BRANCH  28  52
ATOM     52  C   UNL A   1      44.420  28.027  34.646  1.00  0.00     0.064 A 
ATOM     53  C   UNL A   1      44.342  26.847  35.397  1.00  0.00     0.173 A 
ATOM     54  C   UNL A   1      45.623  28.749  34.698  1.00  0.00     0.173 A 
ATOM     55  F   UNL A   1      43.209  26.130  35.400  1.00  0.00    -0.203 F 
ATOM     56  C   UNL A   1      45.414  26.414  36.179  1.00  0.00     0.198 A 
ATOM     57  C   UNL A   1      46.701  28.305  35.463  1.00  0.00     0.198 A 
ATOM     58  F   UNL A   1      45.752  29.890  34.006  1.00  0.00    -0.203 F 
ATOM     59  F   UNL A   1      45.297  25.300  36.915  1.00  0.00    -0.200 F 
ATOM     60  C   UNL A   1      46.594  27.141  36.207  1.00  0.00     0.200 A 
ATOM     61  F   UNL A   1      47.843  29.008  35.483  1.00  0.00    -0.200 F 
ATOM     62  F   UNL A   1      47.624  26.723  36.956  1.00  0.00    -0.200 F 
ENDBRANCH  28  52
BRANCH  40  63
ATOM     63  C   UNL A   1      38.964  32.219  35.857  1.00  0.00     0.064 A 
ATOM     64  C   UNL A   1      38.218  31.578  36.854  1.00  0.00     0.173 A 
ATOM     65  C   UNL A   1      39.357  33.550  36.069  1.00  0.00     0.173 A 
ATOM     66  F   UNL A   1      37.813  30.310  36.686  1.00  0.00    -0.203 F 
ATOM     67  C   UNL A   1      37.870  32.250  38.021  1.00  0.00     0.198 A 
ATOM     68  C   UNL A   1      39.031  34.208  37.249  1.00  0.00     0.198 A 
ATOM     69  F   UNL A   1      40.080  34.197  35.144  1.00  0.00    -0.203 F 
ATOM     70  F   UNL A   1      37.133  31.630  38.953  1.00  0.00    -0.200 F 
ATOM     71  C   UNL A   1      38.286  33.559  38.223  1.00  0.00     0.200 A 
ATOM     72  F   UNL A   1      39.447  35.466  37.449  1.00  0.00    -0.200 F 
ATOM     73  F   UNL A   1      37.968  34.197  39.357  1.00  0.00    -0.200 F 
ENDBRANCH  40  63
ENDBRANCH  14  15
ENDBRANCH   7   9
ENDBRANCH   6   7
ENDBRANCH   5   6
ENDBRANCH   4   5
ENDBRANCH   3   4
ENDBRANCH   2   3
ENDBRANCH   1   2
BRANCH   1  74
ATOM     74  O   UNL A   1      39.048  22.169  26.259  1.00  0.00    -0.376 OA
BRANCH  74  75
ATOM     75  C   UNL A   1      38.141  21.426  25.411  1.00  0.00     0.202 C 
BRANCH  75  76
ATOM     76  C   UNL A   1      36.658  21.934  25.319  1.00  0.00     0.261 C 
BRANCH  76  77
ATOM     77  O   UNL A   1      35.709  21.337  26.291  1.00  0.00    -0.463 OA
BRANCH  77  78
ATOM     78  C   UNL A   1      34.403  21.780  26.218  1.00  0.00     0.310 C 
ATOM     79  O   UNL A   1      33.505  21.176  26.805  1.00  0.00    -0.252 OA
BRANCH  78  80
ATOM     80  C   UNL A   1      34.081  22.939  25.217  1.00  0.00     0.119 C 
ATOM     81  C   UNL A   1      33.214  24.284  25.179  1.00  0.00     0.100 C 
ATOM     82  C   UNL A   1      33.595  22.272  23.872  1.00  0.00     0.027 C 
ATOM     83  C   UNL A   1      32.494  24.197  23.782  1.00  0.00     0.025 C 
ATOM     84  C   UNL A   1      32.116  21.953  23.950  1.00  0.00    -0.027 C 
ATOM     85  C   UNL A   1      33.522  23.476  22.929  1.00  0.00     0.017 C 
ATOM     86  C   UNL A   1      31.452  23.111  23.856  1.00  0.00    -0.027 C 
BRANCH  81  87
ATOM     87  C   UNL A   1      32.187  25.101  25.995  1.00  0.00     0.229 C 
ATOM     88  O   UNL A   1      31.668  24.535  26.973  1.00  0.00    -0.274 OA
ATOM     89  N   UNL A   1      31.984  26.439  25.958  1.00  0.00    -0.323 N 
ATOM     90  H   UNL A   1      31.536  26.814  26.750  1.00  0.00     0.170 HD
BRANCH  89  91
ATOM     91  C   UNL A   1      32.308  27.361  24.981  1.00  0.00     0.084 A 
ATOM     92  C   UNL A   1      33.630  27.805  24.901  1.00  0.00     0.030 A 
ATOM     93  C   UNL A   1      31.402  27.762  24.036  1.00  0.00     0.149 A 
ATOM     94  C   UNL A   1      34.097  28.382  23.718  1.00  0.00     0.002 A 
ATOM     95  C   UNL A   1      31.906  28.175  22.797  1.00  0.00     0.049 A 
ATOM     96  C   UNL A   1      33.248  28.483  22.628  1.00  0.00     0.004 A 
BRANCH  93  97
ATOM     97  O   UNL A   1      30.060  27.862  24.192  1.00  0.00    -0.433 OA
BRANCH  97  98
ATOM     98  C   UNL A   1      29.084  26.842  24.019  1.00  0.00     0.542 C 
ATOM     99  F   UNL A   1      28.071  27.328  23.256  1.00  0.00    -0.167 F 
ATOM    100  F   UNL A   1      29.597  25.768  23.417  1.00  0.00    -0.167 F 
ENDBRANCH  97  98
ENDBRANCH  93  97
ENDBRANCH  89  91
ENDBRANCH  81  87
ENDBRANCH  78  80
ENDBRANCH  77  78
ENDBRANCH  76  77
ENDBRANCH  75  76
ENDBRANCH  74  75
ENDBRANCH   1  74
TORSDOF 21
ENDMDL
MODEL 3
REMARK VINA RESULT:     -11.2      1.323      7.206
REMARK SMILES O=C(OCCOCCOCCOC(=O)[C@@H]1[C@H](C(=O)Nc2ccccc2OC(F)F)[C@@H]2C=C[C@H]1C2)c1ccc(-c2c3nc(c(-c4c(F)c(F)c(F)c(F)c4F)c4ccc([nH]4)c(-c4c(F)c(F)c(F)c(F)c4F)c4nc(c(-c5c(F)c(F)c(F)c(F)c5F)c5ccc2[nH]5)C=C4)C=C3)cc1
REMARK SMILES IDX 8 1 7 2 6 3 5 4 4 5 3 6 2 7 1 8 35 9 36 10 97 11 37 12 96 13
REMARK SMILES IDX 38 14 39 15 40 16 90 17 41 18 95 19 89 20 91 21 42 22 94 23
REMARK SMILES IDX 88 24 87 25 43 27 75 28 55 29 74 30 56 31 59 32 73 33 92 34
REMARK SMILES IDX 57 35 58 36 72 38 93 39 60 40 44 41 45 42 53 43 46 44 47 45
REMARK SMILES IDX 51 46 54 47 48 48 49 49 52 50 50 51 76 52 77 53 85 54 78 55
REMARK SMILES IDX 79 56 83 57 86 58 80 59 81 60 84 61 82 62 61 63 62 64 70 65
REMARK SMILES IDX 63 66 64 67 68 68 71 69 65 70 66 71 69 72 67 73 9 74 10 75
REMARK SMILES IDX 11 76 12 77 13 78 14 79 15 80 16 81 33 82 30 83 32 84 34 85
REMARK SMILES IDX 31 86 17 87 18 88 19 89 20 91 21 92 25 93 22 94 24 95 23 96
REMARK SMILES IDX 26 97 27 98 28 99 29 100
REMARK H PARENT 91 26 59 37 19 90
REMARK Flexibility Score: inf
ROOT
ATOM      1  C   UNL A   1      40.015  21.609  26.702  1.00  0.00     0.188 C 
ENDROOT
BRANCH   1   2
ATOM      2  C   UNL A   1      40.766  20.280  26.500  1.00  0.00     0.188 C 
BRANCH   2   3
ATOM      3  O   UNL A   1      41.973  20.430  25.754  1.00  0.00    -0.376 OA
BRANCH   3   4
ATOM      4  C   UNL A   1      42.791  21.512  26.225  1.00  0.00     0.202 C 
BRANCH   4   5
ATOM      5  C   UNL A   1      43.663  22.205  25.157  1.00  0.00     0.261 C 
BRANCH   5   6
ATOM      6  O   UNL A   1      43.059  23.449  24.777  1.00  0.00    -0.460 OA
BRANCH   6   7
ATOM      7  C   UNL A   1      43.791  24.563  25.001  1.00  0.00     0.338 C 
ATOM      8  O   UNL A   1      44.939  24.742  24.624  1.00  0.00    -0.246 OA
BRANCH   7   9
ATOM      9  C   UNL A   1      43.104  25.397  26.008  1.00  0.00     0.060 A 
ATOM     10  C   UNL A   1      43.667  26.611  26.425  1.00  0.00     0.016 A 
ATOM     11  C   UNL A   1      41.850  25.001  26.481  1.00  0.00     0.016 A 
ATOM     12  C   UNL A   1      42.954  27.472  27.247  1.00  0.00     0.010 A 
ATOM     13  C   UNL A   1      41.131  25.862  27.313  1.00  0.00     0.010 A 
ATOM     14  C   UNL A   1      41.689  27.093  27.704  1.00  0.00    -0.014 A 
BRANCH  14  15
ATOM     15  C   UNL A   1      41.159  27.821  28.872  1.00  0.00     0.031 A 
ATOM     16  C   UNL A   1      41.923  27.623  30.146  1.00  0.00     0.074 A 
ATOM     17  C   UNL A   1      40.145  28.699  28.786  1.00  0.00     0.049 A 
ATOM     18  N   UNL A   1      41.796  28.221  31.298  1.00  0.00    -0.248 NA
ATOM     19  C   UNL A   1      43.016  26.632  30.099  1.00  0.00     0.031 C 
ATOM     20  C   UNL A   1      39.400  29.022  27.574  1.00  0.00     0.029 A 
ATOM     21  N   UNL A   1      39.566  29.482  29.750  1.00  0.00    -0.354 N 
ATOM     22  C   UNL A   1      42.814  27.709  32.087  1.00  0.00     0.074 A 
ATOM     23  C   UNL A   1      43.508  26.705  31.320  1.00  0.00     0.031 C 
ATOM     24  C   UNL A   1      38.420  29.892  27.876  1.00  0.00     0.029 A 
ATOM     25  C   UNL A   1      38.491  30.207  29.297  1.00  0.00     0.049 A 
ATOM     26  H   UNL A   1      39.892  29.522  30.679  1.00  0.00     0.167 HD
ATOM     27  C   UNL A   1      43.162  28.067  33.340  1.00  0.00     0.037 A 
ATOM     28  C   UNL A   1      37.667  31.030  29.974  1.00  0.00     0.037 A 
ATOM     29  C   UNL A   1      42.416  29.009  34.117  1.00  0.00     0.049 A 
ATOM     30  C   UNL A   1      37.980  31.310  31.422  1.00  0.00     0.074 A 
ATOM     31  C   UNL A   1      42.601  29.397  35.427  1.00  0.00     0.029 A 
ATOM     32  N   UNL A   1      41.302  29.692  33.640  1.00  0.00    -0.354 N 
ATOM     33  N   UNL A   1      38.967  30.853  32.157  1.00  0.00    -0.248 NA
ATOM     34  C   UNL A   1      37.088  32.239  32.128  1.00  0.00     0.031 C 
ATOM     35  C   UNL A   1      41.568  30.281  35.759  1.00  0.00     0.029 A 
ATOM     36  C   UNL A   1      40.772  30.483  34.640  1.00  0.00     0.049 A 
ATOM     37  H   UNL A   1      40.945  29.622  32.724  1.00  0.00     0.167 HD
ATOM     38  C   UNL A   1      38.842  31.466  33.395  1.00  0.00     0.074 A 
ATOM     39  C   UNL A   1      37.679  32.329  33.311  1.00  0.00     0.031 C 
ATOM     40  C   UNL A   1      39.618  31.337  34.501  1.00  0.00     0.037 A 
BRANCH  27  41
ATOM     41  C   UNL A   1      44.356  27.368  33.910  1.00  0.00     0.064 A 
ATOM     42  C   UNL A   1      44.222  26.167  34.628  1.00  0.00     0.173 A 
ATOM     43  C   UNL A   1      45.618  27.975  33.870  1.00  0.00     0.173 A 
ATOM     44  F   UNL A   1      43.023  25.574  34.737  1.00  0.00    -0.203 F 
ATOM     45  C   UNL A   1      45.299  25.629  35.329  1.00  0.00     0.198 A 
ATOM     46  C   UNL A   1      46.699  27.418  34.549  1.00  0.00     0.198 A 
ATOM     47  F   UNL A   1      45.791  29.134  33.218  1.00  0.00    -0.203 F 
ATOM     48  F   UNL A   1      45.126  24.536  36.086  1.00  0.00    -0.200 F 
ATOM     49  C   UNL A   1      46.535  26.257  35.290  1.00  0.00     0.200 A 
ATOM     50  F   UNL A   1      47.890  28.030  34.522  1.00  0.00    -0.200 F 
ATOM     51  F   UNL A   1      47.562  25.759  35.993  1.00  0.00    -0.200 F 
ENDBRANCH  27  41
BRANCH  28  52
ATOM     52  C   UNL A   1      36.508  31.662  29.289  1.00  0.00     0.064 A 
ATOM     53  C   UNL A   1      36.468  33.041  29.040  1.00  0.00     0.173 A 
ATOM     54  C   UNL A   1      35.407  30.897  28.869  1.00  0.00     0.173 A 
ATOM     55  F   UNL A   1      37.483  33.821  29.439  1.00  0.00    -0.203 F 
ATOM     56  C   UNL A   1      35.371  33.632  28.413  1.00  0.00     0.198 A 
ATOM     57  C   UNL A   1      34.320  31.486  28.223  1.00  0.00     0.198 A 
ATOM     58  F   UNL A   1      35.387  29.574  29.087  1.00  0.00    -0.203 F 
ATOM     59  F   UNL A   1      35.345  34.958  28.221  1.00  0.00    -0.200 F 
ATOM     60  C   UNL A   1      34.301  32.853  28.000  1.00  0.00     0.200 A 
ATOM     61  F   UNL A   1      33.290  30.728  27.820  1.00  0.00    -0.200 F 
ATOM     62  F   UNL A   1      33.248  33.422  27.395  1.00  0.00    -0.200 F 
ENDBRANCH  28  52
BRANCH  40  63
ATOM     63  C   UNL A   1      39.261  32.174  35.689  1.00  0.00     0.064 A 
ATOM     64  C   UNL A   1      39.753  33.477  35.842  1.00  0.00     0.173 A 
ATOM     65  C   UNL A   1      38.343  31.693  36.635  1.00  0.00     0.173 A 
ATOM     66  F   UNL A   1      40.641  33.972  34.966  1.00  0.00    -0.203 F 
ATOM     67  C   UNL A   1      39.344  34.268  36.910  1.00  0.00     0.198 A 
ATOM     68  C   UNL A   1      37.916  32.497  37.685  1.00  0.00     0.198 A 
ATOM     69  F   UNL A   1      37.841  30.455  36.520  1.00  0.00    -0.203 F 
ATOM     70  F   UNL A   1      39.845  35.502  37.056  1.00  0.00    -0.200 F 
ATOM     71  C   UNL A   1      38.419  33.782  37.823  1.00  0.00     0.200 A 
ATOM     72  F   UNL A   1      37.011  32.032  38.556  1.00  0.00    -0.200 F 
ATOM     73  F   UNL A   1      38.011  34.554  38.840  1.00  0.00    -0.200 F 
ENDBRANCH  40  63
ENDBRANCH  14  15
ENDBRANCH   7   9
ENDBRANCH   6   7
ENDBRANCH   5   6
ENDBRANCH   4   5
ENDBRANCH   3   4
ENDBRANCH   2   3
ENDBRANCH   1   2
BRANCH   1  74
ATOM     74  O   UNL A   1      38.999  21.969  25.765  1.00  0.00    -0.376 OA
BRANCH  74  75
ATOM     75  C   UNL A   1      38.236  20.881  25.194  1.00  0.00     0.202 C 
BRANCH  75  76
ATOM     76  C   UNL A   1      36.811  21.216  24.627  1.00  0.00     0.261 C 
BRANCH  76  77
ATOM     77  O   UNL A   1      35.678  21.019  25.564  1.00  0.00    -0.463 OA
BRANCH  77  78
ATOM     78  C   UNL A   1      34.445  20.787  24.990  1.00  0.00     0.310 C 
ATOM     79  O   UNL A   1      34.122  19.652  24.640  1.00  0.00    -0.252 OA
BRANCH  78  80
ATOM     80  C   UNL A   1      33.566  22.029  24.623  1.00  0.00     0.119 C 
ATOM     81  C   UNL A   1      33.643  23.625  24.726  1.00  0.00     0.100 C 
ATOM     82  C   UNL A   1      32.138  21.792  25.250  1.00  0.00     0.027 C 
ATOM     83  C   UNL A   1      32.219  24.010  25.273  1.00  0.00     0.025 C 
ATOM     84  C   UNL A   1      32.123  22.232  26.700  1.00  0.00    -0.027 C 
ATOM     85  C   UNL A   1      31.332  22.947  24.651  1.00  0.00     0.017 C 
ATOM     86  C   UNL A   1      32.132  23.570  26.712  1.00  0.00    -0.027 C 
BRANCH  81  87
ATOM     87  C   UNL A   1      34.505  24.774  25.298  1.00  0.00     0.229 C 
ATOM     88  O   UNL A   1      35.562  24.453  25.869  1.00  0.00    -0.274 OA
ATOM     89  N   UNL A   1      34.404  26.094  25.019  1.00  0.00    -0.323 N 
ATOM     90  H   UNL A   1      35.212  26.623  25.213  1.00  0.00     0.170 HD
BRANCH  89  91
ATOM     91  C   UNL A   1      33.344  26.817  24.505  1.00  0.00     0.084 A 
ATOM     92  C   UNL A   1      32.478  27.451  25.399  1.00  0.00     0.030 A 
ATOM     93  C   UNL A   1      33.188  27.013  23.159  1.00  0.00     0.149 A 
ATOM     94  C   UNL A   1      31.676  28.506  24.958  1.00  0.00     0.002 A 
ATOM     95  C   UNL A   1      32.522  28.175  22.752  1.00  0.00     0.049 A 
ATOM     96  C   UNL A   1      31.769  28.928  23.642  1.00  0.00     0.004 A 
BRANCH  93  97
ATOM     97  O   UNL A   1      33.556  26.165  22.169  1.00  0.00    -0.433 OA
BRANCH  97  98
ATOM     98  C   UNL A   1      32.726  25.281  21.425  1.00  0.00     0.542 C 
ATOM     99  F   UNL A   1      31.564  25.095  22.103  1.00  0.00    -0.167 F 
ATOM    100  F   UNL A   1      32.445  25.771  20.217  1.00  0.00    -0.167 F 
ENDBRANCH  97  98
ENDBRANCH  93  97
ENDBRANCH  89  91
ENDBRANCH  81  87
ENDBRANCH  78  80
ENDBRANCH  77  78
ENDBRANCH  76  77
ENDBRANCH  75  76
ENDBRANCH  74  75
ENDBRANCH   1  74
TORSDOF 21
ENDMDL
