MODEL 1
REMARK VINA RESULT:     -11.3      0.000      0.000
REMARK SMILES C/C=C(\C)[C@H]1C(C)=C[C@H]2CC[C@@H](OS(=O)(=O)[O-])[C@@H](C)[C@H]2[C@H]1/C=C/C=C/C(=O)OCCOCCOCCOC(=O)c1ccc(-c2c3nc(c(-c4c(F)c(F)c(F)c(F)c4F)c4ccc([nH]4)c(-c4c(F)c(F)c(F)c(F)c4F)c4nc(c(-c5c(F)c(F)c(F)c(F)c5F)c5ccc2[nH]5)C=C4)C=C3)cc1
REMARK SMILES IDX 32 1 31 2 30 3 29 4 28 5 26 6 27 7 25 8 24 9 23 10 22 11
REMARK SMILES IDX 21 12 5 13 6 14 7 15 8 16 20 17 9 18 18 19 10 20 12 21 19 22
REMARK SMILES IDX 11 23 3 24 1 25 2 26 4 27 13 28 14 29 15 30 16 31 17 32
REMARK SMILES IDX 33 33 34 34 35 35 36 36 37 37 38 38 39 39 40 40 41 41 102 42
REMARK SMILES IDX 42 43 101 44 43 45 44 46 45 47 95 48 46 49 100 50 94 51
REMARK SMILES IDX 96 52 47 53 99 54 93 55 92 56 48 58 80 59 60 60 79 61 61 62
REMARK SMILES IDX 64 63 78 64 97 65 62 66 63 67 77 69 98 70 65 71 49 72 50 73
REMARK SMILES IDX 58 74 51 75 52 76 56 77 59 78 53 79 54 80 57 81 55 82 81 83
REMARK SMILES IDX 82 84 90 85 83 86 84 87 88 88 91 89 85 90 86 91 89 92 87 93
REMARK SMILES IDX 66 94 67 95 75 96 68 97 69 98 73 99 76 100 70 101 71 102
REMARK SMILES IDX 74 103 72 104
REMARK H PARENT 96 57 64 68
REMARK Flexibility Score: inf
ROOT
ATOM      1  C   UNL A   1      42.870  18.741  25.937  1.00  0.00     0.188 C 
ENDROOT
BRANCH   1   2
ATOM      2  O   UNL A   1      42.315  19.824  26.658  1.00  0.00    -0.376 OA
BRANCH   2   3
ATOM      3  C   UNL A   1      40.975  20.243  26.418  1.00  0.00     0.202 C 
BRANCH   3   4
ATOM      4  C   UNL A   1      40.404  21.556  26.979  1.00  0.00     0.261 C 
BRANCH   4   5
ATOM      5  O   UNL A   1      39.453  22.194  26.112  1.00  0.00    -0.460 OA
BRANCH   5   6
ATOM      6  C   UNL A   1      38.845  23.275  26.647  1.00  0.00     0.330 C 
ATOM      7  O   UNL A   1      39.316  24.044  27.474  1.00  0.00    -0.247 OA
BRANCH   6   8
ATOM      8  C   UNL A   1      37.643  23.647  25.889  1.00  0.00     0.093 C 
ATOM      9  C   UNL A   1      37.106  23.108  24.782  1.00  0.00     0.007 C 
BRANCH   9  10
ATOM     10  C   UNL A   1      35.877  23.718  24.305  1.00  0.00    -0.004 C 
ATOM     11  C   UNL A   1      35.135  23.211  23.309  1.00  0.00    -0.022 C 
BRANCH  11  12
ATOM     12  C   UNL A   1      33.619  23.332  23.084  1.00  0.00     0.027 C 
ATOM     13  C   UNL A   1      32.782  22.337  24.059  1.00  0.00     0.047 C 
ATOM     14  C   UNL A   1      31.391  22.865  24.446  1.00  0.00    -0.069 C 
ATOM     15  C   UNL A   1      30.674  22.377  25.677  1.00  0.00     0.040 C 
ATOM     16  C   UNL A   1      30.772  23.820  23.724  1.00  0.00    -0.024 C 
ATOM     17  C   UNL A   1      32.936  24.752  22.828  1.00  0.00     0.009 C 
ATOM     18  C   UNL A   1      31.408  24.551  22.577  1.00  0.00     0.016 C 
ATOM     19  C   UNL A   1      33.198  25.927  23.844  1.00  0.00     0.021 C 
ATOM     20  C   UNL A   1      30.661  25.877  22.298  1.00  0.00     0.011 C 
ATOM     21  C   UNL A   1      32.435  27.206  23.427  1.00  0.00     0.141 C 
ATOM     22  C   UNL A   1      32.948  25.513  25.286  1.00  0.00     0.011 C 
ATOM     23  C   UNL A   1      30.933  26.986  23.317  1.00  0.00     0.034 C 
BRANCH  13  24
ATOM     24  C   UNL A   1      33.546  21.637  25.234  1.00  0.00    -0.070 C 
ATOM     25  C   UNL A   1      34.518  21.674  27.622  1.00  0.00     0.035 C 
ATOM     26  C   UNL A   1      33.749  22.190  26.447  1.00  0.00    -0.031 C 
ATOM     27  C   UNL A   1      34.135  20.283  24.899  1.00  0.00     0.040 C 
ENDBRANCH  13  24
BRANCH  21  28
ATOM     28  O   UNL A   1      32.774  28.431  24.061  1.00  0.00    -0.276 OA
BRANCH  28  29
ATOM     29  S   UNL A   1      31.919  29.234  25.172  1.00  0.00     0.217 S 
ATOM     30  O   UNL A   1      30.826  29.899  24.499  1.00  0.00    -0.213 OA
ATOM     31  O   UNL A   1      31.668  28.427  26.338  1.00  0.00    -0.213 OA
ATOM     32  O   UNL A   1      32.929  30.412  25.624  1.00  0.00    -0.726 OA
ENDBRANCH  28  29
ENDBRANCH  21  28
ENDBRANCH  11  12
ENDBRANCH   9  10
ENDBRANCH   6   8
ENDBRANCH   5   6
ENDBRANCH   4   5
ENDBRANCH   3   4
ENDBRANCH   2   3
ENDBRANCH   1   2
BRANCH   1  33
ATOM     33  C   UNL A   1      44.083  18.974  25.018  1.00  0.00     0.188 C 
BRANCH  33  34
ATOM     34  O   UNL A   1      44.955  20.034  25.321  1.00  0.00    -0.376 OA
BRANCH  34  35
ATOM     35  C   UNL A   1      44.678  21.344  24.851  1.00  0.00     0.202 C 
BRANCH  35  36
ATOM     36  C   UNL A   1      44.294  22.564  25.721  1.00  0.00     0.261 C 
BRANCH  36  37
ATOM     37  O   UNL A   1      43.737  23.719  25.078  1.00  0.00    -0.460 OA
BRANCH  37  38
ATOM     38  C   UNL A   1      44.387  24.885  25.321  1.00  0.00     0.338 C 
ATOM     39  O   UNL A   1      45.362  25.325  24.734  1.00  0.00    -0.246 OA
BRANCH  38  40
ATOM     40  C   UNL A   1      43.632  25.685  26.304  1.00  0.00     0.060 A 
ATOM     41  C   UNL A   1      44.017  27.014  26.498  1.00  0.00     0.016 A 
ATOM     42  C   UNL A   1      42.653  25.110  27.116  1.00  0.00     0.016 A 
ATOM     43  C   UNL A   1      43.426  27.764  27.510  1.00  0.00     0.010 A 
ATOM     44  C   UNL A   1      42.074  25.870  28.146  1.00  0.00     0.010 A 
ATOM     45  C   UNL A   1      42.473  27.199  28.363  1.00  0.00    -0.014 A 
BRANCH  45  46
ATOM     46  C   UNL A   1      42.066  27.978  29.564  1.00  0.00     0.031 A 
ATOM     47  C   UNL A   1      40.818  28.818  29.498  1.00  0.00     0.074 A 
ATOM     48  C   UNL A   1      42.708  27.833  30.739  1.00  0.00     0.049 A 
ATOM     49  N   UNL A   1      40.280  29.589  30.410  1.00  0.00    -0.248 NA
ATOM     50  C   UNL A   1      40.069  28.774  28.232  1.00  0.00     0.031 C 
ATOM     51  C   UNL A   1      43.861  26.966  30.973  1.00  0.00     0.029 A 
ATOM     52  N   UNL A   1      42.466  28.404  31.966  1.00  0.00    -0.354 N 
ATOM     53  C   UNL A   1      39.134  30.118  29.831  1.00  0.00     0.074 A 
ATOM     54  C   UNL A   1      39.071  29.609  28.477  1.00  0.00     0.031 C 
ATOM     55  C   UNL A   1      44.224  27.059  32.265  1.00  0.00     0.029 A 
ATOM     56  C   UNL A   1      43.362  28.030  32.937  1.00  0.00     0.049 A 
ATOM     57  H   UNL A   1      41.718  29.024  32.132  1.00  0.00     0.167 HD
ATOM     58  C   UNL A   1      38.211  30.944  30.379  1.00  0.00     0.037 A 
ATOM     59  C   UNL A   1      43.489  28.448  34.213  1.00  0.00     0.037 A 
ATOM     60  C   UNL A   1      38.266  31.447  31.727  1.00  0.00     0.049 A 
ATOM     61  C   UNL A   1      42.515  29.468  34.756  1.00  0.00     0.074 A 
ATOM     62  C   UNL A   1      37.403  32.330  32.356  1.00  0.00     0.029 A 
ATOM     63  N   UNL A   1      39.235  31.107  32.659  1.00  0.00    -0.354 N 
ATOM     64  N   UNL A   1      41.462  30.003  34.187  1.00  0.00    -0.248 NA
ATOM     65  C   UNL A   1      42.753  29.943  36.129  1.00  0.00     0.031 C 
ATOM     66  C   UNL A   1      37.879  32.563  33.650  1.00  0.00     0.029 A 
ATOM     67  C   UNL A   1      38.999  31.774  33.853  1.00  0.00     0.049 A 
ATOM     68  H   UNL A   1      39.978  30.483  32.498  1.00  0.00     0.167 HD
ATOM     69  C   UNL A   1      40.891  30.837  35.143  1.00  0.00     0.074 A 
ATOM     70  C   UNL A   1      41.700  30.717  36.335  1.00  0.00     0.031 C 
ATOM     71  C   UNL A   1      39.798  31.634  35.042  1.00  0.00     0.037 A 
BRANCH  58  72
ATOM     72  C   UNL A   1      37.072  31.388  29.508  1.00  0.00     0.064 A 
ATOM     73  C   UNL A   1      35.993  30.543  29.211  1.00  0.00     0.173 A 
ATOM     74  C   UNL A   1      37.037  32.698  29.005  1.00  0.00     0.173 A 
ATOM     75  F   UNL A   1      35.985  29.276  29.653  1.00  0.00    -0.203 F 
ATOM     76  C   UNL A   1      34.929  30.988  28.428  1.00  0.00     0.198 A 
ATOM     77  C   UNL A   1      35.956  33.150  28.250  1.00  0.00     0.198 A 
ATOM     78  F   UNL A   1      38.042  33.549  29.262  1.00  0.00    -0.203 F 
ATOM     79  F   UNL A   1      33.928  30.151  28.124  1.00  0.00    -0.200 F 
ATOM     80  C   UNL A   1      34.907  32.293  27.958  1.00  0.00     0.200 A 
ATOM     81  F   UNL A   1      35.931  34.415  27.811  1.00  0.00    -0.200 F 
ATOM     82  F   UNL A   1      33.875  32.723  27.219  1.00  0.00    -0.200 F 
ENDBRANCH  58  72
BRANCH  59  83
ATOM     83  C   UNL A   1      44.606  27.959  35.072  1.00  0.00     0.064 A 
ATOM     84  C   UNL A   1      44.428  26.890  35.963  1.00  0.00     0.173 A 
ATOM     85  C   UNL A   1      45.845  28.619  35.091  1.00  0.00     0.173 A 
ATOM     86  F   UNL A   1      43.254  26.245  36.010  1.00  0.00    -0.203 F 
ATOM     87  C   UNL A   1      45.425  26.533  36.870  1.00  0.00     0.198 A 
ATOM     88  C   UNL A   1      46.856  28.233  35.969  1.00  0.00     0.198 A 
ATOM     89  F   UNL A   1      46.071  29.652  34.267  1.00  0.00    -0.203 F 
ATOM     90  F   UNL A   1      45.194  25.568  37.772  1.00  0.00    -0.200 F 
ATOM     91  C   UNL A   1      46.639  27.202  36.871  1.00  0.00     0.200 A 
ATOM     92  F   UNL A   1      48.031  28.877  35.957  1.00  0.00    -0.200 F 
ATOM     93  F   UNL A   1      47.591  26.870  37.753  1.00  0.00    -0.200 F 
ENDBRANCH  59  83
BRANCH  71  94
ATOM     94  C   UNL A   1      39.376  32.386  36.277  1.00  0.00     0.064 A 
ATOM     95  C   UNL A   1      39.933  33.627  36.621  1.00  0.00     0.173 A 
ATOM     96  C   UNL A   1      38.400  31.849  37.133  1.00  0.00     0.173 A 
ATOM     97  F   UNL A   1      40.875  34.183  35.844  1.00  0.00    -0.203 F 
ATOM     98  C   UNL A   1      39.574  34.274  37.801  1.00  0.00     0.198 A 
ATOM     99  C   UNL A   1      38.013  32.519  38.291  1.00  0.00     0.198 A 
ATOM    100  F   UNL A   1      37.821  30.673  36.849  1.00  0.00    -0.203 F 
ATOM    101  F   UNL A   1      40.181  35.416  38.148  1.00  0.00    -0.200 F 
ATOM    102  C   UNL A   1      38.612  33.721  38.634  1.00  0.00     0.200 A 
ATOM    103  F   UNL A   1      37.068  31.993  39.083  1.00  0.00    -0.200 F 
ATOM    104  F   UNL A   1      38.272  34.341  39.772  1.00  0.00    -0.200 F 
ENDBRANCH  71  94
ENDBRANCH  45  46
ENDBRANCH  38  40
ENDBRANCH  37  38
ENDBRANCH  36  37
ENDBRANCH  35  36
ENDBRANCH  34  35
ENDBRANCH  33  34
ENDBRANCH   1  33
TORSDOF 22
ENDMDL
MODEL 2
REMARK VINA RESULT:     -10.8      5.794     10.714
REMARK SMILES C/C=C(\C)[C@H]1C(C)=C[C@H]2CC[C@@H](OS(=O)(=O)[O-])[C@@H](C)[C@H]2[C@H]1/C=C/C=C/C(=O)OCCOCCOCCOC(=O)c1ccc(-c2c3nc(c(-c4c(F)c(F)c(F)c(F)c4F)c4ccc([nH]4)c(-c4c(F)c(F)c(F)c(F)c4F)c4nc(c(-c5c(F)c(F)c(F)c(F)c5F)c5ccc2[nH]5)C=C4)C=C3)cc1
REMARK SMILES IDX 32 1 31 2 30 3 29 4 28 5 26 6 27 7 25 8 24 9 23 10 22 11
REMARK SMILES IDX 21 12 5 13 6 14 7 15 8 16 20 17 9 18 18 19 10 20 12 21 19 22
REMARK SMILES IDX 11 23 3 24 1 25 2 26 4 27 13 28 14 29 15 30 16 31 17 32
REMARK SMILES IDX 33 33 34 34 35 35 36 36 37 37 38 38 39 39 40 40 41 41 102 42
REMARK SMILES IDX 42 43 101 44 43 45 44 46 45 47 95 48 46 49 100 50 94 51
REMARK SMILES IDX 96 52 47 53 99 54 93 55 92 56 48 58 80 59 60 60 79 61 61 62
REMARK SMILES IDX 64 63 78 64 97 65 62 66 63 67 77 69 98 70 65 71 49 72 50 73
REMARK SMILES IDX 58 74 51 75 52 76 56 77 59 78 53 79 54 80 57 81 55 82 81 83
REMARK SMILES IDX 82 84 90 85 83 86 84 87 88 88 91 89 85 90 86 91 89 92 87 93
REMARK SMILES IDX 66 94 67 95 75 96 68 97 69 98 73 99 76 100 70 101 71 102
REMARK SMILES IDX 74 103 72 104
REMARK H PARENT 96 57 64 68
REMARK Flexibility Score: inf
ROOT
ATOM      1  C   UNL A   1      48.010  37.898  25.737  1.00  0.00     0.188 C 
ENDROOT
BRANCH   1   2
ATOM      2  O   UNL A   1      47.783  36.546  26.088  1.00  0.00    -0.376 OA
BRANCH   2   3
ATOM      3  C   UNL A   1      46.456  36.039  26.195  1.00  0.00     0.202 C 
BRANCH   3   4
ATOM      4  C   UNL A   1      45.896  34.974  25.238  1.00  0.00     0.261 C 
BRANCH   4   5
ATOM      5  O   UNL A   1      46.045  33.628  25.714  1.00  0.00    -0.460 OA
BRANCH   5   6
ATOM      6  C   UNL A   1      44.894  32.924  25.777  1.00  0.00     0.330 C 
ATOM      7  O   UNL A   1      43.904  33.080  25.076  1.00  0.00    -0.247 OA
BRANCH   6   8
ATOM      8  C   UNL A   1      45.052  31.702  26.575  1.00  0.00     0.093 C 
ATOM      9  C   UNL A   1      44.188  31.070  27.387  1.00  0.00     0.007 C 
BRANCH   9  10
ATOM     10  C   UNL A   1      44.670  29.851  28.011  1.00  0.00    -0.004 C 
ATOM     11  C   UNL A   1      43.874  28.973  28.639  1.00  0.00    -0.022 C 
BRANCH  11  12
ATOM     12  C   UNL A   1      44.060  27.456  28.805  1.00  0.00     0.027 C 
ATOM     13  C   UNL A   1      42.637  26.673  28.851  1.00  0.00     0.047 C 
ATOM     14  C   UNL A   1      42.692  25.244  28.289  1.00  0.00    -0.069 C 
ATOM     15  C   UNL A   1      41.455  24.542  27.792  1.00  0.00     0.040 C 
ATOM     16  C   UNL A   1      43.854  24.573  28.177  1.00  0.00    -0.024 C 
ATOM     17  C   UNL A   1      45.228  26.682  28.039  1.00  0.00     0.009 C 
ATOM     18  C   UNL A   1      45.202  25.175  28.449  1.00  0.00     0.016 C 
ATOM     19  C   UNL A   1      45.366  26.846  26.479  1.00  0.00     0.021 C 
ATOM     20  C   UNL A   1      46.316  24.344  27.769  1.00  0.00     0.011 C 
ATOM     21  C   UNL A   1      46.543  26.004  25.931  1.00  0.00     0.141 C 
ATOM     22  C   UNL A   1      44.053  26.602  25.752  1.00  0.00     0.011 C 
ATOM     23  C   UNL A   1      46.406  24.523  26.252  1.00  0.00     0.034 C 
BRANCH  13  24
ATOM     24  C   UNL A   1      41.345  27.464  28.455  1.00  0.00    -0.070 C 
ATOM     25  C   UNL A   1      40.010  28.891  26.771  1.00  0.00     0.035 C 
ATOM     26  C   UNL A   1      41.148  28.049  27.255  1.00  0.00    -0.031 C 
ATOM     27  C   UNL A   1      40.318  27.609  29.557  1.00  0.00     0.040 C 
ENDBRANCH  13  24
BRANCH  21  28
ATOM     28  O   UNL A   1      46.986  26.249  24.604  1.00  0.00    -0.276 OA
BRANCH  28  29
ATOM     29  S   UNL A   1      47.591  27.623  24.007  1.00  0.00     0.217 S 
ATOM     30  O   UNL A   1      46.581  28.649  24.132  1.00  0.00    -0.213 OA
ATOM     31  O   UNL A   1      48.931  27.864  24.477  1.00  0.00    -0.213 OA
ATOM     32  O   UNL A   1      47.698  27.313  22.424  1.00  0.00    -0.726 OA
ENDBRANCH  28  29
ENDBRANCH  21  28
ENDBRANCH  11  12
ENDBRANCH   9  10
ENDBRANCH   6   8
ENDBRANCH   5   6
ENDBRANCH   4   5
ENDBRANCH   3   4
ENDBRANCH   2   3
ENDBRANCH   1   2
BRANCH   1  33
ATOM     33  C   UNL A   1      47.467  39.024  26.635  1.00  0.00     0.188 C 
BRANCH  33  34
ATOM     34  O   UNL A   1      46.988  40.194  26.020  1.00  0.00    -0.376 OA
BRANCH  34  35
ATOM     35  C   UNL A   1      45.722  40.724  26.382  1.00  0.00     0.202 C 
BRANCH  35  36
ATOM     36  C   UNL A   1      44.345  40.088  26.077  1.00  0.00     0.261 C 
BRANCH  36  37
ATOM     37  O   UNL A   1      43.318  40.162  27.075  1.00  0.00    -0.460 OA
BRANCH  37  38
ATOM     38  C   UNL A   1      42.393  39.170  27.027  1.00  0.00     0.338 C 
ATOM     39  O   UNL A   1      41.346  39.164  26.400  1.00  0.00    -0.246 OA
BRANCH  38  40
ATOM     40  C   UNL A   1      42.911  37.967  27.705  1.00  0.00     0.060 A 
ATOM     41  C   UNL A   1      42.823  36.747  27.031  1.00  0.00     0.016 A 
ATOM     42  C   UNL A   1      43.353  38.009  29.029  1.00  0.00     0.016 A 
ATOM     43  C   UNL A   1      43.171  35.569  27.683  1.00  0.00     0.010 A 
ATOM     44  C   UNL A   1      43.686  36.812  29.686  1.00  0.00     0.010 A 
ATOM     45  C   UNL A   1      43.577  35.579  29.021  1.00  0.00    -0.014 A 
BRANCH  45  46
ATOM     46  C   UNL A   1      43.698  34.272  29.721  1.00  0.00     0.031 A 
ATOM     47  C   UNL A   1      42.450  33.601  30.232  1.00  0.00     0.074 A 
ATOM     48  C   UNL A   1      44.874  33.618  29.779  1.00  0.00     0.049 A 
ATOM     49  N   UNL A   1      42.315  32.472  30.882  1.00  0.00    -0.248 NA
ATOM     50  C   UNL A   1      41.180  34.294  29.962  1.00  0.00     0.031 C 
ATOM     51  C   UNL A   1      46.139  34.100  29.226  1.00  0.00     0.029 A 
ATOM     52  N   UNL A   1      45.191  32.394  30.319  1.00  0.00    -0.354 N 
ATOM     53  C   UNL A   1      40.950  32.320  31.097  1.00  0.00     0.074 A 
ATOM     54  C   UNL A   1      40.302  33.488  30.538  1.00  0.00     0.031 C 
ATOM     55  C   UNL A   1      47.094  33.180  29.452  1.00  0.00     0.029 A 
ATOM     56  C   UNL A   1      46.521  32.068  30.209  1.00  0.00     0.049 A 
ATOM     57  H   UNL A   1      44.526  31.807  30.745  1.00  0.00     0.167 HD
ATOM     58  C   UNL A   1      40.295  31.297  31.695  1.00  0.00     0.037 A 
ATOM     59  C   UNL A   1      47.201  31.009  30.692  1.00  0.00     0.037 A 
ATOM     60  C   UNL A   1      40.934  30.130  32.245  1.00  0.00     0.049 A 
ATOM     61  C   UNL A   1      46.457  29.944  31.465  1.00  0.00     0.074 A 
ATOM     62  C   UNL A   1      40.359  29.063  32.915  1.00  0.00     0.029 A 
ATOM     63  N   UNL A   1      42.296  29.872  32.183  1.00  0.00    -0.354 N 
ATOM     64  N   UNL A   1      45.174  29.832  31.708  1.00  0.00    -0.248 NA
ATOM     65  C   UNL A   1      47.267  28.854  32.033  1.00  0.00     0.031 C 
ATOM     66  C   UNL A   1      41.376  28.186  33.303  1.00  0.00     0.029 A 
ATOM     67  C   UNL A   1      42.579  28.670  32.817  1.00  0.00     0.049 A 
ATOM     68  H   UNL A   1      42.962  30.454  31.753  1.00  0.00     0.167 HD
ATOM     69  C   UNL A   1      45.020  28.643  32.413  1.00  0.00     0.074 A 
ATOM     70  C   UNL A   1      46.337  28.059  32.537  1.00  0.00     0.031 C 
ATOM     71  C   UNL A   1      43.891  28.086  32.918  1.00  0.00     0.037 A 
BRANCH  58  72
ATOM     72  C   UNL A   1      38.803  31.405  31.818  1.00  0.00     0.064 A 
ATOM     73  C   UNL A   1      38.191  31.940  32.961  1.00  0.00     0.173 A 
ATOM     74  C   UNL A   1      37.976  31.013  30.754  1.00  0.00     0.173 A 
ATOM     75  F   UNL A   1      38.934  32.314  34.013  1.00  0.00    -0.203 F 
ATOM     76  C   UNL A   1      36.805  32.063  33.040  1.00  0.00     0.198 A 
ATOM     77  C   UNL A   1      36.593  31.167  30.823  1.00  0.00     0.198 A 
ATOM     78  F   UNL A   1      38.510  30.498  29.636  1.00  0.00    -0.203 F 
ATOM     79  F   UNL A   1      36.239  32.540  34.157  1.00  0.00    -0.200 F 
ATOM     80  C   UNL A   1      36.009  31.686  31.968  1.00  0.00     0.200 A 
ATOM     81  F   UNL A   1      35.829  30.817  29.780  1.00  0.00    -0.200 F 
ATOM     82  F   UNL A   1      34.678  31.820  32.041  1.00  0.00    -0.200 F 
ENDBRANCH  58  72
BRANCH  59  83
ATOM     83  C   UNL A   1      48.679  30.904  30.519  1.00  0.00     0.064 A 
ATOM     84  C   UNL A   1      49.241  30.180  29.456  1.00  0.00     0.173 A 
ATOM     85  C   UNL A   1      49.558  31.440  31.473  1.00  0.00     0.173 A 
ATOM     86  F   UNL A   1      48.446  29.618  28.534  1.00  0.00    -0.203 F 
ATOM     87  C   UNL A   1      50.615  29.957  29.382  1.00  0.00     0.198 A 
ATOM     88  C   UNL A   1      50.935  31.253  31.374  1.00  0.00     0.198 A 
ATOM     89  F   UNL A   1      49.079  32.135  32.515  1.00  0.00    -0.203 F 
ATOM     90  F   UNL A   1      51.115  29.185  28.406  1.00  0.00    -0.200 F 
ATOM     91  C   UNL A   1      51.462  30.496  30.338  1.00  0.00     0.200 A 
ATOM     92  F   UNL A   1      51.749  31.785  32.295  1.00  0.00    -0.200 F 
ATOM     93  F   UNL A   1      52.780  30.268  30.276  1.00  0.00    -0.200 F 
ENDBRANCH  59  83
BRANCH  71  94
ATOM     94  C   UNL A   1      44.023  26.745  33.590  1.00  0.00     0.064 A 
ATOM     95  C   UNL A   1      44.154  26.617  34.982  1.00  0.00     0.173 A 
ATOM     96  C   UNL A   1      44.027  25.567  32.825  1.00  0.00     0.173 A 
ATOM     97  F   UNL A   1      44.165  27.710  35.762  1.00  0.00    -0.203 F 
ATOM     98  C   UNL A   1      44.340  25.371  35.575  1.00  0.00     0.198 A 
ATOM     99  C   UNL A   1      44.171  24.319  33.426  1.00  0.00     0.198 A 
ATOM    100  F   UNL A   1      43.891  25.623  31.492  1.00  0.00    -0.203 F 
ATOM    101  F   UNL A   1      44.545  25.285  36.896  1.00  0.00    -0.200 F 
ATOM    102  C   UNL A   1      44.345  24.223  34.797  1.00  0.00     0.200 A 
ATOM    103  F   UNL A   1      44.155  23.209  32.675  1.00  0.00    -0.200 F 
ATOM    104  F   UNL A   1      44.531  23.025  35.370  1.00  0.00    -0.200 F 
ENDBRANCH  71  94
ENDBRANCH  45  46
ENDBRANCH  38  40
ENDBRANCH  37  38
ENDBRANCH  36  37
ENDBRANCH  35  36
ENDBRANCH  34  35
ENDBRANCH  33  34
ENDBRANCH   1  33
TORSDOF 22
ENDMDL
MODEL 3
REMARK VINA RESULT:     -10.4      5.862     12.046
REMARK SMILES C/C=C(\C)[C@H]1C(C)=C[C@H]2CC[C@@H](OS(=O)(=O)[O-])[C@@H](C)[C@H]2[C@H]1/C=C/C=C/C(=O)OCCOCCOCCOC(=O)c1ccc(-c2c3nc(c(-c4c(F)c(F)c(F)c(F)c4F)c4ccc([nH]4)c(-c4c(F)c(F)c(F)c(F)c4F)c4nc(c(-c5c(F)c(F)c(F)c(F)c5F)c5ccc2[nH]5)C=C4)C=C3)cc1
REMARK SMILES IDX 32 1 31 2 30 3 29 4 28 5 26 6 27 7 25 8 24 9 23 10 22 11
REMARK SMILES IDX 21 12 5 13 6 14 7 15 8 16 20 17 9 18 18 19 10 20 12 21 19 22
REMARK SMILES IDX 11 23 3 24 1 25 2 26 4 27 13 28 14 29 15 30 16 31 17 32
REMARK SMILES IDX 33 33 34 34 35 35 36 36 37 37 38 38 39 39 40 40 41 41 102 42
REMARK SMILES IDX 42 43 101 44 43 45 44 46 45 47 95 48 46 49 100 50 94 51
REMARK SMILES IDX 96 52 47 53 99 54 93 55 92 56 48 58 80 59 60 60 79 61 61 62
REMARK SMILES IDX 64 63 78 64 97 65 62 66 63 67 77 69 98 70 65 71 49 72 50 73
REMARK SMILES IDX 58 74 51 75 52 76 56 77 59 78 53 79 54 80 57 81 55 82 81 83
REMARK SMILES IDX 82 84 90 85 83 86 84 87 88 88 91 89 85 90 86 91 89 92 87 93
REMARK SMILES IDX 66 94 67 95 75 96 68 97 69 98 73 99 76 100 70 101 71 102
REMARK SMILES IDX 74 103 72 104
REMARK H PARENT 96 57 64 68
REMARK Flexibility Score: inf
ROOT
ATOM      1  C   UNL A   1      48.155  37.734  25.984  1.00  0.00     0.188 C 
ENDROOT
BRANCH   1   2
ATOM      2  O   UNL A   1      47.694  36.458  26.387  1.00  0.00    -0.376 OA
BRANCH   2   3
ATOM      3  C   UNL A   1      46.330  36.091  26.207  1.00  0.00     0.202 C 
BRANCH   3   4
ATOM      4  C   UNL A   1      45.888  35.007  25.210  1.00  0.00     0.261 C 
BRANCH   4   5
ATOM      5  O   UNL A   1      46.043  33.667  25.701  1.00  0.00    -0.460 OA
BRANCH   5   6
ATOM      6  C   UNL A   1      44.898  32.951  25.745  1.00  0.00     0.330 C 
ATOM      7  O   UNL A   1      43.907  33.114  25.048  1.00  0.00    -0.247 OA
BRANCH   6   8
ATOM      8  C   UNL A   1      45.067  31.710  26.513  1.00  0.00     0.093 C 
ATOM      9  C   UNL A   1      44.161  30.929  27.124  1.00  0.00     0.007 C 
BRANCH   9  10
ATOM     10  C   UNL A   1      44.678  29.742  27.781  1.00  0.00    -0.004 C 
ATOM     11  C   UNL A   1      43.901  28.827  28.379  1.00  0.00    -0.022 C 
BRANCH  11  12
ATOM     12  C   UNL A   1      44.161  27.324  28.569  1.00  0.00     0.027 C 
ATOM     13  C   UNL A   1      42.777  26.483  28.703  1.00  0.00     0.047 C 
ATOM     14  C   UNL A   1      42.865  25.044  28.170  1.00  0.00    -0.069 C 
ATOM     15  C   UNL A   1      41.637  24.279  27.751  1.00  0.00     0.040 C 
ATOM     16  C   UNL A   1      44.049  24.420  28.015  1.00  0.00    -0.024 C 
ATOM     17  C   UNL A   1      45.322  26.582  27.763  1.00  0.00     0.009 C 
ATOM     18  C   UNL A   1      45.381  25.085  28.206  1.00  0.00     0.016 C 
ATOM     19  C   UNL A   1      45.375  26.715  26.194  1.00  0.00     0.021 C 
ATOM     20  C   UNL A   1      46.495  24.286  27.489  1.00  0.00     0.011 C 
ATOM     21  C   UNL A   1      46.559  25.910  25.606  1.00  0.00     0.141 C 
ATOM     22  C   UNL A   1      44.040  26.398  25.539  1.00  0.00     0.011 C 
ATOM     23  C   UNL A   1      46.503  24.433  25.966  1.00  0.00     0.034 C 
BRANCH  13  24
ATOM     24  C   UNL A   1      41.433  27.209  28.355  1.00  0.00    -0.070 C 
ATOM     25  C   UNL A   1      39.097  28.063  29.037  1.00  0.00     0.035 C 
ATOM     26  C   UNL A   1      40.448  27.456  29.243  1.00  0.00    -0.031 C 
ATOM     27  C   UNL A   1      41.256  27.567  26.895  1.00  0.00     0.040 C 
ENDBRANCH  13  24
BRANCH  21  28
ATOM     28  O   UNL A   1      46.926  26.142  24.254  1.00  0.00    -0.276 OA
BRANCH  28  29
ATOM     29  S   UNL A   1      47.670  27.440  23.645  1.00  0.00     0.217 S 
ATOM     30  O   UNL A   1      48.447  27.015  22.503  1.00  0.00    -0.213 OA
ATOM     31  O   UNL A   1      46.778  28.564  23.536  1.00  0.00    -0.213 OA
ATOM     32  O   UNL A   1      48.751  27.807  24.790  1.00  0.00    -0.726 OA
ENDBRANCH  28  29
ENDBRANCH  21  28
ENDBRANCH  11  12
ENDBRANCH   9  10
ENDBRANCH   6   8
ENDBRANCH   5   6
ENDBRANCH   4   5
ENDBRANCH   3   4
ENDBRANCH   2   3
ENDBRANCH   1   2
BRANCH   1  33
ATOM     33  C   UNL A   1      47.707  38.989  26.755  1.00  0.00     0.188 C 
BRANCH  33  34
ATOM     34  O   UNL A   1      47.398  40.147  26.021  1.00  0.00    -0.376 OA
BRANCH  34  35
ATOM     35  C   UNL A   1      46.148  40.794  26.200  1.00  0.00     0.202 C 
BRANCH  35  36
ATOM     36  C   UNL A   1      44.753  40.164  25.969  1.00  0.00     0.261 C 
BRANCH  36  37
ATOM     37  O   UNL A   1      43.748  40.332  26.978  1.00  0.00    -0.460 OA
BRANCH  37  38
ATOM     38  C   UNL A   1      42.705  39.467  26.905  1.00  0.00     0.338 C 
ATOM     39  O   UNL A   1      41.661  39.616  26.293  1.00  0.00    -0.246 OA
BRANCH  38  40
ATOM     40  C   UNL A   1      43.074  38.183  27.532  1.00  0.00     0.060 A 
ATOM     41  C   UNL A   1      42.763  37.007  26.845  1.00  0.00     0.016 A 
ATOM     42  C   UNL A   1      43.594  38.125  28.826  1.00  0.00     0.016 A 
ATOM     43  C   UNL A   1      42.965  35.775  27.456  1.00  0.00     0.010 A 
ATOM     44  C   UNL A   1      43.780  36.876  29.442  1.00  0.00     0.010 A 
ATOM     45  C   UNL A   1      43.446  35.691  28.766  1.00  0.00    -0.014 A 
BRANCH  45  46
ATOM     46  C   UNL A   1      43.408  34.363  29.438  1.00  0.00     0.031 A 
ATOM     47  C   UNL A   1      44.695  33.600  29.615  1.00  0.00     0.074 A 
ATOM     48  C   UNL A   1      42.279  33.903  30.009  1.00  0.00     0.049 A 
ATOM     49  N   UNL A   1      44.901  32.424  30.154  1.00  0.00    -0.248 NA
ATOM     50  C   UNL A   1      45.916  34.260  29.127  1.00  0.00     0.031 C 
ATOM     51  C   UNL A   1      40.990  34.592  30.012  1.00  0.00     0.029 A 
ATOM     52  N   UNL A   1      42.042  32.748  30.717  1.00  0.00    -0.354 N 
ATOM     53  C   UNL A   1      46.271  32.205  30.070  1.00  0.00     0.074 A 
ATOM     54  C   UNL A   1      46.842  33.354  29.399  1.00  0.00     0.031 C 
ATOM     55  C   UNL A   1      40.098  33.848  30.691  1.00  0.00     0.029 A 
ATOM     56  C   UNL A   1      40.739  32.608  31.128  1.00  0.00     0.049 A 
ATOM     57  H   UNL A   1      42.742  32.083  30.911  1.00  0.00     0.167 HD
ATOM     58  C   UNL A   1      46.989  31.150  30.522  1.00  0.00     0.037 A 
ATOM     59  C   UNL A   1      40.128  31.583  31.756  1.00  0.00     0.037 A 
ATOM     60  C   UNL A   1      46.426  30.008  31.196  1.00  0.00     0.049 A 
ATOM     61  C   UNL A   1      40.936  30.363  32.135  1.00  0.00     0.074 A 
ATOM     62  C   UNL A   1      47.068  28.867  31.646  1.00  0.00     0.029 A 
ATOM     63  N   UNL A   1      45.086  29.867  31.526  1.00  0.00    -0.354 N 
ATOM     64  N   UNL A   1      42.222  30.141  32.008  1.00  0.00    -0.248 NA
ATOM     65  C   UNL A   1      40.199  29.247  32.747  1.00  0.00     0.031 C 
ATOM     66  C   UNL A   1      46.110  28.013  32.200  1.00  0.00     0.029 A 
ATOM     67  C   UNL A   1      44.881  28.650  32.159  1.00  0.00     0.049 A 
ATOM     68  H   UNL A   1      44.386  30.532  31.339  1.00  0.00     0.167 HD
ATOM     69  C   UNL A   1      42.451  28.886  32.563  1.00  0.00     0.074 A 
ATOM     70  C   UNL A   1      41.176  28.407  33.049  1.00  0.00     0.031 C 
ATOM     71  C   UNL A   1      43.611  28.189  32.658  1.00  0.00     0.037 A 
BRANCH  58  72
ATOM     72  C   UNL A   1      48.469  31.159  30.271  1.00  0.00     0.064 A 
ATOM     73  C   UNL A   1      49.024  30.643  29.090  1.00  0.00     0.173 A 
ATOM     74  C   UNL A   1      49.341  31.738  31.206  1.00  0.00     0.173 A 
ATOM     75  F   UNL A   1      48.238  30.062  28.171  1.00  0.00    -0.203 F 
ATOM     76  C   UNL A   1      50.398  30.693  28.863  1.00  0.00     0.198 A 
ATOM     77  C   UNL A   1      50.710  31.816  30.961  1.00  0.00     0.198 A 
ATOM     78  F   UNL A   1      48.862  32.250  32.351  1.00  0.00    -0.203 F 
ATOM     79  F   UNL A   1      50.911  30.158  27.747  1.00  0.00    -0.200 F 
ATOM     80  C   UNL A   1      51.237  31.288  29.793  1.00  0.00     0.200 A 
ATOM     81  F   UNL A   1      51.515  32.406  31.855  1.00  0.00    -0.200 F 
ATOM     82  F   UNL A   1      52.557  31.349  29.566  1.00  0.00    -0.200 F 
ENDBRANCH  58  72
BRANCH  59  83
ATOM     83  C   UNL A   1      38.663  31.617  32.032  1.00  0.00     0.064 A 
ATOM     84  C   UNL A   1      37.725  31.288  31.042  1.00  0.00     0.173 A 
ATOM     85  C   UNL A   1      38.170  32.078  33.263  1.00  0.00     0.173 A 
ATOM     86  F   UNL A   1      38.141  30.873  29.836  1.00  0.00    -0.203 F 
ATOM     87  C   UNL A   1      36.359  31.464  31.255  1.00  0.00     0.198 A 
ATOM     88  C   UNL A   1      36.802  32.214  33.489  1.00  0.00     0.198 A 
ATOM     89  F   UNL A   1      39.018  32.415  34.245  1.00  0.00    -0.203 F 
ATOM     90  F   UNL A   1      35.491  31.229  30.260  1.00  0.00    -0.200 F 
ATOM     91  C   UNL A   1      35.897  31.924  32.478  1.00  0.00     0.200 A 
ATOM     92  F   UNL A   1      36.362  32.648  34.677  1.00  0.00    -0.200 F 
ATOM     93  F   UNL A   1      34.586  32.109  32.677  1.00  0.00    -0.200 F 
ENDBRANCH  59  83
BRANCH  71  94
ATOM     94  C   UNL A   1      43.565  26.865  33.374  1.00  0.00     0.064 A 
ATOM     95  C   UNL A   1      43.321  26.771  34.753  1.00  0.00     0.173 A 
ATOM     96  C   UNL A   1      43.775  25.670  32.666  1.00  0.00     0.173 A 
ATOM     97  F   UNL A   1      43.122  27.881  35.480  1.00  0.00    -0.203 F 
ATOM     98  C   UNL A   1      43.348  25.541  35.405  1.00  0.00     0.198 A 
ATOM     99  C   UNL A   1      43.759  24.438  33.315  1.00  0.00     0.198 A 
ATOM    100  F   UNL A   1      43.998  25.695  31.344  1.00  0.00    -0.203 F 
ATOM    101  F   UNL A   1      43.195  25.487  36.735  1.00  0.00    -0.200 F 
ATOM    102  C   UNL A   1      43.563  24.375  34.685  1.00  0.00     0.200 A 
ATOM    103  F   UNL A   1      43.947  23.311  32.614  1.00  0.00    -0.200 F 
ATOM    104  F   UNL A   1      43.594  23.193  35.316  1.00  0.00    -0.200 F 
ENDBRANCH  71  94
ENDBRANCH  45  46
ENDBRANCH  38  40
ENDBRANCH  37  38
ENDBRANCH  36  37
ENDBRANCH  35  36
ENDBRANCH  34  35
ENDBRANCH  33  34
ENDBRANCH   1  33
TORSDOF 22
ENDMDL
