MODEL 1
REMARK VINA RESULT:     -12.0      0.000      0.000
REMARK SMILES O=C(OCCOCCOCCOC(=O)[C@H]1C[C@](O)(c2ccccc2Cl)[C@@H](c2ccccc2Cl)O1)c1ccc(-c2c3nc(c(-c4c(F)c(F)c(F)c(F)c4F)c4ccc([nH]4)c(-c4c(F)c(F)c(F)c(F)c4F)c4nc(c(-c5c(F)c(F)c(F)c(F)c5F)c5ccc2[nH]5)C=C4)C=C3)cc1
REMARK SMILES IDX 7 1 6 2 5 3 4 4 3 5 2 6 1 7 35 8 36 9 97 10 37 11 96 12
REMARK SMILES IDX 38 13 39 14 40 15 90 16 41 17 95 18 89 19 91 20 42 21 94 22
REMARK SMILES IDX 88 23 87 24 43 26 75 27 55 28 74 29 56 30 59 31 73 32 92 33
REMARK SMILES IDX 57 34 58 35 72 37 93 38 60 39 44 40 45 41 53 42 46 43 47 44
REMARK SMILES IDX 51 45 54 46 48 47 49 48 52 49 50 50 76 51 77 52 85 53 78 54
REMARK SMILES IDX 79 55 83 56 86 57 80 58 81 59 84 60 82 61 61 62 62 63 70 64
REMARK SMILES IDX 63 65 64 66 68 67 71 68 65 69 66 70 69 71 67 72 8 73 9 74
REMARK SMILES IDX 10 75 11 76 12 77 13 78 14 79 15 80 16 81 34 82 17 83 26 84
REMARK SMILES IDX 19 85 20 86 24 87 21 88 23 89 25 90 22 91 18 92 27 94 28 95
REMARK SMILES IDX 32 96 29 97 31 98 33 99 30 100
REMARK H PARENT 91 25 59 36 18 93
REMARK Flexibility Score: inf
ROOT
ATOM      1  C   UNL A   1      32.523  28.551  26.835  1.00  0.00     0.188 C 
ENDROOT
BRANCH   1   2
ATOM      2  O   UNL A   1      31.850  29.748  27.247  1.00  0.00    -0.376 OA
BRANCH   2   3
ATOM      3  C   UNL A   1      31.950  30.786  26.269  1.00  0.00     0.202 C 
BRANCH   3   4
ATOM      4  C   UNL A   1      31.774  32.210  26.832  1.00  0.00     0.261 C 
BRANCH   4   5
ATOM      5  O   UNL A   1      32.560  32.420  28.016  1.00  0.00    -0.460 OA
BRANCH   5   6
ATOM      6  C   UNL A   1      33.710  33.129  27.948  1.00  0.00     0.338 C 
ATOM      7  O   UNL A   1      33.703  34.313  27.628  1.00  0.00    -0.246 OA
BRANCH   6   8
ATOM      8  C   UNL A   1      35.006  32.391  28.088  1.00  0.00     0.060 A 
ATOM      9  C   UNL A   1      35.129  31.000  28.136  1.00  0.00     0.016 A 
ATOM     10  C   UNL A   1      36.164  33.163  28.277  1.00  0.00     0.016 A 
ATOM     11  C   UNL A   1      36.336  30.395  28.482  1.00  0.00     0.010 A 
ATOM     12  C   UNL A   1      37.392  32.564  28.576  1.00  0.00     0.010 A 
ATOM     13  C   UNL A   1      37.458  31.179  28.760  1.00  0.00    -0.014 A 
BRANCH  13  14
ATOM     14  C   UNL A   1      38.575  30.566  29.509  1.00  0.00     0.031 A 
ATOM     15  C   UNL A   1      38.728  30.935  30.960  1.00  0.00     0.074 A 
ATOM     16  C   UNL A   1      39.353  29.622  28.954  1.00  0.00     0.049 A 
ATOM     17  N   UNL A   1      39.610  30.531  31.838  1.00  0.00    -0.248 NA
ATOM     18  C   UNL A   1      37.742  31.888  31.499  1.00  0.00     0.031 C 
ATOM     19  C   UNL A   1      39.229  29.132  27.585  1.00  0.00     0.029 A 
ATOM     20  N   UNL A   1      40.385  28.892  29.483  1.00  0.00    -0.354 N 
ATOM     21  C   UNL A   1      39.294  31.196  33.017  1.00  0.00     0.074 A 
ATOM     22  C   UNL A   1      38.158  32.043  32.743  1.00  0.00     0.031 C 
ATOM     23  C   UNL A   1      40.147  28.172  27.379  1.00  0.00     0.029 A 
ATOM     24  C   UNL A   1      40.941  28.005  28.595  1.00  0.00     0.049 A 
ATOM     25  H   UNL A   1      40.697  28.993  30.411  1.00  0.00     0.167 HD
ATOM     26  C   UNL A   1      39.897  31.102  34.224  1.00  0.00     0.037 A 
ATOM     27  C   UNL A   1      41.984  27.168  28.753  1.00  0.00     0.037 A 
ATOM     28  C   UNL A   1      41.025  30.252  34.486  1.00  0.00     0.049 A 
ATOM     29  C   UNL A   1      42.677  27.118  30.091  1.00  0.00     0.074 A 
ATOM     30  C   UNL A   1      41.751  30.108  35.653  1.00  0.00     0.029 A 
ATOM     31  N   UNL A   1      41.587  29.395  33.550  1.00  0.00    -0.354 N 
ATOM     32  N   UNL A   1      42.396  27.774  31.193  1.00  0.00    -0.248 NA
ATOM     33  C   UNL A   1      43.832  26.217  30.209  1.00  0.00     0.031 C 
ATOM     34  C   UNL A   1      42.776  29.186  35.412  1.00  0.00     0.029 A 
ATOM     35  C   UNL A   1      42.661  28.726  34.107  1.00  0.00     0.049 A 
ATOM     36  H   UNL A   1      41.269  29.282  32.625  1.00  0.00     0.167 HD
ATOM     37  C   UNL A   1      43.323  27.356  32.137  1.00  0.00     0.074 A 
ATOM     38  C   UNL A   1      44.168  26.377  31.482  1.00  0.00     0.031 C 
ATOM     39  C   UNL A   1      43.470  27.747  33.427  1.00  0.00     0.037 A 
BRANCH  26  40
ATOM     40  C   UNL A   1      39.370  31.986  35.315  1.00  0.00     0.064 A 
ATOM     41  C   UNL A   1      39.758  33.330  35.431  1.00  0.00     0.173 A 
ATOM     42  C   UNL A   1      38.504  31.466  36.288  1.00  0.00     0.173 A 
ATOM     43  F   UNL A   1      40.606  33.867  34.542  1.00  0.00    -0.203 F 
ATOM     44  C   UNL A   1      39.330  34.108  36.505  1.00  0.00     0.198 A 
ATOM     45  C   UNL A   1      38.057  32.254  37.345  1.00  0.00     0.198 A 
ATOM     46  F   UNL A   1      38.107  30.186  36.225  1.00  0.00    -0.203 F 
ATOM     47  F   UNL A   1      39.767  35.368  36.633  1.00  0.00    -0.200 F 
ATOM     48  C   UNL A   1      38.480  33.570  37.459  1.00  0.00     0.200 A 
ATOM     49  F   UNL A   1      37.233  31.734  38.265  1.00  0.00    -0.200 F 
ATOM     50  F   UNL A   1      38.080  34.315  38.499  1.00  0.00    -0.200 F 
ENDBRANCH  26  40
BRANCH  27  51
ATOM     51  C   UNL A   1      42.433  26.323  27.616  1.00  0.00     0.064 A 
ATOM     52  C   UNL A   1      41.816  25.096  27.334  1.00  0.00     0.173 A 
ATOM     53  C   UNL A   1      43.480  26.733  26.776  1.00  0.00     0.173 A 
ATOM     54  F   UNL A   1      40.826  24.647  28.120  1.00  0.00    -0.203 F 
ATOM     55  C   UNL A   1      42.232  24.310  26.260  1.00  0.00     0.198 A 
ATOM     56  C   UNL A   1      43.878  25.959  25.688  1.00  0.00     0.198 A 
ATOM     57  F   UNL A   1      44.105  27.897  27.003  1.00  0.00    -0.203 F 
ATOM     58  F   UNL A   1      41.648  23.126  26.031  1.00  0.00    -0.200 F 
ATOM     59  C   UNL A   1      43.257  24.746  25.432  1.00  0.00     0.200 A 
ATOM     60  F   UNL A   1      44.859  26.392  24.885  1.00  0.00    -0.200 F 
ATOM     61  F   UNL A   1      43.649  23.996  24.394  1.00  0.00    -0.200 F 
ENDBRANCH  27  51
BRANCH  39  62
ATOM     62  C   UNL A   1      44.562  27.099  34.222  1.00  0.00     0.064 A 
ATOM     63  C   UNL A   1      45.832  27.682  34.328  1.00  0.00     0.173 A 
ATOM     64  C   UNL A   1      44.308  25.924  34.944  1.00  0.00     0.173 A 
ATOM     65  F   UNL A   1      46.121  28.800  33.645  1.00  0.00    -0.203 F 
ATOM     66  C   UNL A   1      46.817  27.103  35.122  1.00  0.00     0.198 A 
ATOM     67  C   UNL A   1      45.288  25.360  35.756  1.00  0.00     0.198 A 
ATOM     68  F   UNL A   1      43.104  25.337  34.879  1.00  0.00    -0.203 F 
ATOM     69  F   UNL A   1      48.034  27.659  35.189  1.00  0.00    -0.200 F 
ATOM     70  C   UNL A   1      46.542  25.949  35.842  1.00  0.00     0.200 A 
ATOM     71  F   UNL A   1      45.018  24.253  36.460  1.00  0.00    -0.200 F 
ATOM     72  F   UNL A   1      47.487  25.400  36.617  1.00  0.00    -0.200 F 
ENDBRANCH  39  62
ENDBRANCH  13  14
ENDBRANCH   6   8
ENDBRANCH   5   6
ENDBRANCH   4   5
ENDBRANCH   3   4
ENDBRANCH   2   3
ENDBRANCH   1   2
BRANCH   1  73
ATOM     73  C   UNL A   1      32.394  28.282  25.340  1.00  0.00     0.188 C 
BRANCH  73  74
ATOM     74  O   UNL A   1      31.095  27.798  25.004  1.00  0.00    -0.376 OA
BRANCH  74  75
ATOM     75  C   UNL A   1      31.133  26.696  24.091  1.00  0.00     0.202 C 
BRANCH  75  76
ATOM     76  C   UNL A   1      30.695  25.358  24.708  1.00  0.00     0.261 C 
BRANCH  76  77
ATOM     77  O   UNL A   1      31.760  24.624  25.346  1.00  0.00    -0.461 OA
BRANCH  77  78
ATOM     78  C   UNL A   1      31.433  23.789  26.372  1.00  0.00     0.335 C 
ATOM     79  O   UNL A   1      30.715  24.099  27.314  1.00  0.00    -0.249 OA
BRANCH  78  80
ATOM     80  C   UNL A   1      32.149  22.437  26.206  1.00  0.00     0.232 C 
ATOM     81  C   UNL A   1      32.136  21.917  24.779  1.00  0.00     0.087 C 
ATOM     82  O   UNL A   1      33.509  22.503  26.617  1.00  0.00    -0.355 OA
ATOM     83  C   UNL A   1      33.503  21.258  24.542  1.00  0.00     0.124 C 
ATOM     84  C   UNL A   1      34.292  21.549  25.860  1.00  0.00     0.187 C 
BRANCH  83  85
ATOM     85  C   UNL A   1      33.315  19.843  23.968  1.00  0.00     0.005 A 
ATOM     86  C   UNL A   1      34.055  18.809  24.609  1.00  0.00     0.008 A 
ATOM     87  C   UNL A   1      32.551  19.445  22.856  1.00  0.00     0.047 A 
ATOM     88  C   UNL A   1      33.969  17.466  24.235  1.00  0.00     0.001 A 
ATOM     89  C   UNL A   1      32.436  18.085  22.506  1.00  0.00     0.021 A 
ATOM     90  Cl  UNL A   1      31.793  20.523  21.743  1.00  0.00    -0.084 Cl
ATOM     91  C   UNL A   1      33.133  17.098  23.196  1.00  0.00     0.002 A 
ENDBRANCH  83  85
BRANCH  83  92
ATOM     92  O   UNL A   1      34.107  22.032  23.471  1.00  0.00    -0.382 OA
ATOM     93  H   UNL A   1      35.066  22.083  23.610  1.00  0.00     0.212 HD
ENDBRANCH  83  92
BRANCH  84  94
ATOM     94  C   UNL A   1      35.680  22.166  25.749  1.00  0.00     0.003 A 
ATOM     95  C   UNL A   1      35.840  23.544  26.004  1.00  0.00     0.008 A 
ATOM     96  C   UNL A   1      36.835  21.416  25.490  1.00  0.00     0.046 A 
ATOM     97  C   UNL A   1      37.102  24.130  26.099  1.00  0.00     0.000 A 
ATOM     98  C   UNL A   1      38.103  21.996  25.615  1.00  0.00     0.021 A 
ATOM     99  Cl  UNL A   1      36.771  19.771  24.971  1.00  0.00    -0.084 Cl
ATOM    100  C   UNL A   1      38.237  23.347  25.937  1.00  0.00     0.002 A 
ENDBRANCH  84  94
ENDBRANCH  78  80
ENDBRANCH  77  78
ENDBRANCH  76  77
ENDBRANCH  75  76
ENDBRANCH  74  75
ENDBRANCH  73  74
ENDBRANCH   1  73
TORSDOF 20
ENDMDL
MODEL 2
REMARK VINA RESULT:     -11.8      2.694      3.789
REMARK SMILES O=C(OCCOCCOCCOC(=O)[C@H]1C[C@](O)(c2ccccc2Cl)[C@@H](c2ccccc2Cl)O1)c1ccc(-c2c3nc(c(-c4c(F)c(F)c(F)c(F)c4F)c4ccc([nH]4)c(-c4c(F)c(F)c(F)c(F)c4F)c4nc(c(-c5c(F)c(F)c(F)c(F)c5F)c5ccc2[nH]5)C=C4)C=C3)cc1
REMARK SMILES IDX 7 1 6 2 5 3 4 4 3 5 2 6 1 7 35 8 36 9 97 10 37 11 96 12
REMARK SMILES IDX 38 13 39 14 40 15 90 16 41 17 95 18 89 19 91 20 42 21 94 22
REMARK SMILES IDX 88 23 87 24 43 26 75 27 55 28 74 29 56 30 59 31 73 32 92 33
REMARK SMILES IDX 57 34 58 35 72 37 93 38 60 39 44 40 45 41 53 42 46 43 47 44
REMARK SMILES IDX 51 45 54 46 48 47 49 48 52 49 50 50 76 51 77 52 85 53 78 54
REMARK SMILES IDX 79 55 83 56 86 57 80 58 81 59 84 60 82 61 61 62 62 63 70 64
REMARK SMILES IDX 63 65 64 66 68 67 71 68 65 69 66 70 69 71 67 72 8 73 9 74
REMARK SMILES IDX 10 75 11 76 12 77 13 78 14 79 15 80 16 81 34 82 17 83 26 84
REMARK SMILES IDX 19 85 20 86 24 87 21 88 23 89 25 90 22 91 18 92 27 94 28 95
REMARK SMILES IDX 32 96 29 97 31 98 33 99 30 100
REMARK H PARENT 91 25 59 36 18 93
REMARK Flexibility Score: inf
ROOT
ATOM      1  C   UNL A   1      32.214  29.020  24.052  1.00  0.00     0.188 C 
ENDROOT
BRANCH   1   2
ATOM      2  O   UNL A   1      32.825  29.677  25.170  1.00  0.00    -0.376 OA
BRANCH   2   3
ATOM      3  C   UNL A   1      31.860  30.284  26.031  1.00  0.00     0.202 C 
BRANCH   3   4
ATOM      4  C   UNL A   1      32.464  31.076  27.207  1.00  0.00     0.261 C 
BRANCH   4   5
ATOM      5  O   UNL A   1      33.900  31.115  27.145  1.00  0.00    -0.460 OA
BRANCH   5   6
ATOM      6  C   UNL A   1      34.624  31.206  28.284  1.00  0.00     0.338 C 
ATOM      7  O   UNL A   1      34.383  32.074  29.116  1.00  0.00    -0.246 OA
BRANCH   6   8
ATOM      8  C   UNL A   1      35.842  30.345  28.419  1.00  0.00     0.060 A 
ATOM      9  C   UNL A   1      36.247  29.718  29.601  1.00  0.00     0.016 A 
ATOM     10  C   UNL A   1      36.681  30.243  27.298  1.00  0.00     0.016 A 
ATOM     11  C   UNL A   1      37.499  29.115  29.703  1.00  0.00     0.010 A 
ATOM     12  C   UNL A   1      37.918  29.596  27.376  1.00  0.00     0.010 A 
ATOM     13  C   UNL A   1      38.362  29.102  28.607  1.00  0.00    -0.014 A 
BRANCH  13  14
ATOM     14  C   UNL A   1      39.798  28.842  28.846  1.00  0.00     0.031 A 
ATOM     15  C   UNL A   1      40.560  29.843  29.673  1.00  0.00     0.074 A 
ATOM     16  C   UNL A   1      40.376  27.698  28.446  1.00  0.00     0.049 A 
ATOM     17  N   UNL A   1      41.816  29.843  30.038  1.00  0.00    -0.248 NA
ATOM     18  C   UNL A   1      39.794  31.001  30.166  1.00  0.00     0.031 C 
ATOM     19  C   UNL A   1      39.702  26.628  27.715  1.00  0.00     0.029 A 
ATOM     20  N   UNL A   1      41.655  27.237  28.617  1.00  0.00    -0.354 N 
ATOM     21  C   UNL A   1      41.989  31.005  30.780  1.00  0.00     0.074 A 
ATOM     22  C   UNL A   1      40.722  31.697  30.799  1.00  0.00     0.031 C 
ATOM     23  C   UNL A   1      40.572  25.626  27.507  1.00  0.00     0.029 A 
ATOM     24  C   UNL A   1      41.872  26.001  28.062  1.00  0.00     0.049 A 
ATOM     25  H   UNL A   1      42.352  27.743  29.095  1.00  0.00     0.167 HD
ATOM     26  C   UNL A   1      43.107  31.453  31.396  1.00  0.00     0.037 A 
ATOM     27  C   UNL A   1      43.001  25.269  28.003  1.00  0.00     0.037 A 
ATOM     28  C   UNL A   1      44.361  30.754  31.374  1.00  0.00     0.049 A 
ATOM     29  C   UNL A   1      44.251  25.811  28.649  1.00  0.00     0.074 A 
ATOM     30  C   UNL A   1      45.574  31.130  31.919  1.00  0.00     0.029 A 
ATOM     31  N   UNL A   1      44.553  29.521  30.767  1.00  0.00    -0.354 N 
ATOM     32  N   UNL A   1      44.417  26.927  29.320  1.00  0.00    -0.248 NA
ATOM     33  C   UNL A   1      45.468  24.998  28.530  1.00  0.00     0.031 C 
ATOM     34  C   UNL A   1      46.511  30.137  31.612  1.00  0.00     0.029 A 
ATOM     35  C   UNL A   1      45.870  29.124  30.913  1.00  0.00     0.049 A 
ATOM     36  H   UNL A   1      43.856  29.005  30.301  1.00  0.00     0.167 HD
ATOM     37  C   UNL A   1      45.747  26.944  29.716  1.00  0.00     0.074 A 
ATOM     38  C   UNL A   1      46.341  25.717  29.223  1.00  0.00     0.031 C 
ATOM     39  C   UNL A   1      46.421  27.887  30.419  1.00  0.00     0.037 A 
BRANCH  26  40
ATOM     40  C   UNL A   1      43.013  32.781  32.087  1.00  0.00     0.064 A 
ATOM     41  C   UNL A   1      42.646  32.888  33.437  1.00  0.00     0.173 A 
ATOM     42  C   UNL A   1      43.243  33.966  31.373  1.00  0.00     0.173 A 
ATOM     43  F   UNL A   1      42.388  31.786  34.156  1.00  0.00    -0.203 F 
ATOM     44  C   UNL A   1      42.474  34.135  34.036  1.00  0.00     0.198 A 
ATOM     45  C   UNL A   1      43.096  35.210  31.982  1.00  0.00     0.198 A 
ATOM     46  F   UNL A   1      43.592  33.919  30.078  1.00  0.00    -0.203 F 
ATOM     47  F   UNL A   1      42.057  34.214  35.306  1.00  0.00    -0.200 F 
ATOM     48  C   UNL A   1      42.700  35.293  33.308  1.00  0.00     0.200 A 
ATOM     49  F   UNL A   1      43.318  36.329  31.277  1.00  0.00    -0.200 F 
ATOM     50  F   UNL A   1      42.521  36.492  33.880  1.00  0.00    -0.200 F 
ENDBRANCH  26  40
BRANCH  27  51
ATOM     51  C   UNL A   1      42.998  23.959  27.302  1.00  0.00     0.064 A 
ATOM     52  C   UNL A   1      43.445  23.840  25.978  1.00  0.00     0.173 A 
ATOM     53  C   UNL A   1      42.561  22.792  27.947  1.00  0.00     0.173 A 
ATOM     54  F   UNL A   1      43.852  24.929  25.309  1.00  0.00    -0.203 F 
ATOM     55  C   UNL A   1      43.450  22.608  25.327  1.00  0.00     0.198 A 
ATOM     56  C   UNL A   1      42.590  21.557  27.304  1.00  0.00     0.198 A 
ATOM     57  F   UNL A   1      42.120  22.849  29.213  1.00  0.00    -0.203 F 
ATOM     58  F   UNL A   1      43.853  22.528  24.051  1.00  0.00    -0.200 F 
ATOM     59  C   UNL A   1      43.031  21.465  25.993  1.00  0.00     0.200 A 
ATOM     60  F   UNL A   1      42.196  20.454  27.956  1.00  0.00    -0.200 F 
ATOM     61  F   UNL A   1      43.047  20.279  25.369  1.00  0.00    -0.200 F 
ENDBRANCH  27  51
BRANCH  39  62
ATOM     62  C   UNL A   1      47.864  27.620  30.720  1.00  0.00     0.064 A 
ATOM     63  C   UNL A   1      48.883  28.078  29.874  1.00  0.00     0.173 A 
ATOM     64  C   UNL A   1      48.229  26.966  31.906  1.00  0.00     0.173 A 
ATOM     65  F   UNL A   1      48.579  28.698  28.724  1.00  0.00    -0.203 F 
ATOM     66  C   UNL A   1      50.222  27.879  30.199  1.00  0.00     0.198 A 
ATOM     67  C   UNL A   1      49.569  26.790  32.239  1.00  0.00     0.198 A 
ATOM     68  F   UNL A   1      47.287  26.519  32.749  1.00  0.00    -0.203 F 
ATOM     69  F   UNL A   1      51.182  28.298  29.364  1.00  0.00    -0.200 F 
ATOM     70  C   UNL A   1      50.563  27.244  31.385  1.00  0.00     0.200 A 
ATOM     71  F   UNL A   1      49.897  26.187  33.390  1.00  0.00    -0.200 F 
ATOM     72  F   UNL A   1      51.852  27.065  31.703  1.00  0.00    -0.200 F 
ENDBRANCH  39  62
ENDBRANCH  13  14
ENDBRANCH   6   8
ENDBRANCH   5   6
ENDBRANCH   4   5
ENDBRANCH   3   4
ENDBRANCH   2   3
ENDBRANCH   1   2
BRANCH   1  73
ATOM     73  C   UNL A   1      33.135  28.005  23.384  1.00  0.00     0.188 C 
BRANCH  73  74
ATOM     74  O   UNL A   1      33.489  26.951  24.277  1.00  0.00    -0.376 OA
BRANCH  74  75
ATOM     75  C   UNL A   1      32.467  25.956  24.395  1.00  0.00     0.202 C 
BRANCH  75  76
ATOM     76  C   UNL A   1      31.882  25.823  25.810  1.00  0.00     0.261 C 
BRANCH  76  77
ATOM     77  O   UNL A   1      32.404  24.709  26.563  1.00  0.00    -0.461 OA
BRANCH  77  78
ATOM     78  C   UNL A   1      31.562  23.670  26.829  1.00  0.00     0.335 C 
ATOM     79  O   UNL A   1      30.438  23.793  27.298  1.00  0.00    -0.249 OA
BRANCH  78  80
ATOM     80  C   UNL A   1      32.256  22.332  26.519  1.00  0.00     0.232 C 
ATOM     81  C   UNL A   1      32.154  21.921  25.060  1.00  0.00     0.087 C 
ATOM     82  O   UNL A   1      33.639  22.362  26.851  1.00  0.00    -0.355 OA
ATOM     83  C   UNL A   1      33.498  21.277  24.692  1.00  0.00     0.124 C 
ATOM     84  C   UNL A   1      34.367  21.465  25.979  1.00  0.00     0.187 C 
BRANCH  83  85
ATOM     85  C   UNL A   1      33.265  19.910  24.026  1.00  0.00     0.005 A 
ATOM     86  C   UNL A   1      33.960  18.810  24.605  1.00  0.00     0.008 A 
ATOM     87  C   UNL A   1      32.499  19.614  22.884  1.00  0.00     0.047 A 
ATOM     88  C   UNL A   1      33.828  17.498  24.143  1.00  0.00     0.001 A 
ATOM     89  C   UNL A   1      32.339  18.284  22.445  1.00  0.00     0.021 A 
ATOM     90  Cl  UNL A   1      31.795  20.789  21.837  1.00  0.00    -0.084 Cl
ATOM     91  C   UNL A   1      32.991  17.230  23.075  1.00  0.00     0.002 A 
ENDBRANCH  83  85
BRANCH  83  92
ATOM     92  O   UNL A   1      34.044  22.128  23.648  1.00  0.00    -0.382 OA
ATOM     93  H   UNL A   1      34.900  21.776  23.359  1.00  0.00     0.212 HD
ENDBRANCH  83  92
BRANCH  84  94
ATOM     94  C   UNL A   1      35.751  22.083  25.832  1.00  0.00     0.003 A 
ATOM     95  C   UNL A   1      35.924  23.453  26.118  1.00  0.00     0.008 A 
ATOM     96  C   UNL A   1      36.894  21.339  25.508  1.00  0.00     0.046 A 
ATOM     97  C   UNL A   1      37.189  24.035  26.180  1.00  0.00     0.000 A 
ATOM     98  C   UNL A   1      38.167  21.915  25.600  1.00  0.00     0.021 A 
ATOM     99  Cl  UNL A   1      36.806  19.709  24.947  1.00  0.00    -0.084 Cl
ATOM    100  C   UNL A   1      38.316  23.255  25.953  1.00  0.00     0.002 A 
ENDBRANCH  84  94
ENDBRANCH  78  80
ENDBRANCH  77  78
ENDBRANCH  76  77
ENDBRANCH  75  76
ENDBRANCH  74  75
ENDBRANCH  73  74
ENDBRANCH   1  73
TORSDOF 20
ENDMDL
MODEL 3
REMARK VINA RESULT:     -11.8      5.456     11.340
REMARK SMILES O=C(OCCOCCOCCOC(=O)[C@H]1C[C@](O)(c2ccccc2Cl)[C@@H](c2ccccc2Cl)O1)c1ccc(-c2c3nc(c(-c4c(F)c(F)c(F)c(F)c4F)c4ccc([nH]4)c(-c4c(F)c(F)c(F)c(F)c4F)c4nc(c(-c5c(F)c(F)c(F)c(F)c5F)c5ccc2[nH]5)C=C4)C=C3)cc1
REMARK SMILES IDX 7 1 6 2 5 3 4 4 3 5 2 6 1 7 35 8 36 9 97 10 37 11 96 12
REMARK SMILES IDX 38 13 39 14 40 15 90 16 41 17 95 18 89 19 91 20 42 21 94 22
REMARK SMILES IDX 88 23 87 24 43 26 75 27 55 28 74 29 56 30 59 31 73 32 92 33
REMARK SMILES IDX 57 34 58 35 72 37 93 38 60 39 44 40 45 41 53 42 46 43 47 44
REMARK SMILES IDX 51 45 54 46 48 47 49 48 52 49 50 50 76 51 77 52 85 53 78 54
REMARK SMILES IDX 79 55 83 56 86 57 80 58 81 59 84 60 82 61 61 62 62 63 70 64
REMARK SMILES IDX 63 65 64 66 68 67 71 68 65 69 66 70 69 71 67 72 8 73 9 74
REMARK SMILES IDX 10 75 11 76 12 77 13 78 14 79 15 80 16 81 34 82 17 83 26 84
REMARK SMILES IDX 19 85 20 86 24 87 21 88 23 89 25 90 22 91 18 92 27 94 28 95
REMARK SMILES IDX 32 96 29 97 31 98 33 99 30 100
REMARK H PARENT 91 25 59 36 18 93
REMARK Flexibility Score: inf
ROOT
ATOM      1  C   UNL A   1      32.945  36.120  29.075  1.00  0.00     0.188 C 
ENDROOT
BRANCH   1   2
ATOM      2  O   UNL A   1      32.685  34.714  29.174  1.00  0.00    -0.376 OA
BRANCH   2   3
ATOM      3  C   UNL A   1      33.161  33.996  28.032  1.00  0.00     0.202 C 
BRANCH   3   4
ATOM      4  C   UNL A   1      34.489  33.249  28.258  1.00  0.00     0.261 C 
BRANCH   4   5
ATOM      5  O   UNL A   1      34.285  31.967  28.874  1.00  0.00    -0.460 OA
BRANCH   5   6
ATOM      6  C   UNL A   1      34.509  30.834  28.170  1.00  0.00     0.338 C 
ATOM      7  O   UNL A   1      33.616  30.317  27.507  1.00  0.00    -0.246 OA
BRANCH   6   8
ATOM      8  C   UNL A   1      35.814  30.124  28.366  1.00  0.00     0.060 A 
ATOM      9  C   UNL A   1      36.219  29.519  29.559  1.00  0.00     0.016 A 
ATOM     10  C   UNL A   1      36.725  30.156  27.299  1.00  0.00     0.016 A 
ATOM     11  C   UNL A   1      37.527  29.069  29.729  1.00  0.00     0.010 A 
ATOM     12  C   UNL A   1      38.026  29.661  27.444  1.00  0.00     0.010 A 
ATOM     13  C   UNL A   1      38.451  29.192  28.690  1.00  0.00    -0.014 A 
BRANCH  13  14
ATOM     14  C   UNL A   1      39.890  29.101  29.016  1.00  0.00     0.031 A 
ATOM     15  C   UNL A   1      40.639  27.886  28.539  1.00  0.00     0.074 A 
ATOM     16  C   UNL A   1      40.537  30.118  29.609  1.00  0.00     0.049 A 
ATOM     17  N   UNL A   1      41.901  27.572  28.679  1.00  0.00    -0.248 NA
ATOM     18  C   UNL A   1      39.855  26.890  27.788  1.00  0.00     0.031 C 
ATOM     19  C   UNL A   1      39.919  31.372  30.031  1.00  0.00     0.029 A 
ATOM     20  N   UNL A   1      41.858  30.264  29.939  1.00  0.00    -0.354 N 
ATOM     21  C   UNL A   1      42.050  26.339  28.056  1.00  0.00     0.074 A 
ATOM     22  C   UNL A   1      40.754  25.949  27.554  1.00  0.00     0.031 C 
ATOM     23  C   UNL A   1      40.864  32.169  30.558  1.00  0.00     0.029 A 
ATOM     24  C   UNL A   1      42.145  31.465  30.538  1.00  0.00     0.049 A 
ATOM     25  H   UNL A   1      42.538  29.574  29.761  1.00  0.00     0.167 HD
ATOM     26  C   UNL A   1      43.173  25.599  27.910  1.00  0.00     0.037 A 
ATOM     27  C   UNL A   1      43.313  31.927  31.025  1.00  0.00     0.037 A 
ATOM     28  C   UNL A   1      44.459  25.999  28.410  1.00  0.00     0.049 A 
ATOM     29  C   UNL A   1      44.543  31.064  30.901  1.00  0.00     0.074 A 
ATOM     30  C   UNL A   1      45.659  25.314  28.367  1.00  0.00     0.029 A 
ATOM     31  N   UNL A   1      44.704  27.207  29.048  1.00  0.00    -0.354 N 
ATOM     32  N   UNL A   1      44.671  29.884  30.342  1.00  0.00    -0.248 NA
ATOM     33  C   UNL A   1      45.787  31.592  31.477  1.00  0.00     0.031 C 
ATOM     34  C   UNL A   1      46.625  26.096  29.010  1.00  0.00     0.029 A 
ATOM     35  C   UNL A   1      46.035  27.285  29.416  1.00  0.00     0.049 A 
ATOM     36  H   UNL A   1      44.030  27.905  29.215  1.00  0.00     0.167 HD
ATOM     37  C   UNL A   1      46.007  29.535  30.481  1.00  0.00     0.074 A 
ATOM     38  C   UNL A   1      46.653  30.637  31.167  1.00  0.00     0.031 C 
ATOM     39  C   UNL A   1      46.645  28.405  30.085  1.00  0.00     0.037 A 
BRANCH  26  40
ATOM     40  C   UNL A   1      43.025  24.269  27.232  1.00  0.00     0.064 A 
ATOM     41  C   UNL A   1      42.632  23.120  27.935  1.00  0.00     0.173 A 
ATOM     42  C   UNL A   1      43.332  24.134  25.870  1.00  0.00     0.173 A 
ATOM     43  F   UNL A   1      42.354  23.192  29.245  1.00  0.00    -0.203 F 
ATOM     44  C   UNL A   1      42.591  21.877  27.308  1.00  0.00     0.198 A 
ATOM     45  C   UNL A   1      43.264  22.894  25.240  1.00  0.00     0.198 A 
ATOM     46  F   UNL A   1      43.718  25.202  25.154  1.00  0.00    -0.203 F 
ATOM     47  F   UNL A   1      42.279  20.782  28.014  1.00  0.00    -0.200 F 
ATOM     48  C   UNL A   1      42.906  21.766  25.962  1.00  0.00     0.200 A 
ATOM     49  F   UNL A   1      43.566  22.789  23.938  1.00  0.00    -0.200 F 
ATOM     50  F   UNL A   1      42.879  20.567  25.362  1.00  0.00    -0.200 F 
ENDBRANCH  26  40
BRANCH  27  51
ATOM     51  C   UNL A   1      43.366  33.263  31.675  1.00  0.00     0.064 A 
ATOM     52  C   UNL A   1      43.295  33.396  33.069  1.00  0.00     0.173 A 
ATOM     53  C   UNL A   1      43.505  34.435  30.916  1.00  0.00     0.173 A 
ATOM     54  F   UNL A   1      43.139  32.309  33.839  1.00  0.00    -0.203 F 
ATOM     55  C   UNL A   1      43.356  34.649  33.677  1.00  0.00     0.198 A 
ATOM     56  C   UNL A   1      43.591  35.684  31.526  1.00  0.00     0.198 A 
ATOM     57  F   UNL A   1      43.574  34.364  29.578  1.00  0.00    -0.203 F 
ATOM     58  F   UNL A   1      43.253  34.752  35.009  1.00  0.00    -0.200 F 
ATOM     59  C   UNL A   1      43.512  35.792  32.906  1.00  0.00     0.200 A 
ATOM     60  F   UNL A   1      43.754  36.783  30.777  1.00  0.00    -0.200 F 
ATOM     61  F   UNL A   1      43.581  36.995  33.491  1.00  0.00    -0.200 F 
ENDBRANCH  27  51
BRANCH  39  62
ATOM     62  C   UNL A   1      48.115  28.315  30.357  1.00  0.00     0.064 A 
ATOM     63  C   UNL A   1      48.604  27.759  31.547  1.00  0.00     0.173 A 
ATOM     64  C   UNL A   1      49.040  28.719  29.383  1.00  0.00     0.173 A 
ATOM     65  F   UNL A   1      47.756  27.369  32.510  1.00  0.00    -0.203 F 
ATOM     66  C   UNL A   1      49.974  27.622  31.758  1.00  0.00     0.198 A 
ATOM     67  C   UNL A   1      50.407  28.559  29.588  1.00  0.00     0.198 A 
ATOM     68  F   UNL A   1      48.615  29.249  28.226  1.00  0.00    -0.203 F 
ATOM     69  F   UNL A   1      50.424  27.114  32.913  1.00  0.00    -0.200 F 
ATOM     70  C   UNL A   1      50.872  28.013  30.776  1.00  0.00     0.200 A 
ATOM     71  F   UNL A   1      51.273  28.927  28.634  1.00  0.00    -0.200 F 
ATOM     72  F   UNL A   1      52.189  27.868  30.975  1.00  0.00    -0.200 F 
ENDBRANCH  39  62
ENDBRANCH  13  14
ENDBRANCH   6   8
ENDBRANCH   5   6
ENDBRANCH   4   5
ENDBRANCH   3   4
ENDBRANCH   2   3
ENDBRANCH   1   2
BRANCH   1  73
ATOM     73  C   UNL A   1      33.254  36.763  30.423  1.00  0.00     0.188 C 
BRANCH  73  74
ATOM     74  O   UNL A   1      32.163  36.627  31.331  1.00  0.00    -0.376 OA
BRANCH  74  75
ATOM     75  C   UNL A   1      32.530  35.959  32.543  1.00  0.00     0.202 C 
BRANCH  75  76
ATOM     76  C   UNL A   1      33.982  35.454  32.565  1.00  0.00     0.261 C 
BRANCH  76  77
ATOM     77  O   UNL A   1      34.179  34.254  33.340  1.00  0.00    -0.461 OA
BRANCH  77  78
ATOM     78  C   UNL A   1      35.145  33.383  32.932  1.00  0.00     0.335 C 
ATOM     79  O   UNL A   1      34.958  32.459  32.150  1.00  0.00    -0.249 OA
BRANCH  78  80
ATOM     80  C   UNL A   1      36.473  33.690  33.645  1.00  0.00     0.232 C 
ATOM     81  C   UNL A   1      36.394  33.553  35.156  1.00  0.00     0.087 C 
ATOM     82  O   UNL A   1      37.524  32.840  33.200  1.00  0.00    -0.355 OA
ATOM     83  C   UNL A   1      37.730  32.943  35.609  1.00  0.00     0.124 C 
ATOM     84  C   UNL A   1      38.481  32.650  34.270  1.00  0.00     0.187 C 
BRANCH  83  85
ATOM     85  C   UNL A   1      38.335  33.782  36.748  1.00  0.00     0.005 A 
ATOM     86  C   UNL A   1      37.880  33.468  38.060  1.00  0.00     0.008 A 
ATOM     87  C   UNL A   1      39.237  34.858  36.656  1.00  0.00     0.047 A 
ATOM     88  C   UNL A   1      38.358  34.110  39.205  1.00  0.00     0.001 A 
ATOM     89  C   UNL A   1      39.744  35.477  37.816  1.00  0.00     0.021 A 
ATOM     90  Cl  UNL A   1      39.719  35.618  35.185  1.00  0.00    -0.084 Cl
ATOM     91  C   UNL A   1      39.316  35.100  39.085  1.00  0.00     0.002 A 
ENDBRANCH  83  85
BRANCH  83  92
ATOM     92  O   UNL A   1      37.370  31.672  36.215  1.00  0.00    -0.382 OA
ATOM     93  H   UNL A   1      37.407  30.973  35.543  1.00  0.00     0.212 HD
ENDBRANCH  83  92
BRANCH  84  94
ATOM     94  C   UNL A   1      39.053  31.256  34.053  1.00  0.00     0.003 A 
ATOM     95  C   UNL A   1      38.400  30.376  33.165  1.00  0.00     0.008 A 
ATOM     96  C   UNL A   1      40.257  30.823  34.625  1.00  0.00     0.046 A 
ATOM     97  C   UNL A   1      38.969  29.161  32.785  1.00  0.00     0.000 A 
ATOM     98  C   UNL A   1      40.845  29.618  34.221  1.00  0.00     0.021 A 
ATOM     99  Cl  UNL A   1      41.059  31.709  35.871  1.00  0.00    -0.084 Cl
ATOM    100  C   UNL A   1      40.211  28.797  33.289  1.00  0.00     0.002 A 
ENDBRANCH  84  94
ENDBRANCH  78  80
ENDBRANCH  77  78
ENDBRANCH  76  77
ENDBRANCH  75  76
ENDBRANCH  74  75
ENDBRANCH  73  74
ENDBRANCH   1  73
TORSDOF 20
ENDMDL
