MODEL 1
REMARK VINA RESULT:      -8.2      0.000      0.000
REMARK SMILES O=C(N[C@@H](Cc1c[nH]c2ccccc12)C(=O)N[C@@H](CS)C(=O)N[C@@H](CO)C(=O)OCCOCCOCCOC(=O)c1ccc(-c2c3nc(c(-c4c(F)c(F)c(F)c(F)c4F)c4ccc([nH]4)c(-c4c(F)c(F)c(F)c(F)c4F)c4nc(c(-c5c(F)c(F)c(F)c(F)c5F)c5ccc2[nH]5)C=C4)C=C3)cc1)c1ccc(F)cc1
REMARK SMILES IDX 31 1 30 2 29 3 27 4 28 5 24 6 23 7 21 8 22 9 18 11 17 12
REMARK SMILES IDX 15 13 16 14 4 16 3 17 1 18 2 19 104 21 105 22 110 23 106 24
REMARK SMILES IDX 109 25 107 26 108 27 5 28 6 29 7 30 14 31 8 32 9 33 13 34
REMARK SMILES IDX 10 36 12 37 11 38 19 39 20 40 25 42 26 43 32 45 33 46 34 47
REMARK SMILES IDX 35 48 36 49 37 50 38 51 39 52 40 53 41 54 42 55 103 56 43 57
REMARK SMILES IDX 102 58 44 59 45 60 46 61 96 62 47 63 101 64 95 65 97 66
REMARK SMILES IDX 48 67 100 68 94 69 93 70 49 72 81 73 61 74 80 75 62 76 65 77
REMARK SMILES IDX 79 78 98 79 63 80 64 81 78 83 99 84 66 85 50 86 51 87 59 88
REMARK SMILES IDX 52 89 53 90 57 91 60 92 54 93 55 94 58 95 56 96 82 97 83 98
REMARK SMILES IDX 91 99 84 100 85 101 89 102 92 103 86 104 87 105 90 106
REMARK SMILES IDX 88 107 67 108 68 109 76 110 69 111 70 112 74 113 77 114
REMARK SMILES IDX 71 115 72 116 75 117 73 118
REMARK H PARENT 23 10 17 15 3 20 8 35 20 41 26 44 97 71 65 82
REMARK Flexibility Score: inf
ROOT
ATOM      1  C   UNL A   1      37.239  32.791  30.916  1.00  0.00     0.202 C 
ENDROOT
BRANCH   1   2
ATOM      2  C   UNL A   1      37.464  31.434  31.591  1.00  0.00     0.261 C 
BRANCH   2   3
ATOM      3  O   UNL A   1      38.473  30.624  30.952  1.00  0.00    -0.462 OA
BRANCH   3   4
ATOM      4  C   UNL A   1      38.000  29.544  30.271  1.00  0.00     0.331 C 
ATOM      5  O   UNL A   1      36.902  29.029  30.463  1.00  0.00    -0.250 OA
BRANCH   4   6
ATOM      6  C   UNL A   1      38.951  29.038  29.172  1.00  0.00     0.218 C 
BRANCH   6   7
ATOM      7  N   UNL A   1      39.079  27.585  29.015  1.00  0.00    -0.339 N 
ATOM      8  C   UNL A   1      39.885  26.941  28.125  1.00  0.00     0.244 C 
ATOM      9  O   UNL A   1      39.329  26.157  27.350  1.00  0.00    -0.273 OA
ATOM     10  H   UNL A   1      38.534  27.021  29.610  1.00  0.00     0.164 HD
BRANCH   8  11
ATOM     11  C   UNL A   1      41.417  27.180  28.049  1.00  0.00     0.181 C 
BRANCH  11  12
ATOM     12  N   UNL A   1      41.818  27.707  26.755  1.00  0.00    -0.342 N 
ATOM     13  C   UNL A   1      42.517  27.141  25.737  1.00  0.00     0.243 C 
ATOM     14  O   UNL A   1      42.615  27.833  24.715  1.00  0.00    -0.273 OA
ATOM     15  H   UNL A   1      41.534  28.634  26.588  1.00  0.00     0.164 HD
BRANCH  13  16
ATOM     16  C   UNL A   1      43.245  25.770  25.805  1.00  0.00     0.176 C 
BRANCH  16  17
ATOM     17  N   UNL A   1      44.024  25.602  27.031  1.00  0.00    -0.340 N 
ATOM     18  O   UNL A   1      45.883  25.258  28.248  1.00  0.00    -0.269 OA
ATOM     19  C   UNL A   1      45.387  25.655  27.198  1.00  0.00     0.251 C 
ATOM     20  H   UNL A   1      43.503  25.426  27.847  1.00  0.00     0.164 HD
BRANCH  19  21
ATOM     21  C   UNL A   1      46.257  26.163  26.112  1.00  0.00     0.040 A 
ATOM     22  C   UNL A   1      46.999  25.274  25.322  1.00  0.00     0.017 A 
ATOM     23  C   UNL A   1      46.305  27.539  25.859  1.00  0.00     0.017 A 
ATOM     24  C   UNL A   1      47.832  25.769  24.318  1.00  0.00     0.040 A 
ATOM     25  C   UNL A   1      47.137  28.028  24.849  1.00  0.00     0.040 A 
ATOM     26  C   UNL A   1      47.900  27.140  24.094  1.00  0.00     0.123 A 
ATOM     27  F   UNL A   1      48.706  27.612  23.135  1.00  0.00    -0.207 F 
ENDBRANCH  19  21
ENDBRANCH  16  17
BRANCH  16  28
ATOM     28  C   UNL A   1      42.513  24.507  25.312  1.00  0.00     0.072 C 
BRANCH  28  29
ATOM     29  C   UNL A   1      43.245  23.212  25.066  1.00  0.00    -0.020 A 
ATOM     30  C   UNL A   1      44.384  22.963  24.319  1.00  0.00     0.087 A 
ATOM     31  C   UNL A   1      42.774  21.922  25.501  1.00  0.00     0.003 A 
ATOM     32  N   UNL A   1      44.689  21.626  24.415  1.00  0.00    -0.361 N 
ATOM     33  C   UNL A   1      43.734  20.976  25.152  1.00  0.00     0.046 A 
ATOM     34  C   UNL A   1      41.607  21.475  26.155  1.00  0.00     0.010 A 
ATOM     35  H   UNL A   1      45.480  21.199  24.014  1.00  0.00     0.166 HD
ATOM     36  C   UNL A   1      43.633  19.622  25.493  1.00  0.00     0.026 A 
ATOM     37  C   UNL A   1      41.462  20.116  26.457  1.00  0.00     0.001 A 
ATOM     38  C   UNL A   1      42.472  19.209  26.151  1.00  0.00     0.002 A 
ENDBRANCH  28  29
ENDBRANCH  16  28
ENDBRANCH  13  16
ENDBRANCH  11  12
BRANCH  11  39
ATOM     39  C   UNL A   1      42.128  27.777  29.272  1.00  0.00     0.101 C 
BRANCH  39  40
ATOM     40  S   UNL A   1      43.214  26.692  30.256  1.00  0.00    -0.177 SA
ATOM     41  H   UNL A   1      44.328  26.390  29.536  1.00  0.00     0.102 HD
ENDBRANCH  39  40
ENDBRANCH  11  39
ENDBRANCH   8  11
ENDBRANCH   6   7
BRANCH   6  42
ATOM     42  C   UNL A   1      38.498  29.652  27.838  1.00  0.00     0.193 C 
BRANCH  42  43
ATOM     43  O   UNL A   1      37.589  30.730  28.068  1.00  0.00    -0.394 OA
ATOM     44  H   UNL A   1      38.086  31.557  28.166  1.00  0.00     0.210 HD
ENDBRANCH  42  43
ENDBRANCH   6  42
ENDBRANCH   4   6
ENDBRANCH   3   4
ENDBRANCH   2   3
ENDBRANCH   1   2
BRANCH   1  45
ATOM     45  O   UNL A   1      35.910  33.308  30.919  1.00  0.00    -0.376 OA
BRANCH  45  46
ATOM     46  C   UNL A   1      34.911  32.599  31.644  1.00  0.00     0.188 C 
BRANCH  46  47
ATOM     47  C   UNL A   1      34.345  33.233  32.931  1.00  0.00     0.188 C 
BRANCH  47  48
ATOM     48  O   UNL A   1      35.209  34.187  33.502  1.00  0.00    -0.376 OA
BRANCH  48  49
ATOM     49  C   UNL A   1      35.801  33.880  34.749  1.00  0.00     0.202 C 
BRANCH  49  50
ATOM     50  C   UNL A   1      37.236  33.329  34.764  1.00  0.00     0.261 C 
BRANCH  50  51
ATOM     51  O   UNL A   1      37.424  31.981  35.233  1.00  0.00    -0.460 OA
BRANCH  51  52
ATOM     52  C   UNL A   1      38.382  31.774  36.152  1.00  0.00     0.338 C 
ATOM     53  O   UNL A   1      38.333  32.018  37.355  1.00  0.00    -0.246 OA
BRANCH  52  54
ATOM     54  C   UNL A   1      39.475  30.999  35.545  1.00  0.00     0.060 A 
ATOM     55  C   UNL A   1      40.786  31.285  35.941  1.00  0.00     0.016 A 
ATOM     56  C   UNL A   1      39.230  30.071  34.532  1.00  0.00     0.016 A 
ATOM     57  C   UNL A   1      41.862  30.699  35.282  1.00  0.00     0.010 A 
ATOM     58  C   UNL A   1      40.312  29.474  33.877  1.00  0.00     0.010 A 
ATOM     59  C   UNL A   1      41.633  29.813  34.225  1.00  0.00    -0.014 A 
BRANCH  59  60
ATOM     60  C   UNL A   1      42.773  29.369  33.388  1.00  0.00     0.031 A 
ATOM     61  C   UNL A   1      43.503  28.114  33.775  1.00  0.00     0.074 A 
ATOM     62  C   UNL A   1      43.115  30.029  32.267  1.00  0.00     0.049 A 
ATOM     63  N   UNL A   1      44.631  27.632  33.325  1.00  0.00    -0.248 NA
ATOM     64  C   UNL A   1      42.868  27.289  34.818  1.00  0.00     0.031 C 
ATOM     65  C   UNL A   1      42.408  31.182  31.713  1.00  0.00     0.029 A 
ATOM     66  N   UNL A   1      44.151  29.817  31.392  1.00  0.00    -0.354 N 
ATOM     67  C   UNL A   1      44.852  26.463  34.040  1.00  0.00     0.074 A 
ATOM     68  C   UNL A   1      43.750  26.311  34.965  1.00  0.00     0.031 C 
ATOM     69  C   UNL A   1      43.038  31.582  30.595  1.00  0.00     0.029 A 
ATOM     70  C   UNL A   1      44.226  30.755  30.394  1.00  0.00     0.049 A 
ATOM     71  H   UNL A   1      44.780  29.063  31.472  1.00  0.00     0.167 HD
ATOM     72  C   UNL A   1      45.888  25.598  33.935  1.00  0.00     0.037 A 
ATOM     73  C   UNL A   1      45.175  30.952  29.459  1.00  0.00     0.037 A 
ATOM     74  C   UNL A   1      46.968  25.747  32.996  1.00  0.00     0.049 A 
ATOM     75  C   UNL A   1      46.370  30.032  29.425  1.00  0.00     0.074 A 
ATOM     76  C   UNL A   1      48.107  24.974  32.856  1.00  0.00     0.029 A 
ATOM     77  N   UNL A   1      47.025  26.731  32.021  1.00  0.00    -0.354 N 
ATOM     78  N   UNL A   1      46.636  28.989  30.173  1.00  0.00    -0.248 NA
ATOM     79  C   UNL A   1      47.409  30.328  28.426  1.00  0.00     0.031 C 
ATOM     80  C   UNL A   1      48.869  25.508  31.811  1.00  0.00     0.029 A 
ATOM     81  C   UNL A   1      48.184  26.587  31.276  1.00  0.00     0.049 A 
ATOM     82  H   UNL A   1      46.345  27.428  31.878  1.00  0.00     0.167 HD
ATOM     83  C   UNL A   1      47.848  28.487  29.717  1.00  0.00     0.074 A 
ATOM     84  C   UNL A   1      48.265  29.336  28.620  1.00  0.00     0.031 C 
ATOM     85  C   UNL A   1      48.558  27.425  30.166  1.00  0.00     0.037 A 
BRANCH  72  86
ATOM     86  C   UNL A   1      45.926  24.442  34.885  1.00  0.00     0.064 A 
ATOM     87  C   UNL A   1      46.460  24.562  36.176  1.00  0.00     0.173 A 
ATOM     88  C   UNL A   1      45.389  23.201  34.508  1.00  0.00     0.173 A 
ATOM     89  F   UNL A   1      47.006  25.721  36.576  1.00  0.00    -0.203 F 
ATOM     90  C   UNL A   1      46.468  23.478  37.050  1.00  0.00     0.198 A 
ATOM     91  C   UNL A   1      45.375  22.127  35.394  1.00  0.00     0.198 A 
ATOM     92  F   UNL A   1      44.869  23.033  33.284  1.00  0.00    -0.203 F 
ATOM     93  F   UNL A   1      47.018  23.604  38.267  1.00  0.00    -0.200 F 
ATOM     94  C   UNL A   1      45.919  22.265  36.662  1.00  0.00     0.200 A 
ATOM     95  F   UNL A   1      44.838  20.958  35.018  1.00  0.00    -0.200 F 
ATOM     96  F   UNL A   1      45.919  21.225  37.507  1.00  0.00    -0.200 F 
ENDBRANCH  72  86
BRANCH  73  97
ATOM     97  C   UNL A   1      45.081  32.102  28.520  1.00  0.00     0.064 A 
ATOM     98  C   UNL A   1      45.574  33.368  28.866  1.00  0.00     0.173 A 
ATOM     99  C   UNL A   1      44.444  31.970  27.277  1.00  0.00     0.173 A 
ATOM    100  F   UNL A   1      46.162  33.555  30.057  1.00  0.00    -0.203 F 
ATOM    101  C   UNL A   1      45.408  34.461  28.018  1.00  0.00     0.198 A 
ATOM    102  C   UNL A   1      44.308  33.056  26.415  1.00  0.00     0.198 A 
ATOM    103  F   UNL A   1      43.946  30.783  26.898  1.00  0.00    -0.203 F 
ATOM    104  F   UNL A   1      45.832  35.674  28.401  1.00  0.00    -0.200 F 
ATOM    105  C   UNL A   1      44.780  34.304  26.791  1.00  0.00     0.200 A 
ATOM    106  F   UNL A   1      43.708  32.896  25.228  1.00  0.00    -0.200 F 
ATOM    107  F   UNL A   1      44.614  35.357  25.981  1.00  0.00    -0.200 F 
ENDBRANCH  73  97
BRANCH  85 108
ATOM    108  C   UNL A   1      49.823  27.080  29.440  1.00  0.00     0.064 A 
ATOM    109  C   UNL A   1      49.849  26.112  28.426  1.00  0.00     0.173 A 
ATOM    110  C   UNL A   1      51.009  27.775  29.722  1.00  0.00     0.173 A 
ATOM    111  F   UNL A   1      48.743  25.415  28.129  1.00  0.00    -0.203 F 
ATOM    112  C   UNL A   1      51.025  25.838  27.734  1.00  0.00     0.198 A 
ATOM    113  C   UNL A   1      52.176  27.516  29.011  1.00  0.00     0.198 A 
ATOM    114  F   UNL A   1      51.030  28.716  30.678  1.00  0.00    -0.203 F 
ATOM    115  F   UNL A   1      51.039  24.884  26.793  1.00  0.00    -0.200 F 
ATOM    116  C   UNL A   1      52.184  26.545  28.020  1.00  0.00     0.200 A 
ATOM    117  F   UNL A   1      53.292  28.208  29.280  1.00  0.00    -0.200 F 
ATOM    118  F   UNL A   1      53.312  26.288  27.343  1.00  0.00    -0.200 F 
ENDBRANCH  85 108
ENDBRANCH  59  60
ENDBRANCH  52  54
ENDBRANCH  51  52
ENDBRANCH  50  51
ENDBRANCH  49  50
ENDBRANCH  48  49
ENDBRANCH  47  48
ENDBRANCH  46  47
ENDBRANCH  45  46
ENDBRANCH   1  45
TORSDOF 29
ENDMDL
MODEL 2
REMARK VINA RESULT:      -8.0      0.891      2.134
REMARK SMILES O=C(N[C@@H](Cc1c[nH]c2ccccc12)C(=O)N[C@@H](CS)C(=O)N[C@@H](CO)C(=O)OCCOCCOCCOC(=O)c1ccc(-c2c3nc(c(-c4c(F)c(F)c(F)c(F)c4F)c4ccc([nH]4)c(-c4c(F)c(F)c(F)c(F)c4F)c4nc(c(-c5c(F)c(F)c(F)c(F)c5F)c5ccc2[nH]5)C=C4)C=C3)cc1)c1ccc(F)cc1
REMARK SMILES IDX 31 1 30 2 29 3 27 4 28 5 24 6 23 7 21 8 22 9 18 11 17 12
REMARK SMILES IDX 15 13 16 14 4 16 3 17 1 18 2 19 104 21 105 22 110 23 106 24
REMARK SMILES IDX 109 25 107 26 108 27 5 28 6 29 7 30 14 31 8 32 9 33 13 34
REMARK SMILES IDX 10 36 12 37 11 38 19 39 20 40 25 42 26 43 32 45 33 46 34 47
REMARK SMILES IDX 35 48 36 49 37 50 38 51 39 52 40 53 41 54 42 55 103 56 43 57
REMARK SMILES IDX 102 58 44 59 45 60 46 61 96 62 47 63 101 64 95 65 97 66
REMARK SMILES IDX 48 67 100 68 94 69 93 70 49 72 81 73 61 74 80 75 62 76 65 77
REMARK SMILES IDX 79 78 98 79 63 80 64 81 78 83 99 84 66 85 50 86 51 87 59 88
REMARK SMILES IDX 52 89 53 90 57 91 60 92 54 93 55 94 58 95 56 96 82 97 83 98
REMARK SMILES IDX 91 99 84 100 85 101 89 102 92 103 86 104 87 105 90 106
REMARK SMILES IDX 88 107 67 108 68 109 76 110 69 111 70 112 74 113 77 114
REMARK SMILES IDX 71 115 72 116 75 117 73 118
REMARK H PARENT 23 10 17 15 3 20 8 35 20 41 26 44 97 71 65 82
REMARK Flexibility Score: inf
ROOT
ATOM      1  C   UNL A   1      37.241  32.534  30.950  1.00  0.00     0.202 C 
ENDROOT
BRANCH   1   2
ATOM      2  C   UNL A   1      36.904  31.158  31.534  1.00  0.00     0.261 C 
BRANCH   2   3
ATOM      3  O   UNL A   1      37.904  30.151  31.271  1.00  0.00    -0.462 OA
BRANCH   3   4
ATOM      4  C   UNL A   1      37.619  29.310  30.240  1.00  0.00     0.331 C 
ATOM      5  O   UNL A   1      36.490  29.111  29.798  1.00  0.00    -0.250 OA
BRANCH   4   6
ATOM      6  C   UNL A   1      38.861  28.650  29.615  1.00  0.00     0.218 C 
BRANCH   6   7
ATOM      7  N   UNL A   1      38.918  27.185  29.627  1.00  0.00    -0.339 N 
ATOM      8  C   UNL A   1      39.664  26.403  28.799  1.00  0.00     0.244 C 
ATOM      9  O   UNL A   1      39.050  25.562  28.136  1.00  0.00    -0.273 OA
ATOM     10  H   UNL A   1      38.365  26.721  30.298  1.00  0.00     0.164 HD
BRANCH   8  11
ATOM     11  C   UNL A   1      41.203  26.555  28.656  1.00  0.00     0.181 C 
BRANCH  11  12
ATOM     12  N   UNL A   1      41.605  26.696  27.267  1.00  0.00    -0.342 N 
ATOM     13  C   UNL A   1      42.005  25.773  26.354  1.00  0.00     0.243 C 
ATOM     14  O   UNL A   1      42.194  26.208  25.210  1.00  0.00    -0.273 OA
ATOM     15  H   UNL A   1      41.585  27.620  26.929  1.00  0.00     0.164 HD
BRANCH  13  16
ATOM     16  C   UNL A   1      42.309  24.281  26.664  1.00  0.00     0.176 C 
BRANCH  16  17
ATOM     17  N   UNL A   1      43.083  24.104  27.892  1.00  0.00    -0.340 N 
ATOM     18  O   UNL A   1      44.939  23.769  29.115  1.00  0.00    -0.269 OA
ATOM     19  C   UNL A   1      44.444  24.176  28.070  1.00  0.00     0.251 C 
ATOM     20  H   UNL A   1      42.559  23.905  28.701  1.00  0.00     0.164 HD
BRANCH  19  21
ATOM     21  C   UNL A   1      45.312  24.717  26.999  1.00  0.00     0.040 A 
ATOM     22  C   UNL A   1      46.010  23.852  26.145  1.00  0.00     0.017 A 
ATOM     23  C   UNL A   1      45.403  26.103  26.825  1.00  0.00     0.017 A 
ATOM     24  C   UNL A   1      46.843  24.376  25.156  1.00  0.00     0.040 A 
ATOM     25  C   UNL A   1      46.235  26.623  25.829  1.00  0.00     0.040 A 
ATOM     26  C   UNL A   1      46.954  25.755  25.010  1.00  0.00     0.123 A 
ATOM     27  F   UNL A   1      47.760  26.255  24.065  1.00  0.00    -0.207 F 
ENDBRANCH  19  21
ENDBRANCH  16  17
BRANCH  16  28
ATOM     28  C   UNL A   1      41.215  23.225  26.417  1.00  0.00     0.072 C 
BRANCH  28  29
ATOM     29  C   UNL A   1      41.469  21.754  26.633  1.00  0.00    -0.020 A 
ATOM     30  C   UNL A   1      40.823  20.854  27.464  1.00  0.00     0.087 A 
ATOM     31  C   UNL A   1      42.577  21.033  26.062  1.00  0.00     0.003 A 
ATOM     32  N   UNL A   1      41.395  19.615  27.298  1.00  0.00    -0.361 N 
ATOM     33  C   UNL A   1      42.452  19.695  26.429  1.00  0.00     0.046 A 
ATOM     34  C   UNL A   1      43.684  21.404  25.271  1.00  0.00     0.010 A 
ATOM     35  H   UNL A   1      41.089  18.790  27.739  1.00  0.00     0.166 HD
ATOM     36  C   UNL A   1      43.321  18.695  25.981  1.00  0.00     0.026 A 
ATOM     37  C   UNL A   1      44.596  20.426  24.857  1.00  0.00     0.001 A 
ATOM     38  C   UNL A   1      44.402  19.089  25.188  1.00  0.00     0.002 A 
ENDBRANCH  28  29
ENDBRANCH  16  28
ENDBRANCH  13  16
ENDBRANCH  11  12
BRANCH  11  39
ATOM     39  C   UNL A   1      41.950  27.435  29.669  1.00  0.00     0.101 C 
BRANCH  39  40
ATOM     40  S   UNL A   1      43.540  26.833  30.331  1.00  0.00    -0.177 SA
ATOM     41  H   UNL A   1      44.449  26.750  29.323  1.00  0.00     0.102 HD
ENDBRANCH  39  40
ENDBRANCH  11  39
ENDBRANCH   8  11
ENDBRANCH   6   7
BRANCH   6  42
ATOM     42  C   UNL A   1      38.981  29.148  28.166  1.00  0.00     0.193 C 
BRANCH  42  43
ATOM     43  O   UNL A   1      38.222  30.346  27.987  1.00  0.00    -0.394 OA
ATOM     44  H   UNL A   1      37.302  30.189  28.246  1.00  0.00     0.210 HD
ENDBRANCH  42  43
ENDBRANCH   6  42
ENDBRANCH   4   6
ENDBRANCH   3   4
ENDBRANCH   2   3
ENDBRANCH   1   2
BRANCH   1  45
ATOM     45  O   UNL A   1      36.150  33.409  30.670  1.00  0.00    -0.376 OA
BRANCH  45  46
ATOM     46  C   UNL A   1      34.856  33.047  31.140  1.00  0.00     0.188 C 
BRANCH  46  47
ATOM     47  C   UNL A   1      34.266  33.818  32.338  1.00  0.00     0.188 C 
BRANCH  47  48
ATOM     48  O   UNL A   1      35.228  34.571  33.038  1.00  0.00    -0.376 OA
BRANCH  48  49
ATOM     49  C   UNL A   1      35.583  34.147  34.339  1.00  0.00     0.202 C 
BRANCH  49  50
ATOM     50  C   UNL A   1      36.995  33.583  34.567  1.00  0.00     0.261 C 
BRANCH  50  51
ATOM     51  O   UNL A   1      37.104  32.335  35.276  1.00  0.00    -0.460 OA
BRANCH  51  52
ATOM     52  C   UNL A   1      38.091  32.223  36.181  1.00  0.00     0.338 C 
ATOM     53  O   UNL A   1      38.066  32.557  37.363  1.00  0.00    -0.246 OA
BRANCH  52  54
ATOM     54  C   UNL A   1      39.187  31.429  35.605  1.00  0.00     0.060 A 
ATOM     55  C   UNL A   1      40.501  31.788  35.927  1.00  0.00     0.016 A 
ATOM     56  C   UNL A   1      38.939  30.409  34.687  1.00  0.00     0.016 A 
ATOM     57  C   UNL A   1      41.573  31.179  35.285  1.00  0.00     0.010 A 
ATOM     58  C   UNL A   1      40.019  29.789  34.048  1.00  0.00     0.010 A 
ATOM     59  C   UNL A   1      41.338  30.196  34.317  1.00  0.00    -0.014 A 
BRANCH  59  60
ATOM     60  C   UNL A   1      42.464  29.714  33.482  1.00  0.00     0.031 A 
ATOM     61  C   UNL A   1      43.172  28.453  33.889  1.00  0.00     0.074 A 
ATOM     62  C   UNL A   1      42.812  30.346  32.347  1.00  0.00     0.049 A 
ATOM     63  N   UNL A   1      44.287  27.940  33.441  1.00  0.00    -0.248 NA
ATOM     64  C   UNL A   1      42.528  27.660  34.951  1.00  0.00     0.031 C 
ATOM     65  C   UNL A   1      42.124  31.502  31.775  1.00  0.00     0.029 A 
ATOM     66  N   UNL A   1      43.837  30.097  31.470  1.00  0.00    -0.354 N 
ATOM     67  C   UNL A   1      44.490  26.781  34.177  1.00  0.00     0.074 A 
ATOM     68  C   UNL A   1      43.391  26.668  35.111  1.00  0.00     0.031 C 
ATOM     69  C   UNL A   1      42.754  31.868  30.645  1.00  0.00     0.029 A 
ATOM     70  C   UNL A   1      43.924  31.014  30.453  1.00  0.00     0.049 A 
ATOM     71  H   UNL A   1      44.451  29.332  31.560  1.00  0.00     0.167 HD
ATOM     72  C   UNL A   1      45.508  25.893  34.081  1.00  0.00     0.037 A 
ATOM     73  C   UNL A   1      44.871  31.174  29.508  1.00  0.00     0.037 A 
ATOM     74  C   UNL A   1      46.585  26.003  33.134  1.00  0.00     0.049 A 
ATOM     75  C   UNL A   1      46.048  30.231  29.485  1.00  0.00     0.074 A 
ATOM     76  C   UNL A   1      47.707  25.206  33.001  1.00  0.00     0.029 A 
ATOM     77  N   UNL A   1      46.655  26.968  32.139  1.00  0.00    -0.354 N 
ATOM     78  N   UNL A   1      46.298  29.197  30.251  1.00  0.00    -0.248 NA
ATOM     79  C   UNL A   1      47.085  30.487  28.473  1.00  0.00     0.031 C 
ATOM     80  C   UNL A   1      48.473  25.705  31.942  1.00  0.00     0.029 A 
ATOM     81  C   UNL A   1      47.805  26.786  31.390  1.00  0.00     0.049 A 
ATOM     82  H   UNL A   1      45.987  27.674  31.988  1.00  0.00     0.167 HD
ATOM     83  C   UNL A   1      47.496  28.663  29.797  1.00  0.00     0.074 A 
ATOM     84  C   UNL A   1      47.923  29.482  28.682  1.00  0.00     0.031 C 
ATOM     85  C   UNL A   1      48.188  27.595  30.262  1.00  0.00     0.037 A 
BRANCH  72  86
ATOM     86  C   UNL A   1      45.530  24.755  35.054  1.00  0.00     0.064 A 
ATOM     87  C   UNL A   1      45.091  23.471  34.701  1.00  0.00     0.173 A 
ATOM     88  C   UNL A   1      46.030  24.946  36.351  1.00  0.00     0.173 A 
ATOM     89  F   UNL A   1      44.583  23.243  33.479  1.00  0.00    -0.203 F 
ATOM     90  C   UNL A   1      45.138  22.423  35.615  1.00  0.00     0.198 A 
ATOM     91  C   UNL A   1      46.100  23.889  37.255  1.00  0.00     0.198 A 
ATOM     92  F   UNL A   1      46.461  26.155  36.739  1.00  0.00    -0.203 F 
ATOM     93  F   UNL A   1      44.678  21.212  35.270  1.00  0.00    -0.200 F 
ATOM     94  C   UNL A   1      45.650  22.630  36.888  1.00  0.00     0.200 A 
ATOM     95  F   UNL A   1      46.601  24.091  38.481  1.00  0.00    -0.200 F 
ATOM     96  F   UNL A   1      45.703  21.618  37.765  1.00  0.00    -0.200 F 
ENDBRANCH  72  86
BRANCH  73  97
ATOM     97  C   UNL A   1      44.793  32.308  28.549  1.00  0.00     0.064 A 
ATOM     98  C   UNL A   1      44.242  32.145  27.270  1.00  0.00     0.173 A 
ATOM     99  C   UNL A   1      45.321  33.567  28.873  1.00  0.00     0.173 A 
ATOM    100  F   UNL A   1      43.752  30.952  26.899  1.00  0.00    -0.203 F 
ATOM    101  C   UNL A   1      44.247  33.188  26.346  1.00  0.00     0.198 A 
ATOM    102  C   UNL A   1      45.297  34.618  27.960  1.00  0.00     0.198 A 
ATOM    103  F   UNL A   1      45.870  33.777  30.079  1.00  0.00    -0.203 F 
ATOM    104  F   UNL A   1      43.771  32.987  25.109  1.00  0.00    -0.200 F 
ATOM    105  C   UNL A   1      44.770  34.425  26.692  1.00  0.00     0.200 A 
ATOM    106  F   UNL A   1      45.796  35.814  28.302  1.00  0.00    -0.200 F 
ATOM    107  F   UNL A   1      44.782  35.424  25.800  1.00  0.00    -0.200 F 
ENDBRANCH  73  97
BRANCH  85 108
ATOM    108  C   UNL A   1      49.442  27.212  29.534  1.00  0.00     0.064 A 
ATOM    109  C   UNL A   1      50.681  27.782  29.854  1.00  0.00     0.173 A 
ATOM    110  C   UNL A   1      49.406  26.216  28.547  1.00  0.00     0.173 A 
ATOM    111  F   UNL A   1      50.762  28.746  30.783  1.00  0.00    -0.203 F 
ATOM    112  C   UNL A   1      51.840  27.381  29.196  1.00  0.00     0.198 A 
ATOM    113  C   UNL A   1      50.570  25.800  27.909  1.00  0.00     0.198 A 
ATOM    114  F   UNL A   1      48.243  25.635  28.213  1.00  0.00    -0.203 F 
ATOM    115  F   UNL A   1      53.011  27.963  29.491  1.00  0.00    -0.200 F 
ATOM    116  C   UNL A   1      51.786  26.385  28.231  1.00  0.00     0.200 A 
ATOM    117  F   UNL A   1      50.518  24.829  26.986  1.00  0.00    -0.200 F 
ATOM    118  F   UNL A   1      52.905  25.993  27.608  1.00  0.00    -0.200 F 
ENDBRANCH  85 108
ENDBRANCH  59  60
ENDBRANCH  52  54
ENDBRANCH  51  52
ENDBRANCH  50  51
ENDBRANCH  49  50
ENDBRANCH  48  49
ENDBRANCH  47  48
ENDBRANCH  46  47
ENDBRANCH  45  46
ENDBRANCH   1  45
TORSDOF 29
ENDMDL
MODEL 3
REMARK VINA RESULT:      -7.4      3.654      9.291
REMARK SMILES O=C(N[C@@H](Cc1c[nH]c2ccccc12)C(=O)N[C@@H](CS)C(=O)N[C@@H](CO)C(=O)OCCOCCOCCOC(=O)c1ccc(-c2c3nc(c(-c4c(F)c(F)c(F)c(F)c4F)c4ccc([nH]4)c(-c4c(F)c(F)c(F)c(F)c4F)c4nc(c(-c5c(F)c(F)c(F)c(F)c5F)c5ccc2[nH]5)C=C4)C=C3)cc1)c1ccc(F)cc1
REMARK SMILES IDX 31 1 30 2 29 3 27 4 28 5 24 6 23 7 21 8 22 9 18 11 17 12
REMARK SMILES IDX 15 13 16 14 4 16 3 17 1 18 2 19 104 21 105 22 110 23 106 24
REMARK SMILES IDX 109 25 107 26 108 27 5 28 6 29 7 30 14 31 8 32 9 33 13 34
REMARK SMILES IDX 10 36 12 37 11 38 19 39 20 40 25 42 26 43 32 45 33 46 34 47
REMARK SMILES IDX 35 48 36 49 37 50 38 51 39 52 40 53 41 54 42 55 103 56 43 57
REMARK SMILES IDX 102 58 44 59 45 60 46 61 96 62 47 63 101 64 95 65 97 66
REMARK SMILES IDX 48 67 100 68 94 69 93 70 49 72 81 73 61 74 80 75 62 76 65 77
REMARK SMILES IDX 79 78 98 79 63 80 64 81 78 83 99 84 66 85 50 86 51 87 59 88
REMARK SMILES IDX 52 89 53 90 57 91 60 92 54 93 55 94 58 95 56 96 82 97 83 98
REMARK SMILES IDX 91 99 84 100 85 101 89 102 92 103 86 104 87 105 90 106
REMARK SMILES IDX 88 107 67 108 68 109 76 110 69 111 70 112 74 113 77 114
REMARK SMILES IDX 71 115 72 116 75 117 73 118
REMARK H PARENT 23 10 17 15 3 20 8 35 20 41 26 44 97 71 65 82
REMARK Flexibility Score: inf
ROOT
ATOM      1  C   UNL A   1      40.119  26.337  28.328  1.00  0.00     0.202 C 
ENDROOT
BRANCH   1   2
ATOM      2  C   UNL A   1      41.407  26.934  27.749  1.00  0.00     0.261 C 
BRANCH   2   3
ATOM      3  O   UNL A   1      41.428  28.377  27.737  1.00  0.00    -0.462 OA
BRANCH   3   4
ATOM      4  C   UNL A   1      42.456  28.932  27.038  1.00  0.00     0.331 C 
ATOM      5  O   UNL A   1      42.653  28.761  25.839  1.00  0.00    -0.250 OA
BRANCH   4   6
ATOM      6  C   UNL A   1      43.347  29.862  27.881  1.00  0.00     0.218 C 
BRANCH   6   7
ATOM      7  N   UNL A   1      44.151  29.241  28.939  1.00  0.00    -0.339 N 
ATOM      8  C   UNL A   1      44.410  29.769  30.167  1.00  0.00     0.244 C 
ATOM      9  O   UNL A   1      45.599  29.905  30.467  1.00  0.00    -0.273 OA
ATOM     10  H   UNL A   1      44.541  28.358  28.743  1.00  0.00     0.164 HD
BRANCH   8  11
ATOM     11  C   UNL A   1      43.290  30.209  31.148  1.00  0.00     0.181 C 
BRANCH  11  12
ATOM     12  N   UNL A   1      42.149  29.309  31.104  1.00  0.00    -0.342 N 
ATOM     13  C   UNL A   1      40.814  29.557  31.121  1.00  0.00     0.243 C 
ATOM     14  O   UNL A   1      40.090  28.563  30.976  1.00  0.00    -0.273 OA
ATOM     15  H   UNL A   1      42.386  28.355  31.053  1.00  0.00     0.164 HD
BRANCH  13  16
ATOM     16  C   UNL A   1      40.164  30.943  31.387  1.00  0.00     0.176 C 
BRANCH  16  17
ATOM     17  N   UNL A   1      40.234  31.342  32.792  1.00  0.00    -0.340 N 
ATOM     18  O   UNL A   1      39.602  32.453  34.641  1.00  0.00    -0.269 OA
ATOM     19  C   UNL A   1      39.287  31.987  33.551  1.00  0.00     0.251 C 
ATOM     20  H   UNL A   1      41.072  31.120  33.257  1.00  0.00     0.164 HD
BRANCH  19  21
ATOM     21  C   UNL A   1      37.902  32.142  33.050  1.00  0.00     0.040 A 
ATOM     22  C   UNL A   1      37.131  31.015  32.734  1.00  0.00     0.017 A 
ATOM     23  C   UNL A   1      37.357  33.426  32.928  1.00  0.00     0.017 A 
ATOM     24  C   UNL A   1      35.836  31.178  32.240  1.00  0.00     0.040 A 
ATOM     25  C   UNL A   1      36.057  33.583  32.438  1.00  0.00     0.040 A 
ATOM     26  C   UNL A   1      35.313  32.458  32.090  1.00  0.00     0.123 A 
ATOM     27  F   UNL A   1      34.073  32.611  31.609  1.00  0.00    -0.207 F 
ENDBRANCH  19  21
ENDBRANCH  16  17
BRANCH  16  28
ATOM     28  C   UNL A   1      40.378  32.079  30.368  1.00  0.00     0.072 C 
BRANCH  28  29
ATOM     29  C   UNL A   1      39.230  32.915  29.860  1.00  0.00    -0.020 A 
ATOM     30  C   UNL A   1      39.023  34.282  29.940  1.00  0.00     0.087 A 
ATOM     31  C   UNL A   1      38.030  32.371  29.279  1.00  0.00     0.003 A 
ATOM     32  N   UNL A   1      37.841  34.584  29.307  1.00  0.00    -0.361 N 
ATOM     33  C   UNL A   1      37.229  33.436  28.874  1.00  0.00     0.046 A 
ATOM     34  C   UNL A   1      37.548  31.062  29.070  1.00  0.00     0.010 A 
ATOM     35  H   UNL A   1      37.486  35.494  29.182  1.00  0.00     0.166 HD
ATOM     36  C   UNL A   1      36.016  33.268  28.198  1.00  0.00     0.026 A 
ATOM     37  C   UNL A   1      36.311  30.872  28.444  1.00  0.00     0.001 A 
ATOM     38  C   UNL A   1      35.569  31.960  27.994  1.00  0.00     0.002 A 
ENDBRANCH  28  29
ENDBRANCH  16  28
ENDBRANCH  13  16
ENDBRANCH  11  12
BRANCH  11  39
ATOM     39  C   UNL A   1      43.691  30.723  32.538  1.00  0.00     0.101 C 
BRANCH  39  40
ATOM     40  S   UNL A   1      43.617  32.519  32.851  1.00  0.00    -0.177 SA
ATOM     41  H   UNL A   1      42.396  32.842  33.355  1.00  0.00     0.102 HD
ENDBRANCH  39  40
ENDBRANCH  11  39
ENDBRANCH   8  11
ENDBRANCH   6   7
BRANCH   6  42
ATOM     42  C   UNL A   1      44.275  30.623  26.922  1.00  0.00     0.193 C 
BRANCH  42  43
ATOM     43  O   UNL A   1      44.071  32.032  27.043  1.00  0.00    -0.394 OA
ATOM     44  H   UNL A   1      43.454  32.208  27.770  1.00  0.00     0.210 HD
ENDBRANCH  42  43
ENDBRANCH   6  42
ENDBRANCH   4   6
ENDBRANCH   3   4
ENDBRANCH   2   3
ENDBRANCH   1   2
BRANCH   1  45
ATOM     45  O   UNL A   1      39.666  25.104  27.774  1.00  0.00    -0.376 OA
BRANCH  45  46
ATOM     46  C   UNL A   1      40.597  24.033  27.654  1.00  0.00     0.188 C 
BRANCH  46  47
ATOM     47  C   UNL A   1      40.093  22.675  27.127  1.00  0.00     0.188 C 
BRANCH  47  48
ATOM     48  O   UNL A   1      40.835  21.583  27.617  1.00  0.00    -0.376 OA
BRANCH  48  49
ATOM     49  C   UNL A   1      42.225  21.561  27.366  1.00  0.00     0.202 C 
BRANCH  49  50
ATOM     50  C   UNL A   1      42.707  21.285  25.932  1.00  0.00     0.261 C 
BRANCH  50  51
ATOM     51  O   UNL A   1      42.753  22.399  25.022  1.00  0.00    -0.460 OA
BRANCH  51  52
ATOM     52  C   UNL A   1      43.922  22.649  24.408  1.00  0.00     0.338 C 
ATOM     53  O   UNL A   1      44.292  22.248  23.307  1.00  0.00    -0.246 OA
BRANCH  52  54
ATOM     54  C   UNL A   1      44.657  23.672  25.166  1.00  0.00     0.060 A 
ATOM     55  C   UNL A   1      45.891  23.321  25.724  1.00  0.00     0.016 A 
ATOM     56  C   UNL A   1      44.105  24.930  25.411  1.00  0.00     0.016 A 
ATOM     57  C   UNL A   1      46.548  24.194  26.584  1.00  0.00     0.010 A 
ATOM     58  C   UNL A   1      44.770  25.812  26.268  1.00  0.00     0.010 A 
ATOM     59  C   UNL A   1      45.977  25.435  26.887  1.00  0.00    -0.014 A 
BRANCH  59  60
ATOM     60  C   UNL A   1      46.564  26.261  27.968  1.00  0.00     0.031 A 
ATOM     61  C   UNL A   1      46.035  26.099  29.365  1.00  0.00     0.074 A 
ATOM     62  C   UNL A   1      47.593  27.094  27.729  1.00  0.00     0.049 A 
ATOM     63  N   UNL A   1      46.247  26.829  30.428  1.00  0.00    -0.248 NA
ATOM     64  C   UNL A   1      45.143  24.949  29.592  1.00  0.00     0.031 C 
ATOM     65  C   UNL A   1      48.280  27.248  26.448  1.00  0.00     0.029 A 
ATOM     66  N   UNL A   1      48.239  27.970  28.565  1.00  0.00    -0.354 N 
ATOM     67  C   UNL A   1      45.500  26.243  31.441  1.00  0.00     0.074 A 
ATOM     68  C   UNL A   1      44.819  25.104  30.867  1.00  0.00     0.031 C 
ATOM     69  C   UNL A   1      49.248  28.172  26.581  1.00  0.00     0.029 A 
ATOM     70  C   UNL A   1      49.202  28.718  27.936  1.00  0.00     0.049 A 
ATOM     71  H   UNL A   1      48.032  28.053  29.524  1.00  0.00     0.167 HD
ATOM     72  C   UNL A   1      45.393  26.628  32.734  1.00  0.00     0.037 A 
ATOM     73  C   UNL A   1      49.925  29.759  28.391  1.00  0.00     0.037 A 
ATOM     74  C   UNL A   1      46.093  27.751  33.300  1.00  0.00     0.049 A 
ATOM     75  C   UNL A   1      49.715  30.233  29.808  1.00  0.00     0.074 A 
ATOM     76  C   UNL A   1      45.998  28.277  34.576  1.00  0.00     0.029 A 
ATOM     77  N   UNL A   1      47.037  28.506  32.620  1.00  0.00    -0.354 N 
ATOM     78  N   UNL A   1      48.927  29.747  30.737  1.00  0.00    -0.248 NA
ATOM     79  C   UNL A   1      50.483  31.412  30.236  1.00  0.00     0.031 C 
ATOM     80  C   UNL A   1      46.867  29.370  34.660  1.00  0.00     0.029 A 
ATOM     81  C   UNL A   1      47.532  29.497  33.452  1.00  0.00     0.049 A 
ATOM     82  H   UNL A   1      47.315  28.359  31.688  1.00  0.00     0.167 HD
ATOM     83  C   UNL A   1      49.128  30.536  31.862  1.00  0.00     0.074 A 
ATOM     84  C   UNL A   1      50.118  31.530  31.504  1.00  0.00     0.031 C 
ATOM     85  C   UNL A   1      48.543  30.452  33.081  1.00  0.00     0.037 A 
BRANCH  72  86
ATOM     86  C   UNL A   1      44.453  25.861  33.611  1.00  0.00     0.064 A 
ATOM     87  C   UNL A   1      44.794  24.610  34.145  1.00  0.00     0.173 A 
ATOM     88  C   UNL A   1      43.203  26.402  33.949  1.00  0.00     0.173 A 
ATOM     89  F   UNL A   1      45.968  24.040  33.834  1.00  0.00    -0.203 F 
ATOM     90  C   UNL A   1      43.912  23.923  34.974  1.00  0.00     0.198 A 
ATOM     91  C   UNL A   1      42.334  25.723  34.799  1.00  0.00     0.198 A 
ATOM     92  F   UNL A   1      42.828  27.594  33.462  1.00  0.00    -0.203 F 
ATOM     93  F   UNL A   1      44.241  22.710  35.443  1.00  0.00    -0.200 F 
ATOM     94  C   UNL A   1      42.686  24.483  35.307  1.00  0.00     0.200 A 
ATOM     95  F   UNL A   1      41.155  26.270  35.124  1.00  0.00    -0.200 F 
ATOM     96  F   UNL A   1      41.842  23.823  36.111  1.00  0.00    -0.200 F 
ENDBRANCH  72  86
BRANCH  73  97
ATOM     97  C   UNL A   1      50.865  30.476  27.487  1.00  0.00     0.064 A 
ATOM     98  C   UNL A   1      50.457  31.600  26.755  1.00  0.00     0.173 A 
ATOM     99  C   UNL A   1      52.176  30.016  27.296  1.00  0.00     0.173 A 
ATOM    100  F   UNL A   1      49.203  32.061  26.877  1.00  0.00    -0.203 F 
ATOM    101  C   UNL A   1      51.316  32.217  25.847  1.00  0.00     0.198 A 
ATOM    102  C   UNL A   1      53.044  30.653  26.413  1.00  0.00     0.198 A 
ATOM    103  F   UNL A   1      52.617  28.939  27.965  1.00  0.00    -0.203 F 
ATOM    104  F   UNL A   1      50.881  33.250  25.112  1.00  0.00    -0.200 F 
ATOM    105  C   UNL A   1      52.610  31.747  25.680  1.00  0.00     0.200 A 
ATOM    106  F   UNL A   1      54.296  30.200  26.262  1.00  0.00    -0.200 F 
ATOM    107  F   UNL A   1      53.431  32.335  24.801  1.00  0.00    -0.200 F 
ENDBRANCH  73  97
BRANCH  85 108
ATOM    108  C   UNL A   1      48.997  31.418  34.134  1.00  0.00     0.064 A 
ATOM    109  C   UNL A   1      50.078  31.130  34.978  1.00  0.00     0.173 A 
ATOM    110  C   UNL A   1      48.379  32.671  34.255  1.00  0.00     0.173 A 
ATOM    111  F   UNL A   1      50.692  29.940  34.907  1.00  0.00    -0.203 F 
ATOM    112  C   UNL A   1      50.512  32.058  35.921  1.00  0.00     0.198 A 
ATOM    113  C   UNL A   1      48.831  33.606  35.181  1.00  0.00     0.198 A 
ATOM    114  F   UNL A   1      47.345  32.995  33.462  1.00  0.00    -0.203 F 
ATOM    115  F   UNL A   1      51.524  31.750  36.744  1.00  0.00    -0.200 F 
ATOM    116  C   UNL A   1      49.895  33.296  36.016  1.00  0.00     0.200 A 
ATOM    117  F   UNL A   1      48.242  34.807  35.262  1.00  0.00    -0.200 F 
ATOM    118  F   UNL A   1      50.323  34.192  36.916  1.00  0.00    -0.200 F 
ENDBRANCH  85 108
ENDBRANCH  59  60
ENDBRANCH  52  54
ENDBRANCH  51  52
ENDBRANCH  50  51
ENDBRANCH  49  50
ENDBRANCH  48  49
ENDBRANCH  47  48
ENDBRANCH  46  47
ENDBRANCH  45  46
ENDBRANCH   1  45
TORSDOF 29
ENDMDL
