MODEL 1
REMARK VINA RESULT:     -11.0      0.000      0.000
REMARK SMILES Cc1ccn2c([C@H]3C[C@@H]3C(=O)OCCOCCOCCOC(=O)c3ccc(-c4c5nc(c(-c6c(F)c(F)c(F)c(F)c6F)c6ccc([nH]6)c(-c6c(F)c(F)c(F)c(F)c6F)c6nc(c(-c7c(F)c(F)c(F)c(F)c7F)c7ccc4[nH]7)C=C6)C=C5)cc3)nnc2c1
REMARK SMILES IDX 17 1 16 2 15 3 14 4 13 5 12 6 10 7 11 8 9 9 7 10 8 11 6 12
REMARK SMILES IDX 1 13 2 14 3 15 90 16 4 17 89 18 5 19 88 20 87 21 18 22 19 23
REMARK SMILES IDX 20 24 21 25 22 26 23 27 24 28 25 29 86 30 26 31 85 32 27 33
REMARK SMILES IDX 28 34 29 35 79 36 30 37 84 38 78 39 80 40 31 41 83 42 77 43
REMARK SMILES IDX 76 44 32 46 64 47 44 48 63 49 45 50 48 51 62 52 81 53 46 54
REMARK SMILES IDX 47 55 61 57 82 58 49 59 33 60 34 61 42 62 35 63 36 64 40 65
REMARK SMILES IDX 43 66 37 67 38 68 41 69 39 70 65 71 66 72 74 73 67 74 68 75
REMARK SMILES IDX 72 76 75 77 69 78 70 79 73 80 71 81 50 82 51 83 59 84 52 85
REMARK SMILES IDX 53 86 57 87 60 88 54 89 55 90 58 91 56 92
REMARK H PARENT 80 45 48 56
REMARK Flexibility Score: inf
ROOT
ATOM      1  C   UNL A   1      32.747  29.341  24.608  1.00  0.00     0.188 C 
ENDROOT
BRANCH   1   2
ATOM      2  C   UNL A   1      32.857  28.927  23.122  1.00  0.00     0.188 C 
BRANCH   2   3
ATOM      3  O   UNL A   1      31.962  27.971  22.618  1.00  0.00    -0.376 OA
BRANCH   3   4
ATOM      4  C   UNL A   1      30.584  28.250  22.601  1.00  0.00     0.202 C 
BRANCH   4   5
ATOM      5  C   UNL A   1      29.590  27.554  23.552  1.00  0.00     0.261 C 
BRANCH   5   6
ATOM      6  O   UNL A   1      29.887  26.176  23.858  1.00  0.00    -0.463 OA
BRANCH   6   7
ATOM      7  C   UNL A   1      30.513  25.935  25.046  1.00  0.00     0.309 C 
ATOM      8  O   UNL A   1      29.929  25.740  26.111  1.00  0.00    -0.252 OA
BRANCH   7   9
ATOM      9  C   UNL A   1      31.997  25.734  24.897  1.00  0.00     0.110 C 
ATOM     10  C   UNL A   1      32.746  24.413  25.195  1.00  0.00     0.073 C 
ATOM     11  C   UNL A   1      32.850  25.606  26.112  1.00  0.00     0.028 C 
BRANCH  10  12
ATOM     12  C   UNL A   1      33.997  24.044  24.345  1.00  0.00     0.141 A 
ATOM     13  C   UNL A   1      38.766  21.383  25.498  1.00  0.00     0.044 C 
ATOM     14  C   UNL A   1      37.598  22.245  25.109  1.00  0.00    -0.046 A 
ATOM     15  C   UNL A   1      37.110  23.183  26.120  1.00  0.00     0.022 A 
ATOM     16  C   UNL A   1      36.969  22.164  23.916  1.00  0.00     0.053 A 
ATOM     17  C   UNL A   1      35.896  23.747  25.980  1.00  0.00     0.095 A 
ATOM     18  C   UNL A   1      35.803  22.957  23.689  1.00  0.00     0.161 A 
ATOM     19  N   UNL A   1      35.226  23.594  24.782  1.00  0.00    -0.286 N 
ATOM     20  N   UNL A   1      35.121  23.282  22.616  1.00  0.00    -0.130 NA
ATOM     21  N   UNL A   1      34.028  24.035  23.031  1.00  0.00    -0.134 NA
ENDBRANCH  10  12
ENDBRANCH   7   9
ENDBRANCH   6   7
ENDBRANCH   5   6
ENDBRANCH   4   5
ENDBRANCH   3   4
ENDBRANCH   2   3
ENDBRANCH   1   2
BRANCH   1  22
ATOM     22  O   UNL A   1      33.774  28.957  25.503  1.00  0.00    -0.376 OA
BRANCH  22  23
ATOM     23  C   UNL A   1      33.564  29.239  26.880  1.00  0.00     0.202 C 
BRANCH  23  24
ATOM     24  C   UNL A   1      34.657  30.035  27.635  1.00  0.00     0.261 C 
BRANCH  24  25
ATOM     25  O   UNL A   1      35.928  29.335  27.735  1.00  0.00    -0.460 OA
BRANCH  25  26
ATOM     26  C   UNL A   1      36.721  29.583  28.820  1.00  0.00     0.338 C 
ATOM     27  O   UNL A   1      36.323  29.738  29.963  1.00  0.00    -0.246 OA
BRANCH  26  28
ATOM     28  C   UNL A   1      38.156  29.251  28.482  1.00  0.00     0.060 A 
ATOM     29  C   UNL A   1      38.850  29.653  27.330  1.00  0.00     0.016 A 
ATOM     30  C   UNL A   1      38.757  28.279  29.271  1.00  0.00     0.016 A 
ATOM     31  C   UNL A   1      40.025  28.951  26.894  1.00  0.00     0.010 A 
ATOM     32  C   UNL A   1      39.926  27.624  28.837  1.00  0.00     0.010 A 
ATOM     33  C   UNL A   1      40.554  27.843  27.596  1.00  0.00    -0.014 A 
BRANCH  33  34
ATOM     34  C   UNL A   1      41.978  27.314  27.353  1.00  0.00     0.031 A 
ATOM     35  C   UNL A   1      41.817  25.885  27.034  1.00  0.00     0.074 A 
ATOM     36  C   UNL A   1      43.286  27.764  27.375  1.00  0.00     0.049 A 
ATOM     37  N   UNL A   1      42.071  24.960  27.896  1.00  0.00    -0.248 NA
ATOM     38  C   UNL A   1      41.084  25.429  25.849  1.00  0.00     0.031 C 
ATOM     39  C   UNL A   1      43.786  29.067  27.776  1.00  0.00     0.029 A 
ATOM     40  N   UNL A   1      44.514  27.165  27.024  1.00  0.00    -0.354 N 
ATOM     41  C   UNL A   1      41.754  23.778  27.268  1.00  0.00     0.074 A 
ATOM     42  C   UNL A   1      40.951  24.129  26.128  1.00  0.00     0.031 C 
ATOM     43  C   UNL A   1      45.078  29.289  27.408  1.00  0.00     0.029 A 
ATOM     44  C   UNL A   1      45.638  28.051  26.902  1.00  0.00     0.049 A 
ATOM     45  H   UNL A   1      44.596  26.196  26.872  1.00  0.00     0.167 HD
ATOM     46  C   UNL A   1      42.472  22.673  27.586  1.00  0.00     0.037 A 
ATOM     47  C   UNL A   1      46.957  27.783  26.587  1.00  0.00     0.037 A 
ATOM     48  C   UNL A   1      43.209  22.872  28.814  1.00  0.00     0.049 A 
ATOM     49  C   UNL A   1      47.156  26.484  27.244  1.00  0.00     0.074 A 
ATOM     50  C   UNL A   1      42.927  22.876  30.165  1.00  0.00     0.029 A 
ATOM     51  N   UNL A   1      44.396  23.535  28.658  1.00  0.00    -0.354 N 
ATOM     52  N   UNL A   1      47.289  26.384  28.534  1.00  0.00    -0.248 NA
ATOM     53  C   UNL A   1      47.041  25.237  26.497  1.00  0.00     0.031 C 
ATOM     54  C   UNL A   1      43.961  23.618  30.808  1.00  0.00     0.029 A 
ATOM     55  C   UNL A   1      44.875  24.021  29.846  1.00  0.00     0.049 A 
ATOM     56  H   UNL A   1      44.853  23.648  27.794  1.00  0.00     0.167 HD
ATOM     57  C   UNL A   1      46.776  25.138  28.782  1.00  0.00     0.074 A 
ATOM     58  C   UNL A   1      46.864  24.407  27.526  1.00  0.00     0.031 C 
ATOM     59  C   UNL A   1      45.964  24.956  29.854  1.00  0.00     0.037 A 
BRANCH  46  60
ATOM     60  C   UNL A   1      42.901  21.641  26.574  1.00  0.00     0.064 A 
ATOM     61  C   UNL A   1      42.366  20.343  26.674  1.00  0.00     0.173 A 
ATOM     62  C   UNL A   1      44.012  21.775  25.712  1.00  0.00     0.173 A 
ATOM     63  F   UNL A   1      41.326  20.093  27.484  1.00  0.00    -0.203 F 
ATOM     64  C   UNL A   1      42.939  19.256  26.013  1.00  0.00     0.198 A 
ATOM     65  C   UNL A   1      44.550  20.698  25.014  1.00  0.00     0.198 A 
ATOM     66  F   UNL A   1      44.703  22.914  25.594  1.00  0.00    -0.203 F 
ATOM     67  F   UNL A   1      42.469  18.021  26.232  1.00  0.00    -0.200 F 
ATOM     68  C   UNL A   1      44.032  19.434  25.185  1.00  0.00     0.200 A 
ATOM     69  F   UNL A   1      45.628  20.888  24.240  1.00  0.00    -0.200 F 
ATOM     70  F   UNL A   1      44.618  18.385  24.593  1.00  0.00    -0.200 F 
ENDBRANCH  46  60
BRANCH  47  71
ATOM     71  C   UNL A   1      48.240  28.429  26.049  1.00  0.00     0.064 A 
ATOM     72  C   UNL A   1      48.919  29.398  26.846  1.00  0.00     0.173 A 
ATOM     73  C   UNL A   1      49.032  27.897  25.027  1.00  0.00     0.173 A 
ATOM     74  F   UNL A   1      48.260  30.125  27.759  1.00  0.00    -0.203 F 
ATOM     75  C   UNL A   1      50.306  29.604  26.801  1.00  0.00     0.198 A 
ATOM     76  C   UNL A   1      50.438  28.079  24.996  1.00  0.00     0.198 A 
ATOM     77  F   UNL A   1      48.484  27.133  24.076  1.00  0.00    -0.203 F 
ATOM     78  F   UNL A   1      50.889  30.435  27.677  1.00  0.00    -0.200 F 
ATOM     79  C   UNL A   1      51.079  28.883  25.922  1.00  0.00     0.200 A 
ATOM     80  F   UNL A   1      51.183  27.379  24.126  1.00  0.00    -0.200 F 
ATOM     81  F   UNL A   1      52.417  28.941  25.984  1.00  0.00    -0.200 F 
ENDBRANCH  47  71
BRANCH  59  82
ATOM     82  C   UNL A   1      46.146  25.883  31.010  1.00  0.00     0.064 A 
ATOM     83  C   UNL A   1      47.240  25.865  31.887  1.00  0.00     0.173 A 
ATOM     84  C   UNL A   1      45.177  26.871  31.202  1.00  0.00     0.173 A 
ATOM     85  F   UNL A   1      48.226  24.976  31.732  1.00  0.00    -0.203 F 
ATOM     86  C   UNL A   1      47.351  26.794  32.922  1.00  0.00     0.198 A 
ATOM     87  C   UNL A   1      45.302  27.815  32.215  1.00  0.00     0.198 A 
ATOM     88  F   UNL A   1      44.118  26.937  30.380  1.00  0.00    -0.203 F 
ATOM     89  F   UNL A   1      48.403  26.758  33.754  1.00  0.00    -0.200 F 
ATOM     90  C   UNL A   1      46.385  27.775  33.077  1.00  0.00     0.200 A 
ATOM     91  F   UNL A   1      44.380  28.780  32.341  1.00  0.00    -0.200 F 
ATOM     92  F   UNL A   1      46.508  28.694  34.046  1.00  0.00    -0.200 F 
ENDBRANCH  59  82
ENDBRANCH  33  34
ENDBRANCH  26  28
ENDBRANCH  25  26
ENDBRANCH  24  25
ENDBRANCH  23  24
ENDBRANCH  22  23
ENDBRANCH   1  22
TORSDOF 18
ENDMDL
MODEL 2
REMARK VINA RESULT:     -11.0      5.387     11.377
REMARK SMILES Cc1ccn2c([C@H]3C[C@@H]3C(=O)OCCOCCOCCOC(=O)c3ccc(-c4c5nc(c(-c6c(F)c(F)c(F)c(F)c6F)c6ccc([nH]6)c(-c6c(F)c(F)c(F)c(F)c6F)c6nc(c(-c7c(F)c(F)c(F)c(F)c7F)c7ccc4[nH]7)C=C6)C=C5)cc3)nnc2c1
REMARK SMILES IDX 17 1 16 2 15 3 14 4 13 5 12 6 10 7 11 8 9 9 7 10 8 11 6 12
REMARK SMILES IDX 1 13 2 14 3 15 90 16 4 17 89 18 5 19 88 20 87 21 18 22 19 23
REMARK SMILES IDX 20 24 21 25 22 26 23 27 24 28 25 29 86 30 26 31 85 32 27 33
REMARK SMILES IDX 28 34 29 35 79 36 30 37 84 38 78 39 80 40 31 41 83 42 77 43
REMARK SMILES IDX 76 44 32 46 64 47 44 48 63 49 45 50 48 51 62 52 81 53 46 54
REMARK SMILES IDX 47 55 61 57 82 58 49 59 33 60 34 61 42 62 35 63 36 64 40 65
REMARK SMILES IDX 43 66 37 67 38 68 41 69 39 70 65 71 66 72 74 73 67 74 68 75
REMARK SMILES IDX 72 76 75 77 69 78 70 79 73 80 71 81 50 82 51 83 59 84 52 85
REMARK SMILES IDX 53 86 57 87 60 88 54 89 55 90 58 91 56 92
REMARK H PARENT 80 45 48 56
REMARK Flexibility Score: inf
ROOT
ATOM      1  C   UNL A   1      44.314  18.556  25.366  1.00  0.00     0.188 C 
ENDROOT
BRANCH   1   2
ATOM      2  C   UNL A   1      44.559  19.174  23.969  1.00  0.00     0.188 C 
BRANCH   2   3
ATOM      3  O   UNL A   1      45.204  20.416  23.883  1.00  0.00    -0.376 OA
BRANCH   3   4
ATOM      4  C   UNL A   1      45.555  21.101  25.060  1.00  0.00     0.202 C 
BRANCH   4   5
ATOM      5  C   UNL A   1      46.187  22.507  25.038  1.00  0.00     0.261 C 
BRANCH   5   6
ATOM      6  O   UNL A   1      46.309  23.152  26.322  1.00  0.00    -0.463 OA
BRANCH   6   7
ATOM      7  C   UNL A   1      47.104  24.259  26.376  1.00  0.00     0.309 C 
ATOM      8  O   UNL A   1      48.045  24.401  27.155  1.00  0.00    -0.252 OA
BRANCH   7   9
ATOM      9  C   UNL A   1      46.844  25.224  25.250  1.00  0.00     0.110 C 
ATOM     10  C   UNL A   1      47.136  26.742  25.300  1.00  0.00     0.073 C 
ATOM     11  C   UNL A   1      45.728  26.205  25.361  1.00  0.00     0.028 C 
BRANCH  10  12
ATOM     12  C   UNL A   1      47.574  27.473  23.997  1.00  0.00     0.141 A 
ATOM     13  C   UNL A   1      51.884  26.834  20.508  1.00  0.00     0.044 C 
ATOM     14  C   UNL A   1      50.774  27.202  21.452  1.00  0.00    -0.046 A 
ATOM     15  C   UNL A   1      51.066  27.090  22.882  1.00  0.00     0.022 A 
ATOM     16  C   UNL A   1      49.540  27.578  21.051  1.00  0.00     0.053 A 
ATOM     17  C   UNL A   1      50.058  27.084  23.773  1.00  0.00     0.095 A 
ATOM     18  C   UNL A   1      48.529  27.804  22.033  1.00  0.00     0.161 A 
ATOM     19  N   UNL A   1      48.784  27.395  23.338  1.00  0.00    -0.286 N 
ATOM     20  N   UNL A   1      47.349  28.379  22.006  1.00  0.00    -0.130 NA
ATOM     21  N   UNL A   1      46.788  28.235  23.270  1.00  0.00    -0.134 NA
ENDBRANCH  10  12
ENDBRANCH   7   9
ENDBRANCH   6   7
ENDBRANCH   5   6
ENDBRANCH   4   5
ENDBRANCH   3   4
ENDBRANCH   2   3
ENDBRANCH   1   2
BRANCH   1  22
ATOM     22  O   UNL A   1      43.020  18.080  25.686  1.00  0.00    -0.376 OA
BRANCH  22  23
ATOM     23  C   UNL A   1      42.260  18.856  26.602  1.00  0.00     0.202 C 
BRANCH  23  24
ATOM     24  C   UNL A   1      41.897  20.307  26.202  1.00  0.00     0.261 C 
BRANCH  24  25
ATOM     25  O   UNL A   1      40.847  20.895  27.020  1.00  0.00    -0.460 OA
BRANCH  25  26
ATOM     26  C   UNL A   1      39.986  21.778  26.432  1.00  0.00     0.338 C 
ATOM     27  O   UNL A   1      38.927  21.483  25.903  1.00  0.00    -0.246 OA
BRANCH  26  28
ATOM     28  C   UNL A   1      40.329  23.184  26.868  1.00  0.00     0.060 A 
ATOM     29  C   UNL A   1      41.474  23.574  27.581  1.00  0.00     0.016 A 
ATOM     30  C   UNL A   1      39.312  24.122  26.749  1.00  0.00     0.016 A 
ATOM     31  C   UNL A   1      41.502  24.810  28.312  1.00  0.00     0.010 A 
ATOM     32  C   UNL A   1      39.374  25.341  27.451  1.00  0.00     0.010 A 
ATOM     33  C   UNL A   1      40.404  25.701  28.342  1.00  0.00    -0.014 A 
BRANCH  33  34
ATOM     34  C   UNL A   1      40.536  27.160  28.811  1.00  0.00     0.031 A 
ATOM     35  C   UNL A   1      41.693  27.705  28.081  1.00  0.00     0.074 A 
ATOM     36  C   UNL A   1      39.932  28.042  29.690  1.00  0.00     0.049 A 
ATOM     37  N   UNL A   1      42.844  27.860  28.643  1.00  0.00    -0.248 NA
ATOM     38  C   UNL A   1      41.708  27.822  26.620  1.00  0.00     0.031 C 
ATOM     39  C   UNL A   1      38.866  27.781  30.641  1.00  0.00     0.029 A 
ATOM     40  N   UNL A   1      40.111  29.418  29.946  1.00  0.00    -0.354 N 
ATOM     41  C   UNL A   1      43.675  28.328  27.651  1.00  0.00     0.074 A 
ATOM     42  C   UNL A   1      43.004  28.069  26.407  1.00  0.00     0.031 C 
ATOM     43  C   UNL A   1      38.299  28.912  31.144  1.00  0.00     0.029 A 
ATOM     44  C   UNL A   1      39.088  30.055  30.726  1.00  0.00     0.049 A 
ATOM     45  H   UNL A   1      40.892  29.912  29.608  1.00  0.00     0.167 HD
ATOM     46  C   UNL A   1      44.675  29.174  28.001  1.00  0.00     0.037 A 
ATOM     47  C   UNL A   1      38.974  31.364  31.152  1.00  0.00     0.037 A 
ATOM     48  C   UNL A   1      44.906  29.136  29.429  1.00  0.00     0.049 A 
ATOM     49  C   UNL A   1      40.377  31.708  31.421  1.00  0.00     0.074 A 
ATOM     50  C   UNL A   1      45.530  28.291  30.323  1.00  0.00     0.029 A 
ATOM     51  N   UNL A   1      44.056  29.923  30.158  1.00  0.00    -0.354 N 
ATOM     52  N   UNL A   1      41.000  31.264  32.473  1.00  0.00    -0.248 NA
ATOM     53  C   UNL A   1      41.182  32.417  30.433  1.00  0.00     0.031 C 
ATOM     54  C   UNL A   1      44.979  28.560  31.610  1.00  0.00     0.029 A 
ATOM     55  C   UNL A   1      44.057  29.588  31.487  1.00  0.00     0.049 A 
ATOM     56  H   UNL A   1      43.508  30.645  29.774  1.00  0.00     0.167 HD
ATOM     57  C   UNL A   1      42.296  31.197  32.037  1.00  0.00     0.074 A 
ATOM     58  C   UNL A   1      42.390  32.113  30.908  1.00  0.00     0.031 C 
ATOM     59  C   UNL A   1      43.052  30.120  32.363  1.00  0.00     0.037 A 
BRANCH  46  60
ATOM     60  C   UNL A   1      45.085  30.365  27.173  1.00  0.00     0.064 A 
ATOM     61  C   UNL A   1      46.459  30.623  27.007  1.00  0.00     0.173 A 
ATOM     62  C   UNL A   1      44.219  31.414  26.791  1.00  0.00     0.173 A 
ATOM     63  F   UNL A   1      47.374  29.709  27.362  1.00  0.00    -0.203 F 
ATOM     64  C   UNL A   1      46.927  31.858  26.556  1.00  0.00     0.198 A 
ATOM     65  C   UNL A   1      44.688  32.625  26.292  1.00  0.00     0.198 A 
ATOM     66  F   UNL A   1      42.897  31.370  26.991  1.00  0.00    -0.203 F 
ATOM     67  F   UNL A   1      48.244  32.098  26.527  1.00  0.00    -0.200 F 
ATOM     68  C   UNL A   1      46.042  32.858  26.200  1.00  0.00     0.200 A 
ATOM     69  F   UNL A   1      43.812  33.592  25.982  1.00  0.00    -0.200 F 
ATOM     70  F   UNL A   1      46.489  34.061  25.819  1.00  0.00    -0.200 F 
ENDBRANCH  46  60
BRANCH  47  71
ATOM     71  C   UNL A   1      37.959  32.409  31.634  1.00  0.00     0.064 A 
ATOM     72  C   UNL A   1      37.010  32.937  30.709  1.00  0.00     0.173 A 
ATOM     73  C   UNL A   1      37.610  32.624  32.971  1.00  0.00     0.173 A 
ATOM     74  F   UNL A   1      37.269  32.965  29.395  1.00  0.00    -0.203 F 
ATOM     75  C   UNL A   1      35.730  33.377  31.079  1.00  0.00     0.198 A 
ATOM     76  C   UNL A   1      36.309  33.041  33.348  1.00  0.00     0.198 A 
ATOM     77  F   UNL A   1      38.489  32.370  33.947  1.00  0.00    -0.203 F 
ATOM     78  F   UNL A   1      34.845  33.731  30.135  1.00  0.00    -0.200 F 
ATOM     79  C   UNL A   1      35.352  33.356  32.400  1.00  0.00     0.200 A 
ATOM     80  F   UNL A   1      35.953  33.028  34.643  1.00  0.00    -0.200 F 
ATOM     81  F   UNL A   1      34.083  33.609  32.750  1.00  0.00    -0.200 F 
ENDBRANCH  47  71
BRANCH  59  82
ATOM     82  C   UNL A   1      42.697  29.396  33.620  1.00  0.00     0.064 A 
ATOM     83  C   UNL A   1      42.982  29.853  34.915  1.00  0.00     0.173 A 
ATOM     84  C   UNL A   1      41.987  28.199  33.496  1.00  0.00     0.173 A 
ATOM     85  F   UNL A   1      43.618  31.012  35.107  1.00  0.00    -0.203 F 
ATOM     86  C   UNL A   1      42.581  29.131  36.039  1.00  0.00     0.198 A 
ATOM     87  C   UNL A   1      41.561  27.494  34.616  1.00  0.00     0.198 A 
ATOM     88  F   UNL A   1      41.680  27.729  32.277  1.00  0.00    -0.203 F 
ATOM     89  F   UNL A   1      42.866  29.581  37.271  1.00  0.00    -0.200 F 
ATOM     90  C   UNL A   1      41.861  27.957  35.887  1.00  0.00     0.200 A 
ATOM     91  F   UNL A   1      40.839  26.376  34.462  1.00  0.00    -0.200 F 
ATOM     92  F   UNL A   1      41.439  27.280  36.965  1.00  0.00    -0.200 F 
ENDBRANCH  59  82
ENDBRANCH  33  34
ENDBRANCH  26  28
ENDBRANCH  25  26
ENDBRANCH  24  25
ENDBRANCH  23  24
ENDBRANCH  22  23
ENDBRANCH   1  22
TORSDOF 18
ENDMDL
MODEL 3
REMARK VINA RESULT:     -10.8      1.585      2.396
REMARK SMILES Cc1ccn2c([C@H]3C[C@@H]3C(=O)OCCOCCOCCOC(=O)c3ccc(-c4c5nc(c(-c6c(F)c(F)c(F)c(F)c6F)c6ccc([nH]6)c(-c6c(F)c(F)c(F)c(F)c6F)c6nc(c(-c7c(F)c(F)c(F)c(F)c7F)c7ccc4[nH]7)C=C6)C=C5)cc3)nnc2c1
REMARK SMILES IDX 17 1 16 2 15 3 14 4 13 5 12 6 10 7 11 8 9 9 7 10 8 11 6 12
REMARK SMILES IDX 1 13 2 14 3 15 90 16 4 17 89 18 5 19 88 20 87 21 18 22 19 23
REMARK SMILES IDX 20 24 21 25 22 26 23 27 24 28 25 29 86 30 26 31 85 32 27 33
REMARK SMILES IDX 28 34 29 35 79 36 30 37 84 38 78 39 80 40 31 41 83 42 77 43
REMARK SMILES IDX 76 44 32 46 64 47 44 48 63 49 45 50 48 51 62 52 81 53 46 54
REMARK SMILES IDX 47 55 61 57 82 58 49 59 33 60 34 61 42 62 35 63 36 64 40 65
REMARK SMILES IDX 43 66 37 67 38 68 41 69 39 70 65 71 66 72 74 73 67 74 68 75
REMARK SMILES IDX 72 76 75 77 69 78 70 79 73 80 71 81 50 82 51 83 59 84 52 85
REMARK SMILES IDX 53 86 57 87 60 88 54 89 55 90 58 91 56 92
REMARK H PARENT 80 45 48 56
REMARK Flexibility Score: inf
ROOT
ATOM      1  C   UNL A   1      31.927  30.813  26.349  1.00  0.00     0.188 C 
ENDROOT
BRANCH   1   2
ATOM      2  C   UNL A   1      31.657  29.633  25.386  1.00  0.00     0.188 C 
BRANCH   2   3
ATOM      3  O   UNL A   1      32.638  29.293  24.442  1.00  0.00    -0.376 OA
BRANCH   3   4
ATOM      4  C   UNL A   1      32.260  29.016  23.116  1.00  0.00     0.202 C 
BRANCH   4   5
ATOM      5  C   UNL A   1      30.787  28.837  22.699  1.00  0.00     0.261 C 
BRANCH   5   6
ATOM      6  O   UNL A   1      30.182  27.586  23.085  1.00  0.00    -0.463 OA
BRANCH   6   7
ATOM      7  C   UNL A   1      30.964  26.473  22.985  1.00  0.00     0.309 C 
ATOM      8  O   UNL A   1      31.471  26.071  21.939  1.00  0.00    -0.252 OA
BRANCH   7   9
ATOM      9  C   UNL A   1      31.317  25.882  24.325  1.00  0.00     0.110 C 
ATOM     10  C   UNL A   1      30.489  24.802  25.060  1.00  0.00     0.073 C 
ATOM     11  C   UNL A   1      30.506  26.237  25.524  1.00  0.00     0.028 C 
BRANCH  10  12
ATOM     12  C   UNL A   1      31.228  23.751  25.940  1.00  0.00     0.141 A 
ATOM     13  C   UNL A   1      35.511  20.297  25.001  1.00  0.00     0.044 C 
ATOM     14  C   UNL A   1      34.259  21.064  25.323  1.00  0.00    -0.046 A 
ATOM     15  C   UNL A   1      33.280  21.202  24.244  1.00  0.00     0.022 A 
ATOM     16  C   UNL A   1      34.025  21.654  26.515  1.00  0.00     0.053 A 
ATOM     17  C   UNL A   1      32.305  22.125  24.338  1.00  0.00     0.095 A 
ATOM     18  C   UNL A   1      32.849  22.447  26.680  1.00  0.00     0.161 A 
ATOM     19  N   UNL A   1      32.123  22.779  25.541  1.00  0.00    -0.286 N 
ATOM     20  N   UNL A   1      32.225  22.941  27.724  1.00  0.00    -0.130 NA
ATOM     21  N   UNL A   1      31.158  23.696  27.251  1.00  0.00    -0.134 NA
ENDBRANCH  10  12
ENDBRANCH   7   9
ENDBRANCH   6   7
ENDBRANCH   5   6
ENDBRANCH   4   5
ENDBRANCH   3   4
ENDBRANCH   2   3
ENDBRANCH   1   2
BRANCH   1  22
ATOM     22  O   UNL A   1      33.248  31.032  26.809  1.00  0.00    -0.376 OA
BRANCH  22  23
ATOM     23  C   UNL A   1      33.814  30.024  27.635  1.00  0.00     0.202 C 
BRANCH  23  24
ATOM     24  C   UNL A   1      35.111  29.329  27.152  1.00  0.00     0.261 C 
BRANCH  24  25
ATOM     25  O   UNL A   1      36.312  30.123  27.358  1.00  0.00    -0.460 OA
BRANCH  25  26
ATOM     26  C   UNL A   1      37.028  29.929  28.505  1.00  0.00     0.338 C 
ATOM     27  O   UNL A   1      36.611  30.116  29.636  1.00  0.00    -0.246 OA
BRANCH  26  28
ATOM     28  C   UNL A   1      38.250  29.093  28.202  1.00  0.00     0.060 A 
ATOM     29  C   UNL A   1      38.950  28.288  29.115  1.00  0.00     0.016 A 
ATOM     30  C   UNL A   1      38.858  29.328  26.976  1.00  0.00     0.016 A 
ATOM     31  C   UNL A   1      40.307  27.893  28.861  1.00  0.00     0.010 A 
ATOM     32  C   UNL A   1      40.181  28.904  26.738  1.00  0.00     0.010 A 
ATOM     33  C   UNL A   1      41.002  28.269  27.689  1.00  0.00    -0.014 A 
BRANCH  33  34
ATOM     34  C   UNL A   1      42.301  27.578  27.240  1.00  0.00     0.031 A 
ATOM     35  C   UNL A   1      41.963  26.151  27.111  1.00  0.00     0.074 A 
ATOM     36  C   UNL A   1      43.621  27.892  26.968  1.00  0.00     0.049 A 
ATOM     37  N   UNL A   1      42.306  25.284  28.003  1.00  0.00    -0.248 NA
ATOM     38  C   UNL A   1      40.976  25.668  26.140  1.00  0.00     0.031 C 
ATOM     39  C   UNL A   1      44.297  29.168  27.126  1.00  0.00     0.029 A 
ATOM     40  N   UNL A   1      44.702  27.143  26.457  1.00  0.00    -0.354 N 
ATOM     41  C   UNL A   1      41.773  24.089  27.575  1.00  0.00     0.074 A 
ATOM     42  C   UNL A   1      40.794  24.419  26.576  1.00  0.00     0.031 C 
ATOM     43  C   UNL A   1      45.504  29.224  26.500  1.00  0.00     0.029 A 
ATOM     44  C   UNL A   1      45.849  27.896  26.032  1.00  0.00     0.049 A 
ATOM     45  H   UNL A   1      44.671  26.162  26.396  1.00  0.00     0.167 HD
ATOM     46  C   UNL A   1      42.446  22.949  27.868  1.00  0.00     0.037 A 
ATOM     47  C   UNL A   1      47.053  27.469  25.505  1.00  0.00     0.037 A 
ATOM     48  C   UNL A   1      43.425  23.180  28.907  1.00  0.00     0.049 A 
ATOM     49  C   UNL A   1      47.270  26.219  26.246  1.00  0.00     0.074 A 
ATOM     50  C   UNL A   1      43.417  23.333  30.279  1.00  0.00     0.029 A 
ATOM     51  N   UNL A   1      44.609  23.703  28.460  1.00  0.00    -0.354 N 
ATOM     52  N   UNL A   1      47.646  26.220  27.492  1.00  0.00    -0.248 NA
ATOM     53  C   UNL A   1      46.907  24.929  25.672  1.00  0.00     0.031 C 
ATOM     54  C   UNL A   1      44.615  24.019  30.633  1.00  0.00     0.029 A 
ATOM     55  C   UNL A   1      45.351  24.240  29.478  1.00  0.00     0.049 A 
ATOM     56  H   UNL A   1      44.894  23.692  27.519  1.00  0.00     0.167 HD
ATOM     57  C   UNL A   1      47.091  25.060  27.963  1.00  0.00     0.074 A 
ATOM     58  C   UNL A   1      46.869  24.215  26.798  1.00  0.00     0.031 C 
ATOM     59  C   UNL A   1      46.494  25.057  29.182  1.00  0.00     0.037 A 
BRANCH  46  60
ATOM     60  C   UNL A   1      42.580  21.794  26.909  1.00  0.00     0.064 A 
ATOM     61  C   UNL A   1      42.022  20.554  27.273  1.00  0.00     0.173 A 
ATOM     62  C   UNL A   1      43.467  21.762  25.809  1.00  0.00     0.173 A 
ATOM     63  F   UNL A   1      41.187  20.461  28.319  1.00  0.00    -0.203 F 
ATOM     64  C   UNL A   1      42.375  19.368  26.628  1.00  0.00     0.198 A 
ATOM     65  C   UNL A   1      43.777  20.584  25.135  1.00  0.00     0.198 A 
ATOM     66  F   UNL A   1      44.164  22.831  25.411  1.00  0.00    -0.203 F 
ATOM     67  F   UNL A   1      41.910  18.199  27.085  1.00  0.00    -0.200 F 
ATOM     68  C   UNL A   1      43.254  19.384  25.560  1.00  0.00     0.200 A 
ATOM     69  F   UNL A   1      44.654  20.619  24.121  1.00  0.00    -0.200 F 
ATOM     70  F   UNL A   1      43.636  18.243  24.974  1.00  0.00    -0.200 F 
ENDBRANCH  46  60
BRANCH  47  71
ATOM     71  C   UNL A   1      48.253  27.930  24.670  1.00  0.00     0.064 A 
ATOM     72  C   UNL A   1      49.512  28.131  25.310  1.00  0.00     0.173 A 
ATOM     73  C   UNL A   1      48.351  27.811  23.279  1.00  0.00     0.173 A 
ATOM     74  F   UNL A   1      49.583  28.430  26.615  1.00  0.00    -0.203 F 
ATOM     75  C   UNL A   1      50.746  27.953  24.667  1.00  0.00     0.198 A 
ATOM     76  C   UNL A   1      49.594  27.602  22.630  1.00  0.00     0.198 A 
ATOM     77  F   UNL A   1      47.249  27.822  22.522  1.00  0.00    -0.203 F 
ATOM     78  F   UNL A   1      51.885  28.026  25.371  1.00  0.00    -0.200 F 
ATOM     79  C   UNL A   1      50.784  27.611  23.337  1.00  0.00     0.200 A 
ATOM     80  F   UNL A   1      49.621  27.279  21.327  1.00  0.00    -0.200 F 
ATOM     81  F   UNL A   1      51.942  27.271  22.752  1.00  0.00    -0.200 F 
ENDBRANCH  47  71
BRANCH  59  82
ATOM     82  C   UNL A   1      46.977  26.059  30.177  1.00  0.00     0.064 A 
ATOM     83  C   UNL A   1      46.229  27.151  30.641  1.00  0.00     0.173 A 
ATOM     84  C   UNL A   1      48.249  25.866  30.722  1.00  0.00     0.173 A 
ATOM     85  F   UNL A   1      44.987  27.368  30.197  1.00  0.00    -0.203 F 
ATOM     86  C   UNL A   1      46.743  28.020  31.604  1.00  0.00     0.198 A 
ATOM     87  C   UNL A   1      48.750  26.715  31.702  1.00  0.00     0.198 A 
ATOM     88  F   UNL A   1      48.997  24.827  30.319  1.00  0.00    -0.203 F 
ATOM     89  F   UNL A   1      46.014  29.063  32.032  1.00  0.00    -0.200 F 
ATOM     90  C   UNL A   1      48.000  27.794  32.140  1.00  0.00     0.200 A 
ATOM     91  F   UNL A   1      49.953  26.473  32.238  1.00  0.00    -0.200 F 
ATOM     92  F   UNL A   1      48.482  28.605  33.094  1.00  0.00    -0.200 F 
ENDBRANCH  59  82
ENDBRANCH  33  34
ENDBRANCH  26  28
ENDBRANCH  25  26
ENDBRANCH  24  25
ENDBRANCH  23  24
ENDBRANCH  22  23
ENDBRANCH   1  22
TORSDOF 18
ENDMDL
