MODEL 1
REMARK VINA RESULT:     -11.0      0.000      0.000
REMARK SMILES CCOc1ccccc1N1CCN(c2ncc(N)cc2C(=O)OCCOCCOCCOC(=O)c2ccc(-c3c4nc(c(-c5c(F)c(F)c(F)c(F)c5F)c5ccc([nH]5)c(-c5c(F)c(F)c(F)c(F)c5F)c5nc(c(-c6c(F)c(F)c(F)c(F)c6F)c6ccc3[nH]6)C=C5)C=C4)cc2)CC1
REMARK SMILES IDX 27 1 26 2 25 3 24 4 23 5 21 6 22 7 20 8 14 9 15 10 16 11
REMARK SMILES IDX 19 12 17 13 13 14 10 15 11 16 99 17 12 18 98 19 9 20 4 21
REMARK SMILES IDX 5 22 6 23 8 24 7 25 3 26 2 27 1 28 18 29 28 32 29 33 30 34
REMARK SMILES IDX 31 35 32 36 33 37 34 38 35 39 36 40 97 41 37 42 96 43 38 44
REMARK SMILES IDX 39 45 40 46 90 47 41 48 95 49 89 50 91 51 42 52 94 53 88 54
REMARK SMILES IDX 87 55 43 57 75 58 55 59 74 60 56 61 59 62 73 63 92 64 57 65
REMARK SMILES IDX 58 66 72 68 93 69 60 70 44 71 45 72 53 73 46 74 47 75 51 76
REMARK SMILES IDX 54 77 48 78 49 79 52 80 50 81 76 82 77 83 85 84 78 85 79 86
REMARK SMILES IDX 83 87 86 88 80 89 81 90 84 91 82 92 61 93 62 94 70 95 63 96
REMARK SMILES IDX 64 97 68 98 71 99 65 100 66 101 69 102 67 103
REMARK H PARENT 18 30 18 31 91 56 59 67
REMARK Flexibility Score: inf
ROOT
ATOM      1  C   UNL A   1      39.578  21.041  25.941  1.00  0.00     0.188 C 
ENDROOT
BRANCH   1   2
ATOM      2  O   UNL A   1      38.498  21.862  25.495  1.00  0.00    -0.376 OA
BRANCH   2   3
ATOM      3  C   UNL A   1      38.406  23.123  26.159  1.00  0.00     0.202 C 
BRANCH   3   4
ATOM      4  C   UNL A   1      37.027  23.746  25.956  1.00  0.00     0.261 C 
BRANCH   4   5
ATOM      5  O   UNL A   1      36.088  22.778  25.451  1.00  0.00    -0.460 OA
BRANCH   5   6
ATOM      6  C   UNL A   1      35.015  22.501  26.229  1.00  0.00     0.342 C 
ATOM      7  O   UNL A   1      34.767  22.973  27.327  1.00  0.00    -0.246 OA
BRANCH   6   8
ATOM      8  C   UNL A   1      34.159  21.535  25.519  1.00  0.00     0.104 A 
ATOM      9  C   UNL A   1      32.894  21.936  25.071  1.00  0.00     0.143 A 
ATOM     10  N   UNL A   1      32.065  21.075  24.439  1.00  0.00    -0.236 NA
ATOM     11  C   UNL A   1      32.536  19.825  24.197  1.00  0.00     0.139 A 
ATOM     12  C   UNL A   1      34.622  20.246  25.243  1.00  0.00     0.046 A 
ATOM     13  C   UNL A   1      33.800  19.359  24.559  1.00  0.00     0.051 A 
BRANCH   9  14
ATOM     14  N   UNL A   1      32.598  23.296  25.004  1.00  0.00    -0.352 N 
ATOM     15  N   UNL A   1      31.415  25.811  24.420  1.00  0.00    -0.365 N 
ATOM     16  C   UNL A   1      31.661  25.439  25.820  1.00  0.00     0.138 C 
ATOM     17  C   UNL A   1      32.306  25.168  23.434  1.00  0.00     0.138 C 
ATOM     18  C   UNL A   1      31.674  23.889  25.980  1.00  0.00     0.139 C 
ATOM     19  C   UNL A   1      32.293  23.653  23.613  1.00  0.00     0.139 C 
BRANCH  15  20
ATOM     20  C   UNL A   1      30.968  27.063  24.029  1.00  0.00     0.079 A 
ATOM     21  C   UNL A   1      31.677  28.207  24.444  1.00  0.00     0.142 A 
ATOM     22  C   UNL A   1      31.109  29.477  24.334  1.00  0.00     0.048 A 
ATOM     23  C   UNL A   1      29.926  29.654  23.626  1.00  0.00     0.004 A 
ATOM     24  C   UNL A   1      29.790  27.261  23.302  1.00  0.00     0.030 A 
ATOM     25  C   UNL A   1      29.284  28.548  23.080  1.00  0.00     0.002 A 
BRANCH  21  26
ATOM     26  O   UNL A   1      32.933  28.078  25.011  1.00  0.00    -0.492 OA
BRANCH  26  27
ATOM     27  C   UNL A   1      33.190  29.110  25.990  1.00  0.00     0.226 C 
ATOM     28  C   UNL A   1      34.383  28.781  26.865  1.00  0.00     0.049 C 
ENDBRANCH  26  27
ENDBRANCH  21  26
ENDBRANCH  15  20
ENDBRANCH   9  14
BRANCH  13  29
ATOM     29  N   UNL A   1      34.259  18.109  24.191  1.00  0.00    -0.397 N 
ATOM     30  H   UNL A   1      33.628  17.358  24.104  1.00  0.00     0.156 HD
ATOM     31  H   UNL A   1      35.217  17.968  24.014  1.00  0.00     0.156 HD
ENDBRANCH  13  29
ENDBRANCH   6   8
ENDBRANCH   5   6
ENDBRANCH   4   5
ENDBRANCH   3   4
ENDBRANCH   2   3
ENDBRANCH   1   2
BRANCH   1  32
ATOM     32  C   UNL A   1      40.771  21.871  26.441  1.00  0.00     0.188 C 
BRANCH  32  33
ATOM     33  O   UNL A   1      41.949  21.194  26.884  1.00  0.00    -0.376 OA
BRANCH  33  34
ATOM     34  C   UNL A   1      41.836  19.828  27.246  1.00  0.00     0.202 C 
BRANCH  34  35
ATOM     35  C   UNL A   1      42.547  18.826  26.328  1.00  0.00     0.261 C 
BRANCH  35  36
ATOM     36  O   UNL A   1      42.885  19.308  25.012  1.00  0.00    -0.460 OA
BRANCH  36  37
ATOM     37  C   UNL A   1      44.217  19.366  24.762  1.00  0.00     0.338 C 
ATOM     38  O   UNL A   1      44.959  18.418  24.558  1.00  0.00    -0.246 OA
BRANCH  37  39
ATOM     39  C   UNL A   1      44.722  20.763  24.759  1.00  0.00     0.060 A 
ATOM     40  C   UNL A   1      45.643  21.120  25.750  1.00  0.00     0.016 A 
ATOM     41  C   UNL A   1      44.201  21.755  23.919  1.00  0.00     0.016 A 
ATOM     42  C   UNL A   1      46.002  22.461  25.929  1.00  0.00     0.010 A 
ATOM     43  C   UNL A   1      44.547  23.107  24.119  1.00  0.00     0.010 A 
ATOM     44  C   UNL A   1      45.430  23.480  25.143  1.00  0.00    -0.014 A 
BRANCH  44  45
ATOM     45  C   UNL A   1      45.680  24.902  25.543  1.00  0.00     0.031 A 
ATOM     46  C   UNL A   1      44.686  25.599  26.408  1.00  0.00     0.074 A 
ATOM     47  C   UNL A   1      46.767  25.604  25.171  1.00  0.00     0.049 A 
ATOM     48  N   UNL A   1      44.772  26.778  26.964  1.00  0.00    -0.248 NA
ATOM     49  C   UNL A   1      43.391  24.928  26.587  1.00  0.00     0.031 C 
ATOM     50  C   UNL A   1      47.683  25.180  24.145  1.00  0.00     0.029 A 
ATOM     51  N   UNL A   1      47.344  26.760  25.655  1.00  0.00    -0.354 N 
ATOM     52  C   UNL A   1      43.511  27.044  27.459  1.00  0.00     0.074 A 
ATOM     53  C   UNL A   1      42.703  25.863  27.223  1.00  0.00     0.031 C 
ATOM     54  C   UNL A   1      48.815  25.899  24.223  1.00  0.00     0.029 A 
ATOM     55  C   UNL A   1      48.668  26.895  25.267  1.00  0.00     0.049 A 
ATOM     56  H   UNL A   1      46.868  27.416  26.215  1.00  0.00     0.167 HD
ATOM     57  C   UNL A   1      43.055  28.210  27.972  1.00  0.00     0.037 A 
ATOM     58  C   UNL A   1      49.646  27.692  25.746  1.00  0.00     0.037 A 
ATOM     59  C   UNL A   1      43.863  29.388  28.152  1.00  0.00     0.049 A 
ATOM     60  C   UNL A   1      49.210  28.844  26.603  1.00  0.00     0.074 A 
ATOM     61  C   UNL A   1      43.484  30.634  28.620  1.00  0.00     0.029 A 
ATOM     62  N   UNL A   1      45.221  29.467  27.869  1.00  0.00    -0.354 N 
ATOM     63  N   UNL A   1      48.014  29.099  27.072  1.00  0.00    -0.248 NA
ATOM     64  C   UNL A   1      50.208  29.884  26.890  1.00  0.00     0.031 C 
ATOM     65  C   UNL A   1      44.606  31.472  28.600  1.00  0.00     0.029 A 
ATOM     66  C   UNL A   1      45.696  30.735  28.167  1.00  0.00     0.049 A 
ATOM     67  H   UNL A   1      45.765  28.731  27.509  1.00  0.00     0.167 HD
ATOM     68  C   UNL A   1      48.086  30.371  27.610  1.00  0.00     0.074 A 
ATOM     69  C   UNL A   1      49.473  30.786  27.526  1.00  0.00     0.031 C 
ATOM     70  C   UNL A   1      47.072  31.149  28.055  1.00  0.00     0.037 A 
BRANCH  57  71
ATOM     71  C   UNL A   1      41.586  28.279  28.246  1.00  0.00     0.064 A 
ATOM     72  C   UNL A   1      40.685  28.836  27.328  1.00  0.00     0.173 A 
ATOM     73  C   UNL A   1      41.084  27.831  29.478  1.00  0.00     0.173 A 
ATOM     74  F   UNL A   1      41.125  29.312  26.155  1.00  0.00    -0.203 F 
ATOM     75  C   UNL A   1      39.337  28.971  27.648  1.00  0.00     0.198 A 
ATOM     76  C   UNL A   1      39.731  27.940  29.782  1.00  0.00     0.198 A 
ATOM     77  F   UNL A   1      41.910  27.306  30.395  1.00  0.00    -0.203 F 
ATOM     78  F   UNL A   1      38.503  29.569  26.786  1.00  0.00    -0.200 F 
ATOM     79  C   UNL A   1      38.861  28.520  28.871  1.00  0.00     0.200 A 
ATOM     80  F   UNL A   1      39.275  27.504  30.963  1.00  0.00    -0.200 F 
ATOM     81  F   UNL A   1      37.564  28.661  29.180  1.00  0.00    -0.200 F 
ENDBRANCH  57  71
BRANCH  58  82
ATOM     82  C   UNL A   1      51.096  27.474  25.443  1.00  0.00     0.064 A 
ATOM     83  C   UNL A   1      51.635  27.938  24.226  1.00  0.00     0.173 A 
ATOM     84  C   UNL A   1      51.971  26.800  26.304  1.00  0.00     0.173 A 
ATOM     85  F   UNL A   1      50.845  28.557  23.336  1.00  0.00    -0.203 F 
ATOM     86  C   UNL A   1      52.974  27.727  23.889  1.00  0.00     0.198 A 
ATOM     87  C   UNL A   1      53.322  26.632  25.988  1.00  0.00     0.198 A 
ATOM     88  F   UNL A   1      51.520  26.286  27.458  1.00  0.00    -0.203 F 
ATOM     89  F   UNL A   1      53.435  28.126  22.695  1.00  0.00    -0.200 F 
ATOM     90  C   UNL A   1      53.821  27.087  24.777  1.00  0.00     0.200 A 
ATOM     91  F   UNL A   1      54.136  26.013  26.853  1.00  0.00    -0.200 F 
ATOM     92  F   UNL A   1      55.108  26.889  24.460  1.00  0.00    -0.200 F 
ENDBRANCH  58  82
BRANCH  70  93
ATOM     93  C   UNL A   1      47.427  32.551  28.435  1.00  0.00     0.064 A 
ATOM     94  C   UNL A   1      47.395  33.589  27.490  1.00  0.00     0.173 A 
ATOM     95  C   UNL A   1      47.788  32.865  29.751  1.00  0.00     0.173 A 
ATOM     96  F   UNL A   1      47.074  33.331  26.213  1.00  0.00    -0.203 F 
ATOM     97  C   UNL A   1      47.734  34.890  27.847  1.00  0.00     0.198 A 
ATOM     98  C   UNL A   1      48.105  34.171  30.109  1.00  0.00     0.198 A 
ATOM     99  F   UNL A   1      47.834  31.905  30.686  1.00  0.00    -0.203 F 
ATOM    100  F   UNL A   1      47.739  35.859  26.920  1.00  0.00    -0.200 F 
ATOM    101  C   UNL A   1      48.085  35.180  29.157  1.00  0.00     0.200 A 
ATOM    102  F   UNL A   1      48.441  34.454  31.375  1.00  0.00    -0.200 F 
ATOM    103  F   UNL A   1      48.414  36.434  29.500  1.00  0.00    -0.200 F 
ENDBRANCH  70  93
ENDBRANCH  44  45
ENDBRANCH  37  39
ENDBRANCH  36  37
ENDBRANCH  35  36
ENDBRANCH  34  35
ENDBRANCH  33  34
ENDBRANCH  32  33
ENDBRANCH   1  32
TORSDOF 22
ENDMDL
MODEL 2
REMARK VINA RESULT:     -10.6      3.000      9.010
REMARK SMILES CCOc1ccccc1N1CCN(c2ncc(N)cc2C(=O)OCCOCCOCCOC(=O)c2ccc(-c3c4nc(c(-c5c(F)c(F)c(F)c(F)c5F)c5ccc([nH]5)c(-c5c(F)c(F)c(F)c(F)c5F)c5nc(c(-c6c(F)c(F)c(F)c(F)c6F)c6ccc3[nH]6)C=C5)C=C4)cc2)CC1
REMARK SMILES IDX 27 1 26 2 25 3 24 4 23 5 21 6 22 7 20 8 14 9 15 10 16 11
REMARK SMILES IDX 19 12 17 13 13 14 10 15 11 16 99 17 12 18 98 19 9 20 4 21
REMARK SMILES IDX 5 22 6 23 8 24 7 25 3 26 2 27 1 28 18 29 28 32 29 33 30 34
REMARK SMILES IDX 31 35 32 36 33 37 34 38 35 39 36 40 97 41 37 42 96 43 38 44
REMARK SMILES IDX 39 45 40 46 90 47 41 48 95 49 89 50 91 51 42 52 94 53 88 54
REMARK SMILES IDX 87 55 43 57 75 58 55 59 74 60 56 61 59 62 73 63 92 64 57 65
REMARK SMILES IDX 58 66 72 68 93 69 60 70 44 71 45 72 53 73 46 74 47 75 51 76
REMARK SMILES IDX 54 77 48 78 49 79 52 80 50 81 76 82 77 83 85 84 78 85 79 86
REMARK SMILES IDX 83 87 86 88 80 89 81 90 84 91 82 92 61 93 62 94 70 95 63 96
REMARK SMILES IDX 64 97 68 98 71 99 65 100 66 101 69 102 67 103
REMARK H PARENT 18 30 18 31 91 56 59 67
REMARK Flexibility Score: inf
ROOT
ATOM      1  C   UNL A   1      34.009  25.994  25.744  1.00  0.00     0.188 C 
ENDROOT
BRANCH   1   2
ATOM      2  O   UNL A   1      32.779  25.766  26.432  1.00  0.00    -0.376 OA
BRANCH   2   3
ATOM      3  C   UNL A   1      32.068  26.957  26.773  1.00  0.00     0.202 C 
BRANCH   3   4
ATOM      4  C   UNL A   1      32.790  28.194  26.242  1.00  0.00     0.261 C 
BRANCH   4   5
ATOM      5  O   UNL A   1      31.874  29.089  25.584  1.00  0.00    -0.460 OA
BRANCH   5   6
ATOM      6  C   UNL A   1      32.007  29.226  24.244  1.00  0.00     0.342 C 
ATOM      7  O   UNL A   1      33.051  29.258  23.612  1.00  0.00    -0.246 OA
BRANCH   6   8
ATOM      8  C   UNL A   1      30.663  29.311  23.647  1.00  0.00     0.104 A 
ATOM      9  C   UNL A   1      30.150  28.211  22.947  1.00  0.00     0.143 A 
ATOM     10  N   UNL A   1      28.933  28.254  22.361  1.00  0.00    -0.236 NA
ATOM     11  C   UNL A   1      28.201  29.384  22.534  1.00  0.00     0.139 A 
ATOM     12  C   UNL A   1      29.880  30.456  23.820  1.00  0.00     0.046 A 
ATOM     13  C   UNL A   1      28.611  30.504  23.259  1.00  0.00     0.051 A 
BRANCH   9  14
ATOM     14  N   UNL A   1      30.755  26.966  23.104  1.00  0.00    -0.352 N 
ATOM     15  N   UNL A   1      31.314  24.182  23.132  1.00  0.00    -0.365 N 
ATOM     16  C   UNL A   1      32.258  25.099  22.479  1.00  0.00     0.138 C 
ATOM     17  C   UNL A   1      30.499  24.781  24.207  1.00  0.00     0.138 C 
ATOM     18  C   UNL A   1      31.525  26.385  21.996  1.00  0.00     0.139 C 
ATOM     19  C   UNL A   1      29.791  26.035  23.702  1.00  0.00     0.139 C 
BRANCH  15  20
ATOM     20  C   UNL A   1      31.563  22.830  23.313  1.00  0.00     0.079 A 
ATOM     21  C   UNL A   1      31.721  22.329  24.620  1.00  0.00     0.142 A 
ATOM     22  C   UNL A   1      32.263  21.061  24.837  1.00  0.00     0.048 A 
ATOM     23  C   UNL A   1      32.459  20.194  23.768  1.00  0.00     0.004 A 
ATOM     24  C   UNL A   1      31.747  21.938  22.252  1.00  0.00     0.030 A 
ATOM     25  C   UNL A   1      32.168  20.622  22.478  1.00  0.00     0.002 A 
BRANCH  21  26
ATOM     26  O   UNL A   1      31.383  23.112  25.710  1.00  0.00    -0.492 OA
BRANCH  26  27
ATOM     27  C   UNL A   1      30.767  22.332  26.761  1.00  0.00     0.226 C 
ATOM     28  C   UNL A   1      29.433  22.909  27.191  1.00  0.00     0.049 C 
ENDBRANCH  26  27
ENDBRANCH  21  26
ENDBRANCH  15  20
ENDBRANCH   9  14
BRANCH  13  29
ATOM     29  N   UNL A   1      27.776  31.582  23.487  1.00  0.00    -0.397 N 
ATOM     30  H   UNL A   1      28.037  32.279  24.131  1.00  0.00     0.156 HD
ATOM     31  H   UNL A   1      26.921  31.652  23.006  1.00  0.00     0.156 HD
ENDBRANCH  13  29
ENDBRANCH   6   8
ENDBRANCH   5   6
ENDBRANCH   4   5
ENDBRANCH   3   4
ENDBRANCH   2   3
ENDBRANCH   1   2
BRANCH   1  32
ATOM     32  C   UNL A   1      34.560  24.713  25.097  1.00  0.00     0.188 C 
BRANCH  32  33
ATOM     33  O   UNL A   1      35.549  23.954  25.793  1.00  0.00    -0.376 OA
BRANCH  33  34
ATOM     34  C   UNL A   1      35.281  22.586  26.050  1.00  0.00     0.202 C 
BRANCH  34  35
ATOM     35  C   UNL A   1      36.262  21.579  25.436  1.00  0.00     0.261 C 
BRANCH  35  36
ATOM     36  O   UNL A   1      37.511  22.124  24.964  1.00  0.00    -0.460 OA
BRANCH  36  37
ATOM     37  C   UNL A   1      38.595  21.748  25.687  1.00  0.00     0.338 C 
ATOM     38  O   UNL A   1      39.131  20.651  25.674  1.00  0.00    -0.246 OA
BRANCH  37  39
ATOM     39  C   UNL A   1      39.100  22.850  26.547  1.00  0.00     0.060 A 
ATOM     40  C   UNL A   1      38.560  24.125  26.348  1.00  0.00     0.016 A 
ATOM     41  C   UNL A   1      40.186  22.694  27.416  1.00  0.00     0.016 A 
ATOM     42  C   UNL A   1      39.129  25.238  26.976  1.00  0.00     0.010 A 
ATOM     43  C   UNL A   1      40.772  23.821  28.028  1.00  0.00     0.010 A 
ATOM     44  C   UNL A   1      40.269  25.110  27.795  1.00  0.00    -0.014 A 
BRANCH  44  45
ATOM     45  C   UNL A   1      40.959  26.362  28.241  1.00  0.00     0.031 A 
ATOM     46  C   UNL A   1      42.285  26.708  27.654  1.00  0.00     0.074 A 
ATOM     47  C   UNL A   1      40.450  27.215  29.150  1.00  0.00     0.049 A 
ATOM     48  N   UNL A   1      42.987  27.799  27.811  1.00  0.00    -0.248 NA
ATOM     49  C   UNL A   1      42.950  25.655  26.875  1.00  0.00     0.031 C 
ATOM     50  C   UNL A   1      39.324  26.910  29.992  1.00  0.00     0.029 A 
ATOM     51  N   UNL A   1      40.737  28.527  29.463  1.00  0.00    -0.354 N 
ATOM     52  C   UNL A   1      44.221  27.525  27.252  1.00  0.00     0.074 A 
ATOM     53  C   UNL A   1      44.139  26.200  26.668  1.00  0.00     0.031 C 
ATOM     54  C   UNL A   1      38.853  28.040  30.545  1.00  0.00     0.029 A 
ATOM     55  C   UNL A   1      39.705  29.147  30.150  1.00  0.00     0.049 A 
ATOM     56  H   UNL A   1      41.582  28.974  29.226  1.00  0.00     0.167 HD
ATOM     57  C   UNL A   1      45.341  28.280  27.317  1.00  0.00     0.037 A 
ATOM     58  C   UNL A   1      39.460  30.455  30.376  1.00  0.00     0.037 A 
ATOM     59  C   UNL A   1      45.414  29.573  27.947  1.00  0.00     0.049 A 
ATOM     60  C   UNL A   1      40.607  31.397  30.152  1.00  0.00     0.074 A 
ATOM     61  C   UNL A   1      46.513  30.397  28.107  1.00  0.00     0.029 A 
ATOM     62  N   UNL A   1      44.336  30.232  28.525  1.00  0.00    -0.354 N 
ATOM     63  N   UNL A   1      41.778  31.139  29.624  1.00  0.00    -0.248 NA
ATOM     64  C   UNL A   1      40.462  32.767  30.664  1.00  0.00     0.031 C 
ATOM     65  C   UNL A   1      46.106  31.544  28.799  1.00  0.00     0.029 A 
ATOM     66  C   UNL A   1      44.743  31.459  29.028  1.00  0.00     0.049 A 
ATOM     67  H   UNL A   1      43.419  29.880  28.571  1.00  0.00     0.167 HD
ATOM     68  C   UNL A   1      42.543  32.270  29.840  1.00  0.00     0.074 A 
ATOM     69  C   UNL A   1      41.669  33.265  30.430  1.00  0.00     0.031 C 
ATOM     70  C   UNL A   1      43.872  32.431  29.639  1.00  0.00     0.037 A 
BRANCH  57  71
ATOM     71  C   UNL A   1      46.593  27.647  26.797  1.00  0.00     0.064 A 
ATOM     72  C   UNL A   1      46.927  27.671  25.436  1.00  0.00     0.173 A 
ATOM     73  C   UNL A   1      47.441  26.952  27.674  1.00  0.00     0.173 A 
ATOM     74  F   UNL A   1      46.127  28.290  24.556  1.00  0.00    -0.203 F 
ATOM     75  C   UNL A   1      48.050  26.995  24.967  1.00  0.00     0.198 A 
ATOM     76  C   UNL A   1      48.578  26.304  27.206  1.00  0.00     0.198 A 
ATOM     77  F   UNL A   1      47.154  26.887  28.983  1.00  0.00    -0.203 F 
ATOM     78  F   UNL A   1      48.315  26.972  23.654  1.00  0.00    -0.200 F 
ATOM     79  C   UNL A   1      48.876  26.316  25.852  1.00  0.00     0.200 A 
ATOM     80  F   UNL A   1      49.373  25.648  28.062  1.00  0.00    -0.200 F 
ATOM     81  F   UNL A   1      49.950  25.658  25.396  1.00  0.00    -0.200 F 
ENDBRANCH  57  71
BRANCH  58  82
ATOM     82  C   UNL A   1      38.134  30.968  30.840  1.00  0.00     0.064 A 
ATOM     83  C   UNL A   1      37.118  31.238  29.901  1.00  0.00     0.173 A 
ATOM     84  C   UNL A   1      37.835  31.229  32.184  1.00  0.00     0.173 A 
ATOM     85  F   UNL A   1      37.348  31.049  28.593  1.00  0.00    -0.203 F 
ATOM     86  C   UNL A   1      35.877  31.749  30.287  1.00  0.00     0.198 A 
ATOM     87  C   UNL A   1      36.576  31.694  32.575  1.00  0.00     0.198 A 
ATOM     88  F   UNL A   1      38.767  31.044  33.130  1.00  0.00    -0.203 F 
ATOM     89  F   UNL A   1      34.959  32.053  29.359  1.00  0.00    -0.200 F 
ATOM     90  C   UNL A   1      35.602  31.962  31.627  1.00  0.00     0.200 A 
ATOM     91  F   UNL A   1      36.316  31.897  33.873  1.00  0.00    -0.200 F 
ATOM     92  F   UNL A   1      34.409  32.447  32.002  1.00  0.00    -0.200 F 
ENDBRANCH  58  82
BRANCH  70  93
ATOM     93  C   UNL A   1      44.466  33.719  30.115  1.00  0.00     0.064 A 
ATOM     94  C   UNL A   1      44.966  33.847  31.420  1.00  0.00     0.173 A 
ATOM     95  C   UNL A   1      44.548  34.826  29.262  1.00  0.00     0.173 A 
ATOM     96  F   UNL A   1      44.890  32.819  32.278  1.00  0.00    -0.203 F 
ATOM     97  C   UNL A   1      45.510  35.050  31.861  1.00  0.00     0.198 A 
ATOM     98  C   UNL A   1      45.111  36.020  29.699  1.00  0.00     0.198 A 
ATOM     99  F   UNL A   1      44.080  34.749  28.008  1.00  0.00    -0.203 F 
ATOM    100  F   UNL A   1      45.943  35.166  33.124  1.00  0.00    -0.200 F 
ATOM    101  C   UNL A   1      45.585  36.134  30.999  1.00  0.00     0.200 A 
ATOM    102  F   UNL A   1      45.188  37.067  28.866  1.00  0.00    -0.200 F 
ATOM    103  F   UNL A   1      46.107  37.293  31.424  1.00  0.00    -0.200 F 
ENDBRANCH  70  93
ENDBRANCH  44  45
ENDBRANCH  37  39
ENDBRANCH  36  37
ENDBRANCH  35  36
ENDBRANCH  34  35
ENDBRANCH  33  34
ENDBRANCH  32  33
ENDBRANCH   1  32
TORSDOF 22
ENDMDL
MODEL 3
REMARK VINA RESULT:     -10.5      6.255     10.745
REMARK SMILES CCOc1ccccc1N1CCN(c2ncc(N)cc2C(=O)OCCOCCOCCOC(=O)c2ccc(-c3c4nc(c(-c5c(F)c(F)c(F)c(F)c5F)c5ccc([nH]5)c(-c5c(F)c(F)c(F)c(F)c5F)c5nc(c(-c6c(F)c(F)c(F)c(F)c6F)c6ccc3[nH]6)C=C5)C=C4)cc2)CC1
REMARK SMILES IDX 27 1 26 2 25 3 24 4 23 5 21 6 22 7 20 8 14 9 15 10 16 11
REMARK SMILES IDX 19 12 17 13 13 14 10 15 11 16 99 17 12 18 98 19 9 20 4 21
REMARK SMILES IDX 5 22 6 23 8 24 7 25 3 26 2 27 1 28 18 29 28 32 29 33 30 34
REMARK SMILES IDX 31 35 32 36 33 37 34 38 35 39 36 40 97 41 37 42 96 43 38 44
REMARK SMILES IDX 39 45 40 46 90 47 41 48 95 49 89 50 91 51 42 52 94 53 88 54
REMARK SMILES IDX 87 55 43 57 75 58 55 59 74 60 56 61 59 62 73 63 92 64 57 65
REMARK SMILES IDX 58 66 72 68 93 69 60 70 44 71 45 72 53 73 46 74 47 75 51 76
REMARK SMILES IDX 54 77 48 78 49 79 52 80 50 81 76 82 77 83 85 84 78 85 79 86
REMARK SMILES IDX 83 87 86 88 80 89 81 90 84 91 82 92 61 93 62 94 70 95 63 96
REMARK SMILES IDX 64 97 68 98 71 99 65 100 66 101 69 102 67 103
REMARK H PARENT 18 30 18 31 91 56 59 67
REMARK Flexibility Score: inf
ROOT
ATOM      1  C   UNL A   1      37.738  21.043  24.995  1.00  0.00     0.188 C 
ENDROOT
BRANCH   1   2
ATOM      2  O   UNL A   1      36.954  22.170  25.385  1.00  0.00    -0.376 OA
BRANCH   2   3
ATOM      3  C   UNL A   1      37.019  23.272  24.479  1.00  0.00     0.202 C 
BRANCH   3   4
ATOM      4  C   UNL A   1      35.620  23.783  24.142  1.00  0.00     0.261 C 
BRANCH   4   5
ATOM      5  O   UNL A   1      35.177  23.285  22.866  1.00  0.00    -0.460 OA
BRANCH   5   6
ATOM      6  C   UNL A   1      33.842  23.285  22.638  1.00  0.00     0.342 C 
ATOM      7  O   UNL A   1      33.274  23.656  21.623  1.00  0.00    -0.246 OA
BRANCH   6   8
ATOM      8  C   UNL A   1      33.165  22.734  23.825  1.00  0.00     0.104 A 
ATOM      9  C   UNL A   1      32.367  23.574  24.613  1.00  0.00     0.143 A 
ATOM     10  N   UNL A   1      31.749  23.118  25.724  1.00  0.00    -0.236 NA
ATOM     11  C   UNL A   1      31.880  21.797  26.009  1.00  0.00     0.139 A 
ATOM     12  C   UNL A   1      33.270  21.376  24.135  1.00  0.00     0.046 A 
ATOM     13  C   UNL A   1      32.610  20.880  25.252  1.00  0.00     0.051 A 
BRANCH   9  14
ATOM     14  N   UNL A   1      31.960  24.802  24.097  1.00  0.00    -0.352 N 
ATOM     15  N   UNL A   1      30.831  27.386  23.757  1.00  0.00    -0.365 N 
ATOM     16  C   UNL A   1      32.248  27.170  23.430  1.00  0.00     0.138 C 
ATOM     17  C   UNL A   1      29.975  26.188  23.655  1.00  0.00     0.138 C 
ATOM     18  C   UNL A   1      32.824  25.980  24.254  1.00  0.00     0.139 C 
ATOM     19  C   UNL A   1      30.563  25.043  24.475  1.00  0.00     0.139 C 
BRANCH  15  20
ATOM     20  C   UNL A   1      30.160  28.571  23.499  1.00  0.00     0.079 A 
ATOM     21  C   UNL A   1      30.581  29.753  24.138  1.00  0.00     0.142 A 
ATOM     22  C   UNL A   1      29.768  30.887  24.148  1.00  0.00     0.048 A 
ATOM     23  C   UNL A   1      28.627  30.935  23.354  1.00  0.00     0.004 A 
ATOM     24  C   UNL A   1      29.021  28.643  22.690  1.00  0.00     0.030 A 
ATOM     25  C   UNL A   1      28.273  29.823  22.598  1.00  0.00     0.002 A 
BRANCH  21  26
ATOM     26  O   UNL A   1      31.792  29.788  24.807  1.00  0.00    -0.492 OA
BRANCH  26  27
ATOM     27  C   UNL A   1      31.694  30.500  26.060  1.00  0.00     0.226 C 
ATOM     28  C   UNL A   1      32.434  29.792  27.178  1.00  0.00     0.049 C 
ENDBRANCH  26  27
ENDBRANCH  21  26
ENDBRANCH  15  20
ENDBRANCH   9  14
BRANCH  13  29
ATOM     29  N   UNL A   1      32.617  19.527  25.536  1.00  0.00    -0.397 N 
ATOM     30  H   UNL A   1      33.333  19.145  26.094  1.00  0.00     0.156 HD
ATOM     31  H   UNL A   1      31.907  18.946  25.182  1.00  0.00     0.156 HD
ENDBRANCH  13  29
ENDBRANCH   6   8
ENDBRANCH   5   6
ENDBRANCH   4   5
ENDBRANCH   3   4
ENDBRANCH   2   3
ENDBRANCH   1   2
BRANCH   1  32
ATOM     32  C   UNL A   1      39.012  20.899  25.842  1.00  0.00     0.188 C 
BRANCH  32  33
ATOM     33  O   UNL A   1      39.369  21.948  26.743  1.00  0.00    -0.376 OA
BRANCH  33  34
ATOM     34  C   UNL A   1      40.746  22.223  26.935  1.00  0.00     0.202 C 
BRANCH  34  35
ATOM     35  C   UNL A   1      41.223  23.617  26.505  1.00  0.00     0.261 C 
BRANCH  35  36
ATOM     36  O   UNL A   1      40.186  24.584  26.246  1.00  0.00    -0.460 OA
BRANCH  36  37
ATOM     37  C   UNL A   1      40.613  25.871  26.224  1.00  0.00     0.338 C 
ATOM     38  O   UNL A   1      41.333  26.382  25.380  1.00  0.00    -0.246 OA
BRANCH  37  39
ATOM     39  C   UNL A   1      40.101  26.648  27.382  1.00  0.00     0.060 A 
ATOM     40  C   UNL A   1      40.355  28.023  27.403  1.00  0.00     0.016 A 
ATOM     41  C   UNL A   1      39.527  26.041  28.506  1.00  0.00     0.016 A 
ATOM     42  C   UNL A   1      40.081  28.774  28.551  1.00  0.00     0.010 A 
ATOM     43  C   UNL A   1      39.275  26.796  29.670  1.00  0.00     0.010 A 
ATOM     44  C   UNL A   1      39.574  28.167  29.717  1.00  0.00    -0.014 A 
BRANCH  44  45
ATOM     45  C   UNL A   1      39.527  28.981  30.973  1.00  0.00     0.031 A 
ATOM     46  C   UNL A   1      40.726  29.021  31.858  1.00  0.00     0.074 A 
ATOM     47  C   UNL A   1      38.456  29.699  31.360  1.00  0.00     0.049 A 
ATOM     48  N   UNL A   1      40.934  29.756  32.917  1.00  0.00    -0.248 NA
ATOM     49  C   UNL A   1      41.780  28.037  31.574  1.00  0.00     0.031 C 
ATOM     50  C   UNL A   1      37.149  29.571  30.770  1.00  0.00     0.029 A 
ATOM     51  N   UNL A   1      38.299  30.731  32.262  1.00  0.00    -0.354 N 
ATOM     52  C   UNL A   1      42.083  29.250  33.495  1.00  0.00     0.074 A 
ATOM     53  C   UNL A   1      42.579  28.209  32.616  1.00  0.00     0.031 C 
ATOM     54  C   UNL A   1      36.387  30.618  31.126  1.00  0.00     0.029 A 
ATOM     55  C   UNL A   1      37.139  31.456  32.041  1.00  0.00     0.049 A 
ATOM     56  H   UNL A   1      38.940  30.929  32.982  1.00  0.00     0.167 HD
ATOM     57  C   UNL A   1      42.607  29.568  34.701  1.00  0.00     0.037 A 
ATOM     58  C   UNL A   1      36.767  32.675  32.486  1.00  0.00     0.037 A 
ATOM     59  C   UNL A   1      42.069  30.572  35.581  1.00  0.00     0.049 A 
ATOM     60  C   UNL A   1      37.542  33.227  33.647  1.00  0.00     0.074 A 
ATOM     61  C   UNL A   1      42.500  30.937  36.845  1.00  0.00     0.029 A 
ATOM     62  N   UNL A   1      40.974  31.376  35.289  1.00  0.00    -0.354 N 
ATOM     63  N   UNL A   1      38.630  32.749  34.198  1.00  0.00    -0.248 NA
ATOM     64  C   UNL A   1      36.981  34.400  34.333  1.00  0.00     0.031 C 
ATOM     65  C   UNL A   1      41.655  31.944  37.325  1.00  0.00     0.029 A 
ATOM     66  C   UNL A   1      40.726  32.244  36.342  1.00  0.00     0.049 A 
ATOM     67  H   UNL A   1      40.451  31.335  34.457  1.00  0.00     0.167 HD
ATOM     68  C   UNL A   1      38.821  33.487  35.351  1.00  0.00     0.074 A 
ATOM     69  C   UNL A   1      37.814  34.529  35.357  1.00  0.00     0.031 C 
ATOM     70  C   UNL A   1      39.704  33.260  36.351  1.00  0.00     0.037 A 
BRANCH  57  71
ATOM     71  C   UNL A   1      43.747  28.719  35.167  1.00  0.00     0.064 A 
ATOM     72  C   UNL A   1      45.081  29.050  34.893  1.00  0.00     0.173 A 
ATOM     73  C   UNL A   1      43.490  27.519  35.851  1.00  0.00     0.173 A 
ATOM     74  F   UNL A   1      45.372  30.166  34.209  1.00  0.00    -0.203 F 
ATOM     75  C   UNL A   1      46.116  28.194  35.259  1.00  0.00     0.198 A 
ATOM     76  C   UNL A   1      44.529  26.682  36.241  1.00  0.00     0.198 A 
ATOM     77  F   UNL A   1      42.229  27.152  36.122  1.00  0.00    -0.203 F 
ATOM     78  F   UNL A   1      47.379  28.494  34.927  1.00  0.00    -0.200 F 
ATOM     79  C   UNL A   1      45.840  27.014  35.936  1.00  0.00     0.200 A 
ATOM     80  F   UNL A   1      44.260  25.543  36.894  1.00  0.00    -0.200 F 
ATOM     81  F   UNL A   1      46.838  26.188  36.277  1.00  0.00    -0.200 F 
ENDBRANCH  57  71
BRANCH  58  82
ATOM     82  C   UNL A   1      35.638  33.453  31.886  1.00  0.00     0.064 A 
ATOM     83  C   UNL A   1      35.739  33.927  30.562  1.00  0.00     0.173 A 
ATOM     84  C   UNL A   1      34.465  33.771  32.582  1.00  0.00     0.173 A 
ATOM     85  F   UNL A   1      36.851  33.694  29.850  1.00  0.00    -0.203 F 
ATOM     86  C   UNL A   1      34.723  34.685  29.974  1.00  0.00     0.198 A 
ATOM     87  C   UNL A   1      33.428  34.487  31.977  1.00  0.00     0.198 A 
ATOM     88  F   UNL A   1      34.317  33.397  33.861  1.00  0.00    -0.203 F 
ATOM     89  F   UNL A   1      34.882  35.172  28.736  1.00  0.00    -0.200 F 
ATOM     90  C   UNL A   1      33.561  34.951  30.678  1.00  0.00     0.200 A 
ATOM     91  F   UNL A   1      32.305  34.740  32.663  1.00  0.00    -0.200 F 
ATOM     92  F   UNL A   1      32.582  35.673  30.115  1.00  0.00    -0.200 F 
ENDBRANCH  58  82
BRANCH  70  93
ATOM     93  C   UNL A   1      39.579  34.131  37.561  1.00  0.00     0.064 A 
ATOM     94  C   UNL A   1      38.864  33.703  38.691  1.00  0.00     0.173 A 
ATOM     95  C   UNL A   1      40.183  35.393  37.598  1.00  0.00     0.173 A 
ATOM     96  F   UNL A   1      38.252  32.509  38.692  1.00  0.00    -0.203 F 
ATOM     97  C   UNL A   1      38.743  34.521  39.810  1.00  0.00     0.198 A 
ATOM     98  C   UNL A   1      40.077  36.199  38.727  1.00  0.00     0.198 A 
ATOM     99  F   UNL A   1      40.872  35.844  36.539  1.00  0.00    -0.203 F 
ATOM    100  F   UNL A   1      38.021  34.112  40.863  1.00  0.00    -0.200 F 
ATOM    101  C   UNL A   1      39.353  35.766  39.828  1.00  0.00     0.200 A 
ATOM    102  F   UNL A   1      40.669  37.401  38.746  1.00  0.00    -0.200 F 
ATOM    103  F   UNL A   1      39.234  36.555  40.905  1.00  0.00    -0.200 F 
ENDBRANCH  70  93
ENDBRANCH  44  45
ENDBRANCH  37  39
ENDBRANCH  36  37
ENDBRANCH  35  36
ENDBRANCH  34  35
ENDBRANCH  33  34
ENDBRANCH  32  33
ENDBRANCH   1  32
TORSDOF 22
ENDMDL
