MODEL 1
REMARK VINA RESULT:     -11.2      0.000      0.000
REMARK SMILES C[C@H]1CCC[C@@H]1n1c(SCC(=O)OCCOCCOCCOC(=O)c2ccc(-c3c4nc(c(-c5c(F)c(F)c(F)c(F)c5F)c5ccc([nH]5)c(-c5c(F)c(F)c(F)c(F)c5F)c5nc(c(-c6c(F)c(F)c(F)c(F)c6F)c6ccc3[nH]6)C=C5)C=C4)cc2)nc2cnccc21
REMARK SMILES IDX 17 1 16 2 15 3 14 4 13 5 11 6 12 7 10 8 9 9 8 10 7 11 94 12
REMARK SMILES IDX 88 13 89 14 93 15 90 16 92 17 91 18 6 19 1 20 2 21 3 22 4 23
REMARK SMILES IDX 5 24 18 25 19 26 20 27 21 28 22 29 23 30 24 31 25 32 26 33
REMARK SMILES IDX 87 34 27 35 86 36 28 37 29 38 30 39 80 40 31 41 85 42 79 43
REMARK SMILES IDX 81 44 32 45 84 46 78 47 77 48 33 50 65 51 45 52 64 53 46 54
REMARK SMILES IDX 49 55 63 56 82 57 47 58 48 59 62 61 83 62 50 63 34 64 35 65
REMARK SMILES IDX 43 66 36 67 37 68 41 69 44 70 38 71 39 72 42 73 40 74 66 75
REMARK SMILES IDX 67 76 75 77 68 78 69 79 73 80 76 81 70 82 71 83 74 84 72 85
REMARK SMILES IDX 51 86 52 87 60 88 53 89 54 90 58 91 61 92 55 93 56 94 59 95
REMARK SMILES IDX 57 96
REMARK H PARENT 81 49 49 60
REMARK Flexibility Score: inf
ROOT
ATOM      1  C   UNL A   1      42.226  19.236  27.051  1.00  0.00     0.188 C 
ENDROOT
BRANCH   1   2
ATOM      2  O   UNL A   1      41.019  19.945  27.286  1.00  0.00    -0.376 OA
BRANCH   2   3
ATOM      3  C   UNL A   1      40.413  20.577  26.154  1.00  0.00     0.202 C 
BRANCH   3   4
ATOM      4  C   UNL A   1      39.315  21.605  26.467  1.00  0.00     0.261 C 
BRANCH   4   5
ATOM      5  O   UNL A   1      38.733  21.993  25.214  1.00  0.00    -0.463 OA
BRANCH   5   6
ATOM      6  C   UNL A   1      37.513  21.494  24.883  1.00  0.00     0.316 C 
ATOM      7  O   UNL A   1      37.151  20.349  25.120  1.00  0.00    -0.251 OA
BRANCH   6   8
ATOM      8  C   UNL A   1      36.645  22.529  24.175  1.00  0.00     0.200 C 
BRANCH   8   9
ATOM      9  S   UNL A   1      36.115  23.837  25.338  1.00  0.00    -0.076 SA
BRANCH   9  10
ATOM     10  C   UNL A   1      34.459  23.405  25.681  1.00  0.00     0.169 A 
ATOM     11  N   UNL A   1      33.384  23.695  24.783  1.00  0.00    -0.315 N 
ATOM     12  C   UNL A   1      33.032  22.333  24.441  1.00  0.00     0.072 A 
ATOM     13  N   UNL A   1      34.253  22.304  26.359  1.00  0.00    -0.221 NA
ATOM     14  C   UNL A   1      33.582  21.534  25.468  1.00  0.00     0.108 A 
ATOM     15  C   UNL A   1      32.428  21.599  23.389  1.00  0.00     0.049 A 
ATOM     16  C   UNL A   1      33.473  20.129  25.447  1.00  0.00     0.141 A 
ATOM     17  C   UNL A   1      32.322  20.212  23.462  1.00  0.00     0.113 A 
ATOM     18  N   UNL A   1      32.816  19.479  24.460  1.00  0.00    -0.262 NA
BRANCH  11  19
ATOM     19  C   UNL A   1      32.565  24.994  25.031  1.00  0.00     0.093 C 
ATOM     20  C   UNL A   1      33.275  27.531  26.386  1.00  0.00     0.010 C 
ATOM     21  C   UNL A   1      32.541  26.179  26.190  1.00  0.00     0.009 C 
ATOM     22  C   UNL A   1      31.103  26.761  26.047  1.00  0.00     0.005 C 
ATOM     23  C   UNL A   1      30.192  25.611  25.833  1.00  0.00     0.002 C 
ATOM     24  C   UNL A   1      31.080  24.543  25.246  1.00  0.00     0.026 C 
ENDBRANCH  11  19
ENDBRANCH   9  10
ENDBRANCH   8   9
ENDBRANCH   6   8
ENDBRANCH   5   6
ENDBRANCH   4   5
ENDBRANCH   3   4
ENDBRANCH   2   3
ENDBRANCH   1   2
BRANCH   1  25
ATOM     25  C   UNL A   1      42.711  19.172  25.595  1.00  0.00     0.188 C 
BRANCH  25  26
ATOM     26  O   UNL A   1      43.940  18.438  25.519  1.00  0.00    -0.376 OA
BRANCH  26  27
ATOM     27  C   UNL A   1      44.866  18.914  24.524  1.00  0.00     0.202 C 
BRANCH  27  28
ATOM     28  C   UNL A   1      45.995  19.832  25.119  1.00  0.00     0.261 C 
BRANCH  28  29
ATOM     29  O   UNL A   1      45.983  21.254  24.665  1.00  0.00    -0.460 OA
BRANCH  29  30
ATOM     30  C   UNL A   1      44.822  21.905  24.270  1.00  0.00     0.338 C 
ATOM     31  O   UNL A   1      44.464  22.048  23.111  1.00  0.00    -0.246 OA
BRANCH  30  32
ATOM     32  C   UNL A   1      44.118  22.558  25.453  1.00  0.00     0.060 A 
ATOM     33  C   UNL A   1      42.859  23.088  25.237  1.00  0.00     0.016 A 
ATOM     34  C   UNL A   1      44.716  22.854  26.692  1.00  0.00     0.016 A 
ATOM     35  C   UNL A   1      42.419  24.161  26.026  1.00  0.00     0.010 A 
ATOM     36  C   UNL A   1      44.269  23.934  27.511  1.00  0.00     0.010 A 
ATOM     37  C   UNL A   1      43.172  24.689  27.114  1.00  0.00    -0.014 A 
BRANCH  37  38
ATOM     38  C   UNL A   1      42.684  25.987  27.692  1.00  0.00     0.031 A 
ATOM     39  C   UNL A   1      43.697  27.056  27.515  1.00  0.00     0.074 A 
ATOM     40  C   UNL A   1      41.557  26.402  28.333  1.00  0.00     0.049 A 
ATOM     41  N   UNL A   1      44.426  27.614  28.429  1.00  0.00    -0.248 NA
ATOM     42  C   UNL A   1      44.057  27.383  26.130  1.00  0.00     0.031 C 
ATOM     43  C   UNL A   1      40.261  25.740  28.457  1.00  0.00     0.029 A 
ATOM     44  N   UNL A   1      41.345  27.597  29.019  1.00  0.00    -0.354 N 
ATOM     45  C   UNL A   1      45.274  28.456  27.733  1.00  0.00     0.074 A 
ATOM     46  C   UNL A   1      45.110  28.172  26.326  1.00  0.00     0.031 C 
ATOM     47  C   UNL A   1      39.365  26.592  29.014  1.00  0.00     0.029 A 
ATOM     48  C   UNL A   1      40.023  27.841  29.384  1.00  0.00     0.049 A 
ATOM     49  H   UNL A   1      42.075  28.224  29.228  1.00  0.00     0.167 HD
ATOM     50  C   UNL A   1      45.896  29.512  28.310  1.00  0.00     0.037 A 
ATOM     51  C   UNL A   1      39.483  28.978  29.907  1.00  0.00     0.037 A 
ATOM     52  C   UNL A   1      45.892  29.506  29.740  1.00  0.00     0.049 A 
ATOM     53  C   UNL A   1      40.538  29.793  30.561  1.00  0.00     0.074 A 
ATOM     54  C   UNL A   1      46.666  28.991  30.756  1.00  0.00     0.029 A 
ATOM     55  N   UNL A   1      44.734  29.949  30.305  1.00  0.00    -0.354 N 
ATOM     56  N   UNL A   1      41.057  29.540  31.728  1.00  0.00    -0.248 NA
ATOM     57  C   UNL A   1      41.134  30.918  29.843  1.00  0.00     0.031 C 
ATOM     58  C   UNL A   1      45.885  29.068  31.951  1.00  0.00     0.029 A 
ATOM     59  C   UNL A   1      44.646  29.611  31.631  1.00  0.00     0.049 A 
ATOM     60  H   UNL A   1      44.041  30.452  29.818  1.00  0.00     0.167 HD
ATOM     61  C   UNL A   1      42.268  30.196  31.712  1.00  0.00     0.074 A 
ATOM     62  C   UNL A   1      42.180  31.164  30.633  1.00  0.00     0.031 C 
ATOM     63  C   UNL A   1      43.363  29.634  32.292  1.00  0.00     0.037 A 
BRANCH  50  64
ATOM     64  C   UNL A   1      46.084  30.762  27.514  1.00  0.00     0.064 A 
ATOM     65  C   UNL A   1      47.352  31.304  27.287  1.00  0.00     0.173 A 
ATOM     66  C   UNL A   1      44.976  31.552  27.130  1.00  0.00     0.173 A 
ATOM     67  F   UNL A   1      48.450  30.658  27.704  1.00  0.00    -0.203 F 
ATOM     68  C   UNL A   1      47.499  32.542  26.657  1.00  0.00     0.198 A 
ATOM     69  C   UNL A   1      45.125  32.750  26.448  1.00  0.00     0.198 A 
ATOM     70  F   UNL A   1      43.726  31.202  27.471  1.00  0.00    -0.203 F 
ATOM     71  F   UNL A   1      48.722  33.066  26.497  1.00  0.00    -0.200 F 
ATOM     72  C   UNL A   1      46.389  33.251  26.217  1.00  0.00     0.200 A 
ATOM     73  F   UNL A   1      44.038  33.429  26.056  1.00  0.00    -0.200 F 
ATOM     74  F   UNL A   1      46.534  34.434  25.608  1.00  0.00    -0.200 F 
ENDBRANCH  50  64
BRANCH  51  75
ATOM     75  C   UNL A   1      38.096  29.538  29.832  1.00  0.00     0.064 A 
ATOM     76  C   UNL A   1      37.377  29.877  31.003  1.00  0.00     0.173 A 
ATOM     77  C   UNL A   1      37.559  30.028  28.629  1.00  0.00     0.173 A 
ATOM     78  F   UNL A   1      37.808  29.484  32.211  1.00  0.00    -0.203 F 
ATOM     79  C   UNL A   1      36.242  30.696  30.971  1.00  0.00     0.198 A 
ATOM     80  C   UNL A   1      36.413  30.828  28.598  1.00  0.00     0.198 A 
ATOM     81  F   UNL A   1      38.184  29.823  27.463  1.00  0.00    -0.203 F 
ATOM     82  F   UNL A   1      35.651  31.065  32.117  1.00  0.00    -0.200 F 
ATOM     83  C   UNL A   1      35.769  31.182  29.768  1.00  0.00     0.200 A 
ATOM     84  F   UNL A   1      35.975  31.310  27.426  1.00  0.00    -0.200 F 
ATOM     85  F   UNL A   1      34.725  32.022  29.739  1.00  0.00    -0.200 F 
ENDBRANCH  51  75
BRANCH  63  86
ATOM     86  C   UNL A   1      43.145  28.853  33.546  1.00  0.00     0.064 A 
ATOM     87  C   UNL A   1      43.029  27.456  33.605  1.00  0.00     0.173 A 
ATOM     88  C   UNL A   1      43.035  29.567  34.749  1.00  0.00     0.173 A 
ATOM     89  F   UNL A   1      43.207  26.701  32.511  1.00  0.00    -0.203 F 
ATOM     90  C   UNL A   1      42.750  26.815  34.812  1.00  0.00     0.198 A 
ATOM     91  C   UNL A   1      42.798  28.919  35.957  1.00  0.00     0.198 A 
ATOM     92  F   UNL A   1      43.168  30.904  34.754  1.00  0.00    -0.203 F 
ATOM     93  F   UNL A   1      42.597  25.485  34.843  1.00  0.00    -0.200 F 
ATOM     94  C   UNL A   1      42.638  27.545  35.985  1.00  0.00     0.200 A 
ATOM     95  F   UNL A   1      42.726  29.628  37.093  1.00  0.00    -0.200 F 
ATOM     96  F   UNL A   1      42.388  26.923  37.146  1.00  0.00    -0.200 F 
ENDBRANCH  63  86
ENDBRANCH  37  38
ENDBRANCH  30  32
ENDBRANCH  29  30
ENDBRANCH  28  29
ENDBRANCH  27  28
ENDBRANCH  26  27
ENDBRANCH  25  26
ENDBRANCH   1  25
TORSDOF 20
ENDMDL
MODEL 2
REMARK VINA RESULT:     -11.1      1.094      2.310
REMARK SMILES C[C@H]1CCC[C@@H]1n1c(SCC(=O)OCCOCCOCCOC(=O)c2ccc(-c3c4nc(c(-c5c(F)c(F)c(F)c(F)c5F)c5ccc([nH]5)c(-c5c(F)c(F)c(F)c(F)c5F)c5nc(c(-c6c(F)c(F)c(F)c(F)c6F)c6ccc3[nH]6)C=C5)C=C4)cc2)nc2cnccc21
REMARK SMILES IDX 17 1 16 2 15 3 14 4 13 5 11 6 12 7 10 8 9 9 8 10 7 11 94 12
REMARK SMILES IDX 88 13 89 14 93 15 90 16 92 17 91 18 6 19 1 20 2 21 3 22 4 23
REMARK SMILES IDX 5 24 18 25 19 26 20 27 21 28 22 29 23 30 24 31 25 32 26 33
REMARK SMILES IDX 87 34 27 35 86 36 28 37 29 38 30 39 80 40 31 41 85 42 79 43
REMARK SMILES IDX 81 44 32 45 84 46 78 47 77 48 33 50 65 51 45 52 64 53 46 54
REMARK SMILES IDX 49 55 63 56 82 57 47 58 48 59 62 61 83 62 50 63 34 64 35 65
REMARK SMILES IDX 43 66 36 67 37 68 41 69 44 70 38 71 39 72 42 73 40 74 66 75
REMARK SMILES IDX 67 76 75 77 68 78 69 79 73 80 76 81 70 82 71 83 74 84 72 85
REMARK SMILES IDX 51 86 52 87 60 88 53 89 54 90 58 91 61 92 55 93 56 94 59 95
REMARK SMILES IDX 57 96
REMARK H PARENT 81 49 49 60
REMARK Flexibility Score: inf
ROOT
ATOM      1  C   UNL A   1      41.760  19.765  26.956  1.00  0.00     0.188 C 
ENDROOT
BRANCH   1   2
ATOM      2  O   UNL A   1      40.470  20.171  26.523  1.00  0.00    -0.376 OA
BRANCH   2   3
ATOM      3  C   UNL A   1      40.095  21.523  26.802  1.00  0.00     0.202 C 
BRANCH   3   4
ATOM      4  C   UNL A   1      38.840  22.034  26.076  1.00  0.00     0.261 C 
BRANCH   4   5
ATOM      5  O   UNL A   1      38.357  20.956  25.260  1.00  0.00    -0.463 OA
BRANCH   5   6
ATOM      6  C   UNL A   1      37.071  20.998  24.825  1.00  0.00     0.316 C 
ATOM      7  O   UNL A   1      36.269  20.084  24.959  1.00  0.00    -0.251 OA
BRANCH   6   8
ATOM      8  C   UNL A   1      36.741  22.322  24.143  1.00  0.00     0.200 C 
BRANCH   8   9
ATOM      9  S   UNL A   1      35.212  23.047  24.836  1.00  0.00    -0.076 SA
BRANCH   9  10
ATOM     10  C   UNL A   1      34.047  22.790  23.563  1.00  0.00     0.169 A 
ATOM     11  N   UNL A   1      32.677  22.470  23.823  1.00  0.00    -0.315 N 
ATOM     12  C   UNL A   1      32.082  23.680  23.296  1.00  0.00     0.072 A 
ATOM     13  N   UNL A   1      34.191  23.490  22.466  1.00  0.00    -0.221 NA
ATOM     14  C   UNL A   1      33.065  24.244  22.451  1.00  0.00     0.108 A 
ATOM     15  C   UNL A   1      30.919  24.474  23.450  1.00  0.00     0.049 A 
ATOM     16  C   UNL A   1      32.851  25.468  21.788  1.00  0.00     0.141 A 
ATOM     17  C   UNL A   1      30.764  25.654  22.726  1.00  0.00     0.113 A 
ATOM     18  N   UNL A   1      31.689  26.150  21.905  1.00  0.00    -0.262 NA
BRANCH  11  19
ATOM     19  C   UNL A   1      32.270  20.969  23.808  1.00  0.00     0.093 C 
ATOM     20  C   UNL A   1      32.931  18.739  25.643  1.00  0.00     0.010 C 
ATOM     21  C   UNL A   1      32.954  19.548  24.320  1.00  0.00     0.009 C 
ATOM     22  C   UNL A   1      32.232  18.488  23.435  1.00  0.00     0.005 C 
ATOM     23  C   UNL A   1      32.125  19.065  22.074  1.00  0.00     0.002 C 
ATOM     24  C   UNL A   1      32.174  20.554  22.300  1.00  0.00     0.026 C 
ENDBRANCH  11  19
ENDBRANCH   9  10
ENDBRANCH   8   9
ENDBRANCH   6   8
ENDBRANCH   5   6
ENDBRANCH   4   5
ENDBRANCH   3   4
ENDBRANCH   2   3
ENDBRANCH   1   2
BRANCH   1  25
ATOM     25  C   UNL A   1      42.471  18.711  26.094  1.00  0.00     0.188 C 
BRANCH  25  26
ATOM     26  O   UNL A   1      43.047  19.331  24.937  1.00  0.00    -0.376 OA
BRANCH  26  27
ATOM     27  C   UNL A   1      44.391  18.910  24.635  1.00  0.00     0.202 C 
BRANCH  27  28
ATOM     28  C   UNL A   1      45.487  19.863  25.236  1.00  0.00     0.261 C 
BRANCH  28  29
ATOM     29  O   UNL A   1      45.778  21.097  24.450  1.00  0.00    -0.460 OA
BRANCH  29  30
ATOM     30  C   UNL A   1      44.796  22.018  24.107  1.00  0.00     0.338 C 
ATOM     31  O   UNL A   1      44.530  22.358  22.965  1.00  0.00    -0.246 OA
BRANCH  30  32
ATOM     32  C   UNL A   1      44.189  22.671  25.342  1.00  0.00     0.060 A 
ATOM     33  C   UNL A   1      42.879  23.109  25.257  1.00  0.00     0.016 A 
ATOM     34  C   UNL A   1      44.902  23.055  26.493  1.00  0.00     0.016 A 
ATOM     35  C   UNL A   1      42.460  24.183  26.056  1.00  0.00     0.010 A 
ATOM     36  C   UNL A   1      44.478  24.135  27.322  1.00  0.00     0.010 A 
ATOM     37  C   UNL A   1      43.294  24.802  27.032  1.00  0.00    -0.014 A 
BRANCH  37  38
ATOM     38  C   UNL A   1      42.786  26.088  27.619  1.00  0.00     0.031 A 
ATOM     39  C   UNL A   1      43.782  27.174  27.449  1.00  0.00     0.074 A 
ATOM     40  C   UNL A   1      41.653  26.480  28.265  1.00  0.00     0.049 A 
ATOM     41  N   UNL A   1      44.503  27.736  28.365  1.00  0.00    -0.248 NA
ATOM     42  C   UNL A   1      44.135  27.516  26.065  1.00  0.00     0.031 C 
ATOM     43  C   UNL A   1      40.368  25.797  28.386  1.00  0.00     0.029 A 
ATOM     44  N   UNL A   1      41.424  27.667  28.960  1.00  0.00    -0.354 N 
ATOM     45  C   UNL A   1      45.337  28.596  27.674  1.00  0.00     0.074 A 
ATOM     46  C   UNL A   1      45.175  28.320  26.266  1.00  0.00     0.031 C 
ATOM     47  C   UNL A   1      39.460  26.631  28.951  1.00  0.00     0.029 A 
ATOM     48  C   UNL A   1      40.099  27.887  29.328  1.00  0.00     0.049 A 
ATOM     49  H   UNL A   1      42.145  28.303  29.173  1.00  0.00     0.167 HD
ATOM     50  C   UNL A   1      45.943  29.658  28.258  1.00  0.00     0.037 A 
ATOM     51  C   UNL A   1      39.542  29.012  29.861  1.00  0.00     0.037 A 
ATOM     52  C   UNL A   1      45.942  29.642  29.688  1.00  0.00     0.049 A 
ATOM     53  C   UNL A   1      40.585  29.839  30.519  1.00  0.00     0.074 A 
ATOM     54  C   UNL A   1      46.725  29.132  30.698  1.00  0.00     0.029 A 
ATOM     55  N   UNL A   1      44.778  30.062  30.258  1.00  0.00    -0.354 N 
ATOM     56  N   UNL A   1      41.110  29.586  31.683  1.00  0.00    -0.248 NA
ATOM     57  C   UNL A   1      41.163  30.979  29.808  1.00  0.00     0.031 C 
ATOM     58  C   UNL A   1      45.945  29.188  31.896  1.00  0.00     0.029 A 
ATOM     59  C   UNL A   1      44.698  29.714  31.581  1.00  0.00     0.049 A 
ATOM     60  H   UNL A   1      44.076  30.558  29.776  1.00  0.00     0.167 HD
ATOM     61  C   UNL A   1      42.311  30.261  31.671  1.00  0.00     0.074 A 
ATOM     62  C   UNL A   1      42.206  31.235  30.598  1.00  0.00     0.031 C 
ATOM     63  C   UNL A   1      43.416  29.711  32.244  1.00  0.00     0.037 A 
BRANCH  50  64
ATOM     64  C   UNL A   1      46.111  30.916  27.471  1.00  0.00     0.064 A 
ATOM     65  C   UNL A   1      47.370  31.475  27.238  1.00  0.00     0.173 A 
ATOM     66  C   UNL A   1      44.990  31.696  27.101  1.00  0.00     0.173 A 
ATOM     67  F   UNL A   1      48.479  30.839  27.642  1.00  0.00    -0.203 F 
ATOM     68  C   UNL A   1      47.498  32.720  26.617  1.00  0.00     0.198 A 
ATOM     69  C   UNL A   1      45.119  32.902  26.427  1.00  0.00     0.198 A 
ATOM     70  F   UNL A   1      43.747  31.329  27.449  1.00  0.00    -0.203 F 
ATOM     71  F   UNL A   1      48.713  33.260  26.453  1.00  0.00    -0.200 F 
ATOM     72  C   UNL A   1      46.376  33.419  26.191  1.00  0.00     0.200 A 
ATOM     73  F   UNL A   1      44.022  33.570  26.050  1.00  0.00    -0.200 F 
ATOM     74  F   UNL A   1      46.503  34.609  25.590  1.00  0.00    -0.200 F 
ENDBRANCH  50  64
BRANCH  51  75
ATOM     75  C   UNL A   1      38.147  29.551  29.792  1.00  0.00     0.064 A 
ATOM     76  C   UNL A   1      37.417  29.853  30.967  1.00  0.00     0.173 A 
ATOM     77  C   UNL A   1      37.606  30.058  28.598  1.00  0.00     0.173 A 
ATOM     78  F   UNL A   1      37.850  29.442  32.168  1.00  0.00    -0.203 F 
ATOM     79  C   UNL A   1      36.269  30.654  30.948  1.00  0.00     0.198 A 
ATOM     80  C   UNL A   1      36.447  30.839  28.579  1.00  0.00     0.198 A 
ATOM     81  F   UNL A   1      38.239  29.888  27.430  1.00  0.00    -0.203 F 
ATOM     82  F   UNL A   1      35.668  30.989  32.099  1.00  0.00    -0.200 F 
ATOM     83  C   UNL A   1      35.793  31.158  29.753  1.00  0.00     0.200 A 
ATOM     84  F   UNL A   1      36.006  31.339  27.416  1.00  0.00    -0.200 F 
ATOM     85  F   UNL A   1      34.735  31.981  29.738  1.00  0.00    -0.200 F 
ENDBRANCH  51  75
BRANCH  63  86
ATOM     86  C   UNL A   1      43.212  28.919  33.493  1.00  0.00     0.064 A 
ATOM     87  C   UNL A   1      43.091  27.522  33.539  1.00  0.00     0.173 A 
ATOM     88  C   UNL A   1      43.122  29.620  34.705  1.00  0.00     0.173 A 
ATOM     89  F   UNL A   1      43.251  26.777  32.435  1.00  0.00    -0.203 F 
ATOM     90  C   UNL A   1      42.826  26.869  34.743  1.00  0.00     0.198 A 
ATOM     91  C   UNL A   1      42.898  28.961  35.909  1.00  0.00     0.198 A 
ATOM     92  F   UNL A   1      43.260  30.957  34.723  1.00  0.00    -0.203 F 
ATOM     93  F   UNL A   1      42.668  25.539  34.763  1.00  0.00    -0.200 F 
ATOM     94  C   UNL A   1      42.733  27.587  35.925  1.00  0.00     0.200 A 
ATOM     95  F   UNL A   1      42.845  29.658  37.053  1.00  0.00    -0.200 F 
ATOM     96  F   UNL A   1      42.498  26.954  37.083  1.00  0.00    -0.200 F 
ENDBRANCH  63  86
ENDBRANCH  37  38
ENDBRANCH  30  32
ENDBRANCH  29  30
ENDBRANCH  28  29
ENDBRANCH  27  28
ENDBRANCH  26  27
ENDBRANCH  25  26
ENDBRANCH   1  25
TORSDOF 20
ENDMDL
MODEL 3
REMARK VINA RESULT:     -10.6      2.134      3.468
REMARK SMILES C[C@H]1CCC[C@@H]1n1c(SCC(=O)OCCOCCOCCOC(=O)c2ccc(-c3c4nc(c(-c5c(F)c(F)c(F)c(F)c5F)c5ccc([nH]5)c(-c5c(F)c(F)c(F)c(F)c5F)c5nc(c(-c6c(F)c(F)c(F)c(F)c6F)c6ccc3[nH]6)C=C5)C=C4)cc2)nc2cnccc21
REMARK SMILES IDX 17 1 16 2 15 3 14 4 13 5 11 6 12 7 10 8 9 9 8 10 7 11 94 12
REMARK SMILES IDX 88 13 89 14 93 15 90 16 92 17 91 18 6 19 1 20 2 21 3 22 4 23
REMARK SMILES IDX 5 24 18 25 19 26 20 27 21 28 22 29 23 30 24 31 25 32 26 33
REMARK SMILES IDX 87 34 27 35 86 36 28 37 29 38 30 39 80 40 31 41 85 42 79 43
REMARK SMILES IDX 81 44 32 45 84 46 78 47 77 48 33 50 65 51 45 52 64 53 46 54
REMARK SMILES IDX 49 55 63 56 82 57 47 58 48 59 62 61 83 62 50 63 34 64 35 65
REMARK SMILES IDX 43 66 36 67 37 68 41 69 44 70 38 71 39 72 42 73 40 74 66 75
REMARK SMILES IDX 67 76 75 77 68 78 69 79 73 80 76 81 70 82 71 83 74 84 72 85
REMARK SMILES IDX 51 86 52 87 60 88 53 89 54 90 58 91 61 92 55 93 56 94 59 95
REMARK SMILES IDX 57 96
REMARK H PARENT 81 49 49 60
REMARK Flexibility Score: inf
ROOT
ATOM      1  C   UNL A   1      40.415  21.422  26.642  1.00  0.00     0.188 C 
ENDROOT
BRANCH   1   2
ATOM      2  O   UNL A   1      39.348  21.087  25.768  1.00  0.00    -0.376 OA
BRANCH   2   3
ATOM      3  C   UNL A   1      38.235  21.985  25.739  1.00  0.00     0.202 C 
BRANCH   3   4
ATOM      4  C   UNL A   1      37.183  21.715  24.651  1.00  0.00     0.261 C 
BRANCH   4   5
ATOM      5  O   UNL A   1      35.921  21.558  25.317  1.00  0.00    -0.463 OA
BRANCH   5   6
ATOM      6  C   UNL A   1      35.042  20.642  24.831  1.00  0.00     0.316 C 
ATOM      7  O   UNL A   1      35.256  19.439  24.787  1.00  0.00    -0.251 OA
BRANCH   6   8
ATOM      8  C   UNL A   1      33.754  21.293  24.337  1.00  0.00     0.200 C 
BRANCH   8   9
ATOM      9  S   UNL A   1      34.106  22.894  23.526  1.00  0.00    -0.076 SA
BRANCH   9  10
ATOM     10  C   UNL A   1      33.707  24.056  24.766  1.00  0.00     0.169 A 
ATOM     11  N   UNL A   1      32.928  25.226  24.505  1.00  0.00    -0.315 N 
ATOM     12  C   UNL A   1      31.771  24.883  25.305  1.00  0.00     0.072 A 
ATOM     13  N   UNL A   1      33.524  23.600  25.980  1.00  0.00    -0.221 NA
ATOM     14  C   UNL A   1      32.220  23.890  26.206  1.00  0.00     0.108 A 
ATOM     15  C   UNL A   1      30.382  25.152  25.378  1.00  0.00     0.049 A 
ATOM     16  C   UNL A   1      31.344  23.280  27.125  1.00  0.00     0.141 A 
ATOM     17  C   UNL A   1      29.589  24.537  26.344  1.00  0.00     0.113 A 
ATOM     18  N   UNL A   1      30.041  23.630  27.210  1.00  0.00    -0.262 NA
BRANCH  11  19
ATOM     19  C   UNL A   1      33.689  26.552  24.217  1.00  0.00     0.093 C 
ATOM     20  C   UNL A   1      34.222  28.918  25.918  1.00  0.00     0.010 C 
ATOM     21  C   UNL A   1      33.588  28.118  24.750  1.00  0.00     0.009 C 
ATOM     22  C   UNL A   1      34.257  28.913  23.589  1.00  0.00     0.005 C 
ATOM     23  C   UNL A   1      33.791  28.300  22.322  1.00  0.00     0.002 C 
ATOM     24  C   UNL A   1      33.426  26.889  22.709  1.00  0.00     0.026 C 
ENDBRANCH  11  19
ENDBRANCH   9  10
ENDBRANCH   8   9
ENDBRANCH   6   8
ENDBRANCH   5   6
ENDBRANCH   4   5
ENDBRANCH   3   4
ENDBRANCH   2   3
ENDBRANCH   1   2
BRANCH   1  25
ATOM     25  C   UNL A   1      41.814  20.936  26.234  1.00  0.00     0.188 C 
BRANCH  25  26
ATOM     26  O   UNL A   1      42.335  20.048  27.232  1.00  0.00    -0.376 OA
BRANCH  26  27
ATOM     27  C   UNL A   1      43.377  19.168  26.770  1.00  0.00     0.202 C 
BRANCH  27  28
ATOM     28  C   UNL A   1      43.112  18.599  25.328  1.00  0.00     0.261 C 
BRANCH  28  29
ATOM     29  O   UNL A   1      43.781  19.326  24.210  1.00  0.00    -0.460 OA
BRANCH  29  30
ATOM     30  C   UNL A   1      45.119  19.698  24.251  1.00  0.00     0.338 C 
ATOM     31  O   UNL A   1      46.058  18.918  24.224  1.00  0.00    -0.246 OA
BRANCH  30  32
ATOM     32  C   UNL A   1      45.275  21.194  24.487  1.00  0.00     0.060 A 
ATOM     33  C   UNL A   1      46.025  21.596  25.578  1.00  0.00     0.016 A 
ATOM     34  C   UNL A   1      44.557  22.203  23.817  1.00  0.00     0.016 A 
ATOM     35  C   UNL A   1      45.745  22.827  26.189  1.00  0.00     0.010 A 
ATOM     36  C   UNL A   1      44.279  23.464  24.422  1.00  0.00     0.010 A 
ATOM     37  C   UNL A   1      44.775  23.744  25.690  1.00  0.00    -0.014 A 
BRANCH  37  38
ATOM     38  C   UNL A   1      44.419  24.891  26.592  1.00  0.00     0.031 A 
ATOM     39  C   UNL A   1      45.572  25.809  26.757  1.00  0.00     0.074 A 
ATOM     40  C   UNL A   1      43.312  25.273  27.286  1.00  0.00     0.049 A 
ATOM     41  N   UNL A   1      46.299  25.984  27.814  1.00  0.00    -0.248 NA
ATOM     42  C   UNL A   1      46.071  26.446  25.532  1.00  0.00     0.031 C 
ATOM     43  C   UNL A   1      41.936  24.797  27.176  1.00  0.00     0.029 A 
ATOM     44  N   UNL A   1      43.208  26.252  28.273  1.00  0.00    -0.354 N 
ATOM     45  C   UNL A   1      47.298  26.852  27.411  1.00  0.00     0.074 A 
ATOM     46  C   UNL A   1      47.200  26.990  25.977  1.00  0.00     0.031 C 
ATOM     47  C   UNL A   1      41.119  25.584  27.920  1.00  0.00     0.029 A 
ATOM     48  C   UNL A   1      41.906  26.575  28.647  1.00  0.00     0.049 A 
ATOM     49  H   UNL A   1      43.996  26.685  28.674  1.00  0.00     0.167 HD
ATOM     50  C   UNL A   1      48.008  27.608  28.282  1.00  0.00     0.037 A 
ATOM     51  C   UNL A   1      41.482  27.592  29.451  1.00  0.00     0.037 A 
ATOM     52  C   UNL A   1      47.901  27.212  29.652  1.00  0.00     0.049 A 
ATOM     53  C   UNL A   1      42.583  28.035  30.342  1.00  0.00     0.074 A 
ATOM     54  C   UNL A   1      48.525  26.332  30.507  1.00  0.00     0.029 A 
ATOM     55  N   UNL A   1      46.771  27.646  30.280  1.00  0.00    -0.354 N 
ATOM     56  N   UNL A   1      42.980  27.400  31.408  1.00  0.00    -0.248 NA
ATOM     57  C   UNL A   1      43.371  29.215  29.990  1.00  0.00     0.031 C 
ATOM     58  C   UNL A   1      47.676  26.191  31.649  1.00  0.00     0.029 A 
ATOM     59  C   UNL A   1      46.545  26.975  31.453  1.00  0.00     0.049 A 
ATOM     60  H   UNL A   1      46.187  28.358  29.932  1.00  0.00     0.167 HD
ATOM     61  C   UNL A   1      44.264  27.853  31.617  1.00  0.00     0.074 A 
ATOM     62  C   UNL A   1      44.380  29.082  30.851  1.00  0.00     0.031 C 
ATOM     63  C   UNL A   1      45.232  27.001  32.051  1.00  0.00     0.037 A 
BRANCH  50  64
ATOM     64  C   UNL A   1      48.414  28.987  27.876  1.00  0.00     0.064 A 
ATOM     65  C   UNL A   1      47.478  30.011  27.714  1.00  0.00     0.173 A 
ATOM     66  C   UNL A   1      49.735  29.258  27.450  1.00  0.00     0.173 A 
ATOM     67  F   UNL A   1      46.187  29.804  28.010  1.00  0.00    -0.203 F 
ATOM     68  C   UNL A   1      47.858  31.256  27.206  1.00  0.00     0.198 A 
ATOM     69  C   UNL A   1      50.124  30.514  27.006  1.00  0.00     0.198 A 
ATOM     70  F   UNL A   1      50.658  28.286  27.395  1.00  0.00    -0.203 F 
ATOM     71  F   UNL A   1      46.933  32.205  27.008  1.00  0.00    -0.200 F 
ATOM     72  C   UNL A   1      49.182  31.513  26.876  1.00  0.00     0.200 A 
ATOM     73  F   UNL A   1      51.403  30.730  26.669  1.00  0.00    -0.200 F 
ATOM     74  F   UNL A   1      49.544  32.709  26.396  1.00  0.00    -0.200 F 
ENDBRANCH  50  64
BRANCH  51  75
ATOM     75  C   UNL A   1      40.188  28.346  29.491  1.00  0.00     0.064 A 
ATOM     76  C   UNL A   1      39.655  28.950  28.327  1.00  0.00     0.173 A 
ATOM     77  C   UNL A   1      39.305  28.245  30.579  1.00  0.00     0.173 A 
ATOM     78  F   UNL A   1      40.399  29.079  27.218  1.00  0.00    -0.203 F 
ATOM     79  C   UNL A   1      38.319  29.363  28.245  1.00  0.00     0.198 A 
ATOM     80  C   UNL A   1      37.978  28.678  30.502  1.00  0.00     0.198 A 
ATOM     81  F   UNL A   1      39.677  27.638  31.713  1.00  0.00    -0.203 F 
ATOM     82  F   UNL A   1      37.837  29.843  27.090  1.00  0.00    -0.200 F 
ATOM     83  C   UNL A   1      37.478  29.214  29.331  1.00  0.00     0.200 A 
ATOM     84  F   UNL A   1      37.166  28.509  31.555  1.00  0.00    -0.200 F 
ATOM     85  F   UNL A   1      36.183  29.544  29.235  1.00  0.00    -0.200 F 
ENDBRANCH  51  75
BRANCH  63  86
ATOM     86  C   UNL A   1      44.825  25.947  33.028  1.00  0.00     0.064 A 
ATOM     87  C   UNL A   1      44.403  24.656  32.677  1.00  0.00     0.173 A 
ATOM     88  C   UNL A   1      44.852  26.275  34.392  1.00  0.00     0.173 A 
ATOM     89  F   UNL A   1      44.431  24.243  31.401  1.00  0.00    -0.203 F 
ATOM     90  C   UNL A   1      43.968  23.759  33.652  1.00  0.00     0.198 A 
ATOM     91  C   UNL A   1      44.455  25.362  35.364  1.00  0.00     0.198 A 
ATOM     92  F   UNL A   1      45.275  27.488  34.786  1.00  0.00    -0.203 F 
ATOM     93  F   UNL A   1      43.525  22.546  33.296  1.00  0.00    -0.200 F 
ATOM     94  C   UNL A   1      43.997  24.111  34.992  1.00  0.00     0.200 A 
ATOM     95  F   UNL A   1      44.520  25.697  36.661  1.00  0.00    -0.200 F 
ATOM     96  F   UNL A   1      43.595  23.239  35.928  1.00  0.00    -0.200 F 
ENDBRANCH  63  86
ENDBRANCH  37  38
ENDBRANCH  30  32
ENDBRANCH  29  30
ENDBRANCH  28  29
ENDBRANCH  27  28
ENDBRANCH  26  27
ENDBRANCH  25  26
ENDBRANCH   1  25
TORSDOF 20
ENDMDL
