MODEL 1
REMARK VINA RESULT:     -11.6      0.000      0.000
REMARK SMILES COc1ccc(-c2nc(C(C)C)cc3nn(CC(=O)OCCOCCOCCOC(=O)c4ccc(-c5c6nc(c(-c7c(F)c(F)c(F)c(F)c7F)c7ccc([nH]7)c(-c7c(F)c(F)c(F)c(F)c7F)c7nc(c(-c8c(F)c(F)c(F)c(F)c8F)c8ccc5[nH]8)C=C7)C=C6)cc4)c(=O)n23)cc1
REMARK SMILES IDX 24 1 23 2 22 3 21 4 20 5 18 6 19 7 17 8 16 9 7 10 8 11 97 12
REMARK SMILES IDX 9 13 14 14 95 15 13 16 15 17 96 18 6 19 3 20 4 21 99 22 5 23
REMARK SMILES IDX 98 24 2 25 1 26 10 27 11 28 12 29 25 30 26 31 27 32 28 33
REMARK SMILES IDX 29 34 30 35 31 36 32 37 33 38 94 39 34 40 93 41 35 42 36 43
REMARK SMILES IDX 37 44 87 45 38 46 92 47 86 48 88 49 39 50 91 51 85 52 84 53
REMARK SMILES IDX 40 55 72 56 52 57 71 58 53 59 56 60 70 61 89 62 54 63 55 64
REMARK SMILES IDX 69 66 90 67 57 68 41 69 42 70 50 71 43 72 44 73 48 74 51 75
REMARK SMILES IDX 45 76 46 77 49 78 47 79 73 80 74 81 82 82 75 83 76 84 80 85
REMARK SMILES IDX 83 86 77 87 78 88 81 89 79 90 58 91 59 92 67 93 60 94 61 95
REMARK SMILES IDX 65 96 68 97 62 98 63 99 66 100 64 101
REMARK H PARENT 88 54 56 65
REMARK Flexibility Score: inf
ROOT
ATOM      1  C   UNL A   1      31.699  27.616  25.915  1.00  0.00     0.188 C 
ENDROOT
BRANCH   1   2
ATOM      2  O   UNL A   1      30.677  27.270  24.982  1.00  0.00    -0.376 OA
BRANCH   2   3
ATOM      3  C   UNL A   1      30.661  27.962  23.745  1.00  0.00     0.202 C 
BRANCH   3   4
ATOM      4  C   UNL A   1      30.764  27.091  22.479  1.00  0.00     0.261 C 
BRANCH   4   5
ATOM      5  O   UNL A   1      32.096  26.995  21.908  1.00  0.00    -0.462 OA
BRANCH   5   6
ATOM      6  C   UNL A   1      32.496  25.794  21.418  1.00  0.00     0.328 C 
ATOM      7  O   UNL A   1      33.083  25.672  20.345  1.00  0.00    -0.250 OA
BRANCH   6   8
ATOM      8  C   UNL A   1      32.227  24.565  22.329  1.00  0.00     0.272 C 
BRANCH   8   9
ATOM      9  N   UNL A   1      33.248  23.707  22.954  1.00  0.00    -0.201 N 
ATOM     10  C   UNL A   1      34.877  21.052  24.862  1.00  0.00     0.150 A 
ATOM     11  N   UNL A   1      36.027  21.139  25.464  1.00  0.00    -0.234 NA
ATOM     12  N   UNL A   1      34.290  22.152  24.207  1.00  0.00    -0.226 N 
ATOM     13  C   UNL A   1      36.704  22.331  25.442  1.00  0.00     0.049 A 
ATOM     14  C   UNL A   1      35.003  23.292  24.056  1.00  0.00     0.165 A 
ATOM     15  C   UNL A   1      33.062  22.437  23.583  1.00  0.00     0.352 A 
ATOM     16  C   UNL A   1      36.289  23.397  24.742  1.00  0.00     0.073 A 
ATOM     17  N   UNL A   1      34.468  24.222  23.322  1.00  0.00    -0.149 NA
ATOM     18  O   UNL A   1      32.008  21.826  23.659  1.00  0.00    -0.245 OA
BRANCH  10  19
ATOM     19  C   UNL A   1      34.308  19.686  24.783  1.00  0.00     0.018 A 
ATOM     20  C   UNL A   1      33.530  16.975  24.918  1.00  0.00     0.118 A 
ATOM     21  C   UNL A   1      34.763  17.333  24.378  1.00  0.00     0.047 A 
ATOM     22  C   UNL A   1      32.730  17.969  25.486  1.00  0.00     0.047 A 
ATOM     23  C   UNL A   1      35.164  18.675  24.333  1.00  0.00     0.016 A 
ATOM     24  C   UNL A   1      33.121  19.325  25.427  1.00  0.00     0.016 A 
BRANCH  20  25
ATOM     25  O   UNL A   1      33.248  15.641  24.823  1.00  0.00    -0.497 OA
ATOM     26  C   UNL A   1      32.278  15.095  25.706  1.00  0.00     0.278 C 
ENDBRANCH  20  25
ENDBRANCH  10  19
BRANCH  13  27
ATOM     27  C   UNL A   1      37.991  22.338  26.254  1.00  0.00     0.032 C 
ATOM     28  C   UNL A   1      39.025  21.342  25.725  1.00  0.00     0.014 C 
ATOM     29  C   UNL A   1      38.571  23.750  26.340  1.00  0.00     0.014 C 
ENDBRANCH  13  27
ENDBRANCH   8   9
ENDBRANCH   6   8
ENDBRANCH   5   6
ENDBRANCH   4   5
ENDBRANCH   3   4
ENDBRANCH   2   3
ENDBRANCH   1   2
BRANCH   1  30
ATOM     30  C   UNL A   1      32.220  29.078  25.950  1.00  0.00     0.188 C 
BRANCH  30  31
ATOM     31  O   UNL A   1      32.738  29.445  27.216  1.00  0.00    -0.376 OA
BRANCH  31  32
ATOM     32  C   UNL A   1      33.693  30.478  27.188  1.00  0.00     0.202 C 
BRANCH  32  33
ATOM     33  C   UNL A   1      35.080  30.036  27.634  1.00  0.00     0.261 C 
BRANCH  33  34
ATOM     34  O   UNL A   1      35.916  31.053  28.181  1.00  0.00    -0.460 OA
BRANCH  34  35
ATOM     35  C   UNL A   1      35.676  31.362  29.467  1.00  0.00     0.338 C 
ATOM     36  O   UNL A   1      34.863  32.167  29.891  1.00  0.00    -0.246 OA
BRANCH  35  37
ATOM     37  C   UNL A   1      36.683  30.792  30.342  1.00  0.00     0.060 A 
ATOM     38  C   UNL A   1      37.838  31.567  30.462  1.00  0.00     0.016 A 
ATOM     39  C   UNL A   1      36.656  29.414  30.574  1.00  0.00     0.016 A 
ATOM     40  C   UNL A   1      39.030  30.903  30.493  1.00  0.00     0.010 A 
ATOM     41  C   UNL A   1      37.854  28.753  30.623  1.00  0.00     0.010 A 
ATOM     42  C   UNL A   1      39.015  29.502  30.459  1.00  0.00    -0.014 A 
BRANCH  42  43
ATOM     43  C   UNL A   1      40.302  28.859  30.334  1.00  0.00     0.031 A 
ATOM     44  C   UNL A   1      41.001  28.766  31.635  1.00  0.00     0.074 A 
ATOM     45  C   UNL A   1      40.752  28.383  29.160  1.00  0.00     0.049 A 
ATOM     46  N   UNL A   1      42.154  29.248  31.955  1.00  0.00    -0.248 NA
ATOM     47  C   UNL A   1      40.219  28.243  32.772  1.00  0.00     0.031 C 
ATOM     48  C   UNL A   1      40.032  28.237  27.891  1.00  0.00     0.029 A 
ATOM     49  N   UNL A   1      41.952  27.814  28.892  1.00  0.00    -0.354 N 
ATOM     50  C   UNL A   1      42.314  28.944  33.303  1.00  0.00     0.074 A 
ATOM     51  C   UNL A   1      41.041  28.485  33.788  1.00  0.00     0.031 C 
ATOM     52  C   UNL A   1      40.715  27.386  27.093  1.00  0.00     0.029 A 
ATOM     53  C   UNL A   1      41.968  27.041  27.743  1.00  0.00     0.049 A 
ATOM     54  H   UNL A   1      42.743  27.939  29.464  1.00  0.00     0.167 HD
ATOM     55  C   UNL A   1      43.546  28.868  33.865  1.00  0.00     0.037 A 
ATOM     56  C   UNL A   1      42.900  26.104  27.441  1.00  0.00     0.037 A 
ATOM     57  C   UNL A   1      44.514  29.623  33.117  1.00  0.00     0.049 A 
ATOM     58  C   UNL A   1      44.094  26.374  28.290  1.00  0.00     0.074 A 
ATOM     59  C   UNL A   1      44.665  30.965  32.826  1.00  0.00     0.029 A 
ATOM     60  N   UNL A   1      45.315  28.953  32.225  1.00  0.00    -0.354 N 
ATOM     61  N   UNL A   1      44.864  27.418  28.154  1.00  0.00    -0.248 NA
ATOM     62  C   UNL A   1      44.153  25.726  29.594  1.00  0.00     0.031 C 
ATOM     63  C   UNL A   1      45.173  31.005  31.496  1.00  0.00     0.029 A 
ATOM     64  C   UNL A   1      45.349  29.689  31.067  1.00  0.00     0.049 A 
ATOM     65  H   UNL A   1      45.780  28.102  32.386  1.00  0.00     0.167 HD
ATOM     66  C   UNL A   1      45.175  27.804  29.450  1.00  0.00     0.074 A 
ATOM     67  C   UNL A   1      44.777  26.680  30.291  1.00  0.00     0.031 C 
ATOM     68  C   UNL A   1      45.457  29.107  29.749  1.00  0.00     0.037 A 
BRANCH  55  69
ATOM     69  C   UNL A   1      43.910  27.813  34.873  1.00  0.00     0.064 A 
ATOM     70  C   UNL A   1      43.736  26.458  34.545  1.00  0.00     0.173 A 
ATOM     71  C   UNL A   1      44.146  28.087  36.241  1.00  0.00     0.173 A 
ATOM     72  F   UNL A   1      43.481  26.090  33.280  1.00  0.00    -0.203 F 
ATOM     73  C   UNL A   1      43.727  25.461  35.524  1.00  0.00     0.198 A 
ATOM     74  C   UNL A   1      44.193  27.086  37.205  1.00  0.00     0.198 A 
ATOM     75  F   UNL A   1      44.224  29.334  36.721  1.00  0.00    -0.203 F 
ATOM     76  F   UNL A   1      43.433  24.200  35.183  1.00  0.00    -0.200 F 
ATOM     77  C   UNL A   1      43.950  25.777  36.853  1.00  0.00     0.200 A 
ATOM     78  F   UNL A   1      44.392  27.418  38.489  1.00  0.00    -0.200 F 
ATOM     79  F   UNL A   1      43.880  24.833  37.799  1.00  0.00    -0.200 F 
ENDBRANCH  55  69
BRANCH  56  80
ATOM     80  C   UNL A   1      42.672  24.800  26.776  1.00  0.00     0.064 A 
ATOM     81  C   UNL A   1      43.257  24.514  25.531  1.00  0.00     0.173 A 
ATOM     82  C   UNL A   1      42.098  23.711  27.462  1.00  0.00     0.173 A 
ATOM     83  F   UNL A   1      43.869  25.484  24.837  1.00  0.00    -0.203 F 
ATOM     84  C   UNL A   1      43.279  23.215  25.015  1.00  0.00     0.198 A 
ATOM     85  C   UNL A   1      42.112  22.417  26.941  1.00  0.00     0.198 A 
ATOM     86  F   UNL A   1      41.595  23.860  28.696  1.00  0.00    -0.203 F 
ATOM     87  F   UNL A   1      43.899  22.969  23.852  1.00  0.00    -0.200 F 
ATOM     88  C   UNL A   1      42.714  22.167  25.723  1.00  0.00     0.200 A 
ATOM     89  F   UNL A   1      41.594  21.408  27.655  1.00  0.00    -0.200 F 
ATOM     90  F   UNL A   1      42.786  20.913  25.255  1.00  0.00    -0.200 F 
ENDBRANCH  56  80
BRANCH  68  91
ATOM     91  C   UNL A   1      45.657  30.061  28.602  1.00  0.00     0.064 A 
ATOM     92  C   UNL A   1      44.608  30.737  27.955  1.00  0.00     0.173 A 
ATOM     93  C   UNL A   1      46.965  30.421  28.252  1.00  0.00     0.173 A 
ATOM     94  F   UNL A   1      43.333  30.533  28.309  1.00  0.00    -0.203 F 
ATOM     95  C   UNL A   1      44.859  31.697  26.975  1.00  0.00     0.198 A 
ATOM     96  C   UNL A   1      47.214  31.407  27.301  1.00  0.00     0.198 A 
ATOM     97  F   UNL A   1      48.009  29.854  28.879  1.00  0.00    -0.203 F 
ATOM     98  F   UNL A   1      43.838  32.324  26.373  1.00  0.00    -0.200 F 
ATOM     99  C   UNL A   1      46.162  32.036  26.656  1.00  0.00     0.200 A 
ATOM    100  F   UNL A   1      48.476  31.772  27.036  1.00  0.00    -0.200 F 
ATOM    101  F   UNL A   1      46.405  32.994  25.751  1.00  0.00    -0.200 F 
ENDBRANCH  68  91
ENDBRANCH  42  43
ENDBRANCH  35  37
ENDBRANCH  34  35
ENDBRANCH  33  34
ENDBRANCH  32  33
ENDBRANCH  31  32
ENDBRANCH  30  31
ENDBRANCH   1  30
TORSDOF 21
ENDMDL
MODEL 2
REMARK VINA RESULT:     -11.5      3.227      5.993
REMARK SMILES COc1ccc(-c2nc(C(C)C)cc3nn(CC(=O)OCCOCCOCCOC(=O)c4ccc(-c5c6nc(c(-c7c(F)c(F)c(F)c(F)c7F)c7ccc([nH]7)c(-c7c(F)c(F)c(F)c(F)c7F)c7nc(c(-c8c(F)c(F)c(F)c(F)c8F)c8ccc5[nH]8)C=C7)C=C6)cc4)c(=O)n23)cc1
REMARK SMILES IDX 24 1 23 2 22 3 21 4 20 5 18 6 19 7 17 8 16 9 7 10 8 11 97 12
REMARK SMILES IDX 9 13 14 14 95 15 13 16 15 17 96 18 6 19 3 20 4 21 99 22 5 23
REMARK SMILES IDX 98 24 2 25 1 26 10 27 11 28 12 29 25 30 26 31 27 32 28 33
REMARK SMILES IDX 29 34 30 35 31 36 32 37 33 38 94 39 34 40 93 41 35 42 36 43
REMARK SMILES IDX 37 44 87 45 38 46 92 47 86 48 88 49 39 50 91 51 85 52 84 53
REMARK SMILES IDX 40 55 72 56 52 57 71 58 53 59 56 60 70 61 89 62 54 63 55 64
REMARK SMILES IDX 69 66 90 67 57 68 41 69 42 70 50 71 43 72 44 73 48 74 51 75
REMARK SMILES IDX 45 76 46 77 49 78 47 79 73 80 74 81 82 82 75 83 76 84 80 85
REMARK SMILES IDX 83 86 77 87 78 88 81 89 79 90 58 91 59 92 67 93 60 94 61 95
REMARK SMILES IDX 65 96 68 97 62 98 63 99 66 100 64 101
REMARK H PARENT 88 54 56 65
REMARK Flexibility Score: inf
ROOT
ATOM      1  C   UNL A   1      33.256  35.097  28.710  1.00  0.00     0.188 C 
ENDROOT
BRANCH   1   2
ATOM      2  O   UNL A   1      33.474  34.037  29.639  1.00  0.00    -0.376 OA
BRANCH   2   3
ATOM      3  C   UNL A   1      34.673  33.292  29.511  1.00  0.00     0.202 C 
BRANCH   3   4
ATOM      4  C   UNL A   1      34.995  32.761  28.102  1.00  0.00     0.261 C 
BRANCH   4   5
ATOM      5  O   UNL A   1      34.156  31.664  27.653  1.00  0.00    -0.462 OA
BRANCH   5   6
ATOM      6  C   UNL A   1      34.689  30.417  27.635  1.00  0.00     0.328 C 
ATOM      7  O   UNL A   1      35.248  29.914  28.609  1.00  0.00    -0.250 OA
BRANCH   6   8
ATOM      8  C   UNL A   1      34.501  29.616  26.318  1.00  0.00     0.272 C 
BRANCH   8   9
ATOM      9  N   UNL A   1      33.231  29.077  25.804  1.00  0.00    -0.201 N 
ATOM     10  C   UNL A   1      30.728  26.871  24.316  1.00  0.00     0.150 A 
ATOM     11  N   UNL A   1      29.676  27.249  23.649  1.00  0.00    -0.234 NA
ATOM     12  N   UNL A   1      31.681  27.791  24.794  1.00  0.00    -0.226 N 
ATOM     13  C   UNL A   1      29.473  28.586  23.423  1.00  0.00     0.049 A 
ATOM     14  C   UNL A   1      31.427  29.117  24.703  1.00  0.00     0.165 A 
ATOM     15  C   UNL A   1      32.938  27.731  25.421  1.00  0.00     0.352 A 
ATOM     16  C   UNL A   1      30.254  29.544  23.943  1.00  0.00     0.073 A 
ATOM     17  N   UNL A   1      32.271  29.915  25.287  1.00  0.00    -0.149 NA
ATOM     18  O   UNL A   1      33.702  26.783  25.509  1.00  0.00    -0.245 OA
BRANCH  10  19
ATOM     19  C   UNL A   1      30.769  25.432  24.665  1.00  0.00     0.018 A 
ATOM     20  C   UNL A   1      31.265  22.707  25.218  1.00  0.00     0.118 A 
ATOM     21  C   UNL A   1      31.328  23.190  23.912  1.00  0.00     0.047 A 
ATOM     22  C   UNL A   1      31.054  23.613  26.260  1.00  0.00     0.047 A 
ATOM     23  C   UNL A   1      31.109  24.546  23.637  1.00  0.00     0.016 A 
ATOM     24  C   UNL A   1      30.815  24.978  25.986  1.00  0.00     0.016 A 
BRANCH  20  25
ATOM     25  O   UNL A   1      31.425  21.354  25.318  1.00  0.00    -0.497 OA
ATOM     26  C   UNL A   1      32.698  20.855  25.703  1.00  0.00     0.278 C 
ENDBRANCH  20  25
ENDBRANCH  10  19
BRANCH  13  27
ATOM     27  C   UNL A   1      28.262  28.900  22.558  1.00  0.00     0.032 C 
ATOM     28  C   UNL A   1      26.940  28.569  23.253  1.00  0.00     0.014 C 
ATOM     29  C   UNL A   1      28.294  30.354  22.086  1.00  0.00     0.014 C 
ENDBRANCH  13  27
ENDBRANCH   8   9
ENDBRANCH   6   8
ENDBRANCH   5   6
ENDBRANCH   4   5
ENDBRANCH   3   4
ENDBRANCH   2   3
ENDBRANCH   1   2
BRANCH   1  30
ATOM     30  C   UNL A   1      33.303  36.563  29.221  1.00  0.00     0.188 C 
BRANCH  30  31
ATOM     31  O   UNL A   1      32.697  36.721  30.492  1.00  0.00    -0.376 OA
BRANCH  31  32
ATOM     32  C   UNL A   1      33.348  37.625  31.350  1.00  0.00     0.202 C 
BRANCH  32  33
ATOM     33  C   UNL A   1      33.616  37.061  32.738  1.00  0.00     0.261 C 
BRANCH  33  34
ATOM     34  O   UNL A   1      34.639  36.072  32.825  1.00  0.00    -0.460 OA
BRANCH  34  35
ATOM     35  C   UNL A   1      34.203  34.803  32.914  1.00  0.00     0.338 C 
ATOM     36  O   UNL A   1      33.060  34.405  32.765  1.00  0.00    -0.246 OA
BRANCH  35  37
ATOM     37  C   UNL A   1      35.228  33.933  33.460  1.00  0.00     0.060 A 
ATOM     38  C   UNL A   1      36.429  34.581  33.754  1.00  0.00     0.016 A 
ATOM     39  C   UNL A   1      35.138  32.562  33.205  1.00  0.00     0.016 A 
ATOM     40  C   UNL A   1      37.582  33.912  33.464  1.00  0.00     0.010 A 
ATOM     41  C   UNL A   1      36.299  31.888  32.932  1.00  0.00     0.010 A 
ATOM     42  C   UNL A   1      37.488  32.611  32.950  1.00  0.00    -0.014 A 
BRANCH  42  43
ATOM     43  C   UNL A   1      38.727  32.011  32.515  1.00  0.00     0.031 A 
ATOM     44  C   UNL A   1      39.663  31.800  33.641  1.00  0.00     0.074 A 
ATOM     45  C   UNL A   1      38.944  31.669  31.233  1.00  0.00     0.049 A 
ATOM     46  N   UNL A   1      40.856  32.271  33.784  1.00  0.00    -0.248 NA
ATOM     47  C   UNL A   1      39.115  31.145  34.845  1.00  0.00     0.031 C 
ATOM     48  C   UNL A   1      37.994  31.640  30.117  1.00  0.00     0.029 A 
ATOM     49  N   UNL A   1      40.071  31.157  30.682  1.00  0.00    -0.354 N 
ATOM     50  C   UNL A   1      41.273  31.833  35.037  1.00  0.00     0.074 A 
ATOM     51  C   UNL A   1      40.117  31.299  35.705  1.00  0.00     0.031 C 
ATOM     52  C   UNL A   1      38.512  30.891  29.117  1.00  0.00     0.029 A 
ATOM     53  C   UNL A   1      39.867  30.507  29.477  1.00  0.00     0.049 A 
ATOM     54  H   UNL A   1      40.957  31.239  31.102  1.00  0.00     0.167 HD
ATOM     55  C   UNL A   1      42.590  31.726  35.343  1.00  0.00     0.037 A 
ATOM     56  C   UNL A   1      40.725  29.627  28.905  1.00  0.00     0.037 A 
ATOM     57  C   UNL A   1      43.394  32.574  34.507  1.00  0.00     0.049 A 
ATOM     58  C   UNL A   1      42.059  29.833  29.534  1.00  0.00     0.074 A 
ATOM     59  C   UNL A   1      43.485  33.942  34.336  1.00  0.00     0.029 A 
ATOM     60  N   UNL A   1      44.010  32.018  33.413  1.00  0.00    -0.354 N 
ATOM     61  N   UNL A   1      42.787  30.902  29.364  1.00  0.00    -0.248 NA
ATOM     62  C   UNL A   1      42.368  29.055  30.727  1.00  0.00     0.031 C 
ATOM     63  C   UNL A   1      43.728  34.131  32.945  1.00  0.00     0.029 A 
ATOM     64  C   UNL A   1      43.820  32.870  32.354  1.00  0.00     0.049 A 
ATOM     65  H   UNL A   1      44.499  31.164  33.392  1.00  0.00     0.167 HD
ATOM     66  C   UNL A   1      43.341  31.159  30.610  1.00  0.00     0.074 A 
ATOM     67  C   UNL A   1      43.113  29.946  31.388  1.00  0.00     0.031 C 
ATOM     68  C   UNL A   1      43.673  32.429  30.986  1.00  0.00     0.037 A 
BRANCH  55  69
ATOM     69  C   UNL A   1      43.142  30.581  36.145  1.00  0.00     0.064 A 
ATOM     70  C   UNL A   1      43.987  30.849  37.235  1.00  0.00     0.173 A 
ATOM     71  C   UNL A   1      43.109  29.235  35.712  1.00  0.00     0.173 A 
ATOM     72  F   UNL A   1      44.113  32.098  37.710  1.00  0.00    -0.203 F 
ATOM     73  C   UNL A   1      44.792  29.857  37.801  1.00  0.00     0.198 A 
ATOM     74  C   UNL A   1      43.869  28.238  36.315  1.00  0.00     0.198 A 
ATOM     75  F   UNL A   1      42.437  28.847  34.623  1.00  0.00    -0.203 F 
ATOM     76  F   UNL A   1      45.674  30.182  38.755  1.00  0.00    -0.200 F 
ATOM     77  C   UNL A   1      44.736  28.554  37.337  1.00  0.00     0.200 A 
ATOM     78  F   UNL A   1      43.813  26.987  35.835  1.00  0.00    -0.200 F 
ATOM     79  F   UNL A   1      45.551  27.617  37.836  1.00  0.00    -0.200 F 
ENDBRANCH  55  69
BRANCH  56  80
ATOM     80  C   UNL A   1      40.375  28.394  28.161  1.00  0.00     0.064 A 
ATOM     81  C   UNL A   1      40.947  28.121  26.908  1.00  0.00     0.173 A 
ATOM     82  C   UNL A   1      39.681  27.332  28.776  1.00  0.00     0.173 A 
ATOM     83  F   UNL A   1      41.666  29.062  26.278  1.00  0.00    -0.203 F 
ATOM     84  C   UNL A   1      40.844  26.859  26.316  1.00  0.00     0.198 A 
ATOM     85  C   UNL A   1      39.571  26.076  28.180  1.00  0.00     0.198 A 
ATOM     86  F   UNL A   1      39.177  27.461  30.012  1.00  0.00    -0.203 F 
ATOM     87  F   UNL A   1      41.454  26.617  25.147  1.00  0.00    -0.200 F 
ATOM     88  C   UNL A   1      40.163  25.836  26.955  1.00  0.00     0.200 A 
ATOM     89  F   UNL A   1      38.941  25.086  28.829  1.00  0.00    -0.200 F 
ATOM     90  F   UNL A   1      40.113  24.610  26.415  1.00  0.00    -0.200 F 
ENDBRANCH  56  80
BRANCH  68  91
ATOM     91  C   UNL A   1      43.648  33.501  29.929  1.00  0.00     0.064 A 
ATOM     92  C   UNL A   1      44.710  33.750  29.042  1.00  0.00     0.173 A 
ATOM     93  C   UNL A   1      42.451  34.194  29.706  1.00  0.00     0.173 A 
ATOM     94  F   UNL A   1      45.850  33.051  29.117  1.00  0.00    -0.203 F 
ATOM     95  C   UNL A   1      44.590  34.678  28.008  1.00  0.00     0.198 A 
ATOM     96  C   UNL A   1      42.320  35.091  28.650  1.00  0.00     0.198 A 
ATOM     97  F   UNL A   1      41.382  33.954  30.483  1.00  0.00    -0.203 F 
ATOM     98  F   UNL A   1      45.621  34.896  27.179  1.00  0.00    -0.200 F 
ATOM     99  C   UNL A   1      43.392  35.341  27.809  1.00  0.00     0.200 A 
ATOM    100  F   UNL A   1      41.141  35.688  28.427  1.00  0.00    -0.200 F 
ATOM    101  F   UNL A   1      43.258  36.196  26.785  1.00  0.00    -0.200 F 
ENDBRANCH  68  91
ENDBRANCH  42  43
ENDBRANCH  35  37
ENDBRANCH  34  35
ENDBRANCH  33  34
ENDBRANCH  32  33
ENDBRANCH  31  32
ENDBRANCH  30  31
ENDBRANCH   1  30
TORSDOF 21
ENDMDL
MODEL 3
REMARK VINA RESULT:     -11.4      3.541      6.425
REMARK SMILES COc1ccc(-c2nc(C(C)C)cc3nn(CC(=O)OCCOCCOCCOC(=O)c4ccc(-c5c6nc(c(-c7c(F)c(F)c(F)c(F)c7F)c7ccc([nH]7)c(-c7c(F)c(F)c(F)c(F)c7F)c7nc(c(-c8c(F)c(F)c(F)c(F)c8F)c8ccc5[nH]8)C=C7)C=C6)cc4)c(=O)n23)cc1
REMARK SMILES IDX 24 1 23 2 22 3 21 4 20 5 18 6 19 7 17 8 16 9 7 10 8 11 97 12
REMARK SMILES IDX 9 13 14 14 95 15 13 16 15 17 96 18 6 19 3 20 4 21 99 22 5 23
REMARK SMILES IDX 98 24 2 25 1 26 10 27 11 28 12 29 25 30 26 31 27 32 28 33
REMARK SMILES IDX 29 34 30 35 31 36 32 37 33 38 94 39 34 40 93 41 35 42 36 43
REMARK SMILES IDX 37 44 87 45 38 46 92 47 86 48 88 49 39 50 91 51 85 52 84 53
REMARK SMILES IDX 40 55 72 56 52 57 71 58 53 59 56 60 70 61 89 62 54 63 55 64
REMARK SMILES IDX 69 66 90 67 57 68 41 69 42 70 50 71 43 72 44 73 48 74 51 75
REMARK SMILES IDX 45 76 46 77 49 78 47 79 73 80 74 81 82 82 75 83 76 84 80 85
REMARK SMILES IDX 83 86 77 87 78 88 81 89 79 90 58 91 59 92 67 93 60 94 61 95
REMARK SMILES IDX 65 96 68 97 62 98 63 99 66 100 64 101
REMARK H PARENT 88 54 56 65
REMARK Flexibility Score: inf
ROOT
ATOM      1  C   UNL A   1      33.288  34.926  28.837  1.00  0.00     0.188 C 
ENDROOT
BRANCH   1   2
ATOM      2  O   UNL A   1      33.663  33.936  29.793  1.00  0.00    -0.376 OA
BRANCH   2   3
ATOM      3  C   UNL A   1      34.814  33.158  29.510  1.00  0.00     0.202 C 
BRANCH   3   4
ATOM      4  C   UNL A   1      34.996  32.723  28.044  1.00  0.00     0.261 C 
BRANCH   4   5
ATOM      5  O   UNL A   1      34.212  31.566  27.646  1.00  0.00    -0.462 OA
BRANCH   5   6
ATOM      6  C   UNL A   1      34.856  30.382  27.488  1.00  0.00     0.328 C 
ATOM      7  O   UNL A   1      36.077  30.295  27.372  1.00  0.00    -0.250 OA
BRANCH   6   8
ATOM      8  C   UNL A   1      33.961  29.113  27.523  1.00  0.00     0.272 C 
BRANCH   8   9
ATOM      9  N   UNL A   1      33.499  28.344  26.356  1.00  0.00    -0.201 N 
ATOM     10  C   UNL A   1      31.417  26.985  23.679  1.00  0.00     0.150 A 
ATOM     11  N   UNL A   1      31.527  25.801  23.151  1.00  0.00    -0.234 NA
ATOM     12  N   UNL A   1      32.219  27.400  24.759  1.00  0.00    -0.226 N 
ATOM     13  C   UNL A   1      32.470  24.936  23.644  1.00  0.00     0.049 A 
ATOM     14  C   UNL A   1      33.244  26.616  25.165  1.00  0.00     0.165 A 
ATOM     15  C   UNL A   1      32.288  28.514  25.616  1.00  0.00     0.352 A 
ATOM     16  C   UNL A   1      33.362  25.281  24.584  1.00  0.00     0.073 A 
ATOM     17  N   UNL A   1      34.036  27.112  26.069  1.00  0.00    -0.149 NA
ATOM     18  O   UNL A   1      31.448  29.379  25.810  1.00  0.00    -0.245 OA
BRANCH  10  19
ATOM     19  C   UNL A   1      30.502  27.909  22.968  1.00  0.00     0.018 A 
ATOM     20  C   UNL A   1      28.682  29.840  22.002  1.00  0.00     0.118 A 
ATOM     21  C   UNL A   1      28.249  28.811  22.836  1.00  0.00     0.047 A 
ATOM     22  C   UNL A   1      30.048  29.960  21.736  1.00  0.00     0.047 A 
ATOM     23  C   UNL A   1      29.154  27.867  23.338  1.00  0.00     0.016 A 
ATOM     24  C   UNL A   1      30.961  29.000  22.225  1.00  0.00     0.016 A 
BRANCH  20  25
ATOM     25  O   UNL A   1      27.675  30.635  21.532  1.00  0.00    -0.497 OA
ATOM     26  C   UNL A   1      27.985  31.978  21.186  1.00  0.00     0.278 C 
ENDBRANCH  20  25
ENDBRANCH  10  19
BRANCH  13  27
ATOM     27  C   UNL A   1      32.446  23.552  23.010  1.00  0.00     0.032 C 
ATOM     28  C   UNL A   1      33.538  22.633  23.561  1.00  0.00     0.014 C 
ATOM     29  C   UNL A   1      31.062  22.917  23.147  1.00  0.00     0.014 C 
ENDBRANCH  13  27
ENDBRANCH   8   9
ENDBRANCH   6   8
ENDBRANCH   5   6
ENDBRANCH   4   5
ENDBRANCH   3   4
ENDBRANCH   2   3
ENDBRANCH   1   2
BRANCH   1  30
ATOM     30  C   UNL A   1      33.313  36.421  29.256  1.00  0.00     0.188 C 
BRANCH  30  31
ATOM     31  O   UNL A   1      32.739  36.643  30.532  1.00  0.00    -0.376 OA
BRANCH  31  32
ATOM     32  C   UNL A   1      33.396  37.607  31.318  1.00  0.00     0.202 C 
BRANCH  32  33
ATOM     33  C   UNL A   1      33.725  37.125  32.723  1.00  0.00     0.261 C 
BRANCH  33  34
ATOM     34  O   UNL A   1      34.759  36.150  32.825  1.00  0.00    -0.460 OA
BRANCH  34  35
ATOM     35  C   UNL A   1      34.338  34.880  32.967  1.00  0.00     0.338 C 
ATOM     36  O   UNL A   1      33.197  34.466  32.849  1.00  0.00    -0.246 OA
BRANCH  35  37
ATOM     37  C   UNL A   1      35.380  34.040  33.527  1.00  0.00     0.060 A 
ATOM     38  C   UNL A   1      36.590  34.702  33.744  1.00  0.00     0.016 A 
ATOM     39  C   UNL A   1      35.282  32.657  33.353  1.00  0.00     0.016 A 
ATOM     40  C   UNL A   1      37.733  34.015  33.455  1.00  0.00     0.010 A 
ATOM     41  C   UNL A   1      36.432  31.967  33.082  1.00  0.00     0.010 A 
ATOM     42  C   UNL A   1      37.622  32.687  33.020  1.00  0.00    -0.014 A 
BRANCH  42  43
ATOM     43  C   UNL A   1      38.846  32.062  32.579  1.00  0.00     0.031 A 
ATOM     44  C   UNL A   1      39.788  31.844  33.699  1.00  0.00     0.074 A 
ATOM     45  C   UNL A   1      39.045  31.703  31.299  1.00  0.00     0.049 A 
ATOM     46  N   UNL A   1      40.991  32.295  33.827  1.00  0.00    -0.248 NA
ATOM     47  C   UNL A   1      39.240  31.211  34.914  1.00  0.00     0.031 C 
ATOM     48  C   UNL A   1      38.084  31.680  30.192  1.00  0.00     0.029 A 
ATOM     49  N   UNL A   1      40.158  31.165  30.743  1.00  0.00    -0.354 N 
ATOM     50  C   UNL A   1      41.411  31.862  35.080  1.00  0.00     0.074 A 
ATOM     51  C   UNL A   1      40.253  31.356  35.764  1.00  0.00     0.031 C 
ATOM     52  C   UNL A   1      38.579  30.912  29.195  1.00  0.00     0.029 A 
ATOM     53  C   UNL A   1      39.930  30.508  29.546  1.00  0.00     0.049 A 
ATOM     54  H   UNL A   1      41.049  31.236  31.154  1.00  0.00     0.167 HD
ATOM     55  C   UNL A   1      42.729  31.735  35.374  1.00  0.00     0.037 A 
ATOM     56  C   UNL A   1      40.768  29.607  28.975  1.00  0.00     0.037 A 
ATOM     57  C   UNL A   1      43.541  32.560  34.523  1.00  0.00     0.049 A 
ATOM     58  C   UNL A   1      42.111  29.795  29.590  1.00  0.00     0.074 A 
ATOM     59  C   UNL A   1      43.654  33.924  34.338  1.00  0.00     0.029 A 
ATOM     60  N   UNL A   1      44.136  31.982  33.429  1.00  0.00    -0.354 N 
ATOM     61  N   UNL A   1      42.857  30.849  29.403  1.00  0.00    -0.248 NA
ATOM     62  C   UNL A   1      42.417  29.024  30.787  1.00  0.00     0.031 C 
ATOM     63  C   UNL A   1      43.887  34.095  32.943  1.00  0.00     0.029 A 
ATOM     64  C   UNL A   1      43.952  32.828  32.364  1.00  0.00     0.049 A 
ATOM     65  H   UNL A   1      44.610  31.120  33.412  1.00  0.00     0.167 HD
ATOM     66  C   UNL A   1      43.427  31.108  30.641  1.00  0.00     0.074 A 
ATOM     67  C   UNL A   1      43.184  29.907  31.433  1.00  0.00     0.031 C 
ATOM     68  C   UNL A   1      43.785  32.376  31.001  1.00  0.00     0.037 A 
BRANCH  55  69
ATOM     69  C   UNL A   1      43.268  30.587  36.183  1.00  0.00     0.064 A 
ATOM     70  C   UNL A   1      44.054  30.854  37.317  1.00  0.00     0.173 A 
ATOM     71  C   UNL A   1      43.287  29.249  35.726  1.00  0.00     0.173 A 
ATOM     72  F   UNL A   1      44.129  32.097  37.818  1.00  0.00    -0.203 F 
ATOM     73  C   UNL A   1      44.854  29.870  37.904  1.00  0.00     0.198 A 
ATOM     74  C   UNL A   1      44.039  28.258  36.348  1.00  0.00     0.198 A 
ATOM     75  F   UNL A   1      42.675  28.866  34.600  1.00  0.00    -0.203 F 
ATOM     76  F   UNL A   1      45.682  30.197  38.904  1.00  0.00    -0.200 F 
ATOM     77  C   UNL A   1      44.849  28.575  37.416  1.00  0.00     0.200 A 
ATOM     78  F   UNL A   1      44.034  27.015  35.845  1.00  0.00    -0.200 F 
ATOM     79  F   UNL A   1      45.660  27.647  37.938  1.00  0.00    -0.200 F 
ENDBRANCH  55  69
BRANCH  56  80
ATOM     80  C   UNL A   1      40.389  28.373  28.247  1.00  0.00     0.064 A 
ATOM     81  C   UNL A   1      40.921  28.093  26.978  1.00  0.00     0.173 A 
ATOM     82  C   UNL A   1      39.708  27.318  28.886  1.00  0.00     0.173 A 
ATOM     83  F   UNL A   1      41.627  29.027  26.324  1.00  0.00    -0.203 F 
ATOM     84  C   UNL A   1      40.794  26.829  26.394  1.00  0.00     0.198 A 
ATOM     85  C   UNL A   1      39.573  26.060  28.298  1.00  0.00     0.198 A 
ATOM     86  F   UNL A   1      39.241  27.454  30.136  1.00  0.00    -0.203 F 
ATOM     87  F   UNL A   1      41.367  26.580  25.208  1.00  0.00    -0.200 F 
ATOM     88  C   UNL A   1      40.127  25.812  27.057  1.00  0.00     0.200 A 
ATOM     89  F   UNL A   1      38.957  25.076  28.969  1.00  0.00    -0.200 F 
ATOM     90  F   UNL A   1      40.054  24.585  26.523  1.00  0.00    -0.200 F 
ENDBRANCH  56  80
BRANCH  68  91
ATOM     91  C   UNL A   1      43.769  33.438  29.934  1.00  0.00     0.064 A 
ATOM     92  C   UNL A   1      44.842  33.685  29.060  1.00  0.00     0.173 A 
ATOM     93  C   UNL A   1      42.571  34.121  29.688  1.00  0.00     0.173 A 
ATOM     94  F   UNL A   1      45.985  32.993  29.159  1.00  0.00    -0.203 F 
ATOM     95  C   UNL A   1      44.732  34.603  28.017  1.00  0.00     0.198 A 
ATOM     96  C   UNL A   1      42.451  35.008  28.622  1.00  0.00     0.198 A 
ATOM     97  F   UNL A   1      41.492  33.883  30.451  1.00  0.00    -0.203 F 
ATOM     98  F   UNL A   1      45.773  34.819  27.200  1.00  0.00    -0.200 F 
ATOM     99  C   UNL A   1      43.533  35.256  27.794  1.00  0.00     0.200 A 
ATOM    100  F   UNL A   1      41.272  35.596  28.376  1.00  0.00    -0.200 F 
ATOM    101  F   UNL A   1      43.409  36.101  26.760  1.00  0.00    -0.200 F 
ENDBRANCH  68  91
ENDBRANCH  42  43
ENDBRANCH  35  37
ENDBRANCH  34  35
ENDBRANCH  33  34
ENDBRANCH  32  33
ENDBRANCH  31  32
ENDBRANCH  30  31
ENDBRANCH   1  30
TORSDOF 21
ENDMDL
