MODEL 1
REMARK VINA RESULT:     -10.7      0.000      0.000
REMARK SMILES C#CCN(CC(=O)OCCOCCOCCOC(=O)c1ccc(-c2c3nc(c(-c4c(F)c(F)c(F)c(F)c4F)c4ccc([nH]4)c(-c4c(F)c(F)c(F)c(F)c4F)c4nc(c(-c5c(F)c(F)c(F)c(F)c5F)c5ccc2[nH]5)C=C4)C=C3)cc1)S(=O)(=O)c1ccc(C(C)(C)C)cc1
REMARK SMILES IDX 12 1 11 2 10 3 9 4 8 5 6 6 7 7 5 8 4 9 3 10 2 11 1 12 83 13
REMARK SMILES IDX 84 14 85 15 86 16 87 17 95 18 88 19 94 20 89 21 90 22 91 23
REMARK SMILES IDX 92 24 93 25 13 26 14 27 15 28 16 29 17 30 18 31 19 32 20 33
REMARK SMILES IDX 21 34 82 35 22 36 81 37 23 38 24 39 25 40 75 41 26 42 80 43
REMARK SMILES IDX 74 44 76 45 27 46 79 47 73 48 72 49 28 51 60 52 40 53 59 54
REMARK SMILES IDX 41 55 44 56 58 57 77 58 42 59 43 60 57 62 78 63 45 64 29 65
REMARK SMILES IDX 30 66 38 67 31 68 32 69 36 70 39 71 33 72 34 73 37 74 35 75
REMARK SMILES IDX 61 76 62 77 70 78 63 79 64 80 68 81 71 82 65 83 66 84 69 85
REMARK SMILES IDX 67 86 46 87 47 88 55 89 48 90 49 91 53 92 56 93 50 94 51 95
REMARK SMILES IDX 54 96 52 97
REMARK H PARENT 76 50 44 61
REMARK Flexibility Score: inf
ROOT
ATOM      1  C   UNL A   1      33.039  20.001  25.277  1.00  0.00     0.188 C 
ENDROOT
BRANCH   1   2
ATOM      2  O   UNL A   1      31.985  20.554  24.490  1.00  0.00    -0.376 OA
BRANCH   2   3
ATOM      3  C   UNL A   1      31.959  21.960  24.258  1.00  0.00     0.202 C 
BRANCH   3   4
ATOM      4  C   UNL A   1      32.704  22.415  23.002  1.00  0.00     0.261 C 
BRANCH   4   5
ATOM      5  O   UNL A   1      32.310  23.751  22.619  1.00  0.00    -0.462 OA
BRANCH   5   6
ATOM      6  C   UNL A   1      33.295  24.660  22.419  1.00  0.00     0.321 C 
ATOM      7  O   UNL A   1      33.449  25.280  21.372  1.00  0.00    -0.251 OA
BRANCH   6   8
ATOM      8  C   UNL A   1      34.096  24.977  23.665  1.00  0.00     0.226 C 
BRANCH   8   9
ATOM      9  N   UNL A   1      33.697  25.839  24.797  1.00  0.00    -0.175 NA
BRANCH   9  10
ATOM     10  C   UNL A   1      32.733  25.254  25.816  1.00  0.00     0.192 C 
BRANCH  10  11
ATOM     11  C   UNL A   1      33.409  24.102  26.541  1.00  0.00    -0.090 C 
ATOM     12  C   UNL A   1      33.990  23.114  27.162  1.00  0.00     0.005 C 
ENDBRANCH  10  11
ENDBRANCH   9  10
BRANCH   9  13
ATOM     13  S   UNL A   1      33.492  27.521  24.543  1.00  0.00     0.244 S 
ATOM     14  O   UNL A   1      33.777  28.123  25.833  1.00  0.00    -0.207 OA
ATOM     15  O   UNL A   1      34.221  27.891  23.346  1.00  0.00    -0.207 OA
BRANCH  13  16
ATOM     16  C   UNL A   1      31.843  28.007  24.159  1.00  0.00     0.082 A 
ATOM     17  C   UNL A   1      31.013  27.285  23.316  1.00  0.00     0.022 A 
ATOM     18  C   UNL A   1      31.512  29.318  24.516  1.00  0.00     0.022 A 
ATOM     19  C   UNL A   1      29.809  27.870  22.887  1.00  0.00     0.005 A 
ATOM     20  C   UNL A   1      30.327  29.893  24.078  1.00  0.00     0.005 A 
ATOM     21  C   UNL A   1      29.428  29.172  23.283  1.00  0.00    -0.043 A 
BRANCH  21  22
ATOM     22  C   UNL A   1      28.100  29.820  22.846  1.00  0.00    -0.013 C 
ATOM     23  C   UNL A   1      28.181  30.228  21.367  1.00  0.00     0.016 C 
ATOM     24  C   UNL A   1      26.901  28.878  23.071  1.00  0.00     0.016 C 
ATOM     25  C   UNL A   1      27.807  31.091  23.662  1.00  0.00     0.016 C 
ENDBRANCH  21  22
ENDBRANCH  13  16
ENDBRANCH   9  13
ENDBRANCH   8   9
ENDBRANCH   6   8
ENDBRANCH   5   6
ENDBRANCH   4   5
ENDBRANCH   3   4
ENDBRANCH   2   3
ENDBRANCH   1   2
BRANCH   1  26
ATOM     26  C   UNL A   1      34.037  19.056  24.606  1.00  0.00     0.188 C 
BRANCH  26  27
ATOM     27  O   UNL A   1      35.379  19.422  24.889  1.00  0.00    -0.376 OA
BRANCH  27  28
ATOM     28  C   UNL A   1      35.606  20.821  24.801  1.00  0.00     0.202 C 
BRANCH  28  29
ATOM     29  C   UNL A   1      36.678  21.251  25.807  1.00  0.00     0.261 C 
BRANCH  29  30
ATOM     30  O   UNL A   1      37.938  21.599  25.190  1.00  0.00    -0.460 OA
BRANCH  30  31
ATOM     31  C   UNL A   1      39.046  21.430  25.941  1.00  0.00     0.338 C 
ATOM     32  O   UNL A   1      39.694  20.410  26.085  1.00  0.00    -0.246 OA
BRANCH  31  33
ATOM     33  C   UNL A   1      39.404  22.710  26.590  1.00  0.00     0.060 A 
ATOM     34  C   UNL A   1      38.759  23.886  26.207  1.00  0.00     0.016 A 
ATOM     35  C   UNL A   1      40.509  22.772  27.441  1.00  0.00     0.016 A 
ATOM     36  C   UNL A   1      39.277  25.126  26.595  1.00  0.00     0.010 A 
ATOM     37  C   UNL A   1      41.009  24.018  27.854  1.00  0.00     0.010 A 
ATOM     38  C   UNL A   1      40.440  25.213  27.377  1.00  0.00    -0.014 A 
BRANCH  38  39
ATOM     39  C   UNL A   1      41.155  26.527  27.491  1.00  0.00     0.031 A 
ATOM     40  C   UNL A   1      40.585  27.603  28.398  1.00  0.00     0.074 A 
ATOM     41  C   UNL A   1      42.405  26.697  27.008  1.00  0.00     0.049 A 
ATOM     42  N   UNL A   1      41.064  28.789  28.696  1.00  0.00    -0.248 NA
ATOM     43  C   UNL A   1      39.330  27.282  29.099  1.00  0.00     0.031 C 
ATOM     44  C   UNL A   1      43.174  25.683  26.290  1.00  0.00     0.029 A 
ATOM     45  N   UNL A   1      43.297  27.738  27.167  1.00  0.00    -0.354 N 
ATOM     46  C   UNL A   1      40.153  29.362  29.577  1.00  0.00     0.074 A 
ATOM     47  C   UNL A   1      39.091  28.400  29.769  1.00  0.00     0.031 C 
ATOM     48  C   UNL A   1      44.448  26.097  26.182  1.00  0.00     0.029 A 
ATOM     49  C   UNL A   1      44.571  27.444  26.740  1.00  0.00     0.049 A 
ATOM     50  H   UNL A   1      43.045  28.609  27.551  1.00  0.00     0.167 HD
ATOM     51  C   UNL A   1      40.196  30.571  30.188  1.00  0.00     0.037 A 
ATOM     52  C   UNL A   1      45.711  28.164  26.793  1.00  0.00     0.037 A 
ATOM     53  C   UNL A   1      41.279  31.513  30.086  1.00  0.00     0.049 A 
ATOM     54  C   UNL A   1      45.697  29.551  27.386  1.00  0.00     0.074 A 
ATOM     55  C   UNL A   1      41.360  32.797  30.600  1.00  0.00     0.029 A 
ATOM     56  N   UNL A   1      42.489  31.258  29.463  1.00  0.00    -0.354 N 
ATOM     57  N   UNL A   1      44.762  30.149  28.081  1.00  0.00    -0.248 NA
ATOM     58  C   UNL A   1      46.901  30.370  27.177  1.00  0.00     0.031 C 
ATOM     59  C   UNL A   1      42.606  33.332  30.258  1.00  0.00     0.029 A 
ATOM     60  C   UNL A   1      43.318  32.364  29.569  1.00  0.00     0.049 A 
ATOM     61  H   UNL A   1      42.725  30.416  29.011  1.00  0.00     0.167 HD
ATOM     62  C   UNL A   1      45.264  31.409  28.390  1.00  0.00     0.074 A 
ATOM     63  C   UNL A   1      46.605  31.470  27.854  1.00  0.00     0.031 C 
ATOM     64  C   UNL A   1      44.654  32.431  29.040  1.00  0.00     0.037 A 
BRANCH  51  65
ATOM     65  C   UNL A   1      38.994  30.985  30.987  1.00  0.00     0.064 A 
ATOM     66  C   UNL A   1      37.873  31.583  30.397  1.00  0.00     0.173 A 
ATOM     67  C   UNL A   1      38.955  30.727  32.367  1.00  0.00     0.173 A 
ATOM     68  F   UNL A   1      37.869  31.867  29.086  1.00  0.00    -0.203 F 
ATOM     69  C   UNL A   1      36.760  31.924  31.165  1.00  0.00     0.198 A 
ATOM     70  C   UNL A   1      37.833  31.044  33.125  1.00  0.00     0.198 A 
ATOM     71  F   UNL A   1      40.003  30.149  32.975  1.00  0.00    -0.203 F 
ATOM     72  F   UNL A   1      35.711  32.530  30.592  1.00  0.00    -0.200 F 
ATOM     73  C   UNL A   1      36.739  31.646  32.526  1.00  0.00     0.200 A 
ATOM     74  F   UNL A   1      37.810  30.762  34.435  1.00  0.00    -0.200 F 
ATOM     75  F   UNL A   1      35.663  31.964  33.259  1.00  0.00    -0.200 F 
ENDBRANCH  51  65
BRANCH  52  76
ATOM     76  C   UNL A   1      46.984  27.615  26.240  1.00  0.00     0.064 A 
ATOM     77  C   UNL A   1      47.266  27.680  24.866  1.00  0.00     0.173 A 
ATOM     78  C   UNL A   1      47.914  26.960  27.060  1.00  0.00     0.173 A 
ATOM     79  F   UNL A   1      46.393  28.261  24.029  1.00  0.00    -0.203 F 
ATOM     80  C   UNL A   1      48.418  27.098  24.338  1.00  0.00     0.198 A 
ATOM     81  C   UNL A   1      49.084  26.415  26.538  1.00  0.00     0.198 A 
ATOM     82  F   UNL A   1      47.685  26.846  28.377  1.00  0.00    -0.203 F 
ATOM     83  F   UNL A   1      48.631  27.120  23.015  1.00  0.00    -0.200 F 
ATOM     84  C   UNL A   1      49.330  26.475  25.175  1.00  0.00     0.200 A 
ATOM     85  F   UNL A   1      49.966  25.823  27.354  1.00  0.00    -0.200 F 
ATOM     86  F   UNL A   1      50.439  25.920  24.668  1.00  0.00    -0.200 F 
ENDBRANCH  52  76
BRANCH  64  87
ATOM     87  C   UNL A   1      45.429  33.708  29.212  1.00  0.00     0.064 A 
ATOM     88  C   UNL A   1      46.330  33.879  30.275  1.00  0.00     0.173 A 
ATOM     89  C   UNL A   1      45.294  34.763  28.296  1.00  0.00     0.173 A 
ATOM     90  F   UNL A   1      46.493  32.906  31.184  1.00  0.00    -0.203 F 
ATOM     91  C   UNL A   1      47.037  35.069  30.436  1.00  0.00     0.198 A 
ATOM     92  C   UNL A   1      46.025  35.941  28.442  1.00  0.00     0.198 A 
ATOM     93  F   UNL A   1      44.456  34.652  27.254  1.00  0.00    -0.203 F 
ATOM     94  F   UNL A   1      47.847  35.227  31.492  1.00  0.00    -0.200 F 
ATOM     95  C   UNL A   1      46.888  36.097  29.517  1.00  0.00     0.200 A 
ATOM     96  F   UNL A   1      45.891  36.927  27.545  1.00  0.00    -0.200 F 
ATOM     97  F   UNL A   1      47.567  37.241  29.673  1.00  0.00    -0.200 F 
ENDBRANCH  64  87
ENDBRANCH  38  39
ENDBRANCH  31  33
ENDBRANCH  30  31
ENDBRANCH  29  30
ENDBRANCH  28  29
ENDBRANCH  27  28
ENDBRANCH  26  27
ENDBRANCH   1  26
TORSDOF 23
ENDMDL
MODEL 2
REMARK VINA RESULT:     -10.6      4.615      9.423
REMARK SMILES C#CCN(CC(=O)OCCOCCOCCOC(=O)c1ccc(-c2c3nc(c(-c4c(F)c(F)c(F)c(F)c4F)c4ccc([nH]4)c(-c4c(F)c(F)c(F)c(F)c4F)c4nc(c(-c5c(F)c(F)c(F)c(F)c5F)c5ccc2[nH]5)C=C4)C=C3)cc1)S(=O)(=O)c1ccc(C(C)(C)C)cc1
REMARK SMILES IDX 12 1 11 2 10 3 9 4 8 5 6 6 7 7 5 8 4 9 3 10 2 11 1 12 83 13
REMARK SMILES IDX 84 14 85 15 86 16 87 17 95 18 88 19 94 20 89 21 90 22 91 23
REMARK SMILES IDX 92 24 93 25 13 26 14 27 15 28 16 29 17 30 18 31 19 32 20 33
REMARK SMILES IDX 21 34 82 35 22 36 81 37 23 38 24 39 25 40 75 41 26 42 80 43
REMARK SMILES IDX 74 44 76 45 27 46 79 47 73 48 72 49 28 51 60 52 40 53 59 54
REMARK SMILES IDX 41 55 44 56 58 57 77 58 42 59 43 60 57 62 78 63 45 64 29 65
REMARK SMILES IDX 30 66 38 67 31 68 32 69 36 70 39 71 33 72 34 73 37 74 35 75
REMARK SMILES IDX 61 76 62 77 70 78 63 79 64 80 68 81 71 82 65 83 66 84 69 85
REMARK SMILES IDX 67 86 46 87 47 88 55 89 48 90 49 91 53 92 56 93 50 94 51 95
REMARK SMILES IDX 54 96 52 97
REMARK H PARENT 76 50 44 61
REMARK Flexibility Score: inf
ROOT
ATOM      1  C   UNL A   1      41.955  21.478  27.449  1.00  0.00     0.188 C 
ENDROOT
BRANCH   1   2
ATOM      2  O   UNL A   1      40.643  21.999  27.654  1.00  0.00    -0.376 OA
BRANCH   2   3
ATOM      3  C   UNL A   1      39.782  22.170  26.533  1.00  0.00     0.202 C 
BRANCH   3   4
ATOM      4  C   UNL A   1      38.614  23.132  26.762  1.00  0.00     0.261 C 
BRANCH   4   5
ATOM      5  O   UNL A   1      38.311  23.878  25.564  1.00  0.00    -0.462 OA
BRANCH   5   6
ATOM      6  C   UNL A   1      37.221  23.503  24.852  1.00  0.00     0.321 C 
ATOM      7  O   UNL A   1      37.250  22.679  23.943  1.00  0.00    -0.251 OA
BRANCH   6   8
ATOM      8  C   UNL A   1      35.920  24.063  25.387  1.00  0.00     0.226 C 
BRANCH   8   9
ATOM      9  N   UNL A   1      34.596  24.047  24.731  1.00  0.00    -0.175 NA
BRANCH   9  10
ATOM     10  C   UNL A   1      34.077  25.361  24.168  1.00  0.00     0.192 C 
BRANCH  10  11
ATOM     11  C   UNL A   1      33.738  26.296  25.318  1.00  0.00    -0.090 C 
ATOM     12  C   UNL A   1      33.447  27.099  26.304  1.00  0.00     0.005 C 
ENDBRANCH  10  11
ENDBRANCH   9  10
BRANCH   9  13
ATOM     13  S   UNL A   1      33.363  23.030  25.347  1.00  0.00     0.244 S 
ATOM     14  O   UNL A   1      33.593  23.003  26.781  1.00  0.00    -0.207 OA
ATOM     15  O   UNL A   1      32.098  23.455  24.782  1.00  0.00    -0.207 OA
BRANCH  13  16
ATOM     16  C   UNL A   1      33.474  21.349  24.830  1.00  0.00     0.082 A 
ATOM     17  C   UNL A   1      32.372  20.590  24.468  1.00  0.00     0.022 A 
ATOM     18  C   UNL A   1      34.701  20.728  25.085  1.00  0.00     0.022 A 
ATOM     19  C   UNL A   1      32.532  19.203  24.298  1.00  0.00     0.005 A 
ATOM     20  C   UNL A   1      34.847  19.357  24.927  1.00  0.00     0.005 A 
ATOM     21  C   UNL A   1      33.777  18.565  24.495  1.00  0.00    -0.043 A 
BRANCH  21  22
ATOM     22  C   UNL A   1      33.978  17.052  24.287  1.00  0.00    -0.013 C 
ATOM     23  C   UNL A   1      34.065  16.739  22.785  1.00  0.00     0.016 C 
ATOM     24  C   UNL A   1      35.237  16.535  25.011  1.00  0.00     0.016 C 
ATOM     25  C   UNL A   1      32.794  16.250  24.859  1.00  0.00     0.016 C 
ENDBRANCH  21  22
ENDBRANCH  13  16
ENDBRANCH   9  13
ENDBRANCH   8   9
ENDBRANCH   6   8
ENDBRANCH   5   6
ENDBRANCH   4   5
ENDBRANCH   3   4
ENDBRANCH   2   3
ENDBRANCH   1   2
BRANCH   1  26
ATOM     26  C   UNL A   1      42.181  20.492  26.302  1.00  0.00     0.188 C 
BRANCH  26  27
ATOM     27  O   UNL A   1      42.783  21.119  25.180  1.00  0.00    -0.376 OA
BRANCH  27  28
ATOM     28  C   UNL A   1      44.146  21.459  25.397  1.00  0.00     0.202 C 
BRANCH  28  29
ATOM     29  C   UNL A   1      44.566  22.594  24.459  1.00  0.00     0.261 C 
BRANCH  29  30
ATOM     30  O   UNL A   1      43.699  23.749  24.530  1.00  0.00    -0.460 OA
BRANCH  30  31
ATOM     31  C   UNL A   1      44.256  24.897  24.968  1.00  0.00     0.338 C 
ATOM     32  O   UNL A   1      45.382  25.303  24.750  1.00  0.00    -0.246 OA
BRANCH  31  33
ATOM     33  C   UNL A   1      43.271  25.650  25.774  1.00  0.00     0.060 A 
ATOM     34  C   UNL A   1      43.442  27.020  25.976  1.00  0.00     0.016 A 
ATOM     35  C   UNL A   1      42.285  24.964  26.483  1.00  0.00     0.016 A 
ATOM     36  C   UNL A   1      42.694  27.681  26.956  1.00  0.00     0.010 A 
ATOM     37  C   UNL A   1      41.514  25.638  27.446  1.00  0.00     0.010 A 
ATOM     38  C   UNL A   1      41.759  26.990  27.744  1.00  0.00    -0.014 A 
BRANCH  38  39
ATOM     39  C   UNL A   1      41.229  27.632  28.992  1.00  0.00     0.031 A 
ATOM     40  C   UNL A   1      42.114  27.698  30.223  1.00  0.00     0.074 A 
ATOM     41  C   UNL A   1      40.091  28.361  28.984  1.00  0.00     0.049 A 
ATOM     42  N   UNL A   1      41.887  28.257  31.389  1.00  0.00    -0.248 NA
ATOM     43  C   UNL A   1      43.453  27.094  30.111  1.00  0.00     0.031 C 
ATOM     44  C   UNL A   1      39.232  28.565  27.821  1.00  0.00     0.029 A 
ATOM     45  N   UNL A   1      39.537  29.173  29.952  1.00  0.00    -0.354 N 
ATOM     46  C   UNL A   1      43.029  28.034  32.152  1.00  0.00     0.074 A 
ATOM     47  C   UNL A   1      43.950  27.289  31.323  1.00  0.00     0.031 C 
ATOM     48  C   UNL A   1      38.342  29.532  28.101  1.00  0.00     0.029 A 
ATOM     49  C   UNL A   1      38.503  29.955  29.492  1.00  0.00     0.049 A 
ATOM     50  H   UNL A   1      39.852  29.190  30.885  1.00  0.00     0.167 HD
ATOM     51  C   UNL A   1      43.302  28.423  33.422  1.00  0.00     0.037 A 
ATOM     52  C   UNL A   1      37.771  30.907  30.108  1.00  0.00     0.037 A 
ATOM     53  C   UNL A   1      42.444  29.237  34.241  1.00  0.00     0.049 A 
ATOM     54  C   UNL A   1      38.035  31.238  31.555  1.00  0.00     0.074 A 
ATOM     55  C   UNL A   1      42.605  29.599  35.569  1.00  0.00     0.029 A 
ATOM     56  N   UNL A   1      41.285  29.852  33.799  1.00  0.00    -0.354 N 
ATOM     57  N   UNL A   1      39.038  30.886  32.321  1.00  0.00    -0.248 NA
ATOM     58  C   UNL A   1      37.040  32.089  32.229  1.00  0.00     0.031 C 
ATOM     59  C   UNL A   1      41.524  30.406  35.940  1.00  0.00     0.029 A 
ATOM     60  C   UNL A   1      40.715  30.582  34.831  1.00  0.00     0.049 A 
ATOM     61  H   UNL A   1      40.920  29.781  32.888  1.00  0.00     0.167 HD
ATOM     62  C   UNL A   1      38.795  31.470  33.559  1.00  0.00     0.074 A 
ATOM     63  C   UNL A   1      37.579  32.242  33.430  1.00  0.00     0.031 C 
ATOM     64  C   UNL A   1      39.506  31.354  34.708  1.00  0.00     0.037 A 
BRANCH  51  65
ATOM     65  C   UNL A   1      44.572  27.916  34.042  1.00  0.00     0.064 A 
ATOM     66  C   UNL A   1      45.756  28.664  34.042  1.00  0.00     0.173 A 
ATOM     67  C   UNL A   1      44.578  26.670  34.691  1.00  0.00     0.173 A 
ATOM     68  F   UNL A   1      45.805  29.851  33.419  1.00  0.00    -0.203 F 
ATOM     69  C   UNL A   1      46.908  28.176  34.657  1.00  0.00     0.198 A 
ATOM     70  C   UNL A   1      45.721  26.198  35.326  1.00  0.00     0.198 A 
ATOM     71  F   UNL A   1      43.466  25.920  34.723  1.00  0.00    -0.203 F 
ATOM     72  F   UNL A   1      48.042  28.888  34.615  1.00  0.00    -0.200 F 
ATOM     73  C   UNL A   1      46.887  26.947  35.305  1.00  0.00     0.200 A 
ATOM     74  F   UNL A   1      45.694  25.019  35.963  1.00  0.00    -0.200 F 
ATOM     75  F   UNL A   1      47.992  26.486  35.906  1.00  0.00    -0.200 F 
ENDBRANCH  51  65
BRANCH  52  76
ATOM     76  C   UNL A   1      36.679  31.615  29.379  1.00  0.00     0.064 A 
ATOM     77  C   UNL A   1      36.746  32.996  29.134  1.00  0.00     0.173 A 
ATOM     78  C   UNL A   1      35.519  30.942  28.969  1.00  0.00     0.173 A 
ATOM     79  F   UNL A   1      37.815  33.698  29.540  1.00  0.00    -0.203 F 
ATOM     80  C   UNL A   1      35.690  33.672  28.523  1.00  0.00     0.198 A 
ATOM     81  C   UNL A   1      34.483  31.611  28.321  1.00  0.00     0.198 A 
ATOM     82  F   UNL A   1      35.389  29.627  29.198  1.00  0.00    -0.203 F 
ATOM     83  F   UNL A   1      35.754  35.001  28.359  1.00  0.00    -0.200 F 
ATOM     84  C   UNL A   1      34.565  32.978  28.108  1.00  0.00     0.200 A 
ATOM     85  F   UNL A   1      33.403  30.931  27.915  1.00  0.00    -0.200 F 
ATOM     86  F   UNL A   1      33.553  33.627  27.518  1.00  0.00    -0.200 F 
ENDBRANCH  52  76
BRANCH  64  87
ATOM     87  C   UNL A   1      38.993  32.078  35.922  1.00  0.00     0.064 A 
ATOM     88  C   UNL A   1      38.178  31.435  36.867  1.00  0.00     0.173 A 
ATOM     89  C   UNL A   1      39.336  33.418  36.161  1.00  0.00     0.173 A 
ATOM     90  F   UNL A   1      37.814  30.157  36.684  1.00  0.00    -0.203 F 
ATOM     91  C   UNL A   1      37.697  32.115  37.984  1.00  0.00     0.198 A 
ATOM     92  C   UNL A   1      38.878  34.087  37.295  1.00  0.00     0.198 A 
ATOM     93  F   UNL A   1      40.121  34.081  35.298  1.00  0.00    -0.203 F 
ATOM     94  F   UNL A   1      36.874  31.494  38.840  1.00  0.00    -0.200 F 
ATOM     95  C   UNL A   1      38.050  33.438  38.199  1.00  0.00     0.200 A 
ATOM     96  F   UNL A   1      39.232  35.361  37.509  1.00  0.00    -0.200 F 
ATOM     97  F   UNL A   1      37.585  34.091  39.273  1.00  0.00    -0.200 F 
ENDBRANCH  64  87
ENDBRANCH  38  39
ENDBRANCH  31  33
ENDBRANCH  30  31
ENDBRANCH  29  30
ENDBRANCH  28  29
ENDBRANCH  27  28
ENDBRANCH  26  27
ENDBRANCH   1  26
TORSDOF 23
ENDMDL
MODEL 3
REMARK VINA RESULT:     -10.4      0.700      2.173
REMARK SMILES C#CCN(CC(=O)OCCOCCOCCOC(=O)c1ccc(-c2c3nc(c(-c4c(F)c(F)c(F)c(F)c4F)c4ccc([nH]4)c(-c4c(F)c(F)c(F)c(F)c4F)c4nc(c(-c5c(F)c(F)c(F)c(F)c5F)c5ccc2[nH]5)C=C4)C=C3)cc1)S(=O)(=O)c1ccc(C(C)(C)C)cc1
REMARK SMILES IDX 12 1 11 2 10 3 9 4 8 5 6 6 7 7 5 8 4 9 3 10 2 11 1 12 83 13
REMARK SMILES IDX 84 14 85 15 86 16 87 17 95 18 88 19 94 20 89 21 90 22 91 23
REMARK SMILES IDX 92 24 93 25 13 26 14 27 15 28 16 29 17 30 18 31 19 32 20 33
REMARK SMILES IDX 21 34 82 35 22 36 81 37 23 38 24 39 25 40 75 41 26 42 80 43
REMARK SMILES IDX 74 44 76 45 27 46 79 47 73 48 72 49 28 51 60 52 40 53 59 54
REMARK SMILES IDX 41 55 44 56 58 57 77 58 42 59 43 60 57 62 78 63 45 64 29 65
REMARK SMILES IDX 30 66 38 67 31 68 32 69 36 70 39 71 33 72 34 73 37 74 35 75
REMARK SMILES IDX 61 76 62 77 70 78 63 79 64 80 68 81 71 82 65 83 66 84 69 85
REMARK SMILES IDX 67 86 46 87 47 88 55 89 48 90 49 91 53 92 56 93 50 94 51 95
REMARK SMILES IDX 54 96 52 97
REMARK H PARENT 76 50 44 61
REMARK Flexibility Score: inf
ROOT
ATOM      1  C   UNL A   1      32.903  20.259  25.721  1.00  0.00     0.188 C 
ENDROOT
BRANCH   1   2
ATOM      2  O   UNL A   1      31.794  21.082  25.363  1.00  0.00    -0.376 OA
BRANCH   2   3
ATOM      3  C   UNL A   1      32.025  22.448  25.030  1.00  0.00     0.202 C 
BRANCH   3   4
ATOM      4  C   UNL A   1      32.239  22.717  23.540  1.00  0.00     0.261 C 
BRANCH   4   5
ATOM      5  O   UNL A   1      31.637  23.969  23.145  1.00  0.00    -0.462 OA
BRANCH   5   6
ATOM      6  C   UNL A   1      32.467  24.975  22.781  1.00  0.00     0.321 C 
ATOM      7  O   UNL A   1      32.327  25.640  21.759  1.00  0.00    -0.251 OA
BRANCH   6   8
ATOM      8  C   UNL A   1      33.497  25.329  23.834  1.00  0.00     0.226 C 
BRANCH   8   9
ATOM      9  N   UNL A   1      33.434  26.426  24.821  1.00  0.00    -0.175 NA
BRANCH   9  10
ATOM     10  C   UNL A   1      32.460  26.272  25.978  1.00  0.00     0.192 C 
BRANCH  10  11
ATOM     11  C   UNL A   1      31.044  26.199  25.431  1.00  0.00    -0.090 C 
ATOM     12  C   UNL A   1      29.828  26.137  24.962  1.00  0.00     0.005 C 
ENDBRANCH  10  11
ENDBRANCH   9  10
BRANCH   9  13
ATOM     13  S   UNL A   1      33.624  28.045  24.294  1.00  0.00     0.244 S 
ATOM     14  O   UNL A   1      34.130  28.751  25.457  1.00  0.00    -0.207 OA
ATOM     15  O   UNL A   1      34.340  28.032  23.034  1.00  0.00    -0.207 OA
BRANCH  13  16
ATOM     16  C   UNL A   1      32.119  28.860  23.877  1.00  0.00     0.082 A 
ATOM     17  C   UNL A   1      31.414  29.659  24.764  1.00  0.00     0.022 A 
ATOM     18  C   UNL A   1      31.515  28.423  22.693  1.00  0.00     0.022 A 
ATOM     19  C   UNL A   1      30.115  30.072  24.418  1.00  0.00     0.005 A 
ATOM     20  C   UNL A   1      30.227  28.825  22.365  1.00  0.00     0.005 A 
ATOM     21  C   UNL A   1      29.508  29.688  23.201  1.00  0.00    -0.043 A 
BRANCH  21  22
ATOM     22  C   UNL A   1      28.097  30.152  22.793  1.00  0.00    -0.013 C 
ATOM     23  C   UNL A   1      27.077  29.042  23.089  1.00  0.00     0.016 C 
ATOM     24  C   UNL A   1      27.690  31.453  23.513  1.00  0.00     0.016 C 
ATOM     25  C   UNL A   1      28.027  30.456  21.286  1.00  0.00     0.016 C 
ENDBRANCH  21  22
ENDBRANCH  13  16
ENDBRANCH   9  13
ENDBRANCH   8   9
ENDBRANCH   6   8
ENDBRANCH   5   6
ENDBRANCH   4   5
ENDBRANCH   3   4
ENDBRANCH   2   3
ENDBRANCH   1   2
BRANCH   1  26
ATOM     26  C   UNL A   1      33.546  19.385  24.644  1.00  0.00     0.188 C 
BRANCH  26  27
ATOM     27  O   UNL A   1      34.960  19.512  24.639  1.00  0.00    -0.376 OA
BRANCH  27  28
ATOM     28  C   UNL A   1      35.399  20.861  24.721  1.00  0.00     0.202 C 
BRANCH  28  29
ATOM     29  C   UNL A   1      36.553  20.984  25.720  1.00  0.00     0.261 C 
BRANCH  29  30
ATOM     30  O   UNL A   1      37.832  21.236  25.093  1.00  0.00    -0.460 OA
BRANCH  30  31
ATOM     31  C   UNL A   1      38.927  21.067  25.863  1.00  0.00     0.338 C 
ATOM     32  O   UNL A   1      39.555  20.041  26.040  1.00  0.00    -0.246 OA
BRANCH  31  33
ATOM     33  C   UNL A   1      39.298  22.357  26.484  1.00  0.00     0.060 A 
ATOM     34  C   UNL A   1      38.632  23.524  26.110  1.00  0.00     0.016 A 
ATOM     35  C   UNL A   1      40.431  22.436  27.296  1.00  0.00     0.016 A 
ATOM     36  C   UNL A   1      39.155  24.772  26.466  1.00  0.00     0.010 A 
ATOM     37  C   UNL A   1      40.936  23.690  27.677  1.00  0.00     0.010 A 
ATOM     38  C   UNL A   1      40.344  24.876  27.207  1.00  0.00    -0.014 A 
BRANCH  38  39
ATOM     39  C   UNL A   1      41.054  26.195  27.281  1.00  0.00     0.031 A 
ATOM     40  C   UNL A   1      40.525  27.267  28.217  1.00  0.00     0.074 A 
ATOM     41  C   UNL A   1      42.274  26.374  26.731  1.00  0.00     0.049 A 
ATOM     42  N   UNL A   1      41.011  28.457  28.488  1.00  0.00    -0.248 NA
ATOM     43  C   UNL A   1      39.313  26.937  28.986  1.00  0.00     0.031 C 
ATOM     44  C   UNL A   1      43.010  25.367  25.972  1.00  0.00     0.029 A 
ATOM     45  N   UNL A   1      43.165  27.422  26.840  1.00  0.00    -0.354 N 
ATOM     46  C   UNL A   1      40.145  29.024  29.418  1.00  0.00     0.074 A 
ATOM     47  C   UNL A   1      39.102  28.053  29.668  1.00  0.00     0.031 C 
ATOM     48  C   UNL A   1      44.273  25.791  25.794  1.00  0.00     0.029 A 
ATOM     49  C   UNL A   1      44.416  27.138  26.344  1.00  0.00     0.049 A 
ATOM     50  H   UNL A   1      42.927  28.292  27.237  1.00  0.00     0.167 HD
ATOM     51  C   UNL A   1      40.211  30.234  30.025  1.00  0.00     0.037 A 
ATOM     52  C   UNL A   1      45.552  27.868  26.334  1.00  0.00     0.037 A 
ATOM     53  C   UNL A   1      41.279  31.184  29.864  1.00  0.00     0.049 A 
ATOM     54  C   UNL A   1      45.558  29.255  26.928  1.00  0.00     0.074 A 
ATOM     55  C   UNL A   1      41.377  32.469  30.372  1.00  0.00     0.029 A 
ATOM     56  N   UNL A   1      42.455  30.938  29.176  1.00  0.00    -0.354 N 
ATOM     57  N   UNL A   1      44.658  29.846  27.672  1.00  0.00    -0.248 NA
ATOM     58  C   UNL A   1      46.743  30.084  26.652  1.00  0.00     0.031 C 
ATOM     59  C   UNL A   1      42.599  33.013  29.962  1.00  0.00     0.029 A 
ATOM     60  C   UNL A   1      43.280  32.051  29.236  1.00  0.00     0.049 A 
ATOM     61  H   UNL A   1      42.673  30.097  28.712  1.00  0.00     0.167 HD
ATOM     62  C   UNL A   1      45.166  31.110  27.953  1.00  0.00     0.074 A 
ATOM     63  C   UNL A   1      46.476  31.182  27.344  1.00  0.00     0.031 C 
ATOM     64  C   UNL A   1      44.585  32.128  28.635  1.00  0.00     0.037 A 
BRANCH  51  65
ATOM     65  C   UNL A   1      39.051  30.638  30.888  1.00  0.00     0.064 A 
ATOM     66  C   UNL A   1      39.049  30.452  32.277  1.00  0.00     0.173 A 
ATOM     67  C   UNL A   1      37.940  31.270  30.306  1.00  0.00     0.173 A 
ATOM     68  F   UNL A   1      40.079  29.837  32.877  1.00  0.00    -0.203 F 
ATOM     69  C   UNL A   1      37.968  30.870  33.051  1.00  0.00     0.198 A 
ATOM     70  C   UNL A   1      36.875  31.710  31.085  1.00  0.00     0.198 A 
ATOM     71  F   UNL A   1      37.899  31.476  28.981  1.00  0.00    -0.203 F 
ATOM     72  F   UNL A   1      37.967  30.651  34.373  1.00  0.00    -0.200 F 
ATOM     73  C   UNL A   1      36.886  31.506  32.455  1.00  0.00     0.200 A 
ATOM     74  F   UNL A   1      35.839  32.335  30.509  1.00  0.00    -0.200 F 
ATOM     75  F   UNL A   1      35.854  31.918  33.203  1.00  0.00    -0.200 F 
ENDBRANCH  51  65
BRANCH  52  76
ATOM     76  C   UNL A   1      46.796  27.329  25.713  1.00  0.00     0.064 A 
ATOM     77  C   UNL A   1      47.664  26.493  26.434  1.00  0.00     0.173 A 
ATOM     78  C   UNL A   1      47.176  27.686  24.411  1.00  0.00     0.173 A 
ATOM     79  F   UNL A   1      47.370  26.150  27.697  1.00  0.00    -0.203 F 
ATOM     80  C   UNL A   1      48.866  26.051  25.880  1.00  0.00     0.198 A 
ATOM     81  C   UNL A   1      48.357  27.211  23.845  1.00  0.00     0.198 A 
ATOM     82  F   UNL A   1      46.398  28.501  23.684  1.00  0.00    -0.203 F 
ATOM     83  F   UNL A   1      49.705  25.307  26.613  1.00  0.00    -0.200 F 
ATOM     84  C   UNL A   1      49.206  26.403  24.584  1.00  0.00     0.200 A 
ATOM     85  F   UNL A   1      48.674  27.547  22.587  1.00  0.00    -0.200 F 
ATOM     86  F   UNL A   1      50.359  25.976  24.051  1.00  0.00    -0.200 F 
ENDBRANCH  52  76
BRANCH  64  87
ATOM     87  C   UNL A   1      45.358  33.411  28.764  1.00  0.00     0.064 A 
ATOM     88  C   UNL A   1      45.204  34.454  27.837  1.00  0.00     0.173 A 
ATOM     89  C   UNL A   1      46.242  33.616  29.835  1.00  0.00     0.173 A 
ATOM     90  F   UNL A   1      44.378  34.309  26.790  1.00  0.00    -0.203 F 
ATOM     91  C   UNL A   1      45.931  35.636  27.956  1.00  0.00     0.198 A 
ATOM     92  C   UNL A   1      46.945  34.812  29.968  1.00  0.00     0.198 A 
ATOM     93  F   UNL A   1      46.421  32.659  30.757  1.00  0.00    -0.203 F 
ATOM     94  F   UNL A   1      45.808  36.593  27.025  1.00  0.00    -0.200 F 
ATOM     95  C   UNL A   1      46.798  35.816  29.023  1.00  0.00     0.200 A 
ATOM     96  F   UNL A   1      47.771  34.990  31.008  1.00  0.00    -0.200 F 
ATOM     97  F   UNL A   1      47.497  36.954  29.135  1.00  0.00    -0.200 F 
ENDBRANCH  64  87
ENDBRANCH  38  39
ENDBRANCH  31  33
ENDBRANCH  30  31
ENDBRANCH  29  30
ENDBRANCH  28  29
ENDBRANCH  27  28
ENDBRANCH  26  27
ENDBRANCH   1  26
TORSDOF 23
ENDMDL
