MODEL 1
REMARK VINA RESULT:     -11.4      0.000      0.000
REMARK SMILES C[C@H]1CCCN(C(=O)c2cn(C)nc2C(=O)OCCOCCOCCOC(=O)c2ccc(-c3c4nc(c(-c5c(F)c(F)c(F)c(F)c5F)c5ccc([nH]5)c(-c5c(F)c(F)c(F)c(F)c5F)c5nc(c(-c6c(F)c(F)c(F)c(F)c6F)c6ccc3[nH]6)C=C5)C=C4)cc2)C1
REMARK SMILES IDX 21 1 20 2 19 3 18 4 17 5 15 6 16 7 14 8 9 9 10 10 11 11
REMARK SMILES IDX 13 12 12 13 7 14 8 15 6 16 1 17 2 18 3 19 92 20 4 21 5 22
REMARK SMILES IDX 22 23 23 24 24 25 25 26 26 27 27 28 28 29 29 30 30 31 91 32
REMARK SMILES IDX 31 33 90 34 32 35 33 36 34 37 84 38 35 39 89 40 83 41 85 42
REMARK SMILES IDX 36 43 88 44 82 45 81 46 37 48 69 49 49 50 68 51 50 52 53 53
REMARK SMILES IDX 67 54 86 55 51 56 52 57 66 59 87 60 54 61 38 62 39 63 47 64
REMARK SMILES IDX 40 65 41 66 45 67 48 68 42 69 43 70 46 71 44 72 70 73 71 74
REMARK SMILES IDX 79 75 72 76 73 77 77 78 80 79 74 80 75 81 78 82 76 83 55 84
REMARK SMILES IDX 56 85 64 86 57 87 58 88 62 89 65 90 59 91 60 92 63 93 61 94
REMARK H PARENT 85 47 53 58
REMARK Flexibility Score: inf
ROOT
ATOM      1  C   UNL A   1      40.402  19.958  25.945  1.00  0.00     0.188 C 
ENDROOT
BRANCH   1   2
ATOM      2  O   UNL A   1      40.110  21.211  26.530  1.00  0.00    -0.376 OA
BRANCH   2   3
ATOM      3  C   UNL A   1      38.996  21.969  26.078  1.00  0.00     0.202 C 
BRANCH   3   4
ATOM      4  C   UNL A   1      37.833  21.334  25.304  1.00  0.00     0.261 C 
BRANCH   4   5
ATOM      5  O   UNL A   1      36.540  21.754  25.750  1.00  0.00    -0.458 OA
BRANCH   5   6
ATOM      6  C   UNL A   1      35.682  22.180  24.770  1.00  0.00     0.359 C 
ATOM      7  O   UNL A   1      36.010  22.914  23.843  1.00  0.00    -0.244 OA
BRANCH   6   8
ATOM      8  C   UNL A   1      34.373  21.506  24.840  1.00  0.00     0.183 A 
ATOM      9  C   UNL A   1      33.088  22.079  25.106  1.00  0.00     0.092 A 
ATOM     10  C   UNL A   1      32.220  21.003  25.048  1.00  0.00     0.123 A 
ATOM     11  N   UNL A   1      32.991  19.892  24.897  1.00  0.00    -0.274 N 
ATOM     12  N   UNL A   1      34.293  20.160  24.759  1.00  0.00    -0.165 NA
ATOM     13  C   UNL A   1      32.552  18.518  24.940  1.00  0.00     0.173 C 
BRANCH   9  14
ATOM     14  C   UNL A   1      32.799  23.494  25.278  1.00  0.00     0.257 C 
ATOM     15  O   UNL A   1      32.399  23.885  26.374  1.00  0.00    -0.269 OA
BRANCH  14  16
ATOM     16  N   UNL A   1      32.986  24.377  24.212  1.00  0.00    -0.338 N 
ATOM     17  C   UNL A   1      30.132  25.376  23.686  1.00  0.00     0.009 C 
ATOM     18  C   UNL A   1      31.304  25.351  22.700  1.00  0.00     0.005 C 
ATOM     19  C   UNL A   1      32.097  26.671  22.727  1.00  0.00     0.007 C 
ATOM     20  C   UNL A   1      32.228  24.157  22.982  1.00  0.00     0.123 C 
ATOM     21  C   UNL A   1      32.997  26.806  23.961  1.00  0.00     0.022 C 
ATOM     22  C   UNL A   1      33.851  25.554  24.158  1.00  0.00     0.120 C 
ENDBRANCH  14  16
ENDBRANCH   9  14
ENDBRANCH   6   8
ENDBRANCH   5   6
ENDBRANCH   4   5
ENDBRANCH   3   4
ENDBRANCH   2   3
ENDBRANCH   1   2
BRANCH   1  23
ATOM     23  C   UNL A   1      41.759  19.273  26.212  1.00  0.00     0.188 C 
BRANCH  23  24
ATOM     24  O   UNL A   1      42.736  19.199  25.203  1.00  0.00    -0.376 OA
BRANCH  24  25
ATOM     25  C   UNL A   1      43.793  20.143  25.143  1.00  0.00     0.202 C 
BRANCH  25  26
ATOM     26  C   UNL A   1      43.774  21.537  25.792  1.00  0.00     0.261 C 
BRANCH  26  27
ATOM     27  O   UNL A   1      43.023  22.563  25.137  1.00  0.00    -0.460 OA
BRANCH  27  28
ATOM     28  C   UNL A   1      43.672  23.748  25.003  1.00  0.00     0.338 C 
ATOM     29  O   UNL A   1      44.529  24.041  24.194  1.00  0.00    -0.246 OA
BRANCH  28  30
ATOM     30  C   UNL A   1      43.046  24.739  25.898  1.00  0.00     0.060 A 
ATOM     31  C   UNL A   1      43.637  26.004  26.010  1.00  0.00     0.016 A 
ATOM     32  C   UNL A   1      41.928  24.403  26.662  1.00  0.00     0.016 A 
ATOM     33  C   UNL A   1      43.119  26.939  26.903  1.00  0.00     0.010 A 
ATOM     34  C   UNL A   1      41.425  25.334  27.575  1.00  0.00     0.010 A 
ATOM     35  C   UNL A   1      42.034  26.595  27.719  1.00  0.00    -0.014 A 
BRANCH  35  36
ATOM     36  C   UNL A   1      41.640  27.490  28.832  1.00  0.00     0.031 A 
ATOM     37  C   UNL A   1      42.405  27.411  30.124  1.00  0.00     0.074 A 
ATOM     38  C   UNL A   1      40.626  28.361  28.696  1.00  0.00     0.049 A 
ATOM     39  N   UNL A   1      42.199  28.042  31.252  1.00  0.00    -0.248 NA
ATOM     40  C   UNL A   1      43.559  26.496  30.149  1.00  0.00     0.031 C 
ATOM     41  C   UNL A   1      39.834  28.555  27.483  1.00  0.00     0.029 A 
ATOM     42  N   UNL A   1      40.077  29.237  29.601  1.00  0.00    -0.354 N 
ATOM     43  C   UNL A   1      43.180  27.586  32.122  1.00  0.00     0.074 A 
ATOM     44  C   UNL A   1      43.975  26.617  31.401  1.00  0.00     0.031 C 
ATOM     45  C   UNL A   1      38.880  29.471  27.728  1.00  0.00     0.029 A 
ATOM     46  C   UNL A   1      38.974  29.900  29.122  1.00  0.00     0.049 A 
ATOM     47  H   UNL A   1      40.439  29.374  30.506  1.00  0.00     0.167 HD
ATOM     48  C   UNL A   1      43.394  27.945  33.409  1.00  0.00     0.037 A 
ATOM     49  C   UNL A   1      38.120  30.732  29.751  1.00  0.00     0.037 A 
ATOM     50  C   UNL A   1      42.612  28.921  34.120  1.00  0.00     0.049 A 
ATOM     51  C   UNL A   1      38.357  31.075  31.203  1.00  0.00     0.074 A 
ATOM     52  C   UNL A   1      42.788  29.390  35.410  1.00  0.00     0.029 A 
ATOM     53  N   UNL A   1      41.500  29.569  33.605  1.00  0.00    -0.354 N 
ATOM     54  N   UNL A   1      39.317  30.680  32.005  1.00  0.00    -0.248 NA
ATOM     55  C   UNL A   1      37.391  31.985  31.837  1.00  0.00     0.031 C 
ATOM     56  C   UNL A   1      41.744  30.274  35.699  1.00  0.00     0.029 A 
ATOM     57  C   UNL A   1      40.958  30.407  34.565  1.00  0.00     0.049 A 
ATOM     58  H   UNL A   1      41.149  29.451  32.694  1.00  0.00     0.167 HD
ATOM     59  C   UNL A   1      39.091  31.319  33.218  1.00  0.00     0.074 A 
ATOM     60  C   UNL A   1      37.911  32.139  33.045  1.00  0.00     0.031 C 
ATOM     61  C   UNL A   1      39.794  31.234  34.374  1.00  0.00     0.037 A 
BRANCH  48  62
ATOM     62  C   UNL A   1      44.502  27.262  34.156  1.00  0.00     0.064 A 
ATOM     63  C   UNL A   1      45.795  27.799  34.219  1.00  0.00     0.173 A 
ATOM     64  C   UNL A   1      44.238  26.092  34.887  1.00  0.00     0.173 A 
ATOM     65  F   UNL A   1      46.100  28.907  33.527  1.00  0.00    -0.203 F 
ATOM     66  C   UNL A   1      46.787  27.186  34.981  1.00  0.00     0.198 A 
ATOM     67  C   UNL A   1      45.224  25.498  35.669  1.00  0.00     0.198 A 
ATOM     68  F   UNL A   1      43.015  25.541  34.861  1.00  0.00    -0.203 F 
ATOM     69  F   UNL A   1      48.024  27.700  35.005  1.00  0.00    -0.200 F 
ATOM     70  C   UNL A   1      46.498  26.044  35.713  1.00  0.00     0.200 A 
ATOM     71  F   UNL A   1      44.938  24.403  36.386  1.00  0.00    -0.200 F 
ATOM     72  F   UNL A   1      47.447  25.468  36.462  1.00  0.00    -0.200 F 
ENDBRANCH  48  62
BRANCH  49  73
ATOM     73  C   UNL A   1      36.933  31.275  29.036  1.00  0.00     0.064 A 
ATOM     74  C   UNL A   1      36.861  32.625  28.666  1.00  0.00     0.173 A 
ATOM     75  C   UNL A   1      35.819  30.466  28.768  1.00  0.00     0.173 A 
ATOM     76  F   UNL A   1      37.888  33.447  28.927  1.00  0.00    -0.203 F 
ATOM     77  C   UNL A   1      35.707  33.153  28.089  1.00  0.00     0.198 A 
ATOM     78  C   UNL A   1      34.678  30.987  28.160  1.00  0.00     0.198 A 
ATOM     79  F   UNL A   1      35.832  29.169  29.107  1.00  0.00    -0.203 F 
ATOM     80  F   UNL A   1      35.638  34.463  27.815  1.00  0.00    -0.200 F 
ATOM     81  C   UNL A   1      34.618  32.334  27.835  1.00  0.00     0.200 A 
ATOM     82  F   UNL A   1      33.631  30.190  27.909  1.00  0.00    -0.200 F 
ATOM     83  F   UNL A   1      33.504  32.845  27.293  1.00  0.00    -0.200 F 
ENDBRANCH  49  73
BRANCH  61  84
ATOM     84  C   UNL A   1      39.346  32.085  35.528  1.00  0.00     0.064 A 
ATOM     85  C   UNL A   1      39.738  33.425  35.657  1.00  0.00     0.173 A 
ATOM     86  C   UNL A   1      38.472  31.562  36.494  1.00  0.00     0.173 A 
ATOM     87  F   UNL A   1      40.583  33.970  34.768  1.00  0.00    -0.203 F 
ATOM     88  C   UNL A   1      39.295  34.201  36.725  1.00  0.00     0.198 A 
ATOM     89  C   UNL A   1      38.003  32.351  37.540  1.00  0.00     0.198 A 
ATOM     90  F   UNL A   1      38.056  30.289  36.413  1.00  0.00    -0.203 F 
ATOM     91  F   UNL A   1      39.724  35.464  36.856  1.00  0.00    -0.200 F 
ATOM     92  C   UNL A   1      38.422  33.666  37.660  1.00  0.00     0.200 A 
ATOM     93  F   UNL A   1      37.144  31.838  38.433  1.00  0.00    -0.200 F 
ATOM     94  F   UNL A   1      37.989  34.418  38.682  1.00  0.00    -0.200 F 
ENDBRANCH  61  84
ENDBRANCH  35  36
ENDBRANCH  28  30
ENDBRANCH  27  28
ENDBRANCH  26  27
ENDBRANCH  25  26
ENDBRANCH  24  25
ENDBRANCH  23  24
ENDBRANCH   1  23
TORSDOF 19
ENDMDL
MODEL 2
REMARK VINA RESULT:     -11.1      0.939      2.565
REMARK SMILES C[C@H]1CCCN(C(=O)c2cn(C)nc2C(=O)OCCOCCOCCOC(=O)c2ccc(-c3c4nc(c(-c5c(F)c(F)c(F)c(F)c5F)c5ccc([nH]5)c(-c5c(F)c(F)c(F)c(F)c5F)c5nc(c(-c6c(F)c(F)c(F)c(F)c6F)c6ccc3[nH]6)C=C5)C=C4)cc2)C1
REMARK SMILES IDX 21 1 20 2 19 3 18 4 17 5 15 6 16 7 14 8 9 9 10 10 11 11
REMARK SMILES IDX 13 12 12 13 7 14 8 15 6 16 1 17 2 18 3 19 92 20 4 21 5 22
REMARK SMILES IDX 22 23 23 24 24 25 25 26 26 27 27 28 28 29 29 30 30 31 91 32
REMARK SMILES IDX 31 33 90 34 32 35 33 36 34 37 84 38 35 39 89 40 83 41 85 42
REMARK SMILES IDX 36 43 88 44 82 45 81 46 37 48 69 49 49 50 68 51 50 52 53 53
REMARK SMILES IDX 67 54 86 55 51 56 52 57 66 59 87 60 54 61 38 62 39 63 47 64
REMARK SMILES IDX 40 65 41 66 45 67 48 68 42 69 43 70 46 71 44 72 70 73 71 74
REMARK SMILES IDX 79 75 72 76 73 77 77 78 80 79 74 80 75 81 78 82 76 83 55 84
REMARK SMILES IDX 56 85 64 86 57 87 58 88 62 89 65 90 59 91 60 92 63 93 61 94
REMARK H PARENT 85 47 53 58
REMARK Flexibility Score: inf
ROOT
ATOM      1  C   UNL A   1      40.028  20.226  26.040  1.00  0.00     0.188 C 
ENDROOT
BRANCH   1   2
ATOM      2  O   UNL A   1      39.751  21.460  26.670  1.00  0.00    -0.376 OA
BRANCH   2   3
ATOM      3  C   UNL A   1      38.953  22.435  26.014  1.00  0.00     0.202 C 
BRANCH   3   4
ATOM      4  C   UNL A   1      37.420  22.365  26.000  1.00  0.00     0.261 C 
BRANCH   4   5
ATOM      5  O   UNL A   1      36.779  23.644  26.033  1.00  0.00    -0.458 OA
BRANCH   5   6
ATOM      6  C   UNL A   1      35.969  23.932  24.965  1.00  0.00     0.359 C 
ATOM      7  O   UNL A   1      36.200  23.573  23.815  1.00  0.00    -0.244 OA
BRANCH   6   8
ATOM      8  C   UNL A   1      34.696  24.548  25.378  1.00  0.00     0.183 A 
ATOM      9  C   UNL A   1      33.614  23.956  26.105  1.00  0.00     0.092 A 
ATOM     10  C   UNL A   1      32.685  24.977  26.216  1.00  0.00     0.123 A 
ATOM     11  N   UNL A   1      33.164  26.018  25.483  1.00  0.00    -0.274 N 
ATOM     12  N   UNL A   1      34.379  25.796  24.971  1.00  0.00    -0.165 NA
ATOM     13  C   UNL A   1      32.478  27.248  25.171  1.00  0.00     0.173 C 
BRANCH   9  14
ATOM     14  C   UNL A   1      33.592  22.617  26.672  1.00  0.00     0.257 C 
ATOM     15  O   UNL A   1      34.159  22.423  27.746  1.00  0.00    -0.269 OA
BRANCH  14  16
ATOM     16  N   UNL A   1      32.927  21.589  26.001  1.00  0.00    -0.338 N 
ATOM     17  C   UNL A   1      32.988  22.563  23.091  1.00  0.00     0.009 C 
ATOM     18  C   UNL A   1      31.997  21.580  23.721  1.00  0.00     0.005 C 
ATOM     19  C   UNL A   1      32.470  20.122  23.572  1.00  0.00     0.007 C 
ATOM     20  C   UNL A   1      31.752  21.922  25.198  1.00  0.00     0.123 C 
ATOM     21  C   UNL A   1      33.608  19.759  24.534  1.00  0.00     0.022 C 
ATOM     22  C   UNL A   1      33.267  20.167  25.967  1.00  0.00     0.120 C 
ENDBRANCH  14  16
ENDBRANCH   9  14
ENDBRANCH   6   8
ENDBRANCH   5   6
ENDBRANCH   4   5
ENDBRANCH   3   4
ENDBRANCH   2   3
ENDBRANCH   1   2
BRANCH   1  23
ATOM     23  C   UNL A   1      41.345  19.479  26.340  1.00  0.00     0.188 C 
BRANCH  23  24
ATOM     24  O   UNL A   1      42.302  19.275  25.328  1.00  0.00    -0.376 OA
BRANCH  24  25
ATOM     25  C   UNL A   1      43.481  20.061  25.274  1.00  0.00     0.202 C 
BRANCH  25  26
ATOM     26  C   UNL A   1      43.613  21.500  25.801  1.00  0.00     0.261 C 
BRANCH  26  27
ATOM     27  O   UNL A   1      42.941  22.535  25.079  1.00  0.00    -0.460 OA
BRANCH  27  28
ATOM     28  C   UNL A   1      43.623  23.704  24.991  1.00  0.00     0.338 C 
ATOM     29  O   UNL A   1      44.513  23.991  24.216  1.00  0.00    -0.246 OA
BRANCH  28  30
ATOM     30  C   UNL A   1      42.995  24.693  25.888  1.00  0.00     0.060 A 
ATOM     31  C   UNL A   1      43.541  25.982  25.947  1.00  0.00     0.016 A 
ATOM     32  C   UNL A   1      41.922  24.334  26.703  1.00  0.00     0.016 A 
ATOM     33  C   UNL A   1      43.023  26.918  26.838  1.00  0.00     0.010 A 
ATOM     34  C   UNL A   1      41.419  25.267  27.613  1.00  0.00     0.010 A 
ATOM     35  C   UNL A   1      41.984  26.553  27.704  1.00  0.00    -0.014 A 
BRANCH  35  36
ATOM     36  C   UNL A   1      41.600  27.460  28.811  1.00  0.00     0.031 A 
ATOM     37  C   UNL A   1      42.372  27.390  30.100  1.00  0.00     0.074 A 
ATOM     38  C   UNL A   1      40.588  28.334  28.672  1.00  0.00     0.049 A 
ATOM     39  N   UNL A   1      42.174  28.031  31.223  1.00  0.00    -0.248 NA
ATOM     40  C   UNL A   1      43.522  26.471  30.126  1.00  0.00     0.031 C 
ATOM     41  C   UNL A   1      39.790  28.520  27.462  1.00  0.00     0.029 A 
ATOM     42  N   UNL A   1      40.047  29.220  29.573  1.00  0.00    -0.354 N 
ATOM     43  C   UNL A   1      43.157  27.579  32.092  1.00  0.00     0.074 A 
ATOM     44  C   UNL A   1      43.945  26.601  31.375  1.00  0.00     0.031 C 
ATOM     45  C   UNL A   1      38.841  29.441  27.704  1.00  0.00     0.029 A 
ATOM     46  C   UNL A   1      38.944  29.883  29.094  1.00  0.00     0.049 A 
ATOM     47  H   UNL A   1      40.415  29.364  30.475  1.00  0.00     0.167 HD
ATOM     48  C   UNL A   1      43.380  27.950  33.375  1.00  0.00     0.037 A 
ATOM     49  C   UNL A   1      38.097  30.723  29.720  1.00  0.00     0.037 A 
ATOM     50  C   UNL A   1      42.605  28.935  34.081  1.00  0.00     0.049 A 
ATOM     51  C   UNL A   1      38.343  31.079  31.168  1.00  0.00     0.074 A 
ATOM     52  C   UNL A   1      42.790  29.415  35.365  1.00  0.00     0.029 A 
ATOM     53  N   UNL A   1      41.493  29.583  33.566  1.00  0.00    -0.354 N 
ATOM     54  N   UNL A   1      39.305  30.688  31.967  1.00  0.00    -0.248 NA
ATOM     55  C   UNL A   1      37.383  31.998  31.798  1.00  0.00     0.031 C 
ATOM     56  C   UNL A   1      41.751  30.305  35.653  1.00  0.00     0.029 A 
ATOM     57  C   UNL A   1      40.960  30.431  34.522  1.00  0.00     0.049 A 
ATOM     58  H   UNL A   1      41.136  29.458  32.658  1.00  0.00     0.167 HD
ATOM     59  C   UNL A   1      39.088  31.338  33.176  1.00  0.00     0.074 A 
ATOM     60  C   UNL A   1      37.911  32.161  33.002  1.00  0.00     0.031 C 
ATOM     61  C   UNL A   1      39.798  31.260  34.329  1.00  0.00     0.037 A 
BRANCH  48  62
ATOM     62  C   UNL A   1      44.489  27.270  34.122  1.00  0.00     0.064 A 
ATOM     63  C   UNL A   1      44.338  25.988  34.669  1.00  0.00     0.173 A 
ATOM     64  C   UNL A   1      45.749  27.883  34.218  1.00  0.00     0.173 A 
ATOM     65  F   UNL A   1      43.150  25.367  34.615  1.00  0.00    -0.203 F 
ATOM     66  C   UNL A   1      45.405  25.347  35.293  1.00  0.00     0.198 A 
ATOM     67  C   UNL A   1      46.821  27.228  34.818  1.00  0.00     0.198 A 
ATOM     68  F   UNL A   1      45.945  29.108  33.708  1.00  0.00    -0.203 F 
ATOM     69  F   UNL A   1      45.232  24.134  35.834  1.00  0.00    -0.200 F 
ATOM     70  C   UNL A   1      46.648  25.962  35.357  1.00  0.00     0.200 A 
ATOM     71  F   UNL A   1      48.023  27.818  34.865  1.00  0.00    -0.200 F 
ATOM     72  F   UNL A   1      47.678  25.335  35.938  1.00  0.00    -0.200 F 
ENDBRANCH  48  62
BRANCH  49  73
ATOM     73  C   UNL A   1      36.908  31.265  29.006  1.00  0.00     0.064 A 
ATOM     74  C   UNL A   1      36.845  32.608  28.612  1.00  0.00     0.173 A 
ATOM     75  C   UNL A   1      35.783  30.462  28.764  1.00  0.00     0.173 A 
ATOM     76  F   UNL A   1      37.882  33.425  28.847  1.00  0.00    -0.203 F 
ATOM     77  C   UNL A   1      35.690  33.137  28.037  1.00  0.00     0.198 A 
ATOM     78  C   UNL A   1      34.642  30.982  28.158  1.00  0.00     0.198 A 
ATOM     79  F   UNL A   1      35.787  29.171  29.128  1.00  0.00    -0.203 F 
ATOM     80  F   UNL A   1      35.631  34.442  27.738  1.00  0.00    -0.200 F 
ATOM     81  C   UNL A   1      34.592  32.323  27.808  1.00  0.00     0.200 A 
ATOM     82  F   UNL A   1      33.585  30.191  27.932  1.00  0.00    -0.200 F 
ATOM     83  F   UNL A   1      33.477  32.835  27.267  1.00  0.00    -0.200 F 
ENDBRANCH  49  73
BRANCH  61  84
ATOM     84  C   UNL A   1      39.359  32.123  35.477  1.00  0.00     0.064 A 
ATOM     85  C   UNL A   1      38.527  31.636  36.496  1.00  0.00     0.173 A 
ATOM     86  C   UNL A   1      39.816  33.447  35.582  1.00  0.00     0.173 A 
ATOM     87  F   UNL A   1      38.052  30.382  36.437  1.00  0.00    -0.203 F 
ATOM     88  C   UNL A   1      38.148  32.448  37.561  1.00  0.00     0.198 A 
ATOM     89  C   UNL A   1      39.462  34.244  36.666  1.00  0.00     0.198 A 
ATOM     90  F   UNL A   1      40.622  33.961  34.642  1.00  0.00    -0.203 F 
ATOM     91  F   UNL A   1      37.310  31.976  38.496  1.00  0.00    -0.200 F 
ATOM     92  C   UNL A   1      38.622  33.748  37.650  1.00  0.00     0.200 A 
ATOM     93  F   UNL A   1      39.938  35.495  36.761  1.00  0.00    -0.200 F 
ATOM     94  F   UNL A   1      38.262  34.525  38.681  1.00  0.00    -0.200 F 
ENDBRANCH  61  84
ENDBRANCH  35  36
ENDBRANCH  28  30
ENDBRANCH  27  28
ENDBRANCH  26  27
ENDBRANCH  25  26
ENDBRANCH  24  25
ENDBRANCH  23  24
ENDBRANCH   1  23
TORSDOF 19
ENDMDL
MODEL 3
REMARK VINA RESULT:     -10.7      5.150      7.327
REMARK SMILES C[C@H]1CCCN(C(=O)c2cn(C)nc2C(=O)OCCOCCOCCOC(=O)c2ccc(-c3c4nc(c(-c5c(F)c(F)c(F)c(F)c5F)c5ccc([nH]5)c(-c5c(F)c(F)c(F)c(F)c5F)c5nc(c(-c6c(F)c(F)c(F)c(F)c6F)c6ccc3[nH]6)C=C5)C=C4)cc2)C1
REMARK SMILES IDX 21 1 20 2 19 3 18 4 17 5 15 6 16 7 14 8 9 9 10 10 11 11
REMARK SMILES IDX 13 12 12 13 7 14 8 15 6 16 1 17 2 18 3 19 92 20 4 21 5 22
REMARK SMILES IDX 22 23 23 24 24 25 25 26 26 27 27 28 28 29 29 30 30 31 91 32
REMARK SMILES IDX 31 33 90 34 32 35 33 36 34 37 84 38 35 39 89 40 83 41 85 42
REMARK SMILES IDX 36 43 88 44 82 45 81 46 37 48 69 49 49 50 68 51 50 52 53 53
REMARK SMILES IDX 67 54 86 55 51 56 52 57 66 59 87 60 54 61 38 62 39 63 47 64
REMARK SMILES IDX 40 65 41 66 45 67 48 68 42 69 43 70 46 71 44 72 70 73 71 74
REMARK SMILES IDX 79 75 72 76 73 77 77 78 80 79 74 80 75 81 78 82 76 83 55 84
REMARK SMILES IDX 56 85 64 86 57 87 58 88 62 89 65 90 59 91 60 92 63 93 61 94
REMARK H PARENT 85 47 53 58
REMARK Flexibility Score: inf
ROOT
ATOM      1  C   UNL A   1      40.419  22.432  26.559  1.00  0.00     0.188 C 
ENDROOT
BRANCH   1   2
ATOM      2  O   UNL A   1      39.367  21.673  25.998  1.00  0.00    -0.376 OA
BRANCH   2   3
ATOM      3  C   UNL A   1      38.110  22.281  25.734  1.00  0.00     0.202 C 
BRANCH   3   4
ATOM      4  C   UNL A   1      37.092  21.669  24.763  1.00  0.00     0.261 C 
BRANCH   4   5
ATOM      5  O   UNL A   1      36.304  20.618  25.332  1.00  0.00    -0.458 OA
BRANCH   5   6
ATOM      6  C   UNL A   1      34.979  20.908  25.528  1.00  0.00     0.359 C 
ATOM      7  O   UNL A   1      34.575  21.915  26.101  1.00  0.00    -0.244 OA
BRANCH   6   8
ATOM      8  C   UNL A   1      34.090  19.980  24.806  1.00  0.00     0.183 A 
ATOM      9  C   UNL A   1      32.717  20.161  24.445  1.00  0.00     0.092 A 
ATOM     10  C   UNL A   1      32.384  18.990  23.786  1.00  0.00     0.123 A 
ATOM     11  N   UNL A   1      33.460  18.165  23.896  1.00  0.00    -0.274 N 
ATOM     12  N   UNL A   1      34.510  18.734  24.499  1.00  0.00    -0.165 NA
ATOM     13  C   UNL A   1      33.536  16.779  23.502  1.00  0.00     0.173 C 
BRANCH   9  14
ATOM     14  C   UNL A   1      31.928  21.366  24.647  1.00  0.00     0.257 C 
ATOM     15  O   UNL A   1      31.164  21.415  25.610  1.00  0.00    -0.269 OA
BRANCH  14  16
ATOM     16  N   UNL A   1      32.055  22.438  23.761  1.00  0.00    -0.338 N 
ATOM     17  C   UNL A   1      32.587  24.793  25.656  1.00  0.00     0.009 C 
ATOM     18  C   UNL A   1      32.009  24.853  24.239  1.00  0.00     0.005 C 
ATOM     19  C   UNL A   1      33.113  25.047  23.183  1.00  0.00     0.007 C 
ATOM     20  C   UNL A   1      31.181  23.596  23.933  1.00  0.00     0.123 C 
ATOM     21  C   UNL A   1      33.920  23.769  22.916  1.00  0.00     0.022 C 
ATOM     22  C   UNL A   1      32.995  22.581  22.650  1.00  0.00     0.120 C 
ENDBRANCH  14  16
ENDBRANCH   9  14
ENDBRANCH   6   8
ENDBRANCH   5   6
ENDBRANCH   4   5
ENDBRANCH   3   4
ENDBRANCH   2   3
ENDBRANCH   1   2
BRANCH   1  23
ATOM     23  C   UNL A   1      41.873  21.919  26.481  1.00  0.00     0.188 C 
BRANCH  23  24
ATOM     24  O   UNL A   1      42.276  20.789  27.217  1.00  0.00    -0.376 OA
BRANCH  24  25
ATOM     25  C   UNL A   1      42.060  19.481  26.716  1.00  0.00     0.202 C 
BRANCH  25  26
ATOM     26  C   UNL A   1      42.950  18.768  25.683  1.00  0.00     0.261 C 
BRANCH  26  27
ATOM     27  O   UNL A   1      43.381  19.522  24.547  1.00  0.00    -0.460 OA
BRANCH  27  28
ATOM     28  C   UNL A   1      44.725  19.670  24.438  1.00  0.00     0.338 C 
ATOM     29  O   UNL A   1      45.532  18.865  24.018  1.00  0.00    -0.246 OA
BRANCH  28  30
ATOM     30  C   UNL A   1      45.078  21.068  24.746  1.00  0.00     0.060 A 
ATOM     31  C   UNL A   1      45.568  21.367  26.024  1.00  0.00     0.016 A 
ATOM     32  C   UNL A   1      44.871  22.079  23.807  1.00  0.00     0.016 A 
ATOM     33  C   UNL A   1      45.839  22.686  26.376  1.00  0.00     0.010 A 
ATOM     34  C   UNL A   1      45.121  23.405  24.170  1.00  0.00     0.010 A 
ATOM     35  C   UNL A   1      45.580  23.717  25.464  1.00  0.00    -0.014 A 
BRANCH  35  36
ATOM     36  C   UNL A   1      45.634  25.128  25.916  1.00  0.00     0.031 A 
ATOM     37  C   UNL A   1      46.957  25.841  25.891  1.00  0.00     0.074 A 
ATOM     38  C   UNL A   1      44.527  25.764  26.335  1.00  0.00     0.049 A 
ATOM     39  N   UNL A   1      47.260  27.046  26.301  1.00  0.00    -0.248 NA
ATOM     40  C   UNL A   1      48.095  25.094  25.327  1.00  0.00     0.031 C 
ATOM     41  C   UNL A   1      43.183  25.191  26.372  1.00  0.00     0.029 A 
ATOM     42  N   UNL A   1      44.365  27.036  26.830  1.00  0.00    -0.354 N 
ATOM     43  C   UNL A   1      48.620  27.193  26.066  1.00  0.00     0.074 A 
ATOM     44  C   UNL A   1      49.091  25.953  25.488  1.00  0.00     0.031 C 
ATOM     45  C   UNL A   1      42.337  26.098  26.891  1.00  0.00     0.029 A 
ATOM     46  C   UNL A   1      43.086  27.300  27.254  1.00  0.00     0.049 A 
ATOM     47  H   UNL A   1      45.097  27.693  26.877  1.00  0.00     0.167 HD
ATOM     48  C   UNL A   1      49.404  28.268  26.312  1.00  0.00     0.037 A 
ATOM     49  C   UNL A   1      42.589  28.378  27.892  1.00  0.00     0.037 A 
ATOM     50  C   UNL A   1      48.931  29.506  26.871  1.00  0.00     0.049 A 
ATOM     51  C   UNL A   1      43.500  29.543  28.198  1.00  0.00     0.074 A 
ATOM     52  C   UNL A   1      49.641  30.670  27.107  1.00  0.00     0.029 A 
ATOM     53  N   UNL A   1      47.630  29.737  27.292  1.00  0.00    -0.354 N 
ATOM     54  N   UNL A   1      44.774  29.695  27.926  1.00  0.00    -0.248 NA
ATOM     55  C   UNL A   1      42.901  30.689  28.899  1.00  0.00     0.031 C 
ATOM     56  C   UNL A   1      48.786  31.584  27.731  1.00  0.00     0.029 A 
ATOM     57  C   UNL A   1      47.527  31.013  27.820  1.00  0.00     0.049 A 
ATOM     58  H   UNL A   1      46.892  29.090  27.226  1.00  0.00     0.167 HD
ATOM     59  C   UNL A   1      45.116  30.961  28.386  1.00  0.00     0.074 A 
ATOM     60  C   UNL A   1      43.914  31.542  28.943  1.00  0.00     0.031 C 
ATOM     61  C   UNL A   1      46.318  31.587  28.354  1.00  0.00     0.037 A 
BRANCH  48  62
ATOM     62  C   UNL A   1      50.869  28.156  26.009  1.00  0.00     0.064 A 
ATOM     63  C   UNL A   1      51.809  27.837  26.999  1.00  0.00     0.173 A 
ATOM     64  C   UNL A   1      51.325  28.292  24.687  1.00  0.00     0.173 A 
ATOM     65  F   UNL A   1      51.425  27.711  28.278  1.00  0.00    -0.203 F 
ATOM     66  C   UNL A   1      53.153  27.665  26.679  1.00  0.00     0.198 A 
ATOM     67  C   UNL A   1      52.664  28.091  24.367  1.00  0.00     0.198 A 
ATOM     68  F   UNL A   1      50.464  28.594  23.704  1.00  0.00    -0.203 F 
ATOM     69  F   UNL A   1      54.040  27.387  27.645  1.00  0.00    -0.200 F 
ATOM     70  C   UNL A   1      53.578  27.781  25.363  1.00  0.00     0.200 A 
ATOM     71  F   UNL A   1      53.068  28.190  23.093  1.00  0.00    -0.200 F 
ATOM     72  F   UNL A   1      54.867  27.593  25.054  1.00  0.00    -0.200 F 
ENDBRANCH  48  62
BRANCH  49  73
ATOM     73  C   UNL A   1      41.166  28.404  28.328  1.00  0.00     0.064 A 
ATOM     74  C   UNL A   1      40.163  28.941  27.508  1.00  0.00     0.173 A 
ATOM     75  C   UNL A   1      40.791  27.953  29.602  1.00  0.00     0.173 A 
ATOM     76  F   UNL A   1      40.473  29.413  26.292  1.00  0.00    -0.203 F 
ATOM     77  C   UNL A   1      38.849  29.058  27.959  1.00  0.00     0.198 A 
ATOM     78  C   UNL A   1      39.472  28.040  30.040  1.00  0.00     0.198 A 
ATOM     79  F   UNL A   1      41.712  27.437  30.430  1.00  0.00    -0.203 F 
ATOM     80  F   UNL A   1      37.927  29.644  27.183  1.00  0.00    -0.200 F 
ATOM     81  C   UNL A   1      38.504  28.606  29.223  1.00  0.00     0.200 A 
ATOM     82  F   UNL A   1      39.141  27.594  31.260  1.00  0.00    -0.200 F 
ATOM     83  F   UNL A   1      37.245  28.731  29.662  1.00  0.00    -0.200 F 
ENDBRANCH  49  73
BRANCH  61  84
ATOM     84  C   UNL A   1      46.388  32.990  28.885  1.00  0.00     0.064 A 
ATOM     85  C   UNL A   1      46.151  34.105  28.068  1.00  0.00     0.173 A 
ATOM     86  C   UNL A   1      46.652  33.219  30.246  1.00  0.00     0.173 A 
ATOM     87  F   UNL A   1      45.908  33.943  26.758  1.00  0.00    -0.203 F 
ATOM     88  C   UNL A   1      46.203  35.397  28.586  1.00  0.00     0.198 A 
ATOM     89  C   UNL A   1      46.667  34.509  30.766  1.00  0.00     0.198 A 
ATOM     90  F   UNL A   1      46.874  32.188  31.074  1.00  0.00    -0.203 F 
ATOM     91  F   UNL A   1      46.025  36.449  27.776  1.00  0.00    -0.200 F 
ATOM     92  C   UNL A   1      46.452  35.597  29.936  1.00  0.00     0.200 A 
ATOM     93  F   UNL A   1      46.889  34.699  32.075  1.00  0.00    -0.200 F 
ATOM     94  F   UNL A   1      46.492  36.841  30.434  1.00  0.00    -0.200 F 
ENDBRANCH  61  84
ENDBRANCH  35  36
ENDBRANCH  28  30
ENDBRANCH  27  28
ENDBRANCH  26  27
ENDBRANCH  25  26
ENDBRANCH  24  25
ENDBRANCH  23  24
ENDBRANCH   1  23
TORSDOF 19
ENDMDL
