MODEL 1
REMARK VINA RESULT:     -11.4      0.000      0.000
REMARK SMILES CC(C)(C)c1cc(Nc2ccccc2C(=O)OCCOCCOCCOC(=O)c2ccc(-c3c4nc(c(-c5c(F)c(F)c(F)c(F)c5F)c5ccc([nH]5)c(-c5c(F)c(F)c(F)c(F)c5F)c5nc(c(-c6c(F)c(F)c(F)c(F)c6F)c6ccc3[nH]6)C=C5)C=C4)cc2)cc2c1OCC2(C)C
REMARK SMILES IDX 21 1 20 2 19 3 18 4 17 5 15 6 16 7 14 8 9 9 10 10 11 11
REMARK SMILES IDX 13 12 12 13 8 14 7 16 5 17 6 18 94 19 93 20 95 21 92 22
REMARK SMILES IDX 97 23 96 24 98 25 99 26 2 27 1 28 3 29 4 30 22 31 23 32
REMARK SMILES IDX 24 33 25 34 26 35 27 36 28 37 29 38 30 39 91 40 31 41 90 42
REMARK SMILES IDX 32 43 33 44 34 45 84 46 35 47 89 48 83 49 85 50 36 51 88 52
REMARK SMILES IDX 82 53 81 54 37 56 69 57 49 58 68 59 50 60 53 61 67 62 86 63
REMARK SMILES IDX 51 64 52 65 66 67 87 68 54 69 38 70 39 71 47 72 40 73 41 74
REMARK SMILES IDX 45 75 48 76 42 77 43 78 46 79 44 80 70 81 71 82 79 83 72 84
REMARK SMILES IDX 73 85 77 86 80 87 74 88 75 89 78 90 76 91 55 92 56 93 64 94
REMARK SMILES IDX 57 95 58 96 62 97 65 98 59 99 60 100 63 101 61 102
REMARK H PARENT 8 15 85 55 53 66
REMARK Flexibility Score: inf
ROOT
ATOM      1  C   UNL A   1      44.562  21.421  24.901  1.00  0.00     0.188 C 
ENDROOT
BRANCH   1   2
ATOM      2  O   UNL A   1      43.383  20.637  24.997  1.00  0.00    -0.376 OA
BRANCH   2   3
ATOM      3  C   UNL A   1      43.416  19.386  25.672  1.00  0.00     0.202 C 
BRANCH   3   4
ATOM      4  C   UNL A   1      42.162  18.842  26.373  1.00  0.00     0.261 C 
BRANCH   4   5
ATOM      5  O   UNL A   1      41.259  19.848  26.860  1.00  0.00    -0.460 OA
BRANCH   5   6
ATOM      6  C   UNL A   1      40.145  20.044  26.112  1.00  0.00     0.340 C 
ATOM      7  O   UNL A   1      39.529  19.184  25.502  1.00  0.00    -0.246 OA
BRANCH   6   8
ATOM      8  C   UNL A   1      39.619  21.426  26.260  1.00  0.00     0.083 A 
ATOM      9  C   UNL A   1      38.369  21.871  25.791  1.00  0.00     0.053 A 
ATOM     10  C   UNL A   1      37.987  23.185  26.126  1.00  0.00     0.027 A 
ATOM     11  C   UNL A   1      38.868  24.081  26.735  1.00  0.00     0.002 A 
ATOM     12  C   UNL A   1      40.504  22.334  26.880  1.00  0.00     0.018 A 
ATOM     13  C   UNL A   1      40.146  23.666  27.078  1.00  0.00     0.001 A 
BRANCH   9  14
ATOM     14  N   UNL A   1      37.583  21.123  24.881  1.00  0.00    -0.355 N 
ATOM     15  H   UNL A   1      38.077  20.673  24.159  1.00  0.00     0.167 HD
BRANCH  14  16
ATOM     16  C   UNL A   1      36.177  20.936  24.874  1.00  0.00     0.039 A 
ATOM     17  C   UNL A   1      34.244  19.365  24.787  1.00  0.00     0.002 A 
ATOM     18  C   UNL A   1      35.639  19.637  24.737  1.00  0.00     0.034 A 
ATOM     19  C   UNL A   1      33.421  20.474  24.997  1.00  0.00     0.127 A 
ATOM     20  C   UNL A   1      33.928  21.753  25.140  1.00  0.00     0.006 A 
ATOM     21  O   UNL A   1      32.055  20.446  25.082  1.00  0.00    -0.492 OA
ATOM     22  C   UNL A   1      35.287  21.996  25.055  1.00  0.00     0.034 A 
ATOM     23  C   UNL A   1      32.847  22.739  25.423  1.00  0.00     0.028 C 
ATOM     24  C   UNL A   1      31.627  21.805  25.328  1.00  0.00     0.240 C 
ATOM     25  C   UNL A   1      33.003  23.328  26.831  1.00  0.00     0.020 C 
ATOM     26  C   UNL A   1      32.789  23.862  24.383  1.00  0.00     0.020 C 
BRANCH  17  27
ATOM     27  C   UNL A   1      33.699  17.942  24.561  1.00  0.00    -0.009 C 
ATOM     28  C   UNL A   1      34.794  16.849  24.557  1.00  0.00     0.016 C 
ATOM     29  C   UNL A   1      32.956  17.799  23.210  1.00  0.00     0.016 C 
ATOM     30  C   UNL A   1      32.702  17.629  25.696  1.00  0.00     0.016 C 
ENDBRANCH  17  27
ENDBRANCH  14  16
ENDBRANCH   9  14
ENDBRANCH   6   8
ENDBRANCH   5   6
ENDBRANCH   4   5
ENDBRANCH   3   4
ENDBRANCH   2   3
ENDBRANCH   1   2
BRANCH   1  31
ATOM     31  C   UNL A   1      44.673  22.554  23.860  1.00  0.00     0.188 C 
BRANCH  31  32
ATOM     32  O   UNL A   1      45.208  23.762  24.336  1.00  0.00    -0.376 OA
BRANCH  32  33
ATOM     33  C   UNL A   1      46.585  23.873  24.644  1.00  0.00     0.202 C 
BRANCH  33  34
ATOM     34  C   UNL A   1      47.447  25.144  24.500  1.00  0.00     0.261 C 
BRANCH  34  35
ATOM     35  O   UNL A   1      47.272  26.203  25.441  1.00  0.00    -0.460 OA
BRANCH  35  36
ATOM     36  C   UNL A   1      46.508  27.246  25.033  1.00  0.00     0.338 C 
ATOM     37  O   UNL A   1      46.406  27.699  23.905  1.00  0.00    -0.246 OA
BRANCH  36  38
ATOM     38  C   UNL A   1      45.652  27.652  26.165  1.00  0.00     0.060 A 
ATOM     39  C   UNL A   1      44.969  26.689  26.907  1.00  0.00     0.016 A 
ATOM     40  C   UNL A   1      45.519  29.014  26.467  1.00  0.00     0.016 A 
ATOM     41  C   UNL A   1      44.157  27.094  27.968  1.00  0.00     0.010 A 
ATOM     42  C   UNL A   1      44.700  29.415  27.525  1.00  0.00     0.010 A 
ATOM     43  C   UNL A   1      44.025  28.457  28.293  1.00  0.00    -0.014 A 
BRANCH  43  44
ATOM     44  C   UNL A   1      43.296  28.841  29.528  1.00  0.00     0.031 A 
ATOM     45  C   UNL A   1      43.963  28.869  30.868  1.00  0.00     0.074 A 
ATOM     46  C   UNL A   1      42.006  29.208  29.411  1.00  0.00     0.049 A 
ATOM     47  N   UNL A   1      43.504  29.339  32.002  1.00  0.00    -0.248 NA
ATOM     48  C   UNL A   1      45.308  28.289  30.953  1.00  0.00     0.031 C 
ATOM     49  C   UNL A   1      41.244  29.186  28.162  1.00  0.00     0.029 A 
ATOM     50  N   UNL A   1      41.122  29.698  30.337  1.00  0.00    -0.354 N 
ATOM     51  C   UNL A   1      44.519  29.151  32.929  1.00  0.00     0.074 A 
ATOM     52  C   UNL A   1      45.590  28.457  32.241  1.00  0.00     0.031 C 
ATOM     53  C   UNL A   1      40.025  29.694  28.387  1.00  0.00     0.029 A 
ATOM     54  C   UNL A   1      39.912  30.058  29.797  1.00  0.00     0.049 A 
ATOM     55  H   UNL A   1      41.333  29.783  31.294  1.00  0.00     0.167 HD
ATOM     56  C   UNL A   1      44.561  29.551  34.224  1.00  0.00     0.037 A 
ATOM     57  C   UNL A   1      38.839  30.640  30.366  1.00  0.00     0.037 A 
ATOM     58  C   UNL A   1      43.479  30.217  34.908  1.00  0.00     0.049 A 
ATOM     59  C   UNL A   1      38.886  31.013  31.821  1.00  0.00     0.074 A 
ATOM     60  C   UNL A   1      43.438  30.680  36.212  1.00  0.00     0.029 A 
ATOM     61  N   UNL A   1      42.240  30.501  34.348  1.00  0.00    -0.354 N 
ATOM     62  N   UNL A   1      39.881  30.912  32.668  1.00  0.00    -0.248 NA
ATOM     63  C   UNL A   1      37.663  31.588  32.398  1.00  0.00     0.031 C 
ATOM     64  C   UNL A   1      42.160  31.193  36.458  1.00  0.00     0.029 A 
ATOM     65  C   UNL A   1      41.419  31.102  35.290  1.00  0.00     0.049 A 
ATOM     66  H   UNL A   1      41.983  30.305  33.418  1.00  0.00     0.167 HD
ATOM     67  C   UNL A   1      39.413  31.425  33.870  1.00  0.00     0.074 A 
ATOM     68  C   UNL A   1      38.050  31.855  33.638  1.00  0.00     0.031 C 
ATOM     69  C   UNL A   1      40.061  31.526  35.057  1.00  0.00     0.037 A 
BRANCH  56  70
ATOM     70  C   UNL A   1      45.828  29.301  34.990  1.00  0.00     0.064 A 
ATOM     71  C   UNL A   1      46.800  30.304  35.131  1.00  0.00     0.173 A 
ATOM     72  C   UNL A   1      46.045  28.084  35.655  1.00  0.00     0.173 A 
ATOM     73  F   UNL A   1      46.642  31.487  34.518  1.00  0.00    -0.203 F 
ATOM     74  C   UNL A   1      47.951  30.090  35.885  1.00  0.00     0.198 A 
ATOM     75  C   UNL A   1      47.183  27.885  36.434  1.00  0.00     0.198 A 
ATOM     76  F   UNL A   1      45.142  27.096  35.569  1.00  0.00    -0.203 F 
ATOM     77  F   UNL A   1      48.881  31.052  35.974  1.00  0.00    -0.200 F 
ATOM     78  C   UNL A   1      48.137  28.884  36.543  1.00  0.00     0.200 A 
ATOM     79  F   UNL A   1      47.351  26.726  37.086  1.00  0.00    -0.200 F 
ATOM     80  F   UNL A   1      49.237  28.685  37.283  1.00  0.00    -0.200 F 
ENDBRANCH  56  70
BRANCH  57  81
ATOM     81  C   UNL A   1      37.658  30.966  29.527  1.00  0.00     0.064 A 
ATOM     82  C   UNL A   1      36.734  29.973  29.177  1.00  0.00     0.173 A 
ATOM     83  C   UNL A   1      37.405  32.277  29.099  1.00  0.00     0.173 A 
ATOM     84  F   UNL A   1      36.943  28.702  29.552  1.00  0.00    -0.203 F 
ATOM     85  C   UNL A   1      35.601  30.278  28.428  1.00  0.00     0.198 A 
ATOM     86  C   UNL A   1      36.257  32.586  28.372  1.00  0.00     0.198 A 
ATOM     87  F   UNL A   1      38.257  33.264  29.414  1.00  0.00    -0.203 F 
ATOM     88  F   UNL A   1      34.745  29.305  28.085  1.00  0.00    -0.200 F 
ATOM     89  C   UNL A   1      35.358  31.585  28.035  1.00  0.00     0.200 A 
ATOM     90  F   UNL A   1      36.016  33.853  28.011  1.00  0.00    -0.200 F 
ATOM     91  F   UNL A   1      34.257  31.881  27.329  1.00  0.00    -0.200 F 
ENDBRANCH  57  81
BRANCH  69  92
ATOM     92  C   UNL A   1      39.312  32.128  36.212  1.00  0.00     0.064 A 
ATOM     93  C   UNL A   1      39.470  33.476  36.564  1.00  0.00     0.173 A 
ATOM     94  C   UNL A   1      38.365  31.373  36.922  1.00  0.00     0.173 A 
ATOM     95  F   UNL A   1      40.374  34.238  35.927  1.00  0.00    -0.203 F 
ATOM     96  C   UNL A   1      38.714  34.045  37.585  1.00  0.00     0.198 A 
ATOM     97  C   UNL A   1      37.589  31.952  37.922  1.00  0.00     0.198 A 
ATOM     98  F   UNL A   1      38.171  30.079  36.625  1.00  0.00    -0.203 F 
ATOM     99  F   UNL A   1      38.903  35.328  37.922  1.00  0.00    -0.200 F 
ATOM    100  C   UNL A   1      37.766  33.286  38.255  1.00  0.00     0.200 A 
ATOM    101  F   UNL A   1      36.662  31.221  38.559  1.00  0.00    -0.200 F 
ATOM    102  F   UNL A   1      37.023  33.842  39.222  1.00  0.00    -0.200 F 
ENDBRANCH  69  92
ENDBRANCH  43  44
ENDBRANCH  36  38
ENDBRANCH  35  36
ENDBRANCH  34  35
ENDBRANCH  33  34
ENDBRANCH  32  33
ENDBRANCH  31  32
ENDBRANCH   1  31
TORSDOF 20
ENDMDL
MODEL 2
REMARK VINA RESULT:     -11.4      4.083      9.113
REMARK SMILES CC(C)(C)c1cc(Nc2ccccc2C(=O)OCCOCCOCCOC(=O)c2ccc(-c3c4nc(c(-c5c(F)c(F)c(F)c(F)c5F)c5ccc([nH]5)c(-c5c(F)c(F)c(F)c(F)c5F)c5nc(c(-c6c(F)c(F)c(F)c(F)c6F)c6ccc3[nH]6)C=C5)C=C4)cc2)cc2c1OCC2(C)C
REMARK SMILES IDX 21 1 20 2 19 3 18 4 17 5 15 6 16 7 14 8 9 9 10 10 11 11
REMARK SMILES IDX 13 12 12 13 8 14 7 16 5 17 6 18 94 19 93 20 95 21 92 22
REMARK SMILES IDX 97 23 96 24 98 25 99 26 2 27 1 28 3 29 4 30 22 31 23 32
REMARK SMILES IDX 24 33 25 34 26 35 27 36 28 37 29 38 30 39 91 40 31 41 90 42
REMARK SMILES IDX 32 43 33 44 34 45 84 46 35 47 89 48 83 49 85 50 36 51 88 52
REMARK SMILES IDX 82 53 81 54 37 56 69 57 49 58 68 59 50 60 53 61 67 62 86 63
REMARK SMILES IDX 51 64 52 65 66 67 87 68 54 69 38 70 39 71 47 72 40 73 41 74
REMARK SMILES IDX 45 75 48 76 42 77 43 78 46 79 44 80 70 81 71 82 79 83 72 84
REMARK SMILES IDX 73 85 77 86 80 87 74 88 75 89 78 90 76 91 55 92 56 93 64 94
REMARK SMILES IDX 57 95 58 96 62 97 65 98 59 99 60 100 63 101 61 102
REMARK H PARENT 8 15 85 55 53 66
REMARK Flexibility Score: inf
ROOT
ATOM      1  C   UNL A   1      32.340  28.833  23.704  1.00  0.00     0.188 C 
ENDROOT
BRANCH   1   2
ATOM      2  O   UNL A   1      32.091  27.743  22.830  1.00  0.00    -0.376 OA
BRANCH   2   3
ATOM      3  C   UNL A   1      33.149  27.203  22.049  1.00  0.00     0.202 C 
BRANCH   3   4
ATOM      4  C   UNL A   1      33.696  25.797  22.338  1.00  0.00     0.261 C 
BRANCH   4   5
ATOM      5  O   UNL A   1      33.204  25.195  23.547  1.00  0.00    -0.460 OA
BRANCH   5   6
ATOM      6  C   UNL A   1      32.271  24.225  23.379  1.00  0.00     0.340 C 
ATOM      7  O   UNL A   1      32.199  23.454  22.435  1.00  0.00    -0.246 OA
BRANCH   6   8
ATOM      8  C   UNL A   1      31.422  24.064  24.587  1.00  0.00     0.083 A 
ATOM      9  C   UNL A   1      31.207  22.852  25.270  1.00  0.00     0.053 A 
ATOM     10  C   UNL A   1      30.466  22.909  26.467  1.00  0.00     0.027 A 
ATOM     11  C   UNL A   1      29.811  24.073  26.878  1.00  0.00     0.002 A 
ATOM     12  C   UNL A   1      30.762  25.238  25.011  1.00  0.00     0.018 A 
ATOM     13  C   UNL A   1      29.928  25.232  26.126  1.00  0.00     0.001 A 
BRANCH   9  14
ATOM     14  N   UNL A   1      31.555  21.593  24.721  1.00  0.00    -0.355 N 
ATOM     15  H   UNL A   1      30.839  21.126  24.234  1.00  0.00     0.167 HD
BRANCH  14  16
ATOM     16  C   UNL A   1      32.801  20.917  24.782  1.00  0.00     0.039 A 
ATOM     17  C   UNL A   1      34.061  18.772  24.637  1.00  0.00     0.002 A 
ATOM     18  C   UNL A   1      32.846  19.511  24.652  1.00  0.00     0.034 A 
ATOM     19  C   UNL A   1      35.229  19.530  24.745  1.00  0.00     0.127 A 
ATOM     20  C   UNL A   1      35.206  20.908  24.865  1.00  0.00     0.006 A 
ATOM     21  O   UNL A   1      36.504  19.031  24.749  1.00  0.00    -0.492 OA
ATOM     22  C   UNL A   1      34.011  21.600  24.910  1.00  0.00     0.034 A 
ATOM     23  C   UNL A   1      36.584  21.476  24.891  1.00  0.00     0.028 C 
ATOM     24  C   UNL A   1      37.393  20.166  24.852  1.00  0.00     0.240 C 
ATOM     25  C   UNL A   1      36.840  22.339  23.649  1.00  0.00     0.020 C 
ATOM     26  C   UNL A   1      36.864  22.282  26.163  1.00  0.00     0.020 C 
BRANCH  17  27
ATOM     27  C   UNL A   1      34.059  17.233  24.567  1.00  0.00    -0.009 C 
ATOM     28  C   UNL A   1      35.281  16.577  25.252  1.00  0.00     0.016 C 
ATOM     29  C   UNL A   1      34.059  16.705  23.111  1.00  0.00     0.016 C 
ATOM     30  C   UNL A   1      32.780  16.726  25.264  1.00  0.00     0.016 C 
ENDBRANCH  17  27
ENDBRANCH  14  16
ENDBRANCH   9  14
ENDBRANCH   6   8
ENDBRANCH   5   6
ENDBRANCH   4   5
ENDBRANCH   3   4
ENDBRANCH   2   3
ENDBRANCH   1   2
BRANCH   1  31
ATOM     31  C   UNL A   1      31.183  29.518  24.461  1.00  0.00     0.188 C 
BRANCH  31  32
ATOM     32  O   UNL A   1      31.357  29.636  25.849  1.00  0.00    -0.376 OA
BRANCH  32  33
ATOM     33  C   UNL A   1      31.736  28.518  26.631  1.00  0.00     0.202 C 
BRANCH  33  34
ATOM     34  C   UNL A   1      33.113  28.298  27.289  1.00  0.00     0.261 C 
BRANCH  34  35
ATOM     35  O   UNL A   1      34.225  29.066  26.830  1.00  0.00    -0.460 OA
BRANCH  35  36
ATOM     36  C   UNL A   1      34.578  30.127  27.598  1.00  0.00     0.338 C 
ATOM     37  O   UNL A   1      33.876  31.062  27.944  1.00  0.00    -0.246 OA
BRANCH  36  38
ATOM     38  C   UNL A   1      35.936  29.879  28.118  1.00  0.00     0.060 A 
ATOM     39  C   UNL A   1      36.112  29.347  29.395  1.00  0.00     0.016 A 
ATOM     40  C   UNL A   1      37.043  30.205  27.322  1.00  0.00     0.016 A 
ATOM     41  C   UNL A   1      37.406  29.128  29.872  1.00  0.00     0.010 A 
ATOM     42  C   UNL A   1      38.336  29.993  27.805  1.00  0.00     0.010 A 
ATOM     43  C   UNL A   1      38.526  29.438  29.079  1.00  0.00    -0.014 A 
BRANCH  43  44
ATOM     44  C   UNL A   1      39.878  29.035  29.543  1.00  0.00     0.031 A 
ATOM     45  C   UNL A   1      40.602  29.778  30.623  1.00  0.00     0.074 A 
ATOM     46  C   UNL A   1      40.436  27.943  28.988  1.00  0.00     0.049 A 
ATOM     47  N   UNL A   1      41.707  29.448  31.245  1.00  0.00    -0.248 NA
ATOM     48  C   UNL A   1      40.021  31.054  31.056  1.00  0.00     0.031 C 
ATOM     49  C   UNL A   1      39.838  27.163  27.904  1.00  0.00     0.029 A 
ATOM     50  N   UNL A   1      41.603  27.284  29.274  1.00  0.00    -0.354 N 
ATOM     51  C   UNL A   1      41.935  30.455  32.172  1.00  0.00     0.074 A 
ATOM     52  C   UNL A   1      40.892  31.443  31.981  1.00  0.00     0.031 C 
ATOM     53  C   UNL A   1      40.614  26.099  27.655  1.00  0.00     0.029 A 
ATOM     54  C   UNL A   1      41.772  26.133  28.545  1.00  0.00     0.049 A 
ATOM     55  H   UNL A   1      42.256  27.604  29.938  1.00  0.00     0.167 HD
ATOM     56  C   UNL A   1      42.907  30.526  33.115  1.00  0.00     0.037 A 
ATOM     57  C   UNL A   1      42.737  25.195  28.602  1.00  0.00     0.037 A 
ATOM     58  C   UNL A   1      43.957  29.550  33.279  1.00  0.00     0.049 A 
ATOM     59  C   UNL A   1      43.841  25.332  29.612  1.00  0.00     0.074 A 
ATOM     60  C   UNL A   1      44.973  29.526  34.221  1.00  0.00     0.029 A 
ATOM     61  N   UNL A   1      44.138  28.433  32.474  1.00  0.00    -0.354 N 
ATOM     62  N   UNL A   1      44.001  26.241  30.543  1.00  0.00    -0.248 NA
ATOM     63  C   UNL A   1      44.897  24.310  29.582  1.00  0.00     0.031 C 
ATOM     64  C   UNL A   1      45.797  28.429  33.952  1.00  0.00     0.029 A 
ATOM     65  C   UNL A   1      45.266  27.734  32.877  1.00  0.00     0.049 A 
ATOM     66  H   UNL A   1      43.551  28.175  31.727  1.00  0.00     0.167 HD
ATOM     67  C   UNL A   1      45.160  25.892  31.222  1.00  0.00     0.074 A 
ATOM     68  C   UNL A   1      45.654  24.677  30.607  1.00  0.00     0.031 C 
ATOM     69  C   UNL A   1      45.757  26.526  32.260  1.00  0.00     0.037 A 
BRANCH  56  70
ATOM     70  C   UNL A   1      42.874  31.689  34.064  1.00  0.00     0.064 A 
ATOM     71  C   UNL A   1      43.527  32.893  33.759  1.00  0.00     0.173 A 
ATOM     72  C   UNL A   1      42.126  31.635  35.250  1.00  0.00     0.173 A 
ATOM     73  F   UNL A   1      44.255  33.000  32.636  1.00  0.00    -0.203 F 
ATOM     74  C   UNL A   1      43.453  33.989  34.615  1.00  0.00     0.198 A 
ATOM     75  C   UNL A   1      42.029  32.743  36.089  1.00  0.00     0.198 A 
ATOM     76  F   UNL A   1      41.468  30.514  35.585  1.00  0.00    -0.203 F 
ATOM     77  F   UNL A   1      44.115  35.116  34.317  1.00  0.00    -0.200 F 
ATOM     78  C   UNL A   1      42.697  33.916  35.774  1.00  0.00     0.200 A 
ATOM     79  F   UNL A   1      41.281  32.676  37.199  1.00  0.00    -0.200 F 
ATOM     80  F   UNL A   1      42.612  34.977  36.589  1.00  0.00    -0.200 F 
ENDBRANCH  56  70
BRANCH  57  81
ATOM     81  C   UNL A   1      42.650  24.008  27.714  1.00  0.00     0.064 A 
ATOM     82  C   UNL A   1      43.054  24.087  26.374  1.00  0.00     0.173 A 
ATOM     83  C   UNL A   1      42.210  22.767  28.193  1.00  0.00     0.173 A 
ATOM     84  F   UNL A   1      43.468  25.258  25.868  1.00  0.00    -0.203 F 
ATOM     85  C   UNL A   1      43.018  22.968  25.546  1.00  0.00     0.198 A 
ATOM     86  C   UNL A   1      42.199  21.642  27.371  1.00  0.00     0.198 A 
ATOM     87  F   UNL A   1      41.819  22.640  29.470  1.00  0.00    -0.203 F 
ATOM     88  F   UNL A   1      43.385  23.076  24.262  1.00  0.00    -0.200 F 
ATOM     89  C   UNL A   1      42.600  21.745  26.048  1.00  0.00     0.200 A 
ATOM     90  F   UNL A   1      41.814  20.458  27.865  1.00  0.00    -0.200 F 
ATOM     91  F   UNL A   1      42.583  20.664  25.255  1.00  0.00    -0.200 F 
ENDBRANCH  57  81
BRANCH  69  92
ATOM     92  C   UNL A   1      47.020  25.927  32.813  1.00  0.00     0.064 A 
ATOM     93  C   UNL A   1      46.987  24.961  33.828  1.00  0.00     0.173 A 
ATOM     94  C   UNL A   1      48.268  26.261  32.266  1.00  0.00     0.173 A 
ATOM     95  F   UNL A   1      45.820  24.618  34.396  1.00  0.00    -0.203 F 
ATOM     96  C   UNL A   1      48.156  24.353  34.279  1.00  0.00     0.198 A 
ATOM     97  C   UNL A   1      49.433  25.630  32.698  1.00  0.00     0.198 A 
ATOM     98  F   UNL A   1      48.357  27.177  31.290  1.00  0.00    -0.203 F 
ATOM     99  F   UNL A   1      48.103  23.453  35.270  1.00  0.00    -0.200 F 
ATOM    100  C   UNL A   1      49.376  24.680  33.705  1.00  0.00     0.200 A 
ATOM    101  F   UNL A   1      50.609  25.936  32.132  1.00  0.00    -0.200 F 
ATOM    102  F   UNL A   1      50.497  24.078  34.125  1.00  0.00    -0.200 F 
ENDBRANCH  69  92
ENDBRANCH  43  44
ENDBRANCH  36  38
ENDBRANCH  35  36
ENDBRANCH  34  35
ENDBRANCH  33  34
ENDBRANCH  32  33
ENDBRANCH  31  32
ENDBRANCH   1  31
TORSDOF 20
ENDMDL
MODEL 3
REMARK VINA RESULT:     -11.3      4.754      9.984
REMARK SMILES CC(C)(C)c1cc(Nc2ccccc2C(=O)OCCOCCOCCOC(=O)c2ccc(-c3c4nc(c(-c5c(F)c(F)c(F)c(F)c5F)c5ccc([nH]5)c(-c5c(F)c(F)c(F)c(F)c5F)c5nc(c(-c6c(F)c(F)c(F)c(F)c6F)c6ccc3[nH]6)C=C5)C=C4)cc2)cc2c1OCC2(C)C
REMARK SMILES IDX 21 1 20 2 19 3 18 4 17 5 15 6 16 7 14 8 9 9 10 10 11 11
REMARK SMILES IDX 13 12 12 13 8 14 7 16 5 17 6 18 94 19 93 20 95 21 92 22
REMARK SMILES IDX 97 23 96 24 98 25 99 26 2 27 1 28 3 29 4 30 22 31 23 32
REMARK SMILES IDX 24 33 25 34 26 35 27 36 28 37 29 38 30 39 91 40 31 41 90 42
REMARK SMILES IDX 32 43 33 44 34 45 84 46 35 47 89 48 83 49 85 50 36 51 88 52
REMARK SMILES IDX 82 53 81 54 37 56 69 57 49 58 68 59 50 60 53 61 67 62 86 63
REMARK SMILES IDX 51 64 52 65 66 67 87 68 54 69 38 70 39 71 47 72 40 73 41 74
REMARK SMILES IDX 45 75 48 76 42 77 43 78 46 79 44 80 70 81 71 82 79 83 72 84
REMARK SMILES IDX 73 85 77 86 80 87 74 88 75 89 78 90 76 91 55 92 56 93 64 94
REMARK SMILES IDX 57 95 58 96 62 97 65 98 59 99 60 100 63 101 61 102
REMARK H PARENT 8 15 85 55 53 66
REMARK Flexibility Score: inf
ROOT
ATOM      1  C   UNL A   1      40.599  22.367  27.077  1.00  0.00     0.188 C 
ENDROOT
BRANCH   1   2
ATOM      2  O   UNL A   1      39.979  23.537  26.567  1.00  0.00    -0.376 OA
BRANCH   2   3
ATOM      3  C   UNL A   1      38.614  23.804  26.863  1.00  0.00     0.202 C 
BRANCH   3   4
ATOM      4  C   UNL A   1      37.545  23.718  25.764  1.00  0.00     0.261 C 
BRANCH   4   5
ATOM      5  O   UNL A   1      36.658  22.592  25.870  1.00  0.00    -0.460 OA
BRANCH   5   6
ATOM      6  C   UNL A   1      36.070  22.200  24.713  1.00  0.00     0.340 C 
ATOM      7  O   UNL A   1      36.562  22.270  23.597  1.00  0.00    -0.246 OA
BRANCH   6   8
ATOM      8  C   UNL A   1      34.794  21.480  24.961  1.00  0.00     0.083 A 
ATOM      9  C   UNL A   1      33.644  22.046  25.542  1.00  0.00     0.053 A 
ATOM     10  C   UNL A   1      32.486  21.246  25.590  1.00  0.00     0.027 A 
ATOM     11  C   UNL A   1      32.506  19.891  25.250  1.00  0.00     0.002 A 
ATOM     12  C   UNL A   1      34.808  20.111  24.613  1.00  0.00     0.018 A 
ATOM     13  C   UNL A   1      33.682  19.312  24.797  1.00  0.00     0.001 A 
BRANCH   9  14
ATOM     14  N   UNL A   1      33.662  23.294  26.212  1.00  0.00    -0.355 N 
ATOM     15  H   UNL A   1      33.855  23.259  27.176  1.00  0.00     0.167 HD
BRANCH  14  16
ATOM     16  C   UNL A   1      33.437  24.588  25.675  1.00  0.00     0.039 A 
ATOM     17  C   UNL A   1      32.867  25.999  23.701  1.00  0.00     0.002 A 
ATOM     18  C   UNL A   1      33.166  24.742  24.298  1.00  0.00     0.034 A 
ATOM     19  C   UNL A   1      32.842  27.089  24.574  1.00  0.00     0.127 A 
ATOM     20  C   UNL A   1      33.098  26.958  25.928  1.00  0.00     0.006 A 
ATOM     21  O   UNL A   1      32.575  28.385  24.221  1.00  0.00    -0.492 OA
ATOM     22  C   UNL A   1      33.419  25.731  26.477  1.00  0.00     0.034 A 
ATOM     23  C   UNL A   1      32.939  28.257  26.640  1.00  0.00     0.028 C 
ATOM     24  C   UNL A   1      32.631  29.165  25.436  1.00  0.00     0.240 C 
ATOM     25  C   UNL A   1      31.761  28.197  27.622  1.00  0.00     0.020 C 
ATOM     26  C   UNL A   1      34.214  28.688  27.370  1.00  0.00     0.020 C 
BRANCH  17  27
ATOM     27  C   UNL A   1      32.648  26.130  22.183  1.00  0.00    -0.009 C 
ATOM     28  C   UNL A   1      33.583  27.161  21.506  1.00  0.00     0.016 C 
ATOM     29  C   UNL A   1      31.207  26.571  21.826  1.00  0.00     0.016 C 
ATOM     30  C   UNL A   1      32.903  24.749  21.543  1.00  0.00     0.016 C 
ENDBRANCH  17  27
ENDBRANCH  14  16
ENDBRANCH   9  14
ENDBRANCH   6   8
ENDBRANCH   5   6
ENDBRANCH   4   5
ENDBRANCH   3   4
ENDBRANCH   2   3
ENDBRANCH   1   2
BRANCH   1  31
ATOM     31  C   UNL A   1      40.520  21.033  26.305  1.00  0.00     0.188 C 
BRANCH  31  32
ATOM     32  O   UNL A   1      41.754  20.487  25.916  1.00  0.00    -0.376 OA
BRANCH  32  33
ATOM     33  C   UNL A   1      42.144  19.196  26.347  1.00  0.00     0.202 C 
BRANCH  33  34
ATOM     34  C   UNL A   1      43.184  18.287  25.662  1.00  0.00     0.261 C 
BRANCH  34  35
ATOM     35  O   UNL A   1      44.531  18.746  25.552  1.00  0.00    -0.460 OA
BRANCH  35  36
ATOM     36  C   UNL A   1      44.832  19.460  24.440  1.00  0.00     0.338 C 
ATOM     37  O   UNL A   1      44.894  19.058  23.290  1.00  0.00    -0.246 OA
BRANCH  36  38
ATOM     38  C   UNL A   1      44.899  20.885  24.820  1.00  0.00     0.060 A 
ATOM     39  C   UNL A   1      45.322  21.250  26.098  1.00  0.00     0.016 A 
ATOM     40  C   UNL A   1      44.512  21.859  23.890  1.00  0.00     0.016 A 
ATOM     41  C   UNL A   1      45.369  22.603  26.441  1.00  0.00     0.010 A 
ATOM     42  C   UNL A   1      44.554  23.211  24.240  1.00  0.00     0.010 A 
ATOM     43  C   UNL A   1      44.997  23.593  25.513  1.00  0.00    -0.014 A 
BRANCH  43  44
ATOM     44  C   UNL A   1      45.223  25.022  25.848  1.00  0.00     0.031 A 
ATOM     45  C   UNL A   1      44.152  25.876  26.452  1.00  0.00     0.074 A 
ATOM     46  C   UNL A   1      46.448  25.535  25.629  1.00  0.00     0.049 A 
ATOM     47  N   UNL A   1      44.250  27.085  26.947  1.00  0.00    -0.248 NA
ATOM     48  C   UNL A   1      42.798  25.311  26.498  1.00  0.00     0.031 C 
ATOM     49  C   UNL A   1      47.558  24.807  25.013  1.00  0.00     0.029 A 
ATOM     50  N   UNL A   1      46.974  26.767  25.922  1.00  0.00    -0.354 N 
ATOM     51  C   UNL A   1      42.981  27.412  27.404  1.00  0.00     0.074 A 
ATOM     52  C   UNL A   1      42.115  26.302  27.059  1.00  0.00     0.031 C 
ATOM     53  C   UNL A   1      48.649  25.585  25.026  1.00  0.00     0.029 A 
ATOM     54  C   UNL A   1      48.312  26.871  25.630  1.00  0.00     0.049 A 
ATOM     55  H   UNL A   1      46.446  27.503  26.305  1.00  0.00     0.167 HD
ATOM     56  C   UNL A   1      42.588  28.522  28.075  1.00  0.00     0.037 A 
ATOM     57  C   UNL A   1      49.178  27.879  25.847  1.00  0.00     0.037 A 
ATOM     58  C   UNL A   1      43.452  29.634  28.390  1.00  0.00     0.049 A 
ATOM     59  C   UNL A   1      48.702  29.127  26.535  1.00  0.00     0.074 A 
ATOM     60  C   UNL A   1      43.150  30.792  29.087  1.00  0.00     0.029 A 
ATOM     61  N   UNL A   1      44.785  29.736  28.015  1.00  0.00    -0.354 N 
ATOM     62  N   UNL A   1      47.522  29.392  27.041  1.00  0.00    -0.248 NA
ATOM     63  C   UNL A   1      49.679  30.214  26.686  1.00  0.00     0.031 C 
ATOM     64  C   UNL A   1      44.280  31.616  29.086  1.00  0.00     0.029 A 
ATOM     65  C   UNL A   1      45.307  30.950  28.436  1.00  0.00     0.049 A 
ATOM     66  H   UNL A   1      45.287  29.046  27.521  1.00  0.00     0.167 HD
ATOM     67  C   UNL A   1      47.619  30.665  27.587  1.00  0.00     0.074 A 
ATOM     68  C   UNL A   1      48.978  31.112  27.367  1.00  0.00     0.031 C 
ATOM     69  C   UNL A   1      46.661  31.393  28.212  1.00  0.00     0.037 A 
BRANCH  56  70
ATOM     70  C   UNL A   1      41.162  28.588  28.541  1.00  0.00     0.064 A 
ATOM     71  C   UNL A   1      40.129  28.958  27.666  1.00  0.00     0.173 A 
ATOM     72  C   UNL A   1      40.808  28.206  29.845  1.00  0.00     0.173 A 
ATOM     73  F   UNL A   1      40.412  29.330  26.408  1.00  0.00    -0.203 F 
ATOM     74  C   UNL A   1      38.801  28.968  28.084  1.00  0.00     0.198 A 
ATOM     75  C   UNL A   1      39.475  28.189  30.250  1.00  0.00     0.198 A 
ATOM     76  F   UNL A   1      41.752  27.828  30.719  1.00  0.00    -0.203 F 
ATOM     77  F   UNL A   1      37.837  29.361  27.239  1.00  0.00    -0.200 F 
ATOM     78  C   UNL A   1      38.474  28.576  29.372  1.00  0.00     0.200 A 
ATOM     79  F   UNL A   1      39.159  27.788  31.490  1.00  0.00    -0.200 F 
ATOM     80  F   UNL A   1      37.194  28.569  29.768  1.00  0.00    -0.200 F 
ENDBRANCH  56  70
BRANCH  57  81
ATOM     81  C   UNL A   1      50.603  27.707  25.467  1.00  0.00     0.064 A 
ATOM     82  C   UNL A   1      51.559  27.342  26.424  1.00  0.00     0.173 A 
ATOM     83  C   UNL A   1      51.029  27.856  24.140  1.00  0.00     0.173 A 
ATOM     84  F   UNL A   1      51.200  27.202  27.709  1.00  0.00    -0.203 F 
ATOM     85  C   UNL A   1      52.889  27.134  26.068  1.00  0.00     0.198 A 
ATOM     86  C   UNL A   1      52.355  27.622  23.780  1.00  0.00     0.198 A 
ATOM     87  F   UNL A   1      50.150  28.198  23.185  1.00  0.00    -0.203 F 
ATOM     88  F   UNL A   1      53.789  26.810  27.007  1.00  0.00    -0.200 F 
ATOM     89  C   UNL A   1      53.284  27.265  24.745  1.00  0.00     0.200 A 
ATOM     90  F   UNL A   1      52.729  27.731  22.498  1.00  0.00    -0.200 F 
ATOM     91  F   UNL A   1      54.561  27.047  24.401  1.00  0.00    -0.200 F 
ENDBRANCH  57  81
BRANCH  69  92
ATOM     92  C   UNL A   1      47.037  32.759  28.713  1.00  0.00     0.064 A 
ATOM     93  C   UNL A   1      47.606  32.942  29.982  1.00  0.00     0.173 A 
ATOM     94  C   UNL A   1      46.905  33.885  27.886  1.00  0.00     0.173 A 
ATOM     95  F   UNL A   1      47.740  31.900  30.818  1.00  0.00    -0.203 F 
ATOM     96  C   UNL A   1      48.024  34.200  30.406  1.00  0.00     0.198 A 
ATOM     97  C   UNL A   1      47.352  35.137  28.301  1.00  0.00     0.198 A 
ATOM     98  F   UNL A   1      46.371  33.766  26.661  1.00  0.00    -0.203 F 
ATOM     99  F   UNL A   1      48.539  34.355  31.633  1.00  0.00    -0.200 F 
ATOM    100  C   UNL A   1      47.908  35.294  29.561  1.00  0.00     0.200 A 
ATOM    101  F   UNL A   1      47.253  36.190  27.477  1.00  0.00    -0.200 F 
ATOM    102  F   UNL A   1      48.332  36.500  29.963  1.00  0.00    -0.200 F 
ENDBRANCH  69  92
ENDBRANCH  43  44
ENDBRANCH  36  38
ENDBRANCH  35  36
ENDBRANCH  34  35
ENDBRANCH  33  34
ENDBRANCH  32  33
ENDBRANCH  31  32
ENDBRANCH   1  31
TORSDOF 20
ENDMDL
