MODEL 1
REMARK VINA RESULT:     -10.8      0.000      0.000
REMARK SMILES O=C(CSc1ccc2ccccc2c1)OCCOCCOCCOC(=O)c1ccc(-c2c3nc(c(-c4c(F)c(F)c(F)c(F)c4F)c4ccc([nH]4)c(-c4c(F)c(F)c(F)c(F)c4F)c4nc(c(-c5c(F)c(F)c(F)c(F)c5F)c5ccc2[nH]5)C=C4)C=C3)cc1
REMARK SMILES IDX 19 1 18 2 17 3 16 4 15 5 2 6 1 7 3 8 4 9 5 10 6 11 14 12
REMARK SMILES IDX 7 13 13 14 8 15 12 16 9 17 11 18 10 19 20 20 21 21 22 22
REMARK SMILES IDX 23 23 24 24 25 25 26 26 27 27 28 28 89 29 29 30 88 31 30 32
REMARK SMILES IDX 31 33 32 34 82 35 33 36 87 37 81 38 83 39 34 40 86 41 80 42
REMARK SMILES IDX 79 43 35 45 67 46 47 47 66 48 48 49 51 50 65 51 84 52 49 53
REMARK SMILES IDX 50 54 64 56 85 57 52 58 36 59 37 60 45 61 38 62 39 63 43 64
REMARK SMILES IDX 46 65 40 66 41 67 44 68 42 69 68 70 69 71 77 72 70 73 71 74
REMARK SMILES IDX 75 75 78 76 72 77 73 78 76 79 74 80 53 81 54 82 62 83 55 84
REMARK SMILES IDX 56 85 60 86 63 87 57 88 58 89 61 90 59 91
REMARK H PARENT 83 44 51 55
REMARK Flexibility Score: inf
ROOT
ATOM      1  C   UNL A   1      33.096  27.922  26.558  1.00  0.00     0.188 C 
ENDROOT
BRANCH   1   2
ATOM      2  O   UNL A   1      32.897  27.887  25.160  1.00  0.00    -0.376 OA
BRANCH   2   3
ATOM      3  C   UNL A   1      34.009  28.042  24.307  1.00  0.00     0.202 C 
BRANCH   3   4
ATOM      4  C   UNL A   1      33.601  28.147  22.841  1.00  0.00     0.261 C 
BRANCH   4   5
ATOM      5  O   UNL A   1      33.794  26.968  22.021  1.00  0.00    -0.463 OA
BRANCH   5   6
ATOM      6  C   UNL A   1      32.883  26.127  21.490  1.00  0.00     0.316 C 
ATOM      7  O   UNL A   1      33.101  25.642  20.379  1.00  0.00    -0.251 OA
BRANCH   6   8
ATOM      8  C   UNL A   1      31.572  25.859  22.188  1.00  0.00     0.197 C 
BRANCH   8   9
ATOM      9  S   UNL A   1      31.413  24.175  22.855  1.00  0.00    -0.114 SA
BRANCH   9  10
ATOM     10  C   UNL A   1      32.933  24.164  23.777  1.00  0.00     0.008 A 
ATOM     11  C   UNL A   1      32.928  24.575  25.108  1.00  0.00     0.016 A 
ATOM     12  C   UNL A   1      34.083  23.603  23.219  1.00  0.00     0.023 A 
ATOM     13  C   UNL A   1      34.063  24.380  25.895  1.00  0.00     0.010 A 
ATOM     14  C   UNL A   1      35.204  23.346  24.012  1.00  0.00    -0.017 A 
ATOM     15  C   UNL A   1      35.198  23.746  25.367  1.00  0.00    -0.018 A 
ATOM     16  C   UNL A   1      36.309  22.660  23.489  1.00  0.00     0.009 A 
ATOM     17  C   UNL A   1      36.323  23.474  26.158  1.00  0.00     0.009 A 
ATOM     18  C   UNL A   1      37.410  22.379  24.296  1.00  0.00     0.001 A 
ATOM     19  C   UNL A   1      37.420  22.794  25.624  1.00  0.00     0.001 A 
ENDBRANCH   9  10
ENDBRANCH   8   9
ENDBRANCH   6   8
ENDBRANCH   5   6
ENDBRANCH   4   5
ENDBRANCH   3   4
ENDBRANCH   2   3
ENDBRANCH   1   2
BRANCH   1  20
ATOM     20  C   UNL A   1      32.447  29.157  27.204  1.00  0.00     0.188 C 
BRANCH  20  21
ATOM     21  O   UNL A   1      33.248  30.288  27.525  1.00  0.00    -0.376 OA
BRANCH  21  22
ATOM     22  C   UNL A   1      32.819  31.587  27.140  1.00  0.00     0.202 C 
BRANCH  22  23
ATOM     23  C   UNL A   1      33.379  32.785  27.917  1.00  0.00     0.261 C 
BRANCH  23  24
ATOM     24  O   UNL A   1      32.499  33.923  28.002  1.00  0.00    -0.460 OA
BRANCH  24  25
ATOM     25  C   UNL A   1      32.983  34.992  28.684  1.00  0.00     0.338 C 
ATOM     26  O   UNL A   1      32.491  36.104  28.762  1.00  0.00    -0.246 OA
BRANCH  25  27
ATOM     27  C   UNL A   1      34.183  34.613  29.462  1.00  0.00     0.060 A 
ATOM     28  C   UNL A   1      35.425  34.596  28.814  1.00  0.00     0.016 A 
ATOM     29  C   UNL A   1      34.074  34.169  30.780  1.00  0.00     0.016 A 
ATOM     30  C   UNL A   1      36.560  34.117  29.477  1.00  0.00     0.010 A 
ATOM     31  C   UNL A   1      35.210  33.670  31.436  1.00  0.00     0.010 A 
ATOM     32  C   UNL A   1      36.455  33.618  30.782  1.00  0.00    -0.014 A 
BRANCH  32  33
ATOM     33  C   UNL A   1      37.610  32.938  31.428  1.00  0.00     0.031 A 
ATOM     34  C   UNL A   1      38.230  31.739  30.760  1.00  0.00     0.074 A 
ATOM     35  C   UNL A   1      38.100  33.370  32.604  1.00  0.00     0.049 A 
ATOM     36  N   UNL A   1      39.173  30.940  31.196  1.00  0.00    -0.248 NA
ATOM     37  C   UNL A   1      37.719  31.395  29.425  1.00  0.00     0.031 C 
ATOM     38  C   UNL A   1      37.627  34.542  33.337  1.00  0.00     0.029 A 
ATOM     39  N   UNL A   1      39.096  32.854  33.399  1.00  0.00    -0.354 N 
ATOM     40  C   UNL A   1      39.362  29.996  30.195  1.00  0.00     0.074 A 
ATOM     41  C   UNL A   1      38.426  30.311  29.136  1.00  0.00     0.031 C 
ATOM     42  C   UNL A   1      38.313  34.639  34.490  1.00  0.00     0.029 A 
ATOM     43  C   UNL A   1      39.246  33.518  34.593  1.00  0.00     0.049 A 
ATOM     44  H   UNL A   1      39.649  32.082  33.139  1.00  0.00     0.167 HD
ATOM     45  C   UNL A   1      40.237  28.963  30.161  1.00  0.00     0.037 A 
ATOM     46  C   UNL A   1      40.019  33.232  35.660  1.00  0.00     0.037 A 
ATOM     47  C   UNL A   1      41.175  28.647  31.208  1.00  0.00     0.049 A 
ATOM     48  C   UNL A   1      40.921  32.023  35.631  1.00  0.00     0.074 A 
ATOM     49  C   UNL A   1      42.127  27.643  31.235  1.00  0.00     0.029 A 
ATOM     50  N   UNL A   1      41.272  29.322  32.413  1.00  0.00    -0.354 N 
ATOM     51  N   UNL A   1      41.119  31.158  34.666  1.00  0.00    -0.248 NA
ATOM     52  C   UNL A   1      41.705  31.748  36.846  1.00  0.00     0.031 C 
ATOM     53  C   UNL A   1      42.762  27.673  32.481  1.00  0.00     0.029 A 
ATOM     54  C   UNL A   1      42.241  28.730  33.208  1.00  0.00     0.049 A 
ATOM     55  H   UNL A   1      40.732  30.106  32.668  1.00  0.00     0.167 HD
ATOM     56  C   UNL A   1      42.062  30.258  35.146  1.00  0.00     0.074 A 
ATOM     57  C   UNL A   1      42.413  30.689  36.481  1.00  0.00     0.031 C 
ATOM     58  C   UNL A   1      42.588  29.167  34.536  1.00  0.00     0.037 A 
BRANCH  45  59
ATOM     59  C   UNL A   1      40.216  28.066  28.959  1.00  0.00     0.064 A 
ATOM     60  C   UNL A   1      40.946  28.370  27.801  1.00  0.00     0.173 A 
ATOM     61  C   UNL A   1      39.521  26.848  28.999  1.00  0.00     0.173 A 
ATOM     62  F   UNL A   1      41.619  29.527  27.712  1.00  0.00    -0.203 F 
ATOM     63  C   UNL A   1      40.973  27.491  26.722  1.00  0.00     0.198 A 
ATOM     64  C   UNL A   1      39.571  25.960  27.928  1.00  0.00     0.198 A 
ATOM     65  F   UNL A   1      38.815  26.507  30.087  1.00  0.00    -0.203 F 
ATOM     66  F   UNL A   1      41.658  27.811  25.615  1.00  0.00    -0.200 F 
ATOM     67  C   UNL A   1      40.294  26.282  26.791  1.00  0.00     0.200 A 
ATOM     68  F   UNL A   1      38.926  24.787  28.002  1.00  0.00    -0.200 F 
ATOM     69  F   UNL A   1      40.337  25.428  25.758  1.00  0.00    -0.200 F 
ENDBRANCH  45  59
BRANCH  46  70
ATOM     70  C   UNL A   1      39.950  34.077  36.883  1.00  0.00     0.064 A 
ATOM     71  C   UNL A   1      39.084  33.758  37.938  1.00  0.00     0.173 A 
ATOM     72  C   UNL A   1      40.702  35.256  36.992  1.00  0.00     0.173 A 
ATOM     73  F   UNL A   1      38.318  32.659  37.866  1.00  0.00    -0.203 F 
ATOM     74  C   UNL A   1      38.955  34.597  39.043  1.00  0.00     0.198 A 
ATOM     75  C   UNL A   1      40.596  36.078  38.112  1.00  0.00     0.198 A 
ATOM     76  F   UNL A   1      41.540  35.612  36.008  1.00  0.00    -0.203 F 
ATOM     77  F   UNL A   1      38.075  34.299  40.009  1.00  0.00    -0.200 F 
ATOM     78  C   UNL A   1      39.715  35.754  39.130  1.00  0.00     0.200 A 
ATOM     79  F   UNL A   1      41.339  37.190  38.197  1.00  0.00    -0.200 F 
ATOM     80  F   UNL A   1      39.587  36.563  40.192  1.00  0.00    -0.200 F 
ENDBRANCH  46  70
BRANCH  58  81
ATOM     81  C   UNL A   1      43.616  28.374  35.292  1.00  0.00     0.064 A 
ATOM     82  C   UNL A   1      43.256  27.286  36.100  1.00  0.00     0.173 A 
ATOM     83  C   UNL A   1      44.981  28.679  35.172  1.00  0.00     0.173 A 
ATOM     84  F   UNL A   1      41.964  26.963  36.260  1.00  0.00    -0.203 F 
ATOM     85  C   UNL A   1      44.222  26.548  36.779  1.00  0.00     0.198 A 
ATOM     86  C   UNL A   1      45.946  27.920  35.829  1.00  0.00     0.198 A 
ATOM     87  F   UNL A   1      45.382  29.705  34.406  1.00  0.00    -0.203 F 
ATOM     88  F   UNL A   1      43.851  25.540  37.582  1.00  0.00    -0.200 F 
ATOM     89  C   UNL A   1      45.565  26.859  36.638  1.00  0.00     0.200 A 
ATOM     90  F   UNL A   1      47.245  28.214  35.680  1.00  0.00    -0.200 F 
ATOM     91  F   UNL A   1      46.494  26.142  37.285  1.00  0.00    -0.200 F 
ENDBRANCH  58  81
ENDBRANCH  32  33
ENDBRANCH  25  27
ENDBRANCH  24  25
ENDBRANCH  23  24
ENDBRANCH  22  23
ENDBRANCH  21  22
ENDBRANCH  20  21
ENDBRANCH   1  20
TORSDOF 19
ENDMDL
MODEL 2
REMARK VINA RESULT:     -10.7      2.144      8.168
REMARK SMILES O=C(CSc1ccc2ccccc2c1)OCCOCCOCCOC(=O)c1ccc(-c2c3nc(c(-c4c(F)c(F)c(F)c(F)c4F)c4ccc([nH]4)c(-c4c(F)c(F)c(F)c(F)c4F)c4nc(c(-c5c(F)c(F)c(F)c(F)c5F)c5ccc2[nH]5)C=C4)C=C3)cc1
REMARK SMILES IDX 19 1 18 2 17 3 16 4 15 5 2 6 1 7 3 8 4 9 5 10 6 11 14 12
REMARK SMILES IDX 7 13 13 14 8 15 12 16 9 17 11 18 10 19 20 20 21 21 22 22
REMARK SMILES IDX 23 23 24 24 25 25 26 26 27 27 28 28 89 29 29 30 88 31 30 32
REMARK SMILES IDX 31 33 32 34 82 35 33 36 87 37 81 38 83 39 34 40 86 41 80 42
REMARK SMILES IDX 79 43 35 45 67 46 47 47 66 48 48 49 51 50 65 51 84 52 49 53
REMARK SMILES IDX 50 54 64 56 85 57 52 58 36 59 37 60 45 61 38 62 39 63 43 64
REMARK SMILES IDX 46 65 40 66 41 67 44 68 42 69 68 70 69 71 77 72 70 73 71 74
REMARK SMILES IDX 75 75 78 76 72 77 73 78 76 79 74 80 53 81 54 82 62 83 55 84
REMARK SMILES IDX 56 85 60 86 63 87 57 88 58 89 61 90 59 91
REMARK H PARENT 83 44 51 55
REMARK Flexibility Score: inf
ROOT
ATOM      1  C   UNL A   1      33.415  33.189  27.740  1.00  0.00     0.188 C 
ENDROOT
BRANCH   1   2
ATOM      2  O   UNL A   1      33.730  31.838  28.012  1.00  0.00    -0.376 OA
BRANCH   2   3
ATOM      3  C   UNL A   1      33.125  30.827  27.237  1.00  0.00     0.202 C 
BRANCH   3   4
ATOM      4  C   UNL A   1      34.107  29.718  26.871  1.00  0.00     0.261 C 
BRANCH   4   5
ATOM      5  O   UNL A   1      33.649  28.354  27.042  1.00  0.00    -0.463 OA
BRANCH   5   6
ATOM      6  C   UNL A   1      33.355  27.418  26.116  1.00  0.00     0.316 C 
ATOM      7  O   UNL A   1      32.910  26.333  26.490  1.00  0.00    -0.251 OA
BRANCH   6   8
ATOM      8  C   UNL A   1      33.658  27.648  24.655  1.00  0.00     0.197 C 
BRANCH   8   9
ATOM      9  S   UNL A   1      33.138  26.291  23.563  1.00  0.00    -0.114 SA
BRANCH   9  10
ATOM     10  C   UNL A   1      31.492  26.885  23.250  1.00  0.00     0.008 A 
ATOM     11  C   UNL A   1      30.407  26.226  23.823  1.00  0.00     0.016 A 
ATOM     12  C   UNL A   1      31.303  28.088  22.567  1.00  0.00     0.023 A 
ATOM     13  C   UNL A   1      29.136  26.796  23.753  1.00  0.00     0.010 A 
ATOM     14  C   UNL A   1      30.047  28.700  22.543  1.00  0.00    -0.017 A 
ATOM     15  C   UNL A   1      28.947  28.043  23.137  1.00  0.00    -0.018 A 
ATOM     16  C   UNL A   1      29.881  29.972  21.977  1.00  0.00     0.009 A 
ATOM     17  C   UNL A   1      27.693  28.670  23.118  1.00  0.00     0.009 A 
ATOM     18  C   UNL A   1      28.632  30.589  21.986  1.00  0.00     0.001 A 
ATOM     19  C   UNL A   1      27.539  29.935  22.546  1.00  0.00     0.001 A 
ENDBRANCH   9  10
ENDBRANCH   8   9
ENDBRANCH   6   8
ENDBRANCH   5   6
ENDBRANCH   4   5
ENDBRANCH   3   4
ENDBRANCH   2   3
ENDBRANCH   1   2
BRANCH   1  20
ATOM     20  C   UNL A   1      34.254  34.159  28.587  1.00  0.00     0.188 C 
BRANCH  20  21
ATOM     21  O   UNL A   1      34.404  35.511  28.172  1.00  0.00    -0.376 OA
BRANCH  21  22
ATOM     22  C   UNL A   1      33.646  36.533  28.806  1.00  0.00     0.202 C 
BRANCH  22  23
ATOM     23  C   UNL A   1      32.568  36.106  29.810  1.00  0.00     0.261 C 
BRANCH  23  24
ATOM     24  O   UNL A   1      32.581  36.823  31.061  1.00  0.00    -0.460 OA
BRANCH  24  25
ATOM     25  C   UNL A   1      32.523  36.055  32.179  1.00  0.00     0.338 C 
ATOM     26  O   UNL A   1      31.617  35.998  32.990  1.00  0.00    -0.246 OA
BRANCH  25  27
ATOM     27  C   UNL A   1      33.697  35.158  32.255  1.00  0.00     0.060 A 
ATOM     28  C   UNL A   1      33.513  33.853  32.733  1.00  0.00     0.016 A 
ATOM     29  C   UNL A   1      34.980  35.626  31.971  1.00  0.00     0.016 A 
ATOM     30  C   UNL A   1      34.616  33.018  32.946  1.00  0.00     0.010 A 
ATOM     31  C   UNL A   1      36.086  34.794  32.205  1.00  0.00     0.010 A 
ATOM     32  C   UNL A   1      35.914  33.493  32.716  1.00  0.00    -0.014 A 
BRANCH  32  33
ATOM     33  C   UNL A   1      37.098  32.684  33.112  1.00  0.00     0.031 A 
ATOM     34  C   UNL A   1      37.806  32.995  34.404  1.00  0.00     0.074 A 
ATOM     35  C   UNL A   1      37.552  31.690  32.328  1.00  0.00     0.049 A 
ATOM     36  N   UNL A   1      38.912  32.485  34.889  1.00  0.00    -0.248 NA
ATOM     37  C   UNL A   1      37.187  34.016  35.262  1.00  0.00     0.031 C 
ATOM     38  C   UNL A   1      36.938  31.253  31.076  1.00  0.00     0.029 A 
ATOM     39  N   UNL A   1      38.654  30.879  32.464  1.00  0.00    -0.354 N 
ATOM     40  C   UNL A   1      39.125  33.126  36.102  1.00  0.00     0.074 A 
ATOM     41  C   UNL A   1      38.044  34.075  36.273  1.00  0.00     0.031 C 
ATOM     42  C   UNL A   1      37.688  30.273  30.543  1.00  0.00     0.029 A 
ATOM     43  C   UNL A   1      38.854  30.039  31.395  1.00  0.00     0.049 A 
ATOM     44  H   UNL A   1      39.245  30.900  33.251  1.00  0.00     0.167 HD
ATOM     45  C   UNL A   1      40.128  32.941  36.992  1.00  0.00     0.037 A 
ATOM     46  C   UNL A   1      39.877  29.204  31.119  1.00  0.00     0.037 A 
ATOM     47  C   UNL A   1      41.203  31.995  36.832  1.00  0.00     0.049 A 
ATOM     48  C   UNL A   1      41.028  29.082  32.087  1.00  0.00     0.074 A 
ATOM     49  C   UNL A   1      42.238  31.713  37.707  1.00  0.00     0.029 A 
ATOM     50  N   UNL A   1      41.388  31.188  35.721  1.00  0.00    -0.354 N 
ATOM     51  N   UNL A   1      41.201  29.666  33.249  1.00  0.00    -0.248 NA
ATOM     52  C   UNL A   1      42.129  28.185  31.702  1.00  0.00     0.031 C 
ATOM     53  C   UNL A   1      43.082  30.776  37.101  1.00  0.00     0.029 A 
ATOM     54  C   UNL A   1      42.543  30.436  35.872  1.00  0.00     0.049 A 
ATOM     55  H   UNL A   1      40.788  31.154  34.941  1.00  0.00     0.167 HD
ATOM     56  C   UNL A   1      42.411  29.191  33.739  1.00  0.00     0.074 A 
ATOM     57  C   UNL A   1      42.923  28.256  32.761  1.00  0.00     0.031 C 
ATOM     58  C   UNL A   1      43.045  29.505  34.895  1.00  0.00     0.037 A 
BRANCH  45  59
ATOM     59  C   UNL A   1      40.138  33.795  38.225  1.00  0.00     0.064 A 
ATOM     60  C   UNL A   1      39.455  33.415  39.389  1.00  0.00     0.173 A 
ATOM     61  C   UNL A   1      40.908  34.967  38.266  1.00  0.00     0.173 A 
ATOM     62  F   UNL A   1      38.699  32.307  39.396  1.00  0.00    -0.203 F 
ATOM     63  C   UNL A   1      39.535  34.183  40.547  1.00  0.00     0.198 A 
ATOM     64  C   UNL A   1      41.005  35.719  39.433  1.00  0.00     0.198 A 
ATOM     65  F   UNL A   1      41.587  35.369  37.181  1.00  0.00    -0.203 F 
ATOM     66  F   UNL A   1      38.855  33.815  41.642  1.00  0.00    -0.200 F 
ATOM     67  C   UNL A   1      40.317  35.329  40.571  1.00  0.00     0.200 A 
ATOM     68  F   UNL A   1      41.773  36.818  39.458  1.00  0.00    -0.200 F 
ATOM     69  F   UNL A   1      40.408  36.057  41.693  1.00  0.00    -0.200 F 
ENDBRANCH  45  59
BRANCH  46  70
ATOM     70  C   UNL A   1      39.897  28.442  29.841  1.00  0.00     0.064 A 
ATOM     71  C   UNL A   1      39.342  27.158  29.753  1.00  0.00     0.173 A 
ATOM     72  C   UNL A   1      40.529  28.958  28.700  1.00  0.00     0.173 A 
ATOM     73  F   UNL A   1      38.757  26.606  30.827  1.00  0.00    -0.203 F 
ATOM     74  C   UNL A   1      39.439  26.410  28.582  1.00  0.00     0.198 A 
ATOM     75  C   UNL A   1      40.598  28.222  27.519  1.00  0.00     0.198 A 
ATOM     76  F   UNL A   1      41.083  30.179  28.733  1.00  0.00    -0.203 F 
ATOM     77  F   UNL A   1      38.953  25.162  28.544  1.00  0.00    -0.200 F 
ATOM     78  C   UNL A   1      40.063  26.945  27.464  1.00  0.00     0.200 A 
ATOM     79  F   UNL A   1      41.193  28.747  26.439  1.00  0.00    -0.200 F 
ATOM     80  F   UNL A   1      40.160  26.223  26.339  1.00  0.00    -0.200 F 
ENDBRANCH  46  70
BRANCH  58  81
ATOM     81  C   UNL A   1      44.349  28.817  35.184  1.00  0.00     0.064 A 
ATOM     82  C   UNL A   1      44.398  27.583  35.848  1.00  0.00     0.173 A 
ATOM     83  C   UNL A   1      45.562  29.379  34.754  1.00  0.00     0.173 A 
ATOM     84  F   UNL A   1      43.269  27.011  36.293  1.00  0.00    -0.203 F 
ATOM     85  C   UNL A   1      45.614  26.948  36.090  1.00  0.00     0.198 A 
ATOM     86  C   UNL A   1      46.772  28.726  34.972  1.00  0.00     0.198 A 
ATOM     87  F   UNL A   1      45.572  30.555  34.108  1.00  0.00    -0.203 F 
ATOM     88  F   UNL A   1      45.639  25.791  36.767  1.00  0.00    -0.200 F 
ATOM     89  C   UNL A   1      46.798  27.515  35.646  1.00  0.00     0.200 A 
ATOM     90  F   UNL A   1      47.915  29.270  34.530  1.00  0.00    -0.200 F 
ATOM     91  F   UNL A   1      47.966  26.898  35.874  1.00  0.00    -0.200 F 
ENDBRANCH  58  81
ENDBRANCH  32  33
ENDBRANCH  25  27
ENDBRANCH  24  25
ENDBRANCH  23  24
ENDBRANCH  22  23
ENDBRANCH  21  22
ENDBRANCH  20  21
ENDBRANCH   1  20
TORSDOF 19
ENDMDL
MODEL 3
REMARK VINA RESULT:     -10.7      1.643      2.148
REMARK SMILES O=C(CSc1ccc2ccccc2c1)OCCOCCOCCOC(=O)c1ccc(-c2c3nc(c(-c4c(F)c(F)c(F)c(F)c4F)c4ccc([nH]4)c(-c4c(F)c(F)c(F)c(F)c4F)c4nc(c(-c5c(F)c(F)c(F)c(F)c5F)c5ccc2[nH]5)C=C4)C=C3)cc1
REMARK SMILES IDX 19 1 18 2 17 3 16 4 15 5 2 6 1 7 3 8 4 9 5 10 6 11 14 12
REMARK SMILES IDX 7 13 13 14 8 15 12 16 9 17 11 18 10 19 20 20 21 21 22 22
REMARK SMILES IDX 23 23 24 24 25 25 26 26 27 27 28 28 89 29 29 30 88 31 30 32
REMARK SMILES IDX 31 33 32 34 82 35 33 36 87 37 81 38 83 39 34 40 86 41 80 42
REMARK SMILES IDX 79 43 35 45 67 46 47 47 66 48 48 49 51 50 65 51 84 52 49 53
REMARK SMILES IDX 50 54 64 56 85 57 52 58 36 59 37 60 45 61 38 62 39 63 43 64
REMARK SMILES IDX 46 65 40 66 41 67 44 68 42 69 68 70 69 71 77 72 70 73 71 74
REMARK SMILES IDX 75 75 78 76 72 77 73 78 76 79 74 80 53 81 54 82 62 83 55 84
REMARK SMILES IDX 56 85 60 86 63 87 57 88 58 89 61 90 59 91
REMARK H PARENT 83 44 51 55
REMARK Flexibility Score: inf
ROOT
ATOM      1  C   UNL A   1      33.723  27.405  25.997  1.00  0.00     0.188 C 
ENDROOT
BRANCH   1   2
ATOM      2  O   UNL A   1      32.884  27.182  24.882  1.00  0.00    -0.376 OA
BRANCH   2   3
ATOM      3  C   UNL A   1      33.239  27.741  23.637  1.00  0.00     0.202 C 
BRANCH   3   4
ATOM      4  C   UNL A   1      33.133  26.731  22.500  1.00  0.00     0.261 C 
BRANCH   4   5
ATOM      5  O   UNL A   1      33.743  25.435  22.715  1.00  0.00    -0.463 OA
BRANCH   5   6
ATOM      6  C   UNL A   1      33.235  24.199  22.528  1.00  0.00     0.316 C 
ATOM      7  O   UNL A   1      33.816  23.429  21.762  1.00  0.00    -0.251 OA
BRANCH   6   8
ATOM      8  C   UNL A   1      31.926  23.792  23.158  1.00  0.00     0.197 C 
BRANCH   8   9
ATOM      9  S   UNL A   1      32.067  23.254  24.889  1.00  0.00    -0.114 SA
BRANCH   9  10
ATOM     10  C   UNL A   1      33.010  21.779  24.580  1.00  0.00     0.008 A 
ATOM     11  C   UNL A   1      34.295  21.667  25.107  1.00  0.00     0.016 A 
ATOM     12  C   UNL A   1      32.411  20.688  23.949  1.00  0.00     0.023 A 
ATOM     13  C   UNL A   1      34.962  20.444  25.045  1.00  0.00     0.010 A 
ATOM     14  C   UNL A   1      33.043  19.442  23.935  1.00  0.00    -0.017 A 
ATOM     15  C   UNL A   1      34.339  19.318  24.484  1.00  0.00    -0.018 A 
ATOM     16  C   UNL A   1      32.388  18.312  23.425  1.00  0.00     0.009 A 
ATOM     17  C   UNL A   1      34.961  18.062  24.475  1.00  0.00     0.009 A 
ATOM     18  C   UNL A   1      33.013  17.067  23.444  1.00  0.00     0.001 A 
ATOM     19  C   UNL A   1      34.300  16.945  23.960  1.00  0.00     0.001 A 
ENDBRANCH   9  10
ENDBRANCH   8   9
ENDBRANCH   6   8
ENDBRANCH   5   6
ENDBRANCH   4   5
ENDBRANCH   3   4
ENDBRANCH   2   3
ENDBRANCH   1   2
BRANCH   1  20
ATOM     20  C   UNL A   1      33.127  28.431  26.973  1.00  0.00     0.188 C 
BRANCH  20  21
ATOM     21  O   UNL A   1      33.765  29.689  27.152  1.00  0.00    -0.376 OA
BRANCH  21  22
ATOM     22  C   UNL A   1      33.013  30.888  27.017  1.00  0.00     0.202 C 
BRANCH  22  23
ATOM     23  C   UNL A   1      33.528  32.140  27.737  1.00  0.00     0.261 C 
BRANCH  23  24
ATOM     24  O   UNL A   1      32.651  33.283  27.676  1.00  0.00    -0.460 OA
BRANCH  24  25
ATOM     25  C   UNL A   1      33.064  34.379  28.362  1.00  0.00     0.338 C 
ATOM     26  O   UNL A   1      32.531  35.474  28.396  1.00  0.00    -0.246 OA
BRANCH  25  27
ATOM     27  C   UNL A   1      34.236  34.055  29.204  1.00  0.00     0.060 A 
ATOM     28  C   UNL A   1      35.515  34.356  28.717  1.00  0.00     0.016 A 
ATOM     29  C   UNL A   1      34.089  33.361  30.405  1.00  0.00     0.016 A 
ATOM     30  C   UNL A   1      36.653  33.945  29.422  1.00  0.00     0.010 A 
ATOM     31  C   UNL A   1      35.230  32.933  31.099  1.00  0.00     0.010 A 
ATOM     32  C   UNL A   1      36.520  33.201  30.601  1.00  0.00    -0.014 A 
BRANCH  32  33
ATOM     33  C   UNL A   1      37.713  32.603  31.258  1.00  0.00     0.031 A 
ATOM     34  C   UNL A   1      38.430  31.460  30.589  1.00  0.00     0.074 A 
ATOM     35  C   UNL A   1      38.153  33.058  32.445  1.00  0.00     0.049 A 
ATOM     36  N   UNL A   1      39.424  30.730  31.031  1.00  0.00    -0.248 NA
ATOM     37  C   UNL A   1      37.964  31.092  29.243  1.00  0.00     0.031 C 
ATOM     38  C   UNL A   1      37.584  34.184  33.181  1.00  0.00     0.029 A 
ATOM     39  N   UNL A   1      39.174  32.611  33.250  1.00  0.00    -0.354 N 
ATOM     40  C   UNL A   1      39.697  29.812  30.025  1.00  0.00     0.074 A 
ATOM     41  C   UNL A   1      38.754  30.066  28.955  1.00  0.00     0.031 C 
ATOM     42  C   UNL A   1      38.245  34.321  34.344  1.00  0.00     0.029 A 
ATOM     43  C   UNL A   1      39.257  33.272  34.451  1.00  0.00     0.049 A 
ATOM     44  H   UNL A   1      39.786  31.884  32.990  1.00  0.00     0.167 HD
ATOM     45  C   UNL A   1      40.647  28.847  29.994  1.00  0.00     0.037 A 
ATOM     46  C   UNL A   1      40.035  33.034  35.527  1.00  0.00     0.037 A 
ATOM     47  C   UNL A   1      41.591  28.592  31.052  1.00  0.00     0.049 A 
ATOM     48  C   UNL A   1      41.025  31.896  35.500  1.00  0.00     0.074 A 
ATOM     49  C   UNL A   1      42.616  27.661  31.084  1.00  0.00     0.029 A 
ATOM     50  N   UNL A   1      41.621  29.260  32.264  1.00  0.00    -0.354 N 
ATOM     51  N   UNL A   1      41.301  31.057  34.530  1.00  0.00    -0.248 NA
ATOM     52  C   UNL A   1      41.811  31.668  36.724  1.00  0.00     0.031 C 
ATOM     53  C   UNL A   1      43.229  27.727  32.339  1.00  0.00     0.029 A 
ATOM     54  C   UNL A   1      42.621  28.735  33.068  1.00  0.00     0.049 A 
ATOM     55  H   UNL A   1      41.021  29.999  32.518  1.00  0.00     0.167 HD
ATOM     56  C   UNL A   1      42.302  30.225  35.016  1.00  0.00     0.074 A 
ATOM     57  C   UNL A   1      42.601  30.668  36.360  1.00  0.00     0.031 C 
ATOM     58  C   UNL A   1      42.916  29.183  34.404  1.00  0.00     0.037 A 
BRANCH  45  59
ATOM     59  C   UNL A   1      40.709  27.963  28.784  1.00  0.00     0.064 A 
ATOM     60  C   UNL A   1      39.951  26.787  28.692  1.00  0.00     0.173 A 
ATOM     61  C   UNL A   1      41.475  28.342  27.671  1.00  0.00     0.173 A 
ATOM     62  F   UNL A   1      39.210  26.379  29.734  1.00  0.00    -0.203 F 
ATOM     63  C   UNL A   1      39.965  26.016  27.533  1.00  0.00     0.198 A 
ATOM     64  C   UNL A   1      41.467  27.582  26.505  1.00  0.00     0.198 A 
ATOM     65  F   UNL A   1      42.211  29.463  27.706  1.00  0.00    -0.203 F 
ATOM     66  F   UNL A   1      39.253  24.883  27.475  1.00  0.00    -0.200 F 
ATOM     67  C   UNL A   1      40.715  26.420  26.437  1.00  0.00     0.200 A 
ATOM     68  F   UNL A   1      42.181  27.982  25.443  1.00  0.00    -0.200 F 
ATOM     69  F   UNL A   1      40.713  25.687  25.315  1.00  0.00    -0.200 F 
ENDBRANCH  45  59
BRANCH  46  70
ATOM     70  C   UNL A   1      39.886  33.860  36.756  1.00  0.00     0.064 A 
ATOM     71  C   UNL A   1      39.019  33.475  37.788  1.00  0.00     0.173 A 
ATOM     72  C   UNL A   1      40.561  35.082  36.894  1.00  0.00     0.173 A 
ATOM     73  F   UNL A   1      38.324  32.332  37.688  1.00  0.00    -0.203 F 
ATOM     74  C   UNL A   1      38.813  34.292  38.898  1.00  0.00     0.198 A 
ATOM     75  C   UNL A   1      40.379  35.883  38.018  1.00  0.00     0.198 A 
ATOM     76  F   UNL A   1      41.397  35.500  35.932  1.00  0.00    -0.203 F 
ATOM     77  F   UNL A   1      37.932  33.929  39.840  1.00  0.00    -0.200 F 
ATOM     78  C   UNL A   1      39.497  35.494  39.014  1.00  0.00     0.200 A 
ATOM     79  F   UNL A   1      41.049  37.038  38.131  1.00  0.00    -0.200 F 
ATOM     80  F   UNL A   1      39.295  36.281  40.079  1.00  0.00    -0.200 F 
ENDBRANCH  46  70
BRANCH  58  81
ATOM     81  C   UNL A   1      43.990  28.462  35.168  1.00  0.00     0.064 A 
ATOM     82  C   UNL A   1      43.707  27.321  35.932  1.00  0.00     0.173 A 
ATOM     83  C   UNL A   1      45.324  28.892  35.100  1.00  0.00     0.173 A 
ATOM     84  F   UNL A   1      42.445  26.877  36.042  1.00  0.00    -0.203 F 
ATOM     85  C   UNL A   1      44.717  26.650  36.618  1.00  0.00     0.198 A 
ATOM     86  C   UNL A   1      46.335  28.201  35.764  1.00  0.00     0.198 A 
ATOM     87  F   UNL A   1      45.652  29.974  34.377  1.00  0.00    -0.203 F 
ATOM     88  F   UNL A   1      44.416  25.588  37.379  1.00  0.00    -0.200 F 
ATOM     89  C   UNL A   1      46.030  27.085  36.528  1.00  0.00     0.200 A 
ATOM     90  F   UNL A   1      47.606  28.616  35.663  1.00  0.00    -0.200 F 
ATOM     91  F   UNL A   1      47.001  26.434  37.183  1.00  0.00    -0.200 F 
ENDBRANCH  58  81
ENDBRANCH  32  33
ENDBRANCH  25  27
ENDBRANCH  24  25
ENDBRANCH  23  24
ENDBRANCH  22  23
ENDBRANCH  21  22
ENDBRANCH  20  21
ENDBRANCH   1  20
TORSDOF 19
ENDMDL
