MODEL 1
REMARK VINA RESULT:     -10.6      0.000      0.000
REMARK SMILES CC(C)Cc1cc2c(cc1Cl)C=C(C(=O)OCCOCCOCCOC(=O)c1ccc(-c3c4nc(c(-c5c(F)c(F)c(F)c(F)c5F)c5ccc([nH]5)c(-c5c(F)c(F)c(F)c(F)c5F)c5nc(c(-c6c(F)c(F)c(F)c(F)c6F)c6ccc3[nH]6)C=C5)C=C4)cc1)[C@@H](C(F)(F)F)O2
REMARK SMILES IDX 20 1 19 2 18 3 17 4 16 5 14 6 15 7 13 8 5 9 6 10 10 11 7 12
REMARK SMILES IDX 9 13 11 14 8 15 96 16 12 17 91 18 4 19 2 20 1 21 3 22 92 23
REMARK SMILES IDX 93 24 94 25 95 26 21 27 22 28 23 29 24 30 25 31 26 32 27 33
REMARK SMILES IDX 28 34 29 35 90 36 30 37 89 38 31 39 32 40 33 41 83 42 34 43
REMARK SMILES IDX 88 44 82 45 84 46 35 47 87 48 81 49 80 50 36 52 68 53 48 54
REMARK SMILES IDX 67 55 49 56 52 57 66 58 85 59 50 60 51 61 65 63 86 64 53 65
REMARK SMILES IDX 37 66 38 67 46 68 39 69 40 70 44 71 47 72 41 73 42 74 45 75
REMARK SMILES IDX 43 76 69 77 70 78 78 79 71 80 72 81 76 82 79 83 73 84 74 85
REMARK SMILES IDX 77 86 75 87 54 88 55 89 63 90 56 91 57 92 61 93 64 94 58 95
REMARK SMILES IDX 59 96 62 97 60 98
REMARK H PARENT 84 51 52 62
REMARK Flexibility Score: inf
ROOT
ATOM      1  C   UNL A   1      40.264  21.537  26.970  1.00  0.00     0.188 C 
ENDROOT
BRANCH   1   2
ATOM      2  O   UNL A   1      39.618  22.434  26.091  1.00  0.00    -0.376 OA
BRANCH   2   3
ATOM      3  C   UNL A   1      38.245  22.291  25.764  1.00  0.00     0.202 C 
BRANCH   3   4
ATOM      4  C   UNL A   1      37.259  23.452  25.915  1.00  0.00     0.261 C 
BRANCH   4   5
ATOM      5  O   UNL A   1      36.070  23.312  25.131  1.00  0.00    -0.460 OA
BRANCH   5   6
ATOM      6  C   UNL A   1      34.920  23.588  25.789  1.00  0.00     0.338 C 
ATOM      7  O   UNL A   1      34.521  23.073  26.821  1.00  0.00    -0.246 OA
BRANCH   6   8
ATOM      8  C   UNL A   1      34.258  24.744  25.158  1.00  0.00     0.087 C 
ATOM      9  C   UNL A   1      31.541  28.881  24.457  1.00  0.00    -0.025 A 
ATOM     10  C   UNL A   1      31.983  27.841  23.617  1.00  0.00     0.052 A 
ATOM     11  C   UNL A   1      32.118  28.996  25.732  1.00  0.00     0.045 A 
ATOM     12  C   UNL A   1      32.856  26.862  24.087  1.00  0.00     0.128 A 
ATOM     13  C   UNL A   1      33.015  28.029  26.193  1.00  0.00     0.032 A 
ATOM     14  Cl  UNL A   1      31.718  30.277  26.819  1.00  0.00    -0.084 Cl
ATOM     15  C   UNL A   1      33.339  26.932  25.391  1.00  0.00     0.019 A 
ATOM     16  O   UNL A   1      33.155  25.856  23.216  1.00  0.00    -0.475 OA
ATOM     17  C   UNL A   1      34.095  25.823  25.936  1.00  0.00     0.027 C 
ATOM     18  C   UNL A   1      33.800  24.656  23.727  1.00  0.00     0.316 C 
BRANCH   9  19
ATOM     19  C   UNL A   1      30.388  29.740  23.987  1.00  0.00     0.040 C 
BRANCH  19  20
ATOM     20  C   UNL A   1      29.692  29.164  22.728  1.00  0.00    -0.013 C 
ATOM     21  C   UNL A   1      28.415  28.384  23.061  1.00  0.00     0.008 C 
ATOM     22  C   UNL A   1      29.364  30.287  21.744  1.00  0.00     0.008 C 
ENDBRANCH  19  20
ENDBRANCH   9  19
BRANCH  18  23
ATOM     23  C   UNL A   1      32.873  23.456  23.482  1.00  0.00     0.430 C 
ATOM     24  F   UNL A   1      33.572  22.370  23.076  1.00  0.00    -0.167 F 
ATOM     25  F   UNL A   1      32.215  23.097  24.608  1.00  0.00    -0.167 F 
ATOM     26  F   UNL A   1      31.944  23.721  22.536  1.00  0.00    -0.167 F 
ENDBRANCH  18  23
ENDBRANCH   6   8
ENDBRANCH   5   6
ENDBRANCH   4   5
ENDBRANCH   3   4
ENDBRANCH   2   3
ENDBRANCH   1   2
BRANCH   1  27
ATOM     27  C   UNL A   1      41.548  20.782  26.561  1.00  0.00     0.188 C 
BRANCH  27  28
ATOM     28  O   UNL A   1      42.138  19.833  27.424  1.00  0.00    -0.376 OA
BRANCH  28  29
ATOM     29  C   UNL A   1      42.710  18.656  26.868  1.00  0.00     0.202 C 
BRANCH  29  30
ATOM     30  C   UNL A   1      43.095  18.614  25.386  1.00  0.00     0.261 C 
BRANCH  30  31
ATOM     31  O   UNL A   1      44.482  18.902  25.151  1.00  0.00    -0.460 OA
BRANCH  31  32
ATOM     32  C   UNL A   1      44.729  19.794  24.153  1.00  0.00     0.338 C 
ATOM     33  O   UNL A   1      44.729  19.593  22.962  1.00  0.00    -0.246 OA
BRANCH  32  34
ATOM     34  C   UNL A   1      44.791  21.147  24.746  1.00  0.00     0.060 A 
ATOM     35  C   UNL A   1      45.195  21.339  26.067  1.00  0.00     0.016 A 
ATOM     36  C   UNL A   1      44.429  22.237  23.944  1.00  0.00     0.016 A 
ATOM     37  C   UNL A   1      45.264  22.637  26.581  1.00  0.00     0.010 A 
ATOM     38  C   UNL A   1      44.470  23.530  24.466  1.00  0.00     0.010 A 
ATOM     39  C   UNL A   1      44.912  23.738  25.781  1.00  0.00    -0.014 A 
BRANCH  39  40
ATOM     40  C   UNL A   1      45.180  25.119  26.250  1.00  0.00     0.031 A 
ATOM     41  C   UNL A   1      46.546  25.728  26.193  1.00  0.00     0.074 A 
ATOM     42  C   UNL A   1      44.149  25.813  26.766  1.00  0.00     0.049 A 
ATOM     43  N   UNL A   1      46.922  26.932  26.546  1.00  0.00    -0.248 NA
ATOM     44  C   UNL A   1      47.631  24.880  25.683  1.00  0.00     0.031 C 
ATOM     45  C   UNL A   1      42.781  25.308  26.886  1.00  0.00     0.029 A 
ATOM     46  N   UNL A   1      44.089  27.078  27.287  1.00  0.00    -0.354 N 
ATOM     47  C   UNL A   1      48.280  27.002  26.277  1.00  0.00     0.074 A 
ATOM     48  C   UNL A   1      48.673  25.700  25.772  1.00  0.00     0.031 C 
ATOM     49  C   UNL A   1      42.014  26.258  27.441  1.00  0.00     0.029 A 
ATOM     50  C   UNL A   1      42.839  27.426  27.731  1.00  0.00     0.049 A 
ATOM     51  H   UNL A   1      44.868  27.679  27.338  1.00  0.00     0.167 HD
ATOM     52  C   UNL A   1      49.112  28.062  26.424  1.00  0.00     0.037 A 
ATOM     53  C   UNL A   1      42.403  28.560  28.309  1.00  0.00     0.037 A 
ATOM     54  C   UNL A   1      48.716  29.345  26.953  1.00  0.00     0.049 A 
ATOM     55  C   UNL A   1      43.359  29.701  28.507  1.00  0.00     0.074 A 
ATOM     56  C   UNL A   1      49.487  30.486  27.119  1.00  0.00     0.029 A 
ATOM     57  N   UNL A   1      47.446  29.659  27.416  1.00  0.00    -0.354 N 
ATOM     58  N   UNL A   1      44.629  29.779  28.193  1.00  0.00    -0.248 NA
ATOM     59  C   UNL A   1      42.816  30.918  29.124  1.00  0.00     0.031 C 
ATOM     60  C   UNL A   1      48.699  31.468  27.728  1.00  0.00     0.029 A 
ATOM     61  C   UNL A   1      47.419  30.965  27.887  1.00  0.00     0.049 A 
ATOM     62  H   UNL A   1      46.676  29.045  27.411  1.00  0.00     0.167 HD
ATOM     63  C   UNL A   1      45.032  31.059  28.546  1.00  0.00     0.074 A 
ATOM     64  C   UNL A   1      43.865  31.727  29.087  1.00  0.00     0.031 C 
ATOM     65  C   UNL A   1      46.257  31.627  28.427  1.00  0.00     0.037 A 
BRANCH  52  66
ATOM     66  C   UNL A   1      50.544  27.894  26.002  1.00  0.00     0.064 A 
ATOM     67  C   UNL A   1      51.551  27.623  26.939  1.00  0.00     0.173 A 
ATOM     68  C   UNL A   1      50.898  27.905  24.644  1.00  0.00     0.173 A 
ATOM     69  F   UNL A   1      51.268  27.603  28.250  1.00  0.00    -0.203 F 
ATOM     70  C   UNL A   1      52.863  27.379  26.534  1.00  0.00     0.198 A 
ATOM     71  C   UNL A   1      52.203  27.637  24.240  1.00  0.00     0.198 A 
ATOM     72  F   UNL A   1      49.970  28.148  23.705  1.00  0.00    -0.203 F 
ATOM     73  F   UNL A   1      53.813  27.146  27.449  1.00  0.00    -0.200 F 
ATOM     74  C   UNL A   1      53.184  27.376  25.185  1.00  0.00     0.200 A 
ATOM     75  F   UNL A   1      52.509  27.614  22.936  1.00  0.00    -0.200 F 
ATOM     76  F   UNL A   1      54.441  27.120  24.795  1.00  0.00    -0.200 F 
ENDBRANCH  52  66
BRANCH  53  77
ATOM     77  C   UNL A   1      40.974  28.675  28.692  1.00  0.00     0.064 A 
ATOM     78  C   UNL A   1      40.014  29.089  27.759  1.00  0.00     0.173 A 
ATOM     79  C   UNL A   1      40.534  28.330  29.978  1.00  0.00     0.173 A 
ATOM     80  F   UNL A   1      40.392  29.445  26.522  1.00  0.00    -0.203 F 
ATOM     81  C   UNL A   1      38.667  29.160  28.102  1.00  0.00     0.198 A 
ATOM     82  C   UNL A   1      39.183  28.376  30.310  1.00  0.00     0.198 A 
ATOM     83  F   UNL A   1      41.416  27.920  30.901  1.00  0.00    -0.203 F 
ATOM     84  F   UNL A   1      37.771  29.587  27.200  1.00  0.00    -0.200 F 
ATOM     85  C   UNL A   1      38.250  28.795  29.373  1.00  0.00     0.200 A 
ATOM     86  F   UNL A   1      38.784  28.005  31.534  1.00  0.00    -0.200 F 
ATOM     87  F   UNL A   1      36.951  28.847  29.696  1.00  0.00    -0.200 F 
ENDBRANCH  53  77
BRANCH  65  88
ATOM     88  C   UNL A   1      46.397  33.059  28.861  1.00  0.00     0.064 A 
ATOM     89  C   UNL A   1      46.776  33.401  30.167  1.00  0.00     0.173 A 
ATOM     90  C   UNL A   1      46.176  34.102  27.948  1.00  0.00     0.173 A 
ATOM     91  F   UNL A   1      46.985  32.443  31.083  1.00  0.00    -0.203 F 
ATOM     92  C   UNL A   1      46.898  34.735  30.552  1.00  0.00     0.198 A 
ATOM     93  C   UNL A   1      46.331  35.433  28.327  1.00  0.00     0.198 A 
ATOM     94  F   UNL A   1      45.818  33.831  26.684  1.00  0.00    -0.203 F 
ATOM     95  F   UNL A   1      47.209  35.039  31.820  1.00  0.00    -0.200 F 
ATOM     96  C   UNL A   1      46.682  35.748  29.631  1.00  0.00     0.200 A 
ATOM     97  F   UNL A   1      46.135  36.410  27.431  1.00  0.00    -0.200 F 
ATOM     98  F   UNL A   1      46.805  37.031  30.001  1.00  0.00    -0.200 F 
ENDBRANCH  65  88
ENDBRANCH  39  40
ENDBRANCH  32  34
ENDBRANCH  31  32
ENDBRANCH  30  31
ENDBRANCH  29  30
ENDBRANCH  28  29
ENDBRANCH  27  28
ENDBRANCH   1  27
TORSDOF 20
ENDMDL
MODEL 2
REMARK VINA RESULT:     -10.6      6.758     12.149
REMARK SMILES CC(C)Cc1cc2c(cc1Cl)C=C(C(=O)OCCOCCOCCOC(=O)c1ccc(-c3c4nc(c(-c5c(F)c(F)c(F)c(F)c5F)c5ccc([nH]5)c(-c5c(F)c(F)c(F)c(F)c5F)c5nc(c(-c6c(F)c(F)c(F)c(F)c6F)c6ccc3[nH]6)C=C5)C=C4)cc1)[C@@H](C(F)(F)F)O2
REMARK SMILES IDX 20 1 19 2 18 3 17 4 16 5 14 6 15 7 13 8 5 9 6 10 10 11 7 12
REMARK SMILES IDX 9 13 11 14 8 15 96 16 12 17 91 18 4 19 2 20 1 21 3 22 92 23
REMARK SMILES IDX 93 24 94 25 95 26 21 27 22 28 23 29 24 30 25 31 26 32 27 33
REMARK SMILES IDX 28 34 29 35 90 36 30 37 89 38 31 39 32 40 33 41 83 42 34 43
REMARK SMILES IDX 88 44 82 45 84 46 35 47 87 48 81 49 80 50 36 52 68 53 48 54
REMARK SMILES IDX 67 55 49 56 52 57 66 58 85 59 50 60 51 61 65 63 86 64 53 65
REMARK SMILES IDX 37 66 38 67 46 68 39 69 40 70 44 71 47 72 41 73 42 74 45 75
REMARK SMILES IDX 43 76 69 77 70 78 78 79 71 80 72 81 76 82 79 83 73 84 74 85
REMARK SMILES IDX 77 86 75 87 54 88 55 89 63 90 56 91 57 92 61 93 64 94 58 95
REMARK SMILES IDX 59 96 62 97 60 98
REMARK H PARENT 84 51 52 62
REMARK Flexibility Score: inf
ROOT
ATOM      1  C   UNL A   1      33.756  32.582  27.843  1.00  0.00     0.188 C 
ENDROOT
BRANCH   1   2
ATOM      2  O   UNL A   1      33.549  31.215  27.555  1.00  0.00    -0.376 OA
BRANCH   2   3
ATOM      3  C   UNL A   1      34.555  30.246  27.803  1.00  0.00     0.202 C 
BRANCH   3   4
ATOM      4  C   UNL A   1      34.734  29.025  26.899  1.00  0.00     0.261 C 
BRANCH   4   5
ATOM      5  O   UNL A   1      33.504  28.430  26.472  1.00  0.00    -0.460 OA
BRANCH   5   6
ATOM      6  C   UNL A   1      33.601  27.653  25.369  1.00  0.00     0.338 C 
ATOM      7  O   UNL A   1      33.960  27.999  24.255  1.00  0.00    -0.246 OA
BRANCH   6   8
ATOM      8  C   UNL A   1      33.353  26.247  25.735  1.00  0.00     0.087 C 
ATOM      9  C   UNL A   1      33.536  21.254  25.859  1.00  0.00    -0.025 A 
ATOM     10  C   UNL A   1      32.592  22.214  26.274  1.00  0.00     0.052 A 
ATOM     11  C   UNL A   1      34.830  21.690  25.535  1.00  0.00     0.045 A 
ATOM     12  C   UNL A   1      32.885  23.574  26.221  1.00  0.00     0.128 A 
ATOM     13  C   UNL A   1      35.131  23.054  25.509  1.00  0.00     0.032 A 
ATOM     14  Cl  UNL A   1      36.094  20.599  25.093  1.00  0.00    -0.084 Cl
ATOM     15  C   UNL A   1      34.142  23.998  25.797  1.00  0.00     0.019 A 
ATOM     16  O   UNL A   1      31.873  24.421  26.568  1.00  0.00    -0.475 OA
ATOM     17  C   UNL A   1      34.384  25.408  25.566  1.00  0.00     0.027 C 
ATOM     18  C   UNL A   1      31.999  25.834  26.246  1.00  0.00     0.316 C 
BRANCH   9  19
ATOM     19  C   UNL A   1      33.069  19.826  25.671  1.00  0.00     0.040 C 
BRANCH  19  20
ATOM     20  C   UNL A   1      33.129  19.372  24.191  1.00  0.00    -0.013 C 
ATOM     21  C   UNL A   1      32.676  17.920  23.998  1.00  0.00     0.008 C 
ATOM     22  C   UNL A   1      32.277  20.294  23.319  1.00  0.00     0.008 C 
ENDBRANCH  19  20
ENDBRANCH   9  19
BRANCH  18  23
ATOM     23  C   UNL A   1      30.866  26.223  25.286  1.00  0.00     0.430 C 
ATOM     24  F   UNL A   1      30.622  27.554  25.328  1.00  0.00    -0.167 F 
ATOM     25  F   UNL A   1      31.175  25.925  24.003  1.00  0.00    -0.167 F 
ATOM     26  F   UNL A   1      29.711  25.587  25.583  1.00  0.00    -0.167 F 
ENDBRANCH  18  23
ENDBRANCH   6   8
ENDBRANCH   5   6
ENDBRANCH   4   5
ENDBRANCH   3   4
ENDBRANCH   2   3
ENDBRANCH   1   2
BRANCH   1  27
ATOM     27  C   UNL A   1      35.004  33.071  28.611  1.00  0.00     0.188 C 
BRANCH  27  28
ATOM     28  O   UNL A   1      35.029  34.344  29.220  1.00  0.00    -0.376 OA
BRANCH  28  29
ATOM     29  C   UNL A   1      34.086  35.326  28.809  1.00  0.00     0.202 C 
BRANCH  29  30
ATOM     30  C   UNL A   1      32.874  35.645  29.689  1.00  0.00     0.261 C 
BRANCH  30  31
ATOM     31  O   UNL A   1      33.226  36.227  30.953  1.00  0.00    -0.460 OA
BRANCH  31  32
ATOM     32  C   UNL A   1      32.864  35.503  32.047  1.00  0.00     0.338 C 
ATOM     33  O   UNL A   1      31.747  35.253  32.435  1.00  0.00    -0.246 OA
BRANCH  32  34
ATOM     34  C   UNL A   1      34.075  34.857  32.598  1.00  0.00     0.060 A 
ATOM     35  C   UNL A   1      34.002  33.631  33.260  1.00  0.00     0.016 A 
ATOM     36  C   UNL A   1      35.303  35.513  32.442  1.00  0.00     0.016 A 
ATOM     37  C   UNL A   1      35.174  33.044  33.744  1.00  0.00     0.010 A 
ATOM     38  C   UNL A   1      36.468  34.939  32.950  1.00  0.00     0.010 A 
ATOM     39  C   UNL A   1      36.413  33.688  33.583  1.00  0.00    -0.014 A 
BRANCH  39  40
ATOM     40  C   UNL A   1      37.673  32.979  33.907  1.00  0.00     0.031 A 
ATOM     41  C   UNL A   1      38.458  33.275  35.146  1.00  0.00     0.074 A 
ATOM     42  C   UNL A   1      38.118  32.066  33.025  1.00  0.00     0.049 A 
ATOM     43  N   UNL A   1      39.565  32.716  35.568  1.00  0.00    -0.248 NA
ATOM     44  C   UNL A   1      37.943  34.335  36.022  1.00  0.00     0.031 C 
ATOM     45  C   UNL A   1      37.442  31.714  31.776  1.00  0.00     0.029 A 
ATOM     46  N   UNL A   1      39.237  31.276  33.036  1.00  0.00    -0.354 N 
ATOM     47  C   UNL A   1      39.869  33.333  36.772  1.00  0.00     0.074 A 
ATOM     48  C   UNL A   1      38.852  34.344  36.992  1.00  0.00     0.031 C 
ATOM     49  C   UNL A   1      38.157  30.773  31.143  1.00  0.00     0.029 A 
ATOM     50  C   UNL A   1      39.348  30.472  31.931  1.00  0.00     0.049 A 
ATOM     51  H   UNL A   1      39.898  31.286  33.767  1.00  0.00     0.167 HD
ATOM     52  C   UNL A   1      40.894  33.065  37.618  1.00  0.00     0.037 A 
ATOM     53  C   UNL A   1      40.303  29.588  31.587  1.00  0.00     0.037 A 
ATOM     54  C   UNL A   1      41.917  32.075  37.377  1.00  0.00     0.049 A 
ATOM     55  C   UNL A   1      41.455  29.348  32.521  1.00  0.00     0.074 A 
ATOM     56  C   UNL A   1      42.982  31.720  38.189  1.00  0.00     0.029 A 
ATOM     57  N   UNL A   1      42.013  31.292  36.235  1.00  0.00    -0.354 N 
ATOM     58  N   UNL A   1      41.701  29.893  33.686  1.00  0.00    -0.248 NA
ATOM     59  C   UNL A   1      42.452  28.356  32.097  1.00  0.00     0.031 C 
ATOM     60  C   UNL A   1      43.750  30.762  37.518  1.00  0.00     0.029 A 
ATOM     61  C   UNL A   1      43.132  30.472  36.313  1.00  0.00     0.049 A 
ATOM     62  H   UNL A   1      41.381  31.314  35.481  1.00  0.00     0.167 HD
ATOM     63  C   UNL A   1      42.863  29.293  34.150  1.00  0.00     0.074 A 
ATOM     64  C   UNL A   1      43.265  28.332  33.143  1.00  0.00     0.031 C 
ATOM     65  C   UNL A   1      43.530  29.518  35.308  1.00  0.00     0.037 A 
BRANCH  52  66
ATOM     66  C   UNL A   1      40.969  33.846  38.899  1.00  0.00     0.064 A 
ATOM     67  C   UNL A   1      40.292  33.420  40.052  1.00  0.00     0.173 A 
ATOM     68  C   UNL A   1      41.802  34.970  39.006  1.00  0.00     0.173 A 
ATOM     69  F   UNL A   1      39.482  32.352  40.003  1.00  0.00    -0.203 F 
ATOM     70  C   UNL A   1      40.437  34.097  41.261  1.00  0.00     0.198 A 
ATOM     71  C   UNL A   1      41.964  35.630  40.222  1.00  0.00     0.198 A 
ATOM     72  F   UNL A   1      42.482  35.413  37.938  1.00  0.00    -0.203 F 
ATOM     73  F   UNL A   1      39.761  33.686  42.343  1.00  0.00    -0.200 F 
ATOM     74  C   UNL A   1      41.281  35.194  41.347  1.00  0.00     0.200 A 
ATOM     75  F   UNL A   1      42.795  36.678  40.309  1.00  0.00    -0.200 F 
ATOM     76  F   UNL A   1      41.436  35.831  42.516  1.00  0.00    -0.200 F 
ENDBRANCH  52  66
BRANCH  53  77
ATOM     77  C   UNL A   1      40.169  28.835  30.316  1.00  0.00     0.064 A 
ATOM     78  C   UNL A   1      40.718  29.333  29.127  1.00  0.00     0.173 A 
ATOM     79  C   UNL A   1      39.535  27.585  30.273  1.00  0.00     0.173 A 
ATOM     80  F   UNL A   1      41.319  30.532  29.118  1.00  0.00    -0.203 F 
ATOM     81  C   UNL A   1      40.631  28.612  27.940  1.00  0.00     0.198 A 
ATOM     82  C   UNL A   1      39.473  26.852  29.090  1.00  0.00     0.198 A 
ATOM     83  F   UNL A   1      39.002  27.064  31.388  1.00  0.00    -0.203 F 
ATOM     84  F   UNL A   1      41.138  29.123  26.810  1.00  0.00    -0.200 F 
ATOM     85  C   UNL A   1      40.017  27.368  27.924  1.00  0.00     0.200 A 
ATOM     86  F   UNL A   1      38.894  25.644  29.084  1.00  0.00    -0.200 F 
ATOM     87  F   UNL A   1      39.949  26.667  26.784  1.00  0.00    -0.200 F 
ENDBRANCH  53  77
BRANCH  65  88
ATOM     88  C   UNL A   1      44.754  28.686  35.570  1.00  0.00     0.064 A 
ATOM     89  C   UNL A   1      44.679  27.445  36.220  1.00  0.00     0.173 A 
ATOM     90  C   UNL A   1      46.016  29.124  35.139  1.00  0.00     0.173 A 
ATOM     91  F   UNL A   1      43.500  26.987  36.666  1.00  0.00    -0.203 F 
ATOM     92  C   UNL A   1      45.825  26.689  36.456  1.00  0.00     0.198 A 
ATOM     93  C   UNL A   1      47.155  28.350  35.347  1.00  0.00     0.198 A 
ATOM     94  F   UNL A   1      46.145  30.300  34.506  1.00  0.00    -0.203 F 
ATOM     95  F   UNL A   1      45.736  25.531  37.126  1.00  0.00    -0.200 F 
ATOM     96  C   UNL A   1      47.060  27.138  36.013  1.00  0.00     0.200 A 
ATOM     97  F   UNL A   1      48.345  28.781  34.907  1.00  0.00    -0.200 F 
ATOM     98  F   UNL A   1      48.161  26.407  36.237  1.00  0.00    -0.200 F 
ENDBRANCH  65  88
ENDBRANCH  39  40
ENDBRANCH  32  34
ENDBRANCH  31  32
ENDBRANCH  30  31
ENDBRANCH  29  30
ENDBRANCH  28  29
ENDBRANCH  27  28
ENDBRANCH   1  27
TORSDOF 20
ENDMDL
MODEL 3
REMARK VINA RESULT:     -10.5      4.956      8.958
REMARK SMILES CC(C)Cc1cc2c(cc1Cl)C=C(C(=O)OCCOCCOCCOC(=O)c1ccc(-c3c4nc(c(-c5c(F)c(F)c(F)c(F)c5F)c5ccc([nH]5)c(-c5c(F)c(F)c(F)c(F)c5F)c5nc(c(-c6c(F)c(F)c(F)c(F)c6F)c6ccc3[nH]6)C=C5)C=C4)cc1)[C@@H](C(F)(F)F)O2
REMARK SMILES IDX 20 1 19 2 18 3 17 4 16 5 14 6 15 7 13 8 5 9 6 10 10 11 7 12
REMARK SMILES IDX 9 13 11 14 8 15 96 16 12 17 91 18 4 19 2 20 1 21 3 22 92 23
REMARK SMILES IDX 93 24 94 25 95 26 21 27 22 28 23 29 24 30 25 31 26 32 27 33
REMARK SMILES IDX 28 34 29 35 90 36 30 37 89 38 31 39 32 40 33 41 83 42 34 43
REMARK SMILES IDX 88 44 82 45 84 46 35 47 87 48 81 49 80 50 36 52 68 53 48 54
REMARK SMILES IDX 67 55 49 56 52 57 66 58 85 59 50 60 51 61 65 63 86 64 53 65
REMARK SMILES IDX 37 66 38 67 46 68 39 69 40 70 44 71 47 72 41 73 42 74 45 75
REMARK SMILES IDX 43 76 69 77 70 78 78 79 71 80 72 81 76 82 79 83 73 84 74 85
REMARK SMILES IDX 77 86 75 87 54 88 55 89 63 90 56 91 57 92 61 93 64 94 58 95
REMARK SMILES IDX 59 96 62 97 60 98
REMARK H PARENT 84 51 52 62
REMARK Flexibility Score: inf
ROOT
ATOM      1  C   UNL A   1      38.280  22.748  26.258  1.00  0.00     0.188 C 
ENDROOT
BRANCH   1   2
ATOM      2  O   UNL A   1      37.736  23.726  25.396  1.00  0.00    -0.376 OA
BRANCH   2   3
ATOM      3  C   UNL A   1      36.688  23.414  24.491  1.00  0.00     0.202 C 
BRANCH   3   4
ATOM      4  C   UNL A   1      35.576  22.430  24.860  1.00  0.00     0.261 C 
BRANCH   4   5
ATOM      5  O   UNL A   1      34.264  22.867  24.492  1.00  0.00    -0.460 OA
BRANCH   5   6
ATOM      6  C   UNL A   1      33.646  23.647  25.409  1.00  0.00     0.338 C 
ATOM      7  O   UNL A   1      33.709  23.543  26.623  1.00  0.00    -0.246 OA
BRANCH   6   8
ATOM      8  C   UNL A   1      32.984  24.774  24.729  1.00  0.00     0.087 C 
ATOM      9  C   UNL A   1      30.635  29.101  23.867  1.00  0.00    -0.025 A 
ATOM     10  C   UNL A   1      30.758  27.891  23.157  1.00  0.00     0.052 A 
ATOM     11  C   UNL A   1      31.498  29.328  24.950  1.00  0.00     0.045 A 
ATOM     12  C   UNL A   1      31.606  26.881  23.606  1.00  0.00     0.128 A 
ATOM     13  C   UNL A   1      32.369  28.324  25.382  1.00  0.00     0.032 A 
ATOM     14  Cl  UNL A   1      31.498  30.806  25.844  1.00  0.00    -0.084 Cl
ATOM     15  C   UNL A   1      32.381  27.082  24.744  1.00  0.00     0.019 A 
ATOM     16  O   UNL A   1      31.588  25.720  22.890  1.00  0.00    -0.475 OA
ATOM     17  C   UNL A   1      33.120  25.972  25.314  1.00  0.00     0.027 C 
ATOM     18  C   UNL A   1      32.202  24.533  23.466  1.00  0.00     0.316 C 
BRANCH   9  19
ATOM     19  C   UNL A   1      29.502  30.035  23.498  1.00  0.00     0.040 C 
BRANCH  19  20
ATOM     20  C   UNL A   1      28.512  29.399  22.489  1.00  0.00    -0.013 C 
ATOM     21  C   UNL A   1      27.192  28.974  23.142  1.00  0.00     0.008 C 
ATOM     22  C   UNL A   1      28.228  30.371  21.344  1.00  0.00     0.008 C 
ENDBRANCH  19  20
ENDBRANCH   9  19
BRANCH  18  23
ATOM     23  C   UNL A   1      31.121  23.456  23.643  1.00  0.00     0.430 C 
ATOM     24  F   UNL A   1      30.719  23.370  24.933  1.00  0.00    -0.167 F 
ATOM     25  F   UNL A   1      30.018  23.732  22.909  1.00  0.00    -0.167 F 
ATOM     26  F   UNL A   1      31.561  22.234  23.270  1.00  0.00    -0.167 F 
ENDBRANCH  18  23
ENDBRANCH   6   8
ENDBRANCH   5   6
ENDBRANCH   4   5
ENDBRANCH   3   4
ENDBRANCH   2   3
ENDBRANCH   1   2
BRANCH   1  27
ATOM     27  C   UNL A   1      39.801  22.487  26.333  1.00  0.00     0.188 C 
BRANCH  27  28
ATOM     28  O   UNL A   1      40.318  21.422  27.102  1.00  0.00    -0.376 OA
BRANCH  28  29
ATOM     29  C   UNL A   1      41.600  20.898  26.782  1.00  0.00     0.202 C 
BRANCH  29  30
ATOM     30  C   UNL A   1      42.477  21.594  25.737  1.00  0.00     0.261 C 
BRANCH  30  31
ATOM     31  O   UNL A   1      43.394  22.542  26.304  1.00  0.00    -0.460 OA
BRANCH  31  32
ATOM     32  C   UNL A   1      43.362  23.785  25.750  1.00  0.00     0.338 C 
ATOM     33  O   UNL A   1      43.330  24.073  24.577  1.00  0.00    -0.246 OA
BRANCH  32  34
ATOM     34  C   UNL A   1      43.149  24.770  26.832  1.00  0.00     0.060 A 
ATOM     35  C   UNL A   1      43.617  26.079  26.718  1.00  0.00     0.016 A 
ATOM     36  C   UNL A   1      42.464  24.353  27.981  1.00  0.00     0.016 A 
ATOM     37  C   UNL A   1      43.372  26.986  27.753  1.00  0.00     0.010 A 
ATOM     38  C   UNL A   1      42.245  25.251  29.025  1.00  0.00     0.010 A 
ATOM     39  C   UNL A   1      42.678  26.580  28.906  1.00  0.00    -0.014 A 
BRANCH  39  40
ATOM     40  C   UNL A   1      42.237  27.582  29.906  1.00  0.00     0.031 A 
ATOM     41  C   UNL A   1      41.038  28.451  29.688  1.00  0.00     0.074 A 
ATOM     42  C   UNL A   1      42.976  27.715  31.022  1.00  0.00     0.049 A 
ATOM     43  N   UNL A   1      40.523  29.352  30.486  1.00  0.00    -0.248 NA
ATOM     44  C   UNL A   1      40.327  28.294  28.412  1.00  0.00     0.031 C 
ATOM     45  C   UNL A   1      44.174  26.933  31.327  1.00  0.00     0.029 A 
ATOM     46  N   UNL A   1      42.835  28.550  32.099  1.00  0.00    -0.354 N 
ATOM     47  C   UNL A   1      39.412  29.856  29.826  1.00  0.00     0.074 A 
ATOM     48  C   UNL A   1      39.353  29.189  28.539  1.00  0.00     0.031 C 
ATOM     49  C   UNL A   1      44.658  27.322  32.515  1.00  0.00     0.029 A 
ATOM     50  C   UNL A   1      43.816  28.390  33.044  1.00  0.00     0.049 A 
ATOM     51  H   UNL A   1      42.102  29.203  32.185  1.00  0.00     0.167 HD
ATOM     52  C   UNL A   1      38.519  30.776  30.267  1.00  0.00     0.037 A 
ATOM     53  C   UNL A   1      44.017  29.032  34.210  1.00  0.00     0.037 A 
ATOM     54  C   UNL A   1      38.603  31.454  31.539  1.00  0.00     0.049 A 
ATOM     55  C   UNL A   1      43.039  30.084  34.650  1.00  0.00     0.074 A 
ATOM     56  C   UNL A   1      37.731  32.387  32.078  1.00  0.00     0.029 A 
ATOM     57  N   UNL A   1      39.622  31.286  32.465  1.00  0.00    -0.354 N 
ATOM     58  N   UNL A   1      41.957  30.510  34.046  1.00  0.00    -0.248 NA
ATOM     59  C   UNL A   1      43.304  30.732  35.941  1.00  0.00     0.031 C 
ATOM     60  C   UNL A   1      38.249  32.820  33.303  1.00  0.00     0.029 A 
ATOM     61  C   UNL A   1      39.412  32.113  33.561  1.00  0.00     0.049 A 
ATOM     62  H   UNL A   1      40.383  30.670  32.361  1.00  0.00     0.167 HD
ATOM     63  C   UNL A   1      41.394  31.454  34.894  1.00  0.00     0.074 A 
ATOM     64  C   UNL A   1      42.250  31.527  36.060  1.00  0.00     0.031 C 
ATOM     65  C   UNL A   1      40.267  32.186  34.719  1.00  0.00     0.037 A 
BRANCH  52  66
ATOM     66  C   UNL A   1      37.358  31.111  29.374  1.00  0.00     0.064 A 
ATOM     67  C   UNL A   1      36.299  30.210  29.190  1.00  0.00     0.173 A 
ATOM     68  C   UNL A   1      37.252  32.378  28.780  1.00  0.00     0.173 A 
ATOM     69  F   UNL A   1      36.351  28.986  29.734  1.00  0.00    -0.203 F 
ATOM     70  C   UNL A   1      35.182  30.560  28.433  1.00  0.00     0.198 A 
ATOM     71  C   UNL A   1      36.124  32.734  28.046  1.00  0.00     0.198 A 
ATOM     72  F   UNL A   1      38.231  33.282  28.935  1.00  0.00    -0.203 F 
ATOM     73  F   UNL A   1      34.193  29.675  28.251  1.00  0.00    -0.200 F 
ATOM     74  C   UNL A   1      35.091  31.825  27.872  1.00  0.00     0.200 A 
ATOM     75  F   UNL A   1      36.028  33.963  27.520  1.00  0.00    -0.200 F 
ATOM     76  F   UNL A   1      34.007  32.168  27.163  1.00  0.00    -0.200 F 
ENDBRANCH  52  66
BRANCH  53  77
ATOM     77  C   UNL A   1      45.172  28.649  35.058  1.00  0.00     0.064 A 
ATOM     78  C   UNL A   1      46.413  29.282  34.904  1.00  0.00     0.173 A 
ATOM     79  C   UNL A   1      45.049  27.682  36.065  1.00  0.00     0.173 A 
ATOM     80  F   UNL A   1      46.582  30.201  33.942  1.00  0.00    -0.203 F 
ATOM     81  C   UNL A   1      47.490  28.956  35.724  1.00  0.00     0.198 A 
ATOM     82  C   UNL A   1      46.119  27.377  36.902  1.00  0.00     0.198 A 
ATOM     83  F   UNL A   1      43.878  27.056  36.255  1.00  0.00    -0.203 F 
ATOM     84  F   UNL A   1      48.675  29.554  35.539  1.00  0.00    -0.200 F 
ATOM     85  C   UNL A   1      47.340  28.011  36.728  1.00  0.00     0.200 A 
ATOM     86  F   UNL A   1      45.964  26.476  37.882  1.00  0.00    -0.200 F 
ATOM     87  F   UNL A   1      48.372  27.710  37.527  1.00  0.00    -0.200 F 
ENDBRANCH  53  77
BRANCH  65  88
ATOM     88  C   UNL A   1      39.871  33.115  35.832  1.00  0.00     0.064 A 
ATOM     89  C   UNL A   1      40.355  34.429  35.906  1.00  0.00     0.173 A 
ATOM     90  C   UNL A   1      38.972  32.692  36.824  1.00  0.00     0.173 A 
ATOM     91  F   UNL A   1      41.229  34.879  34.993  1.00  0.00    -0.203 F 
ATOM     92  C   UNL A   1      39.979  35.275  36.947  1.00  0.00     0.198 A 
ATOM     93  C   UNL A   1      38.572  33.551  37.844  1.00  0.00     0.198 A 
ATOM     94  F   UNL A   1      38.472  31.448  36.798  1.00  0.00    -0.203 F 
ATOM     95  F   UNL A   1      40.497  36.509  37.027  1.00  0.00    -0.200 F 
ATOM     96  C   UNL A   1      39.083  34.838  37.911  1.00  0.00     0.200 A 
ATOM     97  F   UNL A   1      37.696  33.130  38.767  1.00  0.00    -0.200 F 
ATOM     98  F   UNL A   1      38.718  35.655  38.909  1.00  0.00    -0.200 F 
ENDBRANCH  65  88
ENDBRANCH  39  40
ENDBRANCH  32  34
ENDBRANCH  31  32
ENDBRANCH  30  31
ENDBRANCH  29  30
ENDBRANCH  28  29
ENDBRANCH  27  28
ENDBRANCH   1  27
TORSDOF 20
ENDMDL
