MODEL 1
REMARK VINA RESULT:     -11.7      0.000      0.000
REMARK SMILES O=C(OCCOCCOCCOC(=O)[C@@H]1CN(c2ncccn2)CCN1C(=O)C1CCOCC1)c1ccc(-c2c3nc(c(-c4c(F)c(F)c(F)c(F)c4F)c4ccc([nH]4)c(-c4c(F)c(F)c(F)c(F)c4F)c4nc(c(-c5c(F)c(F)c(F)c(F)c5F)c5ccc2[nH]5)C=C4)C=C3)cc1
REMARK SMILES IDX 7 1 6 2 5 3 4 4 3 5 2 6 1 7 35 8 36 9 97 10 37 11 96 12
REMARK SMILES IDX 38 13 39 14 40 15 90 16 41 17 95 18 89 19 91 20 42 21 94 22
REMARK SMILES IDX 88 23 87 24 43 26 75 27 55 28 74 29 56 30 59 31 73 32 92 33
REMARK SMILES IDX 57 34 58 35 72 37 93 38 60 39 44 40 45 41 53 42 46 43 47 44
REMARK SMILES IDX 51 45 54 46 48 47 49 48 52 49 50 50 76 51 77 52 85 53 78 54
REMARK SMILES IDX 79 55 83 56 86 57 80 58 81 59 84 60 82 61 61 62 62 63 70 64
REMARK SMILES IDX 63 65 64 66 68 67 71 68 65 69 66 70 69 71 67 72 8 73 9 74
REMARK SMILES IDX 10 75 11 76 12 77 13 78 14 79 15 80 16 81 26 82 17 83 25 84
REMARK SMILES IDX 24 85 27 86 28 87 29 88 30 89 34 90 31 91 33 92 32 93 18 94
REMARK SMILES IDX 19 95 23 96 20 97 22 98 21 99
REMARK H PARENT 91 25 59 36
REMARK Flexibility Score: inf
ROOT
ATOM      1  C   UNL A   1      41.498  20.208  26.661  1.00  0.00     0.188 C 
ENDROOT
BRANCH   1   2
ATOM      2  O   UNL A   1      42.140  20.258  25.391  1.00  0.00    -0.376 OA
BRANCH   2   3
ATOM      3  C   UNL A   1      43.556  20.127  25.444  1.00  0.00     0.202 C 
BRANCH   3   4
ATOM      4  C   UNL A   1      44.300  21.342  24.878  1.00  0.00     0.261 C 
BRANCH   4   5
ATOM      5  O   UNL A   1      43.499  22.535  24.807  1.00  0.00    -0.460 OA
BRANCH   5   6
ATOM      6  C   UNL A   1      43.894  23.827  24.939  1.00  0.00     0.338 C 
ATOM      7  O   UNL A   1      44.883  24.192  24.303  1.00  0.00    -0.246 OA
BRANCH   6   8
ATOM      8  C   UNL A   1      43.280  24.811  25.896  1.00  0.00     0.060 A 
ATOM      9  C   UNL A   1      43.821  26.042  26.275  1.00  0.00     0.016 A 
ATOM     10  C   UNL A   1      42.040  24.459  26.457  1.00  0.00     0.016 A 
ATOM     11  C   UNL A   1      43.143  26.924  27.111  1.00  0.00     0.010 A 
ATOM     12  C   UNL A   1      41.383  25.312  27.352  1.00  0.00     0.010 A 
ATOM     13  C   UNL A   1      41.930  26.557  27.675  1.00  0.00    -0.014 A 
BRANCH  13  14
ATOM     14  C   UNL A   1      41.436  27.380  28.796  1.00  0.00     0.031 A 
ATOM     15  C   UNL A   1      42.181  27.267  30.093  1.00  0.00     0.074 A 
ATOM     16  C   UNL A   1      40.494  28.325  28.610  1.00  0.00     0.049 A 
ATOM     17  N   UNL A   1      42.032  27.947  31.197  1.00  0.00    -0.248 NA
ATOM     18  C   UNL A   1      43.296  26.300  30.128  1.00  0.00     0.031 C 
ATOM     19  C   UNL A   1      39.823  28.624  27.345  1.00  0.00     0.029 A 
ATOM     20  N   UNL A   1      39.917  29.195  29.499  1.00  0.00    -0.354 N 
ATOM     21  C   UNL A   1      43.093  27.569  32.007  1.00  0.00     0.074 A 
ATOM     22  C   UNL A   1      43.815  26.522  31.323  1.00  0.00     0.031 C 
ATOM     23  C   UNL A   1      38.852  29.532  27.561  1.00  0.00     0.029 A 
ATOM     24  C   UNL A   1      38.846  29.882  28.976  1.00  0.00     0.049 A 
ATOM     25  H   UNL A   1      40.238  29.317  30.422  1.00  0.00     0.167 HD
ATOM     26  C   UNL A   1      43.469  28.101  33.190  1.00  0.00     0.037 A 
ATOM     27  C   UNL A   1      37.941  30.655  29.605  1.00  0.00     0.037 A 
ATOM     28  C   UNL A   1      42.695  29.088  33.886  1.00  0.00     0.049 A 
ATOM     29  C   UNL A   1      38.180  30.980  31.049  1.00  0.00     0.074 A 
ATOM     30  C   UNL A   1      42.912  29.650  35.129  1.00  0.00     0.029 A 
ATOM     31  N   UNL A   1      41.522  29.641  33.389  1.00  0.00    -0.354 N 
ATOM     32  N   UNL A   1      39.162  30.594  31.828  1.00  0.00    -0.248 NA
ATOM     33  C   UNL A   1      37.217  31.883  31.687  1.00  0.00     0.031 C 
ATOM     34  C   UNL A   1      41.841  30.511  35.402  1.00  0.00     0.029 A 
ATOM     35  C   UNL A   1      40.984  30.519  34.312  1.00  0.00     0.049 A 
ATOM     36  H   UNL A   1      41.131  29.439  32.508  1.00  0.00     0.167 HD
ATOM     37  C   UNL A   1      38.978  31.262  33.028  1.00  0.00     0.074 A 
ATOM     38  C   UNL A   1      37.762  32.041  32.886  1.00  0.00     0.031 C 
ATOM     39  C   UNL A   1      39.766  31.268  34.131  1.00  0.00     0.037 A 
BRANCH  26  40
ATOM     40  C   UNL A   1      44.758  27.608  33.770  1.00  0.00     0.064 A 
ATOM     41  C   UNL A   1      44.784  26.498  34.633  1.00  0.00     0.173 A 
ATOM     42  C   UNL A   1      45.966  28.270  33.517  1.00  0.00     0.173 A 
ATOM     43  F   UNL A   1      43.649  25.849  34.931  1.00  0.00    -0.203 F 
ATOM     44  C   UNL A   1      45.968  26.087  35.239  1.00  0.00     0.198 A 
ATOM     45  C   UNL A   1      47.153  27.844  34.109  1.00  0.00     0.198 A 
ATOM     46  F   UNL A   1      45.992  29.344  32.714  1.00  0.00    -0.203 F 
ATOM     47  F   UNL A   1      45.959  25.060  36.100  1.00  0.00    -0.200 F 
ATOM     48  C   UNL A   1      47.152  26.759  34.975  1.00  0.00     0.200 A 
ATOM     49  F   UNL A   1      48.297  28.497  33.858  1.00  0.00    -0.200 F 
ATOM     50  F   UNL A   1      48.289  26.374  35.570  1.00  0.00    -0.200 F 
ENDBRANCH  26  40
BRANCH  27  51
ATOM     51  C   UNL A   1      36.716  31.136  28.914  1.00  0.00     0.064 A 
ATOM     52  C   UNL A   1      36.524  32.484  28.599  1.00  0.00     0.173 A 
ATOM     53  C   UNL A   1      35.669  30.246  28.625  1.00  0.00     0.173 A 
ATOM     54  F   UNL A   1      37.464  33.385  28.917  1.00  0.00    -0.203 F 
ATOM     55  C   UNL A   1      35.338  32.922  28.006  1.00  0.00     0.198 A 
ATOM     56  C   UNL A   1      34.499  30.677  28.005  1.00  0.00     0.198 A 
ATOM     57  F   UNL A   1      35.758  28.964  29.003  1.00  0.00    -0.203 F 
ATOM     58  F   UNL A   1      35.155  34.227  27.762  1.00  0.00    -0.200 F 
ATOM     59  C   UNL A   1      34.331  32.017  27.698  1.00  0.00     0.200 A 
ATOM     60  F   UNL A   1      33.524  29.798  27.734  1.00  0.00    -0.200 F 
ATOM     61  F   UNL A   1      33.190  32.440  27.138  1.00  0.00    -0.200 F 
ENDBRANCH  27  51
BRANCH  39  62
ATOM     62  C   UNL A   1      39.363  32.195  35.233  1.00  0.00     0.064 A 
ATOM     63  C   UNL A   1      39.754  33.539  35.247  1.00  0.00     0.173 A 
ATOM     64  C   UNL A   1      38.553  31.724  36.277  1.00  0.00     0.173 A 
ATOM     65  F   UNL A   1      40.551  34.020  34.279  1.00  0.00    -0.203 F 
ATOM     66  C   UNL A   1      39.364  34.379  36.283  1.00  0.00     0.198 A 
ATOM     67  C   UNL A   1      38.140  32.575  37.296  1.00  0.00     0.198 A 
ATOM     68  F   UNL A   1      38.157  30.442  36.302  1.00  0.00    -0.203 F 
ATOM     69  F   UNL A   1      39.787  35.650  36.307  1.00  0.00    -0.200 F 
ATOM     70  C   UNL A   1      38.552  33.899  37.302  1.00  0.00     0.200 A 
ATOM     71  F   UNL A   1      37.350  32.111  38.273  1.00  0.00    -0.200 F 
ATOM     72  F   UNL A   1      38.175  34.712  38.297  1.00  0.00    -0.200 F 
ENDBRANCH  39  62
ENDBRANCH  13  14
ENDBRANCH   6   8
ENDBRANCH   5   6
ENDBRANCH   4   5
ENDBRANCH   3   4
ENDBRANCH   2   3
ENDBRANCH   1   2
BRANCH   1  73
ATOM     73  C   UNL A   1      40.406  21.260  26.810  1.00  0.00     0.188 C 
BRANCH  73  74
ATOM     74  O   UNL A   1      39.424  21.186  25.781  1.00  0.00    -0.376 OA
BRANCH  74  75
ATOM     75  C   UNL A   1      38.518  22.285  25.750  1.00  0.00     0.202 C 
BRANCH  75  76
ATOM     76  C   UNL A   1      37.047  21.870  25.671  1.00  0.00     0.261 C 
BRANCH  76  77
ATOM     77  O   UNL A   1      36.611  21.530  24.330  1.00  0.00    -0.462 OA
BRANCH  77  78
ATOM     78  C   UNL A   1      36.003  22.508  23.606  1.00  0.00     0.330 C 
ATOM     79  O   UNL A   1      36.612  23.327  22.934  1.00  0.00    -0.250 OA
BRANCH  78  80
ATOM     80  C   UNL A   1      34.468  22.555  23.809  1.00  0.00     0.214 C 
ATOM     81  C   UNL A   1      33.909  23.718  24.678  1.00  0.00     0.157 C 
ATOM     82  N   UNL A   1      33.613  21.330  23.970  1.00  0.00    -0.325 N 
ATOM     83  N   UNL A   1      32.441  23.869  24.559  1.00  0.00    -0.336 N 
ATOM     84  C   UNL A   1      32.243  21.632  23.514  1.00  0.00     0.142 C 
ATOM     85  C   UNL A   1      31.608  22.661  24.478  1.00  0.00     0.141 C 
BRANCH  82  86
ATOM     86  C   UNL A   1      33.643  20.345  24.951  1.00  0.00     0.226 C 
ATOM     87  O   UNL A   1      33.787  20.669  26.141  1.00  0.00    -0.275 OA
BRANCH  86  88
ATOM     88  C   UNL A   1      33.504  18.850  24.702  1.00  0.00     0.083 C 
ATOM     89  C   UNL A   1      32.575  18.188  25.706  1.00  0.00     0.042 C 
ATOM     90  C   UNL A   1      34.785  18.101  24.368  1.00  0.00     0.042 C 
ATOM     91  C   UNL A   1      32.517  16.703  25.404  1.00  0.00     0.161 C 
ATOM     92  C   UNL A   1      34.756  16.596  24.622  1.00  0.00     0.161 C 
ATOM     93  O   UNL A   1      33.821  16.173  25.604  1.00  0.00    -0.381 OA
ENDBRANCH  86  88
ENDBRANCH  82  86
BRANCH  83  94
ATOM     94  C   UNL A   1      31.887  24.904  23.839  1.00  0.00     0.225 A 
ATOM     95  N   UNL A   1      32.451  25.195  22.653  1.00  0.00    -0.221 NA
ATOM     96  N   UNL A   1      30.940  25.659  24.403  1.00  0.00    -0.221 NA
ATOM     97  C   UNL A   1      31.981  26.260  21.973  1.00  0.00     0.117 A 
ATOM     98  C   UNL A   1      30.535  26.736  23.693  1.00  0.00     0.117 A 
ATOM     99  C   UNL A   1      31.000  27.078  22.450  1.00  0.00     0.040 A 
ENDBRANCH  83  94
ENDBRANCH  78  80
ENDBRANCH  77  78
ENDBRANCH  76  77
ENDBRANCH  75  76
ENDBRANCH  74  75
ENDBRANCH  73  74
ENDBRANCH   1  73
TORSDOF 20
ENDMDL
MODEL 2
REMARK VINA RESULT:     -11.6      1.322      3.672
REMARK SMILES O=C(OCCOCCOCCOC(=O)[C@@H]1CN(c2ncccn2)CCN1C(=O)C1CCOCC1)c1ccc(-c2c3nc(c(-c4c(F)c(F)c(F)c(F)c4F)c4ccc([nH]4)c(-c4c(F)c(F)c(F)c(F)c4F)c4nc(c(-c5c(F)c(F)c(F)c(F)c5F)c5ccc2[nH]5)C=C4)C=C3)cc1
REMARK SMILES IDX 7 1 6 2 5 3 4 4 3 5 2 6 1 7 35 8 36 9 97 10 37 11 96 12
REMARK SMILES IDX 38 13 39 14 40 15 90 16 41 17 95 18 89 19 91 20 42 21 94 22
REMARK SMILES IDX 88 23 87 24 43 26 75 27 55 28 74 29 56 30 59 31 73 32 92 33
REMARK SMILES IDX 57 34 58 35 72 37 93 38 60 39 44 40 45 41 53 42 46 43 47 44
REMARK SMILES IDX 51 45 54 46 48 47 49 48 52 49 50 50 76 51 77 52 85 53 78 54
REMARK SMILES IDX 79 55 83 56 86 57 80 58 81 59 84 60 82 61 61 62 62 63 70 64
REMARK SMILES IDX 63 65 64 66 68 67 71 68 65 69 66 70 69 71 67 72 8 73 9 74
REMARK SMILES IDX 10 75 11 76 12 77 13 78 14 79 15 80 16 81 26 82 17 83 25 84
REMARK SMILES IDX 24 85 27 86 28 87 29 88 30 89 34 90 31 91 33 92 32 93 18 94
REMARK SMILES IDX 19 95 23 96 20 97 22 98 21 99
REMARK H PARENT 91 25 59 36
REMARK Flexibility Score: inf
ROOT
ATOM      1  C   UNL A   1      41.974  21.332  27.006  1.00  0.00     0.188 C 
ENDROOT
BRANCH   1   2
ATOM      2  O   UNL A   1      42.405  21.267  25.650  1.00  0.00    -0.376 OA
BRANCH   2   3
ATOM      3  C   UNL A   1      43.780  20.943  25.485  1.00  0.00     0.202 C 
BRANCH   3   4
ATOM      4  C   UNL A   1      44.536  21.936  24.596  1.00  0.00     0.261 C 
BRANCH   4   5
ATOM      5  O   UNL A   1      43.917  23.232  24.512  1.00  0.00    -0.460 OA
BRANCH   5   6
ATOM      6  C   UNL A   1      44.398  24.428  24.938  1.00  0.00     0.338 C 
ATOM      7  O   UNL A   1      45.524  24.758  24.568  1.00  0.00    -0.246 OA
BRANCH   6   8
ATOM      8  C   UNL A   1      43.700  25.322  25.926  1.00  0.00     0.060 A 
ATOM      9  C   UNL A   1      44.077  26.620  26.275  1.00  0.00     0.016 A 
ATOM     10  C   UNL A   1      42.554  24.801  26.552  1.00  0.00     0.016 A 
ATOM     11  C   UNL A   1      43.325  27.404  27.145  1.00  0.00     0.010 A 
ATOM     12  C   UNL A   1      41.829  25.558  27.479  1.00  0.00     0.010 A 
ATOM     13  C   UNL A   1      42.208  26.871  27.772  1.00  0.00    -0.014 A 
BRANCH  13  14
ATOM     14  C   UNL A   1      41.660  27.625  28.916  1.00  0.00     0.031 A 
ATOM     15  C   UNL A   1      42.391  27.495  30.219  1.00  0.00     0.074 A 
ATOM     16  C   UNL A   1      40.676  28.530  28.754  1.00  0.00     0.049 A 
ATOM     17  N   UNL A   1      42.195  28.123  31.347  1.00  0.00    -0.248 NA
ATOM     18  C   UNL A   1      43.551  26.581  30.233  1.00  0.00     0.031 C 
ATOM     19  C   UNL A   1      40.008  28.847  27.491  1.00  0.00     0.029 A 
ATOM     20  N   UNL A   1      40.046  29.336  29.667  1.00  0.00    -0.354 N 
ATOM     21  C   UNL A   1      43.262  27.764  32.157  1.00  0.00     0.074 A 
ATOM     22  C   UNL A   1      44.042  26.780  31.444  1.00  0.00     0.031 C 
ATOM     23  C   UNL A   1      38.992  29.699  27.727  1.00  0.00     0.029 A 
ATOM     24  C   UNL A   1      38.950  29.992  29.154  1.00  0.00     0.049 A 
ATOM     25  H   UNL A   1      40.348  29.437  30.599  1.00  0.00     0.167 HD
ATOM     26  C   UNL A   1      43.596  28.265  33.366  1.00  0.00     0.037 A 
ATOM     27  C   UNL A   1      38.001  30.695  29.799  1.00  0.00     0.037 A 
ATOM     28  C   UNL A   1      42.766  29.186  34.089  1.00  0.00     0.049 A 
ATOM     29  C   UNL A   1      38.205  30.973  31.259  1.00  0.00     0.074 A 
ATOM     30  C   UNL A   1      42.939  29.707  35.355  1.00  0.00     0.029 A 
ATOM     31  N   UNL A   1      41.575  29.702  33.595  1.00  0.00    -0.354 N 
ATOM     32  N   UNL A   1      39.193  30.604  32.038  1.00  0.00    -0.248 NA
ATOM     33  C   UNL A   1      37.191  31.804  31.917  1.00  0.00     0.031 C 
ATOM     34  C   UNL A   1      41.824  30.505  35.646  1.00  0.00     0.029 A 
ATOM     35  C   UNL A   1      40.983  30.516  34.544  1.00  0.00     0.049 A 
ATOM     36  H   UNL A   1      41.206  29.517  32.701  1.00  0.00     0.167 HD
ATOM     37  C   UNL A   1      38.962  31.214  33.259  1.00  0.00     0.074 A 
ATOM     38  C   UNL A   1      37.711  31.939  33.129  1.00  0.00     0.031 C 
ATOM     39  C   UNL A   1      39.733  31.213  34.374  1.00  0.00     0.037 A 
BRANCH  26  40
ATOM     40  C   UNL A   1      44.900  27.811  33.947  1.00  0.00     0.064 A 
ATOM     41  C   UNL A   1      44.966  26.675  34.773  1.00  0.00     0.173 A 
ATOM     42  C   UNL A   1      46.079  28.534  33.730  1.00  0.00     0.173 A 
ATOM     43  F   UNL A   1      43.858  25.967  35.035  1.00  0.00    -0.203 F 
ATOM     44  C   UNL A   1      46.160  26.298  35.380  1.00  0.00     0.198 A 
ATOM     45  C   UNL A   1      47.278  28.142  34.323  1.00  0.00     0.198 A 
ATOM     46  F   UNL A   1      46.066  29.634  32.963  1.00  0.00    -0.203 F 
ATOM     47  F   UNL A   1      46.187  25.244  36.207  1.00  0.00    -0.200 F 
ATOM     48  C   UNL A   1      47.315  27.030  35.154  1.00  0.00     0.200 A 
ATOM     49  F   UNL A   1      48.393  28.853  34.108  1.00  0.00    -0.200 F 
ATOM     50  F   UNL A   1      48.462  26.676  35.749  1.00  0.00    -0.200 F 
ENDBRANCH  26  40
BRANCH  27  51
ATOM     51  C   UNL A   1      36.764  31.145  29.110  1.00  0.00     0.064 A 
ATOM     52  C   UNL A   1      35.740  30.256  28.769  1.00  0.00     0.173 A 
ATOM     53  C   UNL A   1      36.624  32.482  28.705  1.00  0.00     0.173 A 
ATOM     54  F   UNL A   1      35.857  28.956  29.071  1.00  0.00    -0.203 F 
ATOM     55  C   UNL A   1      34.615  30.691  28.065  1.00  0.00     0.198 A 
ATOM     56  C   UNL A   1      35.487  32.923  28.031  1.00  0.00     0.198 A 
ATOM     57  F   UNL A   1      37.622  33.351  28.911  1.00  0.00    -0.203 F 
ATOM     58  F   UNL A   1      33.672  29.810  27.704  1.00  0.00    -0.200 F 
ATOM     59  C   UNL A   1      34.483  32.026  27.708  1.00  0.00     0.200 A 
ATOM     60  F   UNL A   1      35.382  34.209  27.670  1.00  0.00    -0.200 F 
ATOM     61  F   UNL A   1      33.408  32.439  27.024  1.00  0.00    -0.200 F 
ENDBRANCH  27  51
BRANCH  39  62
ATOM     62  C   UNL A   1      39.271  32.074  35.505  1.00  0.00     0.064 A 
ATOM     63  C   UNL A   1      38.473  31.569  36.539  1.00  0.00     0.173 A 
ATOM     64  C   UNL A   1      39.657  33.423  35.556  1.00  0.00     0.173 A 
ATOM     65  F   UNL A   1      38.063  30.292  36.512  1.00  0.00    -0.203 F 
ATOM     66  C   UNL A   1      38.059  32.393  37.579  1.00  0.00     0.198 A 
ATOM     67  C   UNL A   1      39.264  34.235  36.613  1.00  0.00     0.198 A 
ATOM     68  F   UNL A   1      40.419  33.946  34.584  1.00  0.00    -0.203 F 
ATOM     69  F   UNL A   1      37.255  31.907  38.534  1.00  0.00    -0.200 F 
ATOM     70  C   UNL A   1      38.459  33.722  37.619  1.00  0.00     0.200 A 
ATOM     71  F   UNL A   1      39.658  35.514  36.654  1.00  0.00    -0.200 F 
ATOM     72  F   UNL A   1      38.060  34.511  38.625  1.00  0.00    -0.200 F 
ENDBRANCH  39  62
ENDBRANCH  13  14
ENDBRANCH   6   8
ENDBRANCH   5   6
ENDBRANCH   4   5
ENDBRANCH   3   4
ENDBRANCH   2   3
ENDBRANCH   1   2
BRANCH   1  73
ATOM     73  C   UNL A   1      40.464  21.475  27.138  1.00  0.00     0.188 C 
BRANCH  73  74
ATOM     74  O   UNL A   1      39.899  22.313  26.135  1.00  0.00    -0.376 OA
BRANCH  74  75
ATOM     75  C   UNL A   1      39.047  23.340  26.635  1.00  0.00     0.202 C 
BRANCH  75  76
ATOM     76  C   UNL A   1      37.843  23.636  25.736  1.00  0.00     0.261 C 
BRANCH  76  77
ATOM     77  O   UNL A   1      37.412  22.495  24.950  1.00  0.00    -0.462 OA
BRANCH  77  78
ATOM     78  C   UNL A   1      36.299  22.653  24.184  1.00  0.00     0.330 C 
ATOM     79  O   UNL A   1      36.280  23.299  23.147  1.00  0.00    -0.250 OA
BRANCH  78  80
ATOM     80  C   UNL A   1      35.029  22.029  24.814  1.00  0.00     0.214 C 
ATOM     81  C   UNL A   1      34.100  21.217  23.868  1.00  0.00     0.157 C 
ATOM     82  N   UNL A   1      34.217  22.702  25.886  1.00  0.00    -0.325 N 
ATOM     83  N   UNL A   1      33.100  20.406  24.600  1.00  0.00    -0.336 N 
ATOM     84  C   UNL A   1      33.525  21.674  26.686  1.00  0.00     0.142 C 
ATOM     85  C   UNL A   1      32.469  20.974  25.799  1.00  0.00     0.141 C 
BRANCH  82  86
ATOM     86  C   UNL A   1      33.526  23.908  25.855  1.00  0.00     0.226 C 
ATOM     87  O   UNL A   1      32.681  24.153  26.730  1.00  0.00    -0.275 OA
BRANCH  86  88
ATOM     88  C   UNL A   1      33.717  25.004  24.817  1.00  0.00     0.083 C 
ATOM     89  C   UNL A   1      33.614  26.393  25.426  1.00  0.00     0.042 C 
ATOM     90  C   UNL A   1      33.016  24.797  23.482  1.00  0.00     0.042 C 
ATOM     91  C   UNL A   1      33.786  27.419  24.324  1.00  0.00     0.161 C 
ATOM     92  C   UNL A   1      32.771  26.061  22.662  1.00  0.00     0.161 C 
ATOM     93  O   UNL A   1      32.702  27.262  23.418  1.00  0.00    -0.381 OA
ENDBRANCH  86  88
ENDBRANCH  82  86
BRANCH  83  94
ATOM     94  C   UNL A   1      33.232  19.040  24.708  1.00  0.00     0.225 A 
ATOM     95  N   UNL A   1      32.232  18.375  25.315  1.00  0.00    -0.221 NA
ATOM     96  N   UNL A   1      34.386  18.465  24.358  1.00  0.00    -0.221 NA
ATOM     97  C   UNL A   1      32.380  17.049  25.510  1.00  0.00     0.117 A 
ATOM     98  C   UNL A   1      34.494  17.141  24.613  1.00  0.00     0.117 A 
ATOM     99  C   UNL A   1      33.508  16.364  25.165  1.00  0.00     0.040 A 
ENDBRANCH  83  94
ENDBRANCH  78  80
ENDBRANCH  77  78
ENDBRANCH  76  77
ENDBRANCH  75  76
ENDBRANCH  74  75
ENDBRANCH  73  74
ENDBRANCH   1  73
TORSDOF 20
ENDMDL
MODEL 3
REMARK VINA RESULT:     -11.5      1.174      7.168
REMARK SMILES O=C(OCCOCCOCCOC(=O)[C@@H]1CN(c2ncccn2)CCN1C(=O)C1CCOCC1)c1ccc(-c2c3nc(c(-c4c(F)c(F)c(F)c(F)c4F)c4ccc([nH]4)c(-c4c(F)c(F)c(F)c(F)c4F)c4nc(c(-c5c(F)c(F)c(F)c(F)c5F)c5ccc2[nH]5)C=C4)C=C3)cc1
REMARK SMILES IDX 7 1 6 2 5 3 4 4 3 5 2 6 1 7 35 8 36 9 97 10 37 11 96 12
REMARK SMILES IDX 38 13 39 14 40 15 90 16 41 17 95 18 89 19 91 20 42 21 94 22
REMARK SMILES IDX 88 23 87 24 43 26 75 27 55 28 74 29 56 30 59 31 73 32 92 33
REMARK SMILES IDX 57 34 58 35 72 37 93 38 60 39 44 40 45 41 53 42 46 43 47 44
REMARK SMILES IDX 51 45 54 46 48 47 49 48 52 49 50 50 76 51 77 52 85 53 78 54
REMARK SMILES IDX 79 55 83 56 86 57 80 58 81 59 84 60 82 61 61 62 62 63 70 64
REMARK SMILES IDX 63 65 64 66 68 67 71 68 65 69 66 70 69 71 67 72 8 73 9 74
REMARK SMILES IDX 10 75 11 76 12 77 13 78 14 79 15 80 16 81 26 82 17 83 25 84
REMARK SMILES IDX 24 85 27 86 28 87 29 88 30 89 34 90 31 91 33 92 32 93 18 94
REMARK SMILES IDX 19 95 23 96 20 97 22 98 21 99
REMARK H PARENT 91 25 59 36
REMARK Flexibility Score: inf
ROOT
ATOM      1  C   UNL A   1      40.176  21.891  26.749  1.00  0.00     0.188 C 
ENDROOT
BRANCH   1   2
ATOM      2  O   UNL A   1      41.289  22.429  26.043  1.00  0.00    -0.376 OA
BRANCH   2   3
ATOM      3  C   UNL A   1      42.430  21.581  26.013  1.00  0.00     0.202 C 
BRANCH   3   4
ATOM      4  C   UNL A   1      43.651  22.228  25.349  1.00  0.00     0.261 C 
BRANCH   4   5
ATOM      5  O   UNL A   1      43.400  23.542  24.822  1.00  0.00    -0.460 OA
BRANCH   5   6
ATOM      6  C   UNL A   1      43.982  24.718  25.171  1.00  0.00     0.338 C 
ATOM      7  O   UNL A   1      45.066  24.996  24.658  1.00  0.00    -0.246 OA
BRANCH   6   8
ATOM      8  C   UNL A   1      43.455  25.648  26.229  1.00  0.00     0.060 A 
ATOM      9  C   UNL A   1      43.982  26.895  26.570  1.00  0.00     0.016 A 
ATOM     10  C   UNL A   1      42.316  25.222  26.935  1.00  0.00     0.016 A 
ATOM     11  C   UNL A   1      43.380  27.723  27.512  1.00  0.00     0.010 A 
ATOM     12  C   UNL A   1      41.743  26.020  27.932  1.00  0.00     0.010 A 
ATOM     13  C   UNL A   1      42.270  27.283  28.218  1.00  0.00    -0.014 A 
BRANCH  13  14
ATOM     14  C   UNL A   1      41.889  28.055  29.417  1.00  0.00     0.031 A 
ATOM     15  C   UNL A   1      40.723  28.987  29.273  1.00  0.00     0.074 A 
ATOM     16  C   UNL A   1      42.432  27.793  30.621  1.00  0.00     0.049 A 
ATOM     17  N   UNL A   1      40.114  29.699  30.182  1.00  0.00    -0.248 NA
ATOM     18  C   UNL A   1      40.115  29.077  27.932  1.00  0.00     0.031 C 
ATOM     19  C   UNL A   1      43.461  26.789  30.894  1.00  0.00     0.029 A 
ATOM     20  N   UNL A   1      42.209  28.372  31.844  1.00  0.00    -0.354 N 
ATOM     21  C   UNL A   1      38.998  30.226  29.549  1.00  0.00     0.074 A 
ATOM     22  C   UNL A   1      39.068  29.852  28.156  1.00  0.00     0.031 C 
ATOM     23  C   UNL A   1      43.857  26.895  32.177  1.00  0.00     0.029 A 
ATOM     24  C   UNL A   1      43.099  27.966  32.812  1.00  0.00     0.049 A 
ATOM     25  H   UNL A   1      41.484  29.016  32.014  1.00  0.00     0.167 HD
ATOM     26  C   UNL A   1      37.970  30.907  30.101  1.00  0.00     0.037 A 
ATOM     27  C   UNL A   1      43.298  28.463  34.048  1.00  0.00     0.037 A 
ATOM     28  C   UNL A   1      37.959  31.333  31.471  1.00  0.00     0.049 A 
ATOM     29  C   UNL A   1      42.333  29.495  34.551  1.00  0.00     0.074 A 
ATOM     30  C   UNL A   1      37.025  32.101  32.137  1.00  0.00     0.029 A 
ATOM     31  N   UNL A   1      38.965  31.036  32.380  1.00  0.00    -0.354 N 
ATOM     32  N   UNL A   1      41.300  30.023  33.942  1.00  0.00    -0.248 NA
ATOM     33  C   UNL A   1      42.532  29.963  35.927  1.00  0.00     0.031 C 
ATOM     34  C   UNL A   1      37.493  32.306  33.442  1.00  0.00     0.029 A 
ATOM     35  C   UNL A   1      38.692  31.629  33.599  1.00  0.00     0.049 A 
ATOM     36  H   UNL A   1      39.757  30.483  32.186  1.00  0.00     0.167 HD
ATOM     37  C   UNL A   1      40.680  30.832  34.880  1.00  0.00     0.074 A 
ATOM     38  C   UNL A   1      41.484  30.760  36.085  1.00  0.00     0.031 C 
ATOM     39  C   UNL A   1      39.526  31.536  34.771  1.00  0.00     0.037 A 
BRANCH  26  40
ATOM     40  C   UNL A   1      36.809  31.215  29.206  1.00  0.00     0.064 A 
ATOM     41  C   UNL A   1      36.580  32.524  28.746  1.00  0.00     0.173 A 
ATOM     42  C   UNL A   1      35.889  30.223  28.847  1.00  0.00     0.173 A 
ATOM     43  F   UNL A   1      37.416  33.515  29.087  1.00  0.00    -0.203 F 
ATOM     44  C   UNL A   1      35.457  32.829  27.982  1.00  0.00     0.198 A 
ATOM     45  C   UNL A   1      34.776  30.528  28.066  1.00  0.00     0.198 A 
ATOM     46  F   UNL A   1      36.055  28.962  29.275  1.00  0.00    -0.203 F 
ATOM     47  F   UNL A   1      35.230  34.094  27.601  1.00  0.00    -0.200 F 
ATOM     48  C   UNL A   1      34.557  31.831  27.642  1.00  0.00     0.200 A 
ATOM     49  F   UNL A   1      33.904  29.564  27.741  1.00  0.00    -0.200 F 
ATOM     50  F   UNL A   1      33.468  32.128  26.919  1.00  0.00    -0.200 F 
ENDBRANCH  26  40
BRANCH  27  51
ATOM     51  C   UNL A   1      44.460  28.046  34.875  1.00  0.00     0.064 A 
ATOM     52  C   UNL A   1      45.714  28.650  34.751  1.00  0.00     0.173 A 
ATOM     53  C   UNL A   1      44.346  26.963  35.762  1.00  0.00     0.173 A 
ATOM     54  F   UNL A   1      45.892  29.642  33.867  1.00  0.00    -0.203 F 
ATOM     55  C   UNL A   1      46.806  28.199  35.494  1.00  0.00     0.198 A 
ATOM     56  C   UNL A   1      45.427  26.533  36.527  1.00  0.00     0.198 A 
ATOM     57  F   UNL A   1      43.196  26.280  35.840  1.00  0.00    -0.203 F 
ATOM     58  F   UNL A   1      48.011  28.760  35.319  1.00  0.00    -0.200 F 
ATOM     59  C   UNL A   1      46.660  27.150  36.391  1.00  0.00     0.200 A 
ATOM     60  F   UNL A   1      45.280  25.503  37.372  1.00  0.00    -0.200 F 
ATOM     61  F   UNL A   1      47.711  26.712  37.096  1.00  0.00    -0.200 F 
ENDBRANCH  27  51
BRANCH  39  62
ATOM     62  C   UNL A   1      39.044  32.222  36.009  1.00  0.00     0.064 A 
ATOM     63  C   UNL A   1      39.398  33.544  36.305  1.00  0.00     0.173 A 
ATOM     64  C   UNL A   1      38.198  31.542  36.897  1.00  0.00     0.173 A 
ATOM     65  F   UNL A   1      40.227  34.219  35.493  1.00  0.00    -0.203 F 
ATOM     66  C   UNL A   1      38.935  34.157  37.463  1.00  0.00     0.198 A 
ATOM     67  C   UNL A   1      37.714  32.169  38.039  1.00  0.00     0.198 A 
ATOM     68  F   UNL A   1      37.836  30.273  36.651  1.00  0.00    -0.203 F 
ATOM     69  F   UNL A   1      39.322  35.406  37.757  1.00  0.00    -0.200 F 
ATOM     70  C   UNL A   1      38.089  33.473  38.325  1.00  0.00     0.200 A 
ATOM     71  F   UNL A   1      36.890  31.509  38.865  1.00  0.00    -0.200 F 
ATOM     72  F   UNL A   1      37.642  34.068  39.438  1.00  0.00    -0.200 F 
ENDBRANCH  39  62
ENDBRANCH  13  14
ENDBRANCH   6   8
ENDBRANCH   5   6
ENDBRANCH   4   5
ENDBRANCH   3   4
ENDBRANCH   2   3
ENDBRANCH   1   2
BRANCH   1  73
ATOM     73  C   UNL A   1      39.519  20.729  26.015  1.00  0.00     0.188 C 
BRANCH  73  74
ATOM     74  O   UNL A   1      38.322  21.106  25.343  1.00  0.00    -0.376 OA
BRANCH  74  75
ATOM     75  C   UNL A   1      37.797  22.371  25.738  1.00  0.00     0.202 C 
BRANCH  75  76
ATOM     76  C   UNL A   1      36.279  22.488  25.575  1.00  0.00     0.261 C 
BRANCH  76  77
ATOM     77  O   UNL A   1      35.557  21.306  26.008  1.00  0.00    -0.462 OA
BRANCH  77  78
ATOM     78  C   UNL A   1      34.289  21.486  26.467  1.00  0.00     0.330 C 
ATOM     79  O   UNL A   1      33.923  21.150  27.584  1.00  0.00    -0.250 OA
BRANCH  78  80
ATOM     80  C   UNL A   1      33.325  22.052  25.396  1.00  0.00     0.214 C 
ATOM     81  C   UNL A   1      31.943  22.565  25.895  1.00  0.00     0.157 C 
ATOM     82  N   UNL A   1      33.198  21.487  24.009  1.00  0.00    -0.325 N 
ATOM     83  N   UNL A   1      31.225  23.365  24.876  1.00  0.00    -0.336 N 
ATOM     84  C   UNL A   1      32.740  22.549  23.093  1.00  0.00     0.142 C 
ATOM     85  C   UNL A   1      31.293  22.947  23.469  1.00  0.00     0.141 C 
BRANCH  82  86
ATOM     86  C   UNL A   1      32.802  20.220  23.596  1.00  0.00     0.226 C 
ATOM     87  O   UNL A   1      31.987  20.104  22.668  1.00  0.00    -0.275 OA
BRANCH  86  88
ATOM     88  C   UNL A   1      33.295  18.908  24.189  1.00  0.00     0.083 C 
ATOM     89  C   UNL A   1      33.531  17.852  23.122  1.00  0.00     0.042 C 
ATOM     90  C   UNL A   1      32.605  18.442  25.462  1.00  0.00     0.042 C 
ATOM     91  C   UNL A   1      33.991  16.575  23.798  1.00  0.00     0.161 C 
ATOM     92  C   UNL A   1      32.712  16.949  25.764  1.00  0.00     0.161 C 
ATOM     93  O   UNL A   1      32.928  16.123  24.628  1.00  0.00    -0.381 OA
ENDBRANCH  86  88
ENDBRANCH  82  86
BRANCH  83  94
ATOM     94  C   UNL A   1      31.130  24.735  24.983  1.00  0.00     0.225 A 
ATOM     95  N   UNL A   1      30.602  25.395  23.937  1.00  0.00    -0.221 NA
ATOM     96  N   UNL A   1      31.697  25.350  26.026  1.00  0.00    -0.221 NA
ATOM     97  C   UNL A   1      30.581  26.743  23.984  1.00  0.00     0.117 A 
ATOM     98  C   UNL A   1      31.682  26.701  26.000  1.00  0.00     0.117 A 
ATOM     99  C   UNL A   1      31.109  27.463  25.014  1.00  0.00     0.040 A 
ENDBRANCH  83  94
ENDBRANCH  78  80
ENDBRANCH  77  78
ENDBRANCH  76  77
ENDBRANCH  75  76
ENDBRANCH  74  75
ENDBRANCH  73  74
ENDBRANCH   1  73
TORSDOF 20
ENDMDL
