MODEL 1
REMARK VINA RESULT:     -10.8      0.000      0.000
REMARK SMILES COc1cccc(N2/C(=[NH+]/C(=O)CCC(=O)OCCOCCOCCOC(=O)c3ccc(-c4c5nc(c(-c6c(F)c(F)c(F)c(F)c6F)c6ccc([nH]6)c(-c6c(F)c(F)c(F)c(F)c6F)c6nc(c(-c7c(F)c(F)c(F)c(F)c7F)c7ccc4[nH]7)C=C6)C=C5)cc3)S[C@@H]3CS(=O)(=O)C[C@H]32)c1
REMARK SMILES IDX 21 1 20 2 19 3 18 4 17 5 15 6 16 7 14 8 13 9 11 10 8 11 9 12
REMARK SMILES IDX 99 13 10 14 92 15 93 16 98 17 94 19 95 20 12 21 96 22 97 23
REMARK SMILES IDX 7 24 3 25 4 26 100 27 5 28 6 29 2 30 1 31 22 32 23 33 24 34
REMARK SMILES IDX 25 35 26 36 27 37 28 38 29 39 30 40 91 41 31 42 90 43 32 44
REMARK SMILES IDX 33 45 34 46 84 47 35 48 89 49 83 50 85 51 36 52 88 53 82 54
REMARK SMILES IDX 81 55 37 57 69 58 49 59 68 60 50 61 53 62 67 63 86 64 51 65
REMARK SMILES IDX 52 66 66 68 87 69 54 70 38 71 39 72 47 73 40 74 41 75 45 76
REMARK SMILES IDX 48 77 42 78 43 79 46 80 44 81 70 82 71 83 79 84 72 85 73 86
REMARK SMILES IDX 77 87 80 88 74 89 75 90 78 91 76 92 55 93 56 94 64 95 57 96
REMARK SMILES IDX 58 97 62 98 65 99 59 100 60 101 63 102 61 103
REMARK H PARENT 10 18 85 56 53 67
REMARK Flexibility Score: inf
ROOT
ATOM      1  C   UNL A   1      38.419  22.106  26.066  1.00  0.00     0.188 C 
ENDROOT
BRANCH   1   2
ATOM      2  O   UNL A   1      38.332  23.513  26.229  1.00  0.00    -0.376 OA
BRANCH   2   3
ATOM      3  C   UNL A   1      37.063  24.060  25.890  1.00  0.00     0.202 C 
BRANCH   3   4
ATOM      4  C   UNL A   1      36.161  23.068  25.158  1.00  0.00     0.261 C 
BRANCH   4   5
ATOM      5  O   UNL A   1      34.874  23.024  25.783  1.00  0.00    -0.463 OA
BRANCH   5   6
ATOM      6  C   UNL A   1      34.243  21.835  25.839  1.00  0.00     0.306 C 
ATOM      7  O   UNL A   1      34.718  20.762  25.492  1.00  0.00    -0.252 OA
BRANCH   6   8
ATOM      8  C   UNL A   1      32.846  21.995  26.382  1.00  0.00     0.135 C 
BRANCH   8   9
ATOM      9  C   UNL A   1      32.579  23.285  27.152  1.00  0.00     0.139 C 
BRANCH   9  10
ATOM     10  C   UNL A   1      31.663  24.310  26.500  1.00  0.00     0.308 C 
ATOM     11  N   UNL A   1      31.918  27.744  25.174  1.00  0.00    -0.216 N 
ATOM     12  C   UNL A   1      31.678  26.375  25.414  1.00  0.00     0.319 C 
ATOM     13  C   UNL A   1      31.111  28.301  24.075  1.00  0.00     0.212 C 
ATOM     14  N   UNL A   1      32.167  25.587  26.316  1.00  0.00    -0.204 N 
ATOM     15  S   UNL A   1      30.445  25.837  24.198  1.00  0.00    -0.029 SA
ATOM     16  C   UNL A   1      29.803  27.508  24.142  1.00  0.00     0.120 C 
ATOM     17  C   UNL A   1      30.645  29.741  24.094  1.00  0.00     0.188 C 
ATOM     18  H   UNL A   1      32.910  25.901  26.882  1.00  0.00     0.316 HD
ATOM     19  C   UNL A   1      28.942  27.946  22.991  1.00  0.00     0.156 C 
ATOM     20  S   UNL A   1      29.281  29.707  22.920  1.00  0.00     0.155 S 
ATOM     21  O   UNL A   1      30.487  23.982  26.334  1.00  0.00    -0.247 OA
ATOM     22  O   UNL A   1      28.164  30.423  23.497  1.00  0.00    -0.229 OA
ATOM     23  O   UNL A   1      29.805  30.010  21.606  1.00  0.00    -0.229 OA
BRANCH  11  24
ATOM     24  C   UNL A   1      32.797  28.611  25.844  1.00  0.00     0.132 A 
ATOM     25  C   UNL A   1      33.271  30.711  27.010  1.00  0.00     0.123 A 
ATOM     26  C   UNL A   1      34.495  30.203  27.443  1.00  0.00     0.047 A 
ATOM     27  C   UNL A   1      32.417  29.912  26.231  1.00  0.00     0.098 A 
ATOM     28  C   UNL A   1      34.871  28.907  27.108  1.00  0.00     0.008 A 
ATOM     29  C   UNL A   1      34.027  28.123  26.317  1.00  0.00     0.052 A 
BRANCH  25  30
ATOM     30  O   UNL A   1      32.928  31.920  27.553  1.00  0.00    -0.497 OA
ATOM     31  C   UNL A   1      33.986  32.748  28.022  1.00  0.00     0.278 C 
ENDBRANCH  25  30
ENDBRANCH  11  24
ENDBRANCH   9  10
ENDBRANCH   8   9
ENDBRANCH   6   8
ENDBRANCH   5   6
ENDBRANCH   4   5
ENDBRANCH   3   4
ENDBRANCH   2   3
ENDBRANCH   1   2
BRANCH   1  32
ATOM     32  C   UNL A   1      39.845  21.599  25.914  1.00  0.00     0.188 C 
BRANCH  32  33
ATOM     33  O   UNL A   1      40.288  20.563  26.780  1.00  0.00    -0.376 OA
BRANCH  33  34
ATOM     34  C   UNL A   1      40.924  19.463  26.125  1.00  0.00     0.202 C 
BRANCH  34  35
ATOM     35  C   UNL A   1      42.465  19.369  26.033  1.00  0.00     0.261 C 
BRANCH  35  36
ATOM     36  O   UNL A   1      42.988  19.348  24.703  1.00  0.00    -0.460 OA
BRANCH  36  37
ATOM     37  C   UNL A   1      44.332  19.516  24.618  1.00  0.00     0.338 C 
ATOM     38  O   UNL A   1      45.144  18.726  24.165  1.00  0.00    -0.246 OA
BRANCH  37  39
ATOM     39  C   UNL A   1      44.636  20.941  24.906  1.00  0.00     0.060 A 
ATOM     40  C   UNL A   1      45.210  21.238  26.154  1.00  0.00     0.016 A 
ATOM     41  C   UNL A   1      44.509  21.936  23.933  1.00  0.00     0.016 A 
ATOM     42  C   UNL A   1      45.662  22.526  26.430  1.00  0.00     0.010 A 
ATOM     43  C   UNL A   1      44.911  23.240  24.229  1.00  0.00     0.010 A 
ATOM     44  C   UNL A   1      45.460  23.541  25.489  1.00  0.00    -0.014 A 
BRANCH  44  45
ATOM     45  C   UNL A   1      45.507  24.946  25.951  1.00  0.00     0.031 A 
ATOM     46  C   UNL A   1      46.842  25.632  25.877  1.00  0.00     0.074 A 
ATOM     47  C   UNL A   1      44.416  25.601  26.383  1.00  0.00     0.049 A 
ATOM     48  N   UNL A   1      47.183  26.839  26.239  1.00  0.00    -0.248 NA
ATOM     49  C   UNL A   1      47.949  24.838  25.311  1.00  0.00     0.031 C 
ATOM     50  C   UNL A   1      43.063  25.055  26.443  1.00  0.00     0.029 A 
ATOM     51  N   UNL A   1      44.289  26.881  26.860  1.00  0.00    -0.354 N 
ATOM     52  C   UNL A   1      48.536  26.946  25.947  1.00  0.00     0.074 A 
ATOM     53  C   UNL A   1      48.965  25.677  25.406  1.00  0.00     0.031 C 
ATOM     54  C   UNL A   1      42.240  25.994  26.945  1.00  0.00     0.029 A 
ATOM     55  C   UNL A   1      43.016  27.192  27.269  1.00  0.00     0.049 A 
ATOM     56  H   UNL A   1      45.039  27.517  26.904  1.00  0.00     0.167 HD
ATOM     57  C   UNL A   1      49.351  28.012  26.108  1.00  0.00     0.037 A 
ATOM     58  C   UNL A   1      42.548  28.310  27.858  1.00  0.00     0.037 A 
ATOM     59  C   UNL A   1      48.923  29.265  26.663  1.00  0.00     0.049 A 
ATOM     60  C   UNL A   1      43.499  29.456  28.115  1.00  0.00     0.074 A 
ATOM     61  C   UNL A   1      49.666  30.412  26.876  1.00  0.00     0.029 A 
ATOM     62  N   UNL A   1      47.635  29.528  27.105  1.00  0.00    -0.354 N 
ATOM     63  N   UNL A   1      44.774  29.561  27.818  1.00  0.00    -0.248 NA
ATOM     64  C   UNL A   1      42.945  30.639  28.788  1.00  0.00     0.031 C 
ATOM     65  C   UNL A   1      48.840  31.351  27.501  1.00  0.00     0.029 A 
ATOM     66  C   UNL A   1      47.567  30.812  27.616  1.00  0.00     0.049 A 
ATOM     67  H   UNL A   1      46.882  28.896  27.062  1.00  0.00     0.167 HD
ATOM     68  C   UNL A   1      45.161  30.831  28.232  1.00  0.00     0.074 A 
ATOM     69  C   UNL A   1      43.985  31.461  28.794  1.00  0.00     0.031 C 
ATOM     70  C   UNL A   1      46.378  31.424  28.155  1.00  0.00     0.037 A 
BRANCH  57  71
ATOM     71  C   UNL A   1      50.789  27.843  25.720  1.00  0.00     0.064 A 
ATOM     72  C   UNL A   1      51.217  27.966  24.389  1.00  0.00     0.173 A 
ATOM     73  C   UNL A   1      51.755  27.555  26.696  1.00  0.00     0.173 A 
ATOM     74  F   UNL A   1      50.328  28.213  23.415  1.00  0.00    -0.203 F 
ATOM     75  C   UNL A   1      52.554  27.783  24.047  1.00  0.00     0.198 A 
ATOM     76  C   UNL A   1      53.096  27.405  26.354  1.00  0.00     0.198 A 
ATOM     77  F   UNL A   1      51.398  27.419  27.982  1.00  0.00    -0.203 F 
ATOM     78  F   UNL A   1      52.930  27.850  22.762  1.00  0.00    -0.200 F 
ATOM     79  C   UNL A   1      53.492  27.511  25.030  1.00  0.00     0.200 A 
ATOM     80  F   UNL A   1      54.003  27.151  27.307  1.00  0.00    -0.200 F 
ATOM     81  F   UNL A   1      54.780  27.341  24.701  1.00  0.00    -0.200 F 
ENDBRANCH  57  71
BRANCH  58  82
ATOM     82  C   UNL A   1      41.120  28.406  28.263  1.00  0.00     0.064 A 
ATOM     83  C   UNL A   1      40.156  28.953  27.404  1.00  0.00     0.173 A 
ATOM     84  C   UNL A   1      40.696  27.992  29.535  1.00  0.00     0.173 A 
ATOM     85  F   UNL A   1      40.514  29.393  26.189  1.00  0.00    -0.203 F 
ATOM     86  C   UNL A   1      38.830  29.102  27.808  1.00  0.00     0.198 A 
ATOM     87  C   UNL A   1      39.364  28.114  29.928  1.00  0.00     0.198 A 
ATOM     88  F   UNL A   1      41.577  27.472  30.401  1.00  0.00    -0.203 F 
ATOM     89  F   UNL A   1      37.943  29.681  26.988  1.00  0.00    -0.200 F 
ATOM     90  C   UNL A   1      38.434  28.677  29.067  1.00  0.00     0.200 A 
ATOM     91  F   UNL A   1      38.984  27.696  31.143  1.00  0.00    -0.200 F 
ATOM     92  F   UNL A   1      37.160  28.825  29.457  1.00  0.00    -0.200 F 
ENDBRANCH  58  82
BRANCH  70  93
ATOM     93  C   UNL A   1      46.493  32.841  28.639  1.00  0.00     0.064 A 
ATOM     94  C   UNL A   1      46.122  33.930  27.837  1.00  0.00     0.173 A 
ATOM     95  C   UNL A   1      46.927  33.107  29.948  1.00  0.00     0.173 A 
ATOM     96  F   UNL A   1      45.709  33.731  26.576  1.00  0.00    -0.203 F 
ATOM     97  C   UNL A   1      46.208  35.234  28.318  1.00  0.00     0.198 A 
ATOM     98  C   UNL A   1      46.979  34.409  30.437  1.00  0.00     0.198 A 
ATOM     99  F   UNL A   1      47.281  32.100  30.760  1.00  0.00    -0.203 F 
ATOM    100  F   UNL A   1      45.896  36.263  27.518  1.00  0.00    -0.200 F 
ATOM    101  C   UNL A   1      46.628  35.471  29.619  1.00  0.00     0.200 A 
ATOM    102  F   UNL A   1      47.366  34.634  31.699  1.00  0.00    -0.200 F 
ATOM    103  F   UNL A   1      46.699  36.726  30.083  1.00  0.00    -0.200 F 
ENDBRANCH  70  93
ENDBRANCH  44  45
ENDBRANCH  37  39
ENDBRANCH  36  37
ENDBRANCH  35  36
ENDBRANCH  34  35
ENDBRANCH  33  34
ENDBRANCH  32  33
ENDBRANCH   1  32
TORSDOF 21
ENDMDL
MODEL 2
REMARK VINA RESULT:      -9.8      0.850      7.038
REMARK SMILES COc1cccc(N2/C(=[NH+]/C(=O)CCC(=O)OCCOCCOCCOC(=O)c3ccc(-c4c5nc(c(-c6c(F)c(F)c(F)c(F)c6F)c6ccc([nH]6)c(-c6c(F)c(F)c(F)c(F)c6F)c6nc(c(-c7c(F)c(F)c(F)c(F)c7F)c7ccc4[nH]7)C=C6)C=C5)cc3)S[C@@H]3CS(=O)(=O)C[C@H]32)c1
REMARK SMILES IDX 21 1 20 2 19 3 18 4 17 5 15 6 16 7 14 8 13 9 11 10 8 11 9 12
REMARK SMILES IDX 99 13 10 14 92 15 93 16 98 17 94 19 95 20 12 21 96 22 97 23
REMARK SMILES IDX 7 24 3 25 4 26 100 27 5 28 6 29 2 30 1 31 22 32 23 33 24 34
REMARK SMILES IDX 25 35 26 36 27 37 28 38 29 39 30 40 91 41 31 42 90 43 32 44
REMARK SMILES IDX 33 45 34 46 84 47 35 48 89 49 83 50 85 51 36 52 88 53 82 54
REMARK SMILES IDX 81 55 37 57 69 58 49 59 68 60 50 61 53 62 67 63 86 64 51 65
REMARK SMILES IDX 52 66 66 68 87 69 54 70 38 71 39 72 47 73 40 74 41 75 45 76
REMARK SMILES IDX 48 77 42 78 43 79 46 80 44 81 70 82 71 83 79 84 72 85 73 86
REMARK SMILES IDX 77 87 80 88 74 89 75 90 78 91 76 92 55 93 56 94 64 95 57 96
REMARK SMILES IDX 58 97 62 98 65 99 59 100 60 101 63 102 61 103
REMARK H PARENT 10 18 85 56 53 67
REMARK Flexibility Score: inf
ROOT
ATOM      1  C   UNL A   1      38.015  22.084  26.079  1.00  0.00     0.188 C 
ENDROOT
BRANCH   1   2
ATOM      2  O   UNL A   1      38.003  23.501  26.009  1.00  0.00    -0.376 OA
BRANCH   2   3
ATOM      3  C   UNL A   1      36.786  24.049  25.517  1.00  0.00     0.202 C 
BRANCH   3   4
ATOM      4  C   UNL A   1      35.856  22.995  24.917  1.00  0.00     0.261 C 
BRANCH   4   5
ATOM      5  O   UNL A   1      34.616  22.974  25.631  1.00  0.00    -0.463 OA
BRANCH   5   6
ATOM      6  C   UNL A   1      34.051  21.775  25.874  1.00  0.00     0.306 C 
ATOM      7  O   UNL A   1      34.567  20.689  25.650  1.00  0.00    -0.252 OA
BRANCH   6   8
ATOM      8  C   UNL A   1      32.670  21.942  26.455  1.00  0.00     0.135 C 
BRANCH   8   9
ATOM      9  C   UNL A   1      32.413  23.257  27.184  1.00  0.00     0.139 C 
BRANCH   9  10
ATOM     10  C   UNL A   1      31.499  24.266  26.503  1.00  0.00     0.308 C 
ATOM     11  N   UNL A   1      31.761  27.663  25.088  1.00  0.00    -0.216 N 
ATOM     12  C   UNL A   1      31.519  26.301  25.363  1.00  0.00     0.319 C 
ATOM     13  C   UNL A   1      30.957  28.191  23.973  1.00  0.00     0.212 C 
ATOM     14  N   UNL A   1      32.005  25.537  26.287  1.00  0.00    -0.204 N 
ATOM     15  S   UNL A   1      30.288  25.733  24.160  1.00  0.00    -0.029 SA
ATOM     16  C   UNL A   1      29.648  27.402  24.058  1.00  0.00     0.120 C 
ATOM     17  C   UNL A   1      30.493  29.632  23.952  1.00  0.00     0.188 C 
ATOM     18  H   UNL A   1      32.748  25.864  26.845  1.00  0.00     0.316 HD
ATOM     19  C   UNL A   1      28.789  27.811  22.894  1.00  0.00     0.156 C 
ATOM     20  S   UNL A   1      29.131  29.569  22.778  1.00  0.00     0.155 S 
ATOM     21  O   UNL A   1      30.323  23.934  26.344  1.00  0.00    -0.247 OA
ATOM     22  O   UNL A   1      28.014  30.302  23.333  1.00  0.00    -0.229 OA
ATOM     23  O   UNL A   1      29.657  29.837  21.456  1.00  0.00    -0.229 OA
BRANCH  11  24
ATOM     24  C   UNL A   1      32.640  28.546  25.735  1.00  0.00     0.132 A 
ATOM     25  C   UNL A   1      33.089  30.619  26.961  1.00  0.00     0.123 A 
ATOM     26  C   UNL A   1      34.364  30.158  27.288  1.00  0.00     0.047 A 
ATOM     27  C   UNL A   1      32.224  29.808  26.205  1.00  0.00     0.098 A 
ATOM     28  C   UNL A   1      34.779  28.898  26.871  1.00  0.00     0.008 A 
ATOM     29  C   UNL A   1      33.922  28.104  26.103  1.00  0.00     0.052 A 
BRANCH  25  30
ATOM     30  O   UNL A   1      32.725  31.784  27.579  1.00  0.00    -0.497 OA
ATOM     31  C   UNL A   1      31.792  32.617  26.902  1.00  0.00     0.278 C 
ENDBRANCH  25  30
ENDBRANCH  11  24
ENDBRANCH   9  10
ENDBRANCH   8   9
ENDBRANCH   6   8
ENDBRANCH   5   6
ENDBRANCH   4   5
ENDBRANCH   3   4
ENDBRANCH   2   3
ENDBRANCH   1   2
BRANCH   1  32
ATOM     32  C   UNL A   1      39.380  21.474  25.802  1.00  0.00     0.188 C 
BRANCH  32  33
ATOM     33  O   UNL A   1      39.861  20.468  26.685  1.00  0.00    -0.376 OA
BRANCH  33  34
ATOM     34  C   UNL A   1      40.905  19.651  26.152  1.00  0.00     0.202 C 
BRANCH  34  35
ATOM     35  C   UNL A   1      42.388  20.078  26.252  1.00  0.00     0.261 C 
BRANCH  35  36
ATOM     36  O   UNL A   1      43.017  20.363  25.001  1.00  0.00    -0.460 OA
BRANCH  36  37
ATOM     37  C   UNL A   1      44.372  20.282  25.014  1.00  0.00     0.338 C 
ATOM     38  O   UNL A   1      45.056  19.341  24.646  1.00  0.00    -0.246 OA
BRANCH  37  39
ATOM     39  C   UNL A   1      44.910  21.639  25.289  1.00  0.00     0.060 A 
ATOM     40  C   UNL A   1      45.304  21.922  26.608  1.00  0.00     0.016 A 
ATOM     41  C   UNL A   1      45.167  22.554  24.264  1.00  0.00     0.016 A 
ATOM     42  C   UNL A   1      45.958  23.114  26.905  1.00  0.00     0.010 A 
ATOM     43  C   UNL A   1      45.773  23.774  24.571  1.00  0.00     0.010 A 
ATOM     44  C   UNL A   1      46.141  24.067  25.896  1.00  0.00    -0.014 A 
BRANCH  44  45
ATOM     45  C   UNL A   1      46.397  25.469  26.292  1.00  0.00     0.031 A 
ATOM     46  C   UNL A   1      45.217  26.250  26.798  1.00  0.00     0.074 A 
ATOM     47  C   UNL A   1      47.621  26.021  26.243  1.00  0.00     0.049 A 
ATOM     48  N   UNL A   1      45.140  27.495  27.182  1.00  0.00    -0.248 NA
ATOM     49  C   UNL A   1      43.941  25.514  26.883  1.00  0.00     0.031 C 
ATOM     50  C   UNL A   1      48.845  25.343  25.825  1.00  0.00     0.029 A 
ATOM     51  N   UNL A   1      48.025  27.296  26.548  1.00  0.00    -0.354 N 
ATOM     52  C   UNL A   1      43.816  27.690  27.550  1.00  0.00     0.074 A 
ATOM     53  C   UNL A   1      43.114  26.449  27.318  1.00  0.00     0.031 C 
ATOM     54  C   UNL A   1      49.866  26.217  25.887  1.00  0.00     0.029 A 
ATOM     55  C   UNL A   1      49.360  27.520  26.319  1.00  0.00     0.049 A 
ATOM     56  H   UNL A   1      47.417  27.984  26.900  1.00  0.00     0.167 HD
ATOM     57  C   UNL A   1      43.234  28.805  28.045  1.00  0.00     0.037 A 
ATOM     58  C   UNL A   1      50.074  28.658  26.425  1.00  0.00     0.037 A 
ATOM     59  C   UNL A   1      43.933  30.041  28.257  1.00  0.00     0.049 A 
ATOM     60  C   UNL A   1      49.381  29.917  26.892  1.00  0.00     0.074 A 
ATOM     61  C   UNL A   1      43.442  31.235  28.751  1.00  0.00     0.029 A 
ATOM     62  N   UNL A   1      45.276  30.242  27.973  1.00  0.00    -0.354 N 
ATOM     63  N   UNL A   1      48.134  30.093  27.259  1.00  0.00    -0.248 NA
ATOM     64  C   UNL A   1      50.199  31.137  26.961  1.00  0.00     0.031 C 
ATOM     65  C   UNL A   1      44.474  32.177  28.710  1.00  0.00     0.029 A 
ATOM     66  C   UNL A   1      45.625  31.550  28.255  1.00  0.00     0.049 A 
ATOM     67  H   UNL A   1      45.889  29.556  27.621  1.00  0.00     0.167 HD
ATOM     68  C   UNL A   1      48.027  31.427  27.636  1.00  0.00     0.074 A 
ATOM     69  C   UNL A   1      49.339  32.013  27.461  1.00  0.00     0.031 C 
ATOM     70  C   UNL A   1      46.944  32.107  28.088  1.00  0.00     0.037 A 
BRANCH  57  71
ATOM     71  C   UNL A   1      41.767  28.740  28.344  1.00  0.00     0.064 A 
ATOM     72  C   UNL A   1      41.284  28.361  29.607  1.00  0.00     0.173 A 
ATOM     73  C   UNL A   1      40.829  29.064  27.353  1.00  0.00     0.173 A 
ATOM     74  F   UNL A   1      42.139  28.014  30.580  1.00  0.00    -0.203 F 
ATOM     75  C   UNL A   1      39.916  28.285  29.856  1.00  0.00     0.198 A 
ATOM     76  C   UNL A   1      39.463  29.019  27.617  1.00  0.00     0.198 A 
ATOM     77  F   UNL A   1      41.238  29.424  26.127  1.00  0.00    -0.203 F 
ATOM     78  F   UNL A   1      39.478  27.867  31.052  1.00  0.00    -0.200 F 
ATOM     79  C   UNL A   1      39.009  28.622  28.864  1.00  0.00     0.200 A 
ATOM     80  F   UNL A   1      38.587  29.353  26.659  1.00  0.00    -0.200 F 
ATOM     81  F   UNL A   1      37.692  28.555  29.108  1.00  0.00    -0.200 F 
ENDBRANCH  57  71
BRANCH  58  82
ATOM     82  C   UNL A   1      51.520  28.675  26.072  1.00  0.00     0.064 A 
ATOM     83  C   UNL A   1      51.940  28.830  24.744  1.00  0.00     0.173 A 
ATOM     84  C   UNL A   1      52.509  28.493  27.049  1.00  0.00     0.173 A 
ATOM     85  F   UNL A   1      51.034  28.976  23.766  1.00  0.00    -0.203 F 
ATOM     86  C   UNL A   1      53.292  28.783  24.404  1.00  0.00     0.198 A 
ATOM     87  C   UNL A   1      53.862  28.474  26.714  1.00  0.00     0.198 A 
ATOM     88  F   UNL A   1      52.163  28.327  28.334  1.00  0.00    -0.203 F 
ATOM     89  F   UNL A   1      53.662  28.876  23.119  1.00  0.00    -0.200 F 
ATOM     90  C   UNL A   1      54.251  28.610  25.390  1.00  0.00     0.200 A 
ATOM     91  F   UNL A   1      54.786  28.314  27.670  1.00  0.00    -0.200 F 
ATOM     92  F   UNL A   1      55.550  28.559  25.062  1.00  0.00    -0.200 F 
ENDBRANCH  58  82
BRANCH  70  93
ATOM     93  C   UNL A   1      47.139  33.544  28.475  1.00  0.00     0.064 A 
ATOM     94  C   UNL A   1      47.530  33.917  29.770  1.00  0.00     0.173 A 
ATOM     95  C   UNL A   1      46.986  34.561  27.518  1.00  0.00     0.173 A 
ATOM     96  F   UNL A   1      47.681  32.986  30.724  1.00  0.00    -0.203 F 
ATOM     97  C   UNL A   1      47.733  35.255  30.098  1.00  0.00     0.198 A 
ATOM     98  C   UNL A   1      47.224  35.893  27.841  1.00  0.00     0.198 A 
ATOM     99  F   UNL A   1      46.626  34.257  26.262  1.00  0.00    -0.203 F 
ATOM    100  F   UNL A   1      48.059  35.592  31.354  1.00  0.00    -0.200 F 
ATOM    101  C   UNL A   1      47.589  36.239  29.132  1.00  0.00     0.200 A 
ATOM    102  F   UNL A   1      47.102  36.840  26.901  1.00  0.00    -0.200 F 
ATOM    103  F   UNL A   1      47.797  37.525  29.448  1.00  0.00    -0.200 F 
ENDBRANCH  70  93
ENDBRANCH  44  45
ENDBRANCH  37  39
ENDBRANCH  36  37
ENDBRANCH  35  36
ENDBRANCH  34  35
ENDBRANCH  33  34
ENDBRANCH  32  33
ENDBRANCH   1  32
TORSDOF 21
ENDMDL
MODEL 3
REMARK VINA RESULT:      -9.6      5.858      9.961
REMARK SMILES COc1cccc(N2/C(=[NH+]/C(=O)CCC(=O)OCCOCCOCCOC(=O)c3ccc(-c4c5nc(c(-c6c(F)c(F)c(F)c(F)c6F)c6ccc([nH]6)c(-c6c(F)c(F)c(F)c(F)c6F)c6nc(c(-c7c(F)c(F)c(F)c(F)c7F)c7ccc4[nH]7)C=C6)C=C5)cc3)S[C@@H]3CS(=O)(=O)C[C@H]32)c1
REMARK SMILES IDX 21 1 20 2 19 3 18 4 17 5 15 6 16 7 14 8 13 9 11 10 8 11 9 12
REMARK SMILES IDX 99 13 10 14 92 15 93 16 98 17 94 19 95 20 12 21 96 22 97 23
REMARK SMILES IDX 7 24 3 25 4 26 100 27 5 28 6 29 2 30 1 31 22 32 23 33 24 34
REMARK SMILES IDX 25 35 26 36 27 37 28 38 29 39 30 40 91 41 31 42 90 43 32 44
REMARK SMILES IDX 33 45 34 46 84 47 35 48 89 49 83 50 85 51 36 52 88 53 82 54
REMARK SMILES IDX 81 55 37 57 69 58 49 59 68 60 50 61 53 62 67 63 86 64 51 65
REMARK SMILES IDX 52 66 66 68 87 69 54 70 38 71 39 72 47 73 40 74 41 75 45 76
REMARK SMILES IDX 48 77 42 78 43 79 46 80 44 81 70 82 71 83 79 84 72 85 73 86
REMARK SMILES IDX 77 87 80 88 74 89 75 90 78 91 76 92 55 93 56 94 64 95 57 96
REMARK SMILES IDX 58 97 62 98 65 99 59 100 60 101 63 102 61 103
REMARK H PARENT 10 18 85 56 53 67
REMARK Flexibility Score: inf
ROOT
ATOM      1  C   UNL A   1      36.085  23.631  24.645  1.00  0.00     0.188 C 
ENDROOT
BRANCH   1   2
ATOM      2  O   UNL A   1      35.510  24.646  25.454  1.00  0.00    -0.376 OA
BRANCH   2   3
ATOM      3  C   UNL A   1      34.109  24.810  25.272  1.00  0.00     0.202 C 
BRANCH   3   4
ATOM      4  C   UNL A   1      33.431  23.566  24.699  1.00  0.00     0.261 C 
BRANCH   4   5
ATOM      5  O   UNL A   1      32.865  22.786  25.757  1.00  0.00    -0.463 OA
BRANCH   5   6
ATOM      6  C   UNL A   1      31.899  21.903  25.440  1.00  0.00     0.306 C 
ATOM      7  O   UNL A   1      32.042  20.920  24.726  1.00  0.00    -0.252 OA
BRANCH   6   8
ATOM      8  C   UNL A   1      30.589  22.291  26.076  1.00  0.00     0.135 C 
BRANCH   8   9
ATOM      9  C   UNL A   1      30.597  23.596  26.865  1.00  0.00     0.139 C 
BRANCH   9  10
ATOM     10  C   UNL A   1      29.828  24.772  26.280  1.00  0.00     0.308 C 
ATOM     11  N   UNL A   1      30.538  27.728  24.191  1.00  0.00    -0.216 N 
ATOM     12  C   UNL A   1      30.033  26.557  24.794  1.00  0.00     0.319 C 
ATOM     13  C   UNL A   1      29.591  28.371  23.265  1.00  0.00     0.212 C 
ATOM     14  N   UNL A   1      30.565  25.777  25.678  1.00  0.00    -0.204 N 
ATOM     15  S   UNL A   1      28.367  26.301  24.126  1.00  0.00    -0.029 SA
ATOM     16  C   UNL A   1      28.219  28.067  23.873  1.00  0.00     0.120 C 
ATOM     17  C   UNL A   1      29.565  29.874  23.085  1.00  0.00     0.188 C 
ATOM     18  H   UNL A   1      31.510  25.901  25.926  1.00  0.00     0.316 HD
ATOM     19  C   UNL A   1      27.173  28.611  22.940  1.00  0.00     0.156 C 
ATOM     20  S   UNL A   1      27.930  30.138  22.379  1.00  0.00     0.155 S 
ATOM     21  O   UNL A   1      28.622  24.828  26.529  1.00  0.00    -0.247 OA
ATOM     22  O   UNL A   1      27.309  31.249  23.066  1.00  0.00    -0.229 OA
ATOM     23  O   UNL A   1      28.043  30.079  20.938  1.00  0.00    -0.229 OA
BRANCH  11  24
ATOM     24  C   UNL A   1      31.790  28.339  24.373  1.00  0.00     0.132 A 
ATOM     25  C   UNL A   1      33.424  29.523  25.761  1.00  0.00     0.123 A 
ATOM     26  C   UNL A   1      34.414  29.291  24.807  1.00  0.00     0.047 A 
ATOM     27  C   UNL A   1      32.123  29.032  25.553  1.00  0.00     0.098 A 
ATOM     28  C   UNL A   1      34.117  28.572  23.654  1.00  0.00     0.008 A 
ATOM     29  C   UNL A   1      32.818  28.103  23.444  1.00  0.00     0.052 A 
BRANCH  25  30
ATOM     30  O   UNL A   1      33.873  30.074  26.931  1.00  0.00    -0.497 OA
ATOM     31  C   UNL A   1      35.198  29.753  27.335  1.00  0.00     0.278 C 
ENDBRANCH  25  30
ENDBRANCH  11  24
ENDBRANCH   9  10
ENDBRANCH   8   9
ENDBRANCH   6   8
ENDBRANCH   5   6
ENDBRANCH   4   5
ENDBRANCH   3   4
ENDBRANCH   2   3
ENDBRANCH   1   2
BRANCH   1  32
ATOM     32  C   UNL A   1      37.516  23.286  25.029  1.00  0.00     0.188 C 
BRANCH  32  33
ATOM     33  O   UNL A   1      37.725  22.364  26.091  1.00  0.00    -0.376 OA
BRANCH  33  34
ATOM     34  C   UNL A   1      39.026  21.773  26.126  1.00  0.00     0.202 C 
BRANCH  34  35
ATOM     35  C   UNL A   1      40.255  22.571  26.622  1.00  0.00     0.261 C 
BRANCH  35  36
ATOM     36  O   UNL A   1      39.946  23.712  27.426  1.00  0.00    -0.460 OA
BRANCH  36  37
ATOM     37  C   UNL A   1      40.328  24.901  26.896  1.00  0.00     0.338 C 
ATOM     38  O   UNL A   1      40.483  25.163  25.714  1.00  0.00    -0.246 OA
BRANCH  37  39
ATOM     39  C   UNL A   1      40.257  25.926  27.969  1.00  0.00     0.060 A 
ATOM     40  C   UNL A   1      41.114  27.034  27.860  1.00  0.00     0.016 A 
ATOM     41  C   UNL A   1      39.278  25.886  28.965  1.00  0.00     0.016 A 
ATOM     42  C   UNL A   1      40.993  28.104  28.742  1.00  0.00     0.010 A 
ATOM     43  C   UNL A   1      39.192  26.934  29.884  1.00  0.00     0.010 A 
ATOM     44  C   UNL A   1      40.070  28.029  29.791  1.00  0.00    -0.014 A 
BRANCH  44  45
ATOM     45  C   UNL A   1      40.259  28.917  30.959  1.00  0.00     0.031 A 
ATOM     46  C   UNL A   1      39.261  30.028  31.126  1.00  0.00     0.074 A 
ATOM     47  C   UNL A   1      41.245  28.733  31.853  1.00  0.00     0.049 A 
ATOM     48  N   UNL A   1      39.200  30.968  32.030  1.00  0.00    -0.248 NA
ATOM     49  C   UNL A   1      38.177  30.082  30.127  1.00  0.00     0.031 C 
ATOM     50  C   UNL A   1      42.233  27.658  31.823  1.00  0.00     0.029 A 
ATOM     51  N   UNL A   1      41.573  29.465  32.966  1.00  0.00    -0.354 N 
ATOM     52  C   UNL A   1      38.078  31.720  31.707  1.00  0.00     0.074 A 
ATOM     53  C   UNL A   1      37.503  31.152  30.512  1.00  0.00     0.031 C 
ATOM     54  C   UNL A   1      43.069  27.809  32.866  1.00  0.00     0.029 A 
ATOM     55  C   UNL A   1      42.692  29.008  33.616  1.00  0.00     0.049 A 
ATOM     56  H   UNL A   1      41.054  30.244  33.270  1.00  0.00     0.167 HD
ATOM     57  C   UNL A   1      37.567  32.790  32.357  1.00  0.00     0.037 A 
ATOM     58  C   UNL A   1      43.342  29.521  34.679  1.00  0.00     0.037 A 
ATOM     59  C   UNL A   1      38.153  33.362  33.536  1.00  0.00     0.049 A 
ATOM     60  C   UNL A   1      42.804  30.773  35.332  1.00  0.00     0.074 A 
ATOM     61  C   UNL A   1      37.721  34.448  34.274  1.00  0.00     0.029 A 
ATOM     62  N   UNL A   1      39.311  32.896  34.141  1.00  0.00    -0.354 N 
ATOM     63  N   UNL A   1      41.732  31.470  35.038  1.00  0.00    -0.248 NA
ATOM     64  C   UNL A   1      43.569  31.309  36.468  1.00  0.00     0.031 C 
ATOM     65  C   UNL A   1      38.650  34.676  35.293  1.00  0.00     0.029 A 
ATOM     66  C   UNL A   1      39.625  33.691  35.229  1.00  0.00     0.049 A 
ATOM     67  H   UNL A   1      39.833  32.117  33.840  1.00  0.00     0.167 HD
ATOM     68  C   UNL A   1      41.673  32.499  35.972  1.00  0.00     0.074 A 
ATOM     69  C   UNL A   1      42.814  32.330  36.847  1.00  0.00     0.031 C 
ATOM     70  C   UNL A   1      40.759  33.493  36.097  1.00  0.00     0.037 A 
BRANCH  57  71
ATOM     71  C   UNL A   1      36.341  33.427  31.774  1.00  0.00     0.064 A 
ATOM     72  C   UNL A   1      36.333  33.966  30.477  1.00  0.00     0.173 A 
ATOM     73  C   UNL A   1      35.157  33.497  32.522  1.00  0.00     0.173 A 
ATOM     74  F   UNL A   1      37.447  33.949  29.732  1.00  0.00    -0.203 F 
ATOM     75  C   UNL A   1      35.190  34.573  29.963  1.00  0.00     0.198 A 
ATOM     76  C   UNL A   1      34.008  34.076  31.992  1.00  0.00     0.198 A 
ATOM     77  F   UNL A   1      35.115  33.004  33.769  1.00  0.00    -0.203 F 
ATOM     78  F   UNL A   1      35.221  35.131  28.745  1.00  0.00    -0.200 F 
ATOM     79  C   UNL A   1      34.028  34.620  30.718  1.00  0.00     0.200 A 
ATOM     80  F   UNL A   1      32.883  34.113  32.720  1.00  0.00    -0.200 F 
ATOM     81  F   UNL A   1      32.927  35.200  30.219  1.00  0.00    -0.200 F 
ENDBRANCH  57  71
BRANCH  58  82
ATOM     82  C   UNL A   1      44.581  28.872  35.189  1.00  0.00     0.064 A 
ATOM     83  C   UNL A   1      45.841  29.212  34.678  1.00  0.00     0.173 A 
ATOM     84  C   UNL A   1      44.525  27.869  36.167  1.00  0.00     0.173 A 
ATOM     85  F   UNL A   1      45.947  30.144  33.719  1.00  0.00    -0.203 F 
ATOM     86  C   UNL A   1      46.995  28.559  35.110  1.00  0.00     0.198 A 
ATOM     87  C   UNL A   1      45.682  27.236  36.620  1.00  0.00     0.198 A 
ATOM     88  F   UNL A   1      43.344  27.496  36.682  1.00  0.00    -0.203 F 
ATOM     89  F   UNL A   1      48.180  28.864  34.563  1.00  0.00    -0.200 F 
ATOM     90  C   UNL A   1      46.915  27.576  36.084  1.00  0.00     0.200 A 
ATOM     91  F   UNL A   1      45.601  26.291  37.566  1.00  0.00    -0.200 F 
ATOM     92  F   UNL A   1      48.024  26.945  36.496  1.00  0.00    -0.200 F 
ENDBRANCH  58  82
BRANCH  70  93
ATOM     93  C   UNL A   1      40.920  34.444  37.247  1.00  0.00     0.064 A 
ATOM     94  C   UNL A   1      41.692  35.610  37.142  1.00  0.00     0.173 A 
ATOM     95  C   UNL A   1      40.242  34.212  38.455  1.00  0.00     0.173 A 
ATOM     96  F   UNL A   1      42.367  35.874  36.013  1.00  0.00    -0.203 F 
ATOM     97  C   UNL A   1      41.803  36.493  38.213  1.00  0.00     0.198 A 
ATOM     98  C   UNL A   1      40.327  35.115  39.511  1.00  0.00     0.198 A 
ATOM     99  F   UNL A   1      39.480  33.119  38.603  1.00  0.00    -0.203 F 
ATOM    100  F   UNL A   1      42.586  37.576  38.107  1.00  0.00    -0.200 F 
ATOM    101  C   UNL A   1      41.114  36.250  39.392  1.00  0.00     0.200 A 
ATOM    102  F   UNL A   1      39.645  34.887  40.641  1.00  0.00    -0.200 F 
ATOM    103  F   UNL A   1      41.212  37.107  40.417  1.00  0.00    -0.200 F 
ENDBRANCH  70  93
ENDBRANCH  44  45
ENDBRANCH  37  39
ENDBRANCH  36  37
ENDBRANCH  35  36
ENDBRANCH  34  35
ENDBRANCH  33  34
ENDBRANCH  32  33
ENDBRANCH   1  32
TORSDOF 21
ENDMDL
