MODEL 1
REMARK VINA RESULT:     -10.1      0.000      0.000
REMARK SMILES C[C@H](Sc1ccc(C(=O)OCCOCCOCCOC(=O)c2ccc(-c3c4nc(c(-c5c(F)c(F)c(F)c(F)c5F)c5ccc([nH]5)c(-c5c(F)c(F)c(F)c(F)c5F)c5nc(c(-c6c(F)c(F)c(F)c(F)c6F)c6ccc3[nH]6)C=C5)C=C4)cc2)cn1)[C@@H](C)O
REMARK SMILES IDX 14 1 13 2 12 3 11 4 10 5 8 6 9 7 7 8 4 9 5 10 86 11 6 12
REMARK SMILES IDX 85 13 3 14 2 15 1 16 87 17 88 18 89 19 15 21 16 22 17 23
REMARK SMILES IDX 18 24 19 25 20 26 21 27 22 28 23 29 84 30 24 31 83 32 25 33
REMARK SMILES IDX 26 34 27 35 77 36 28 37 82 38 76 39 78 40 29 41 81 42 75 43
REMARK SMILES IDX 74 44 30 46 62 47 42 48 61 49 43 50 46 51 60 52 79 53 44 54
REMARK SMILES IDX 45 55 59 57 80 58 47 59 31 60 32 61 40 62 33 63 34 64 38 65
REMARK SMILES IDX 41 66 35 67 36 68 39 69 37 70 63 71 64 72 72 73 65 74 66 75
REMARK SMILES IDX 70 76 73 77 67 78 68 79 71 80 69 81 48 82 49 83 57 84 50 85
REMARK SMILES IDX 51 86 55 87 58 88 52 89 53 90 56 91 54 92
REMARK H PARENT 89 20 78 45 46 56
REMARK Flexibility Score: inf
ROOT
ATOM      1  C   UNL A   1      33.247  28.321  26.801  1.00  0.00     0.188 C 
ENDROOT
BRANCH   1   2
ATOM      2  O   UNL A   1      33.660  27.597  25.655  1.00  0.00    -0.376 OA
BRANCH   2   3
ATOM      3  C   UNL A   1      33.837  26.191  25.707  1.00  0.00     0.202 C 
BRANCH   3   4
ATOM      4  C   UNL A   1      33.822  25.307  24.446  1.00  0.00     0.261 C 
BRANCH   4   5
ATOM      5  O   UNL A   1      32.804  25.577  23.475  1.00  0.00    -0.460 OA
BRANCH   5   6
ATOM      6  C   UNL A   1      31.550  25.190  23.828  1.00  0.00     0.339 C 
ATOM      7  O   UNL A   1      31.230  24.209  24.462  1.00  0.00    -0.246 OA
BRANCH   6   8
ATOM      8  C   UNL A   1      30.608  26.266  23.481  1.00  0.00     0.078 A 
ATOM      9  C   UNL A   1      28.966  28.325  22.656  1.00  0.00     0.096 A 
ATOM     10  C   UNL A   1      28.499  27.407  23.592  1.00  0.00     0.036 A 
ATOM     11  N   UNL A   1      30.222  28.239  22.152  1.00  0.00    -0.249 NA
ATOM     12  C   UNL A   1      29.318  26.343  23.987  1.00  0.00     0.020 A 
ATOM     13  C   UNL A   1      31.023  27.239  22.590  1.00  0.00     0.128 A 
BRANCH   9  14
ATOM     14  S   UNL A   1      28.053  29.700  21.998  1.00  0.00    -0.101 SA
BRANCH  14  15
ATOM     15  C   UNL A   1      28.176  31.051  23.240  1.00  0.00     0.078 C 
ATOM     16  C   UNL A   1      29.549  30.869  23.916  1.00  0.00     0.022 C 
BRANCH  15  17
ATOM     17  C   UNL A   1      28.071  32.485  22.661  1.00  0.00     0.124 C 
ATOM     18  C   UNL A   1      29.124  33.482  23.129  1.00  0.00     0.039 C 
BRANCH  17  19
ATOM     19  O   UNL A   1      28.174  32.419  21.230  1.00  0.00    -0.392 OA
ATOM     20  H   UNL A   1      27.778  33.214  20.840  1.00  0.00     0.210 HD
ENDBRANCH  17  19
ENDBRANCH  15  17
ENDBRANCH  14  15
ENDBRANCH   9  14
ENDBRANCH   6   8
ENDBRANCH   5   6
ENDBRANCH   4   5
ENDBRANCH   3   4
ENDBRANCH   2   3
ENDBRANCH   1   2
BRANCH   1  21
ATOM     21  C   UNL A   1      32.028  29.264  26.740  1.00  0.00     0.188 C 
BRANCH  21  22
ATOM     22  O   UNL A   1      32.288  30.545  26.222  1.00  0.00    -0.376 OA
BRANCH  22  23
ATOM     23  C   UNL A   1      31.573  31.670  26.704  1.00  0.00     0.202 C 
BRANCH  23  24
ATOM     24  C   UNL A   1      32.131  33.100  26.876  1.00  0.00     0.261 C 
BRANCH  24  25
ATOM     25  O   UNL A   1      32.796  33.440  28.094  1.00  0.00    -0.460 OA
BRANCH  25  26
ATOM     26  C   UNL A   1      33.945  34.147  27.974  1.00  0.00     0.338 C 
ATOM     27  O   UNL A   1      34.064  35.321  27.674  1.00  0.00    -0.246 OA
BRANCH  26  28
ATOM     28  C   UNL A   1      35.061  33.300  28.435  1.00  0.00     0.060 A 
ATOM     29  C   UNL A   1      34.782  32.006  28.894  1.00  0.00     0.016 A 
ATOM     30  C   UNL A   1      36.369  33.787  28.434  1.00  0.00     0.016 A 
ATOM     31  C   UNL A   1      35.815  31.198  29.371  1.00  0.00     0.010 A 
ATOM     32  C   UNL A   1      37.399  32.982  28.931  1.00  0.00     0.010 A 
ATOM     33  C   UNL A   1      37.124  31.693  29.426  1.00  0.00    -0.014 A 
BRANCH  33  34
ATOM     34  C   UNL A   1      38.176  30.933  30.145  1.00  0.00     0.031 A 
ATOM     35  C   UNL A   1      38.412  31.228  31.600  1.00  0.00     0.074 A 
ATOM     36  C   UNL A   1      38.907  29.991  29.522  1.00  0.00     0.049 A 
ATOM     37  N   UNL A   1      39.314  30.741  32.415  1.00  0.00    -0.248 NA
ATOM     38  C   UNL A   1      37.510  32.211  32.219  1.00  0.00     0.031 C 
ATOM     39  C   UNL A   1      38.747  29.584  28.129  1.00  0.00     0.029 A 
ATOM     40  N   UNL A   1      39.940  29.214  29.986  1.00  0.00    -0.354 N 
ATOM     41  C   UNL A   1      39.092  31.362  33.636  1.00  0.00     0.074 A 
ATOM     42  C   UNL A   1      37.993  32.285  33.450  1.00  0.00     0.031 C 
ATOM     43  C   UNL A   1      39.662  28.640  27.845  1.00  0.00     0.029 A 
ATOM     44  C   UNL A   1      40.492  28.404  29.025  1.00  0.00     0.049 A 
ATOM     45  H   UNL A   1      40.255  29.238  30.918  1.00  0.00     0.167 HD
ATOM     46  C   UNL A   1      39.740  31.172  34.811  1.00  0.00     0.037 A 
ATOM     47  C   UNL A   1      41.562  27.586  29.089  1.00  0.00     0.037 A 
ATOM     48  C   UNL A   1      40.835  30.256  34.994  1.00  0.00     0.049 A 
ATOM     49  C   UNL A   1      42.320  27.454  30.387  1.00  0.00     0.074 A 
ATOM     50  C   UNL A   1      41.543  29.978  36.150  1.00  0.00     0.029 A 
ATOM     51  N   UNL A   1      41.388  29.476  33.989  1.00  0.00    -0.354 N 
ATOM     52  N   UNL A   1      42.087  28.022  31.546  1.00  0.00    -0.248 NA
ATOM     53  C   UNL A   1      43.490  26.564  30.383  1.00  0.00     0.031 C 
ATOM     54  C   UNL A   1      42.565  29.079  35.831  1.00  0.00     0.029 A 
ATOM     55  C   UNL A   1      42.452  28.742  34.492  1.00  0.00     0.049 A 
ATOM     56  H   UNL A   1      41.072  29.447  33.057  1.00  0.00     0.167 HD
ATOM     57  C   UNL A   1      43.058  27.534  32.414  1.00  0.00     0.074 A 
ATOM     58  C   UNL A   1      43.874  26.615  31.651  1.00  0.00     0.031 C 
ATOM     59  C   UNL A   1      43.254  27.823  33.724  1.00  0.00     0.037 A 
BRANCH  46  60
ATOM     60  C   UNL A   1      39.300  32.000  35.986  1.00  0.00     0.064 A 
ATOM     61  C   UNL A   1      38.355  31.530  36.910  1.00  0.00     0.173 A 
ATOM     62  C   UNL A   1      39.856  33.270  36.205  1.00  0.00     0.173 A 
ATOM     63  F   UNL A   1      37.781  30.329  36.741  1.00  0.00    -0.203 F 
ATOM     64  C   UNL A   1      37.960  32.314  37.992  1.00  0.00     0.198 A 
ATOM     65  C   UNL A   1      39.485  34.035  37.306  1.00  0.00     0.198 A 
ATOM     66  F   UNL A   1      40.768  33.765  35.354  1.00  0.00    -0.203 F 
ATOM     67  F   UNL A   1      37.017  31.868  38.833  1.00  0.00    -0.200 F 
ATOM     68  C   UNL A   1      38.531  33.562  38.193  1.00  0.00     0.200 A 
ATOM     69  F   UNL A   1      40.049  35.235  37.506  1.00  0.00    -0.200 F 
ATOM     70  F   UNL A   1      38.157  34.311  39.239  1.00  0.00    -0.200 F 
ENDBRANCH  46  60
BRANCH  47  71
ATOM     71  C   UNL A   1      41.996  26.834  27.881  1.00  0.00     0.064 A 
ATOM     72  C   UNL A   1      41.524  25.539  27.624  1.00  0.00     0.173 A 
ATOM     73  C   UNL A   1      42.917  27.382  26.975  1.00  0.00     0.173 A 
ATOM     74  F   UNL A   1      40.667  24.957  28.475  1.00  0.00    -0.203 F 
ATOM     75  C   UNL A   1      41.971  24.815  26.520  1.00  0.00     0.198 A 
ATOM     76  C   UNL A   1      43.339  26.669  25.855  1.00  0.00     0.198 A 
ATOM     77  F   UNL A   1      43.407  28.614  27.178  1.00  0.00    -0.203 F 
ATOM     78  F   UNL A   1      41.547  23.558  26.330  1.00  0.00    -0.200 F 
ATOM     79  C   UNL A   1      42.873  25.383  25.632  1.00  0.00     0.200 A 
ATOM     80  F   UNL A   1      44.205  27.226  24.996  1.00  0.00    -0.200 F 
ATOM     81  F   UNL A   1      43.303  24.686  24.573  1.00  0.00    -0.200 F 
ENDBRANCH  47  71
BRANCH  59  82
ATOM     82  C   UNL A   1      44.369  27.107  34.435  1.00  0.00     0.064 A 
ATOM     83  C   UNL A   1      45.652  27.663  34.551  1.00  0.00     0.173 A 
ATOM     84  C   UNL A   1      44.138  25.864  35.046  1.00  0.00     0.173 A 
ATOM     85  F   UNL A   1      45.931  28.843  33.976  1.00  0.00    -0.203 F 
ATOM     86  C   UNL A   1      46.667  26.989  35.226  1.00  0.00     0.198 A 
ATOM     87  C   UNL A   1      45.145  25.210  35.751  1.00  0.00     0.198 A 
ATOM     88  F   UNL A   1      42.928  25.290  34.975  1.00  0.00    -0.203 F 
ATOM     89  F   UNL A   1      47.898  27.517  35.279  1.00  0.00    -0.200 F 
ATOM     90  C   UNL A   1      46.411  25.769  35.833  1.00  0.00     0.200 A 
ATOM     91  F   UNL A   1      44.890  24.039  36.351  1.00  0.00    -0.200 F 
ATOM     92  F   UNL A   1      47.387  25.127  36.490  1.00  0.00    -0.200 F 
ENDBRANCH  59  82
ENDBRANCH  33  34
ENDBRANCH  26  28
ENDBRANCH  25  26
ENDBRANCH  24  25
ENDBRANCH  23  24
ENDBRANCH  22  23
ENDBRANCH  21  22
ENDBRANCH   1  21
TORSDOF 21
ENDMDL
MODEL 2
REMARK VINA RESULT:      -9.9      5.167      8.906
REMARK SMILES C[C@H](Sc1ccc(C(=O)OCCOCCOCCOC(=O)c2ccc(-c3c4nc(c(-c5c(F)c(F)c(F)c(F)c5F)c5ccc([nH]5)c(-c5c(F)c(F)c(F)c(F)c5F)c5nc(c(-c6c(F)c(F)c(F)c(F)c6F)c6ccc3[nH]6)C=C5)C=C4)cc2)cn1)[C@@H](C)O
REMARK SMILES IDX 14 1 13 2 12 3 11 4 10 5 8 6 9 7 7 8 4 9 5 10 86 11 6 12
REMARK SMILES IDX 85 13 3 14 2 15 1 16 87 17 88 18 89 19 15 21 16 22 17 23
REMARK SMILES IDX 18 24 19 25 20 26 21 27 22 28 23 29 84 30 24 31 83 32 25 33
REMARK SMILES IDX 26 34 27 35 77 36 28 37 82 38 76 39 78 40 29 41 81 42 75 43
REMARK SMILES IDX 74 44 30 46 62 47 42 48 61 49 43 50 46 51 60 52 79 53 44 54
REMARK SMILES IDX 45 55 59 57 80 58 47 59 31 60 32 61 40 62 33 63 34 64 38 65
REMARK SMILES IDX 41 66 35 67 36 68 39 69 37 70 63 71 64 72 72 73 65 74 66 75
REMARK SMILES IDX 70 76 73 77 67 78 68 79 71 80 69 81 48 82 49 83 57 84 50 85
REMARK SMILES IDX 51 86 55 87 58 88 52 89 53 90 56 91 54 92
REMARK H PARENT 89 20 78 45 46 56
REMARK Flexibility Score: inf
ROOT
ATOM      1  C   UNL A   1      36.065  23.094  25.990  1.00  0.00     0.188 C 
ENDROOT
BRANCH   1   2
ATOM      2  O   UNL A   1      34.683  22.787  25.943  1.00  0.00    -0.376 OA
BRANCH   2   3
ATOM      3  C   UNL A   1      34.224  21.460  26.139  1.00  0.00     0.202 C 
BRANCH   3   4
ATOM      4  C   UNL A   1      33.767  20.561  24.975  1.00  0.00     0.261 C 
BRANCH   4   5
ATOM      5  O   UNL A   1      32.431  20.750  24.494  1.00  0.00    -0.460 OA
BRANCH   5   6
ATOM      6  C   UNL A   1      32.332  21.127  23.192  1.00  0.00     0.339 C 
ATOM      7  O   UNL A   1      32.153  20.415  22.228  1.00  0.00    -0.246 OA
BRANCH   6   8
ATOM      8  C   UNL A   1      32.284  22.596  23.127  1.00  0.00     0.078 A 
ATOM      9  C   UNL A   1      32.299  25.339  22.814  1.00  0.00     0.096 A 
ATOM     10  C   UNL A   1      31.431  24.757  23.734  1.00  0.00     0.036 A 
ATOM     11  N   UNL A   1      33.153  24.584  22.079  1.00  0.00    -0.249 NA
ATOM     12  C   UNL A   1      31.398  23.365  23.871  1.00  0.00     0.020 A 
ATOM     13  C   UNL A   1      33.151  23.244  22.266  1.00  0.00     0.128 A 
BRANCH   9  14
ATOM     14  S   UNL A   1      32.439  27.075  22.466  1.00  0.00    -0.101 SA
BRANCH  14  15
ATOM     15  C   UNL A   1      30.973  27.881  23.229  1.00  0.00     0.078 C 
ATOM     16  C   UNL A   1      31.477  28.495  24.549  1.00  0.00     0.022 C 
BRANCH  15  17
ATOM     17  C   UNL A   1      30.308  28.983  22.367  1.00  0.00     0.124 C 
ATOM     18  C   UNL A   1      29.481  30.021  23.115  1.00  0.00     0.039 C 
BRANCH  17  19
ATOM     19  O   UNL A   1      31.331  29.704  21.661  1.00  0.00    -0.392 OA
ATOM     20  H   UNL A   1      31.999  29.080  21.333  1.00  0.00     0.210 HD
ENDBRANCH  17  19
ENDBRANCH  15  17
ENDBRANCH  14  15
ENDBRANCH   9  14
ENDBRANCH   6   8
ENDBRANCH   5   6
ENDBRANCH   4   5
ENDBRANCH   3   4
ENDBRANCH   2   3
ENDBRANCH   1   2
BRANCH   1  21
ATOM     21  C   UNL A   1      36.913  23.104  24.702  1.00  0.00     0.188 C 
BRANCH  21  22
ATOM     22  O   UNL A   1      37.666  21.939  24.472  1.00  0.00    -0.376 OA
BRANCH  22  23
ATOM     23  C   UNL A   1      38.409  21.349  25.525  1.00  0.00     0.202 C 
BRANCH  23  24
ATOM     24  C   UNL A   1      39.206  20.027  25.450  1.00  0.00     0.261 C 
BRANCH  24  25
ATOM     25  O   UNL A   1      40.054  19.670  26.543  1.00  0.00    -0.460 OA
BRANCH  25  26
ATOM     26  C   UNL A   1      41.364  19.489  26.253  1.00  0.00     0.338 C 
ATOM     27  O   UNL A   1      41.884  18.508  25.752  1.00  0.00    -0.246 OA
BRANCH  26  28
ATOM     28  C   UNL A   1      42.072  20.761  26.493  1.00  0.00     0.060 A 
ATOM     29  C   UNL A   1      42.264  21.188  27.812  1.00  0.00     0.016 A 
ATOM     30  C   UNL A   1      42.523  21.535  25.422  1.00  0.00     0.016 A 
ATOM     31  C   UNL A   1      42.898  22.406  28.066  1.00  0.00     0.010 A 
ATOM     32  C   UNL A   1      43.139  22.764  25.678  1.00  0.00     0.010 A 
ATOM     33  C   UNL A   1      43.307  23.217  27.000  1.00  0.00    -0.014 A 
BRANCH  33  34
ATOM     34  C   UNL A   1      43.761  24.607  27.256  1.00  0.00     0.031 A 
ATOM     35  C   UNL A   1      42.760  25.614  27.748  1.00  0.00     0.074 A 
ATOM     36  C   UNL A   1      45.042  24.969  27.064  1.00  0.00     0.049 A 
ATOM     37  N   UNL A   1      42.908  26.895  27.978  1.00  0.00    -0.248 NA
ATOM     38  C   UNL A   1      41.404  25.109  28.010  1.00  0.00     0.031 C 
ATOM     39  C   UNL A   1      46.115  24.079  26.631  1.00  0.00     0.029 A 
ATOM     40  N   UNL A   1      45.651  26.193  27.201  1.00  0.00    -0.354 N 
ATOM     41  C   UNL A   1      41.667  27.346  28.404  1.00  0.00     0.074 A 
ATOM     42  C   UNL A   1      40.767  26.213  28.370  1.00  0.00     0.031 C 
ATOM     43  C   UNL A   1      47.252  24.790  26.523  1.00  0.00     0.029 A 
ATOM     44  C   UNL A   1      46.977  26.189  26.844  1.00  0.00     0.049 A 
ATOM     45  H   UNL A   1      45.181  26.996  27.522  1.00  0.00     0.167 HD
ATOM     46  C   UNL A   1      41.310  28.593  28.798  1.00  0.00     0.037 A 
ATOM     47  C   UNL A   1      47.857  27.207  26.763  1.00  0.00     0.037 A 
ATOM     48  C   UNL A   1      42.205  29.720  28.828  1.00  0.00     0.049 A 
ATOM     49  C   UNL A   1      47.414  28.603  27.127  1.00  0.00     0.074 A 
ATOM     50  C   UNL A   1      41.944  31.018  29.231  1.00  0.00     0.029 A 
ATOM     51  N   UNL A   1      43.532  29.685  28.428  1.00  0.00    -0.354 N 
ATOM     52  N   UNL A   1      46.247  29.018  27.558  1.00  0.00    -0.248 NA
ATOM     53  C   UNL A   1      48.415  29.671  26.995  1.00  0.00     0.031 C 
ATOM     54  C   UNL A   1      43.094  31.782  29.014  1.00  0.00     0.029 A 
ATOM     55  C   UNL A   1      44.094  30.948  28.542  1.00  0.00     0.049 A 
ATOM     56  H   UNL A   1      44.007  28.883  28.110  1.00  0.00     0.167 HD
ATOM     57  C   UNL A   1      46.384  30.384  27.778  1.00  0.00     0.074 A 
ATOM     58  C   UNL A   1      47.750  30.725  27.446  1.00  0.00     0.031 C 
ATOM     59  C   UNL A   1      45.459  31.275  28.216  1.00  0.00     0.037 A 
BRANCH  46  60
ATOM     60  C   UNL A   1      39.878  28.810  29.198  1.00  0.00     0.064 A 
ATOM     61  C   UNL A   1      39.451  28.669  30.527  1.00  0.00     0.173 A 
ATOM     62  C   UNL A   1      38.926  29.194  28.241  1.00  0.00     0.173 A 
ATOM     63  F   UNL A   1      40.316  28.290  31.480  1.00  0.00    -0.203 F 
ATOM     64  C   UNL A   1      38.118  28.873  30.876  1.00  0.00     0.198 A 
ATOM     65  C   UNL A   1      37.603  29.431  28.600  1.00  0.00     0.198 A 
ATOM     66  F   UNL A   1      39.282  29.348  26.956  1.00  0.00    -0.203 F 
ATOM     67  F   UNL A   1      37.721  28.682  32.142  1.00  0.00    -0.200 F 
ATOM     68  C   UNL A   1      37.197  29.262  29.915  1.00  0.00     0.200 A 
ATOM     69  F   UNL A   1      36.718  29.820  27.671  1.00  0.00    -0.200 F 
ATOM     70  F   UNL A   1      35.917  29.467  30.254  1.00  0.00    -0.200 F 
ENDBRANCH  46  60
BRANCH  47  71
ATOM     71  C   UNL A   1      49.248  26.952  26.302  1.00  0.00     0.064 A 
ATOM     72  C   UNL A   1      49.583  27.012  24.942  1.00  0.00     0.173 A 
ATOM     73  C   UNL A   1      50.265  26.613  27.207  1.00  0.00     0.173 A 
ATOM     74  F   UNL A   1      48.641  27.301  24.031  1.00  0.00    -0.203 F 
ATOM     75  C   UNL A   1      50.875  26.722  24.504  1.00  0.00     0.198 A 
ATOM     76  C   UNL A   1      51.563  26.355  26.772  1.00  0.00     0.198 A 
ATOM     77  F   UNL A   1      49.997  26.533  28.519  1.00  0.00    -0.203 F 
ATOM     78  F   UNL A   1      51.153  26.731  23.193  1.00  0.00    -0.200 F 
ATOM     79  C   UNL A   1      51.865  26.400  25.420  1.00  0.00     0.200 A 
ATOM     80  F   UNL A   1      52.518  26.052  27.662  1.00  0.00    -0.200 F 
ATOM     81  F   UNL A   1      53.106  26.121  24.999  1.00  0.00    -0.200 F 
ENDBRANCH  47  71
BRANCH  59  82
ATOM     82  C   UNL A   1      45.902  32.700  28.405  1.00  0.00     0.064 A 
ATOM     83  C   UNL A   1      45.793  33.652  27.380  1.00  0.00     0.173 A 
ATOM     84  C   UNL A   1      46.400  33.128  29.645  1.00  0.00     0.173 A 
ATOM     85  F   UNL A   1      45.335  33.293  26.171  1.00  0.00    -0.203 F 
ATOM     86  C   UNL A   1      46.195  34.970  27.580  1.00  0.00     0.198 A 
ATOM     87  C   UNL A   1      46.767  34.456  29.853  1.00  0.00     0.198 A 
ATOM     88  F   UNL A   1      46.517  32.263  30.664  1.00  0.00    -0.203 F 
ATOM     89  F   UNL A   1      46.131  35.849  26.570  1.00  0.00    -0.200 F 
ATOM     90  C   UNL A   1      46.673  35.373  28.818  1.00  0.00     0.200 A 
ATOM     91  F   UNL A   1      47.213  34.846  31.055  1.00  0.00    -0.200 F 
ATOM     92  F   UNL A   1      47.050  36.644  29.011  1.00  0.00    -0.200 F 
ENDBRANCH  59  82
ENDBRANCH  33  34
ENDBRANCH  26  28
ENDBRANCH  25  26
ENDBRANCH  24  25
ENDBRANCH  23  24
ENDBRANCH  22  23
ENDBRANCH  21  22
ENDBRANCH   1  21
TORSDOF 21
ENDMDL
MODEL 3
REMARK VINA RESULT:      -9.8      3.121      8.904
REMARK SMILES C[C@H](Sc1ccc(C(=O)OCCOCCOCCOC(=O)c2ccc(-c3c4nc(c(-c5c(F)c(F)c(F)c(F)c5F)c5ccc([nH]5)c(-c5c(F)c(F)c(F)c(F)c5F)c5nc(c(-c6c(F)c(F)c(F)c(F)c6F)c6ccc3[nH]6)C=C5)C=C4)cc2)cn1)[C@@H](C)O
REMARK SMILES IDX 14 1 13 2 12 3 11 4 10 5 8 6 9 7 7 8 4 9 5 10 86 11 6 12
REMARK SMILES IDX 85 13 3 14 2 15 1 16 87 17 88 18 89 19 15 21 16 22 17 23
REMARK SMILES IDX 18 24 19 25 20 26 21 27 22 28 23 29 84 30 24 31 83 32 25 33
REMARK SMILES IDX 26 34 27 35 77 36 28 37 82 38 76 39 78 40 29 41 81 42 75 43
REMARK SMILES IDX 74 44 30 46 62 47 42 48 61 49 43 50 46 51 60 52 79 53 44 54
REMARK SMILES IDX 45 55 59 57 80 58 47 59 31 60 32 61 40 62 33 63 34 64 38 65
REMARK SMILES IDX 41 66 35 67 36 68 39 69 37 70 63 71 64 72 72 73 65 74 66 75
REMARK SMILES IDX 70 76 73 77 67 78 68 79 71 80 69 81 48 82 49 83 57 84 50 85
REMARK SMILES IDX 51 86 55 87 58 88 52 89 53 90 56 91 54 92
REMARK H PARENT 89 20 78 45 46 56
REMARK Flexibility Score: inf
ROOT
ATOM      1  C   UNL A   1      32.764  27.040  22.263  1.00  0.00     0.188 C 
ENDROOT
BRANCH   1   2
ATOM      2  O   UNL A   1      32.956  25.914  23.102  1.00  0.00    -0.376 OA
BRANCH   2   3
ATOM      3  C   UNL A   1      33.523  26.057  24.395  1.00  0.00     0.202 C 
BRANCH   3   4
ATOM      4  C   UNL A   1      32.705  25.859  25.684  1.00  0.00     0.261 C 
BRANCH   4   5
ATOM      5  O   UNL A   1      32.709  24.548  26.260  1.00  0.00    -0.460 OA
BRANCH   5   6
ATOM      6  C   UNL A   1      32.046  23.599  25.547  1.00  0.00     0.339 C 
ATOM      7  O   UNL A   1      30.975  23.707  24.991  1.00  0.00    -0.246 OA
BRANCH   6   8
ATOM      8  C   UNL A   1      32.927  22.434  25.377  1.00  0.00     0.078 A 
ATOM      9  C   UNL A   1      34.414  20.145  24.957  1.00  0.00     0.096 A 
ATOM     10  C   UNL A   1      35.060  21.334  25.286  1.00  0.00     0.036 A 
ATOM     11  N   UNL A   1      33.063  20.084  24.857  1.00  0.00    -0.249 NA
ATOM     12  C   UNL A   1      34.311  22.502  25.467  1.00  0.00     0.020 A 
ATOM     13  C   UNL A   1      32.349  21.210  25.093  1.00  0.00     0.128 A 
BRANCH   9  14
ATOM     14  S   UNL A   1      35.200  18.585  24.638  1.00  0.00    -0.101 SA
BRANCH  14  15
ATOM     15  C   UNL A   1      33.850  17.358  24.405  1.00  0.00     0.078 C 
ATOM     16  C   UNL A   1      34.038  16.799  22.982  1.00  0.00     0.022 C 
BRANCH  15  17
ATOM     17  C   UNL A   1      33.844  16.189  25.423  1.00  0.00     0.124 C 
ATOM     18  C   UNL A   1      32.512  15.478  25.629  1.00  0.00     0.039 C 
BRANCH  17  19
ATOM     19  O   UNL A   1      34.782  15.190  24.992  1.00  0.00    -0.392 OA
ATOM     20  H   UNL A   1      34.339  14.567  24.394  1.00  0.00     0.210 HD
ENDBRANCH  17  19
ENDBRANCH  15  17
ENDBRANCH  14  15
ENDBRANCH   9  14
ENDBRANCH   6   8
ENDBRANCH   5   6
ENDBRANCH   4   5
ENDBRANCH   3   4
ENDBRANCH   2   3
ENDBRANCH   1   2
BRANCH   1  21
ATOM     21  C   UNL A   1      32.400  28.414  22.861  1.00  0.00     0.188 C 
BRANCH  21  22
ATOM     22  O   UNL A   1      31.367  28.397  23.815  1.00  0.00    -0.376 OA
BRANCH  22  23
ATOM     23  C   UNL A   1      31.146  29.520  24.650  1.00  0.00     0.202 C 
BRANCH  23  24
ATOM     24  C   UNL A   1      31.783  29.767  26.036  1.00  0.00     0.261 C 
BRANCH  24  25
ATOM     25  O   UNL A   1      33.145  30.192  26.103  1.00  0.00    -0.460 OA
BRANCH  25  26
ATOM     26  C   UNL A   1      33.418  31.202  26.961  1.00  0.00     0.338 C 
ATOM     27  O   UNL A   1      32.687  32.124  27.278  1.00  0.00    -0.246 OA
BRANCH  26  28
ATOM     28  C   UNL A   1      34.718  30.927  27.604  1.00  0.00     0.060 A 
ATOM     29  C   UNL A   1      35.075  29.598  27.860  1.00  0.00     0.016 A 
ATOM     30  C   UNL A   1      35.565  31.975  27.968  1.00  0.00     0.016 A 
ATOM     31  C   UNL A   1      36.282  29.312  28.501  1.00  0.00     0.010 A 
ATOM     32  C   UNL A   1      36.764  31.687  28.629  1.00  0.00     0.010 A 
ATOM     33  C   UNL A   1      37.117  30.356  28.921  1.00  0.00    -0.014 A 
BRANCH  33  34
ATOM     34  C   UNL A   1      38.274  30.071  29.805  1.00  0.00     0.031 A 
ATOM     35  C   UNL A   1      39.355  29.154  29.306  1.00  0.00     0.074 A 
ATOM     36  C   UNL A   1      38.371  30.622  31.028  1.00  0.00     0.049 A 
ATOM     37  N   UNL A   1      40.423  28.709  29.920  1.00  0.00    -0.248 NA
ATOM     38  C   UNL A   1      39.208  28.666  27.926  1.00  0.00     0.031 C 
ATOM     39  C   UNL A   1      37.413  31.558  31.610  1.00  0.00     0.029 A 
ATOM     40  N   UNL A   1      39.324  30.461  32.004  1.00  0.00    -0.354 N 
ATOM     41  C   UNL A   1      41.068  27.888  29.006  1.00  0.00     0.074 A 
ATOM     42  C   UNL A   1      40.257  27.867  27.807  1.00  0.00     0.031 C 
ATOM     43  C   UNL A   1      37.819  31.879  32.851  1.00  0.00     0.029 A 
ATOM     44  C   UNL A   1      39.044  31.143  33.162  1.00  0.00     0.049 A 
ATOM     45  H   UNL A   1      40.129  29.907  31.885  1.00  0.00     0.167 HD
ATOM     46  C   UNL A   1      42.237  27.218  29.150  1.00  0.00     0.037 A 
ATOM     47  C   UNL A   1      39.691  31.150  34.345  1.00  0.00     0.037 A 
ATOM     48  C   UNL A   1      43.040  27.237  30.344  1.00  0.00     0.049 A 
ATOM     49  C   UNL A   1      40.947  30.329  34.508  1.00  0.00     0.074 A 
ATOM     50  C   UNL A   1      44.250  26.608  30.580  1.00  0.00     0.029 A 
ATOM     51  N   UNL A   1      42.708  27.913  31.508  1.00  0.00    -0.354 N 
ATOM     52  N   UNL A   1      41.568  29.577  33.631  1.00  0.00    -0.248 NA
ATOM     53  C   UNL A   1      41.592  30.360  35.829  1.00  0.00     0.031 C 
ATOM     54  C   UNL A   1      44.617  26.850  31.907  1.00  0.00     0.029 A 
ATOM     55  C   UNL A   1      43.673  27.688  32.478  1.00  0.00     0.049 A 
ATOM     56  H   UNL A   1      41.905  28.471  31.629  1.00  0.00     0.167 HD
ATOM     57  C   UNL A   1      42.689  29.075  34.281  1.00  0.00     0.074 A 
ATOM     58  C   UNL A   1      42.671  29.618  35.623  1.00  0.00     0.031 C 
ATOM     59  C   UNL A   1      43.648  28.240  33.809  1.00  0.00     0.037 A 
BRANCH  46  60
ATOM     60  C   UNL A   1      42.701  26.379  27.993  1.00  0.00     0.064 A 
ATOM     61  C   UNL A   1      43.596  26.871  27.032  1.00  0.00     0.173 A 
ATOM     62  C   UNL A   1      42.265  25.050  27.863  1.00  0.00     0.173 A 
ATOM     63  F   UNL A   1      44.033  28.138  27.101  1.00  0.00    -0.203 F 
ATOM     64  C   UNL A   1      44.012  26.076  25.967  1.00  0.00     0.198 A 
ATOM     65  C   UNL A   1      42.711  24.249  26.816  1.00  0.00     0.198 A 
ATOM     66  F   UNL A   1      41.412  24.527  28.757  1.00  0.00    -0.203 F 
ATOM     67  F   UNL A   1      44.826  26.584  25.031  1.00  0.00    -0.200 F 
ATOM     68  C   UNL A   1      43.576  24.764  25.864  1.00  0.00     0.200 A 
ATOM     69  F   UNL A   1      42.298  22.976  26.728  1.00  0.00    -0.200 F 
ATOM     70  F   UNL A   1      43.985  23.998  24.844  1.00  0.00    -0.200 F 
ENDBRANCH  46  60
BRANCH  47  71
ATOM     71  C   UNL A   1      39.158  31.949  35.481  1.00  0.00     0.064 A 
ATOM     72  C   UNL A   1      39.449  33.314  35.607  1.00  0.00     0.173 A 
ATOM     73  C   UNL A   1      38.372  31.356  36.481  1.00  0.00     0.173 A 
ATOM     74  F   UNL A   1      40.222  33.921  34.693  1.00  0.00    -0.203 F 
ATOM     75  C   UNL A   1      38.993  34.051  36.698  1.00  0.00     0.198 A 
ATOM     76  C   UNL A   1      37.891  32.101  37.556  1.00  0.00     0.198 A 
ATOM     77  F   UNL A   1      38.071  30.051  36.415  1.00  0.00    -0.203 F 
ATOM     78  F   UNL A   1      39.334  35.341  36.822  1.00  0.00    -0.200 F 
ATOM     79  C   UNL A   1      38.209  33.446  37.669  1.00  0.00     0.200 A 
ATOM     80  F   UNL A   1      37.126  31.513  38.487  1.00  0.00    -0.200 F 
ATOM     81  F   UNL A   1      37.772  34.154  38.718  1.00  0.00    -0.200 F 
ENDBRANCH  47  71
BRANCH  59  82
ATOM     82  C   UNL A   1      44.784  27.892  34.732  1.00  0.00     0.064 A 
ATOM     83  C   UNL A   1      45.932  28.691  34.828  1.00  0.00     0.173 A 
ATOM     84  C   UNL A   1      44.700  26.766  35.565  1.00  0.00     0.173 A 
ATOM     85  F   UNL A   1      46.069  29.774  34.046  1.00  0.00    -0.203 F 
ATOM     86  C   UNL A   1      46.967  28.360  35.700  1.00  0.00     0.198 A 
ATOM     87  C   UNL A   1      45.720  26.456  36.462  1.00  0.00     0.198 A 
ATOM     88  F   UNL A   1      43.621  25.970  35.523  1.00  0.00    -0.203 F 
ATOM     89  F   UNL A   1      48.077  29.110  35.735  1.00  0.00    -0.200 F 
ATOM     90  C   UNL A   1      46.856  27.249  36.522  1.00  0.00     0.200 A 
ATOM     91  F   UNL A   1      45.603  25.392  37.268  1.00  0.00    -0.200 F 
ATOM     92  F   UNL A   1      47.848  26.936  37.367  1.00  0.00    -0.200 F 
ENDBRANCH  59  82
ENDBRANCH  33  34
ENDBRANCH  26  28
ENDBRANCH  25  26
ENDBRANCH  24  25
ENDBRANCH  23  24
ENDBRANCH  22  23
ENDBRANCH  21  22
ENDBRANCH   1  21
TORSDOF 21
ENDMDL
