MODEL 1
REMARK VINA RESULT:      -8.3      0.000      0.000
REMARK SMILES O=C(OCCOCCOCCOC(=O)c1ccc(S(=O)(=O)Nc2ccccc2I)cc1)c1ccc(-c2c3nc(c(-c4c(F)c(F)c(F)c(F)c4F)c4ccc([nH]4)c(-c4c(F)c(F)c(F)c(F)c4F)c4nc(c(-c5c(F)c(F)c(F)c(F)c5F)c5ccc2[nH]5)C=C4)C=C3)cc1
REMARK SMILES IDX 8 1 7 2 6 3 5 4 4 5 3 6 2 7 1 8 32 9 33 10 94 11 34 12 93 13
REMARK SMILES IDX 35 14 36 15 37 16 87 17 38 18 92 19 86 20 88 21 39 22 91 23
REMARK SMILES IDX 85 24 84 25 40 27 72 28 52 29 71 30 53 31 56 32 70 33 89 34
REMARK SMILES IDX 54 35 55 36 69 38 90 39 57 40 41 41 42 42 50 43 43 44 44 45
REMARK SMILES IDX 48 46 51 47 45 48 46 49 49 50 47 51 73 52 74 53 82 54 75 55
REMARK SMILES IDX 76 56 80 57 83 58 77 59 78 60 81 61 79 62 58 63 59 64 67 65
REMARK SMILES IDX 60 66 61 67 65 68 68 69 62 70 63 71 66 72 64 73 9 74 10 75
REMARK SMILES IDX 11 76 12 77 13 78 14 79 15 80 16 81 31 82 17 83 30 84 18 85
REMARK SMILES IDX 19 86 20 87 21 88 22 89 23 91 24 92 28 93 25 94 27 95 29 96
REMARK SMILES IDX 26 97
REMARK H PARENT 88 26 56 37 22 90
REMARK Flexibility Score: inf
ROOT
ATOM      1  C   UNL A   1      34.989  33.118  28.472  1.00  0.00     0.188 C 
ENDROOT
BRANCH   1   2
ATOM      2  C   UNL A   1      34.742  32.805  29.947  1.00  0.00     0.188 C 
BRANCH   2   3
ATOM      3  O   UNL A   1      33.989  33.831  30.606  1.00  0.00    -0.376 OA
BRANCH   3   4
ATOM      4  C   UNL A   1      34.494  34.150  31.908  1.00  0.00     0.202 C 
BRANCH   4   5
ATOM      5  C   UNL A   1      35.877  33.556  32.214  1.00  0.00     0.261 C 
BRANCH   5   6
ATOM      6  O   UNL A   1      35.855  32.668  33.344  1.00  0.00    -0.460 OA
BRANCH   6   7
ATOM      7  C   UNL A   1      36.824  32.443  34.268  1.00  0.00     0.338 C 
ATOM      8  O   UNL A   1      36.674  32.921  35.392  1.00  0.00    -0.246 OA
BRANCH   7   9
ATOM      9  C   UNL A   1      38.054  31.618  34.025  1.00  0.00     0.060 A 
ATOM     10  C   UNL A   1      39.307  31.836  34.597  1.00  0.00     0.016 A 
ATOM     11  C   UNL A   1      37.923  30.521  33.151  1.00  0.00     0.016 A 
ATOM     12  C   UNL A   1      40.423  31.108  34.198  1.00  0.00     0.010 A 
ATOM     13  C   UNL A   1      39.029  29.742  32.788  1.00  0.00     0.010 A 
ATOM     14  C   UNL A   1      40.299  30.084  33.261  1.00  0.00    -0.014 A 
BRANCH  14  15
ATOM     15  C   UNL A   1      41.542  29.551  32.663  1.00  0.00     0.031 A 
ATOM     16  C   UNL A   1      42.213  30.358  31.590  1.00  0.00     0.074 A 
ATOM     17  C   UNL A   1      42.150  28.479  33.199  1.00  0.00     0.049 A 
ATOM     18  N   UNL A   1      43.352  30.146  30.982  1.00  0.00    -0.248 NA
ATOM     19  C   UNL A   1      41.522  31.585  31.160  1.00  0.00     0.031 C 
ATOM     20  C   UNL A   1      41.632  27.693  34.318  1.00  0.00     0.029 A 
ATOM     21  N   UNL A   1      43.351  27.890  32.910  1.00  0.00    -0.354 N 
ATOM     22  C   UNL A   1      43.501  31.200  30.092  1.00  0.00     0.074 A 
ATOM     23  C   UNL A   1      42.336  32.046  30.225  1.00  0.00     0.031 C 
ATOM     24  C   UNL A   1      42.521  26.737  34.637  1.00  0.00     0.029 A 
ATOM     25  C   UNL A   1      43.649  26.824  33.721  1.00  0.00     0.049 A 
ATOM     26  H   UNL A   1      43.945  28.202  32.189  1.00  0.00     0.167 HD
ATOM     27  C   UNL A   1      44.523  31.440  29.239  1.00  0.00     0.037 A 
ATOM     28  C   UNL A   1      44.715  26.006  33.711  1.00  0.00     0.037 A 
ATOM     29  C   UNL A   1      45.677  30.593  29.118  1.00  0.00     0.049 A 
ATOM     30  C   UNL A   1      45.794  26.249  32.697  1.00  0.00     0.074 A 
ATOM     31  C   UNL A   1      46.752  30.707  28.256  1.00  0.00     0.029 A 
ATOM     32  N   UNL A   1      45.900  29.463  29.893  1.00  0.00    -0.354 N 
ATOM     33  N   UNL A   1      45.901  27.214  31.819  1.00  0.00    -0.248 NA
ATOM     34  C   UNL A   1      46.899  25.283  32.676  1.00  0.00     0.031 C 
ATOM     35  C   UNL A   1      47.606  29.621  28.483  1.00  0.00     0.029 A 
ATOM     36  C   UNL A   1      47.089  28.861  29.518  1.00  0.00     0.049 A 
ATOM     37  H   UNL A   1      45.302  29.139  30.605  1.00  0.00     0.167 HD
ATOM     38  C   UNL A   1      47.086  26.979  31.143  1.00  0.00     0.074 A 
ATOM     39  C   UNL A   1      47.676  25.794  31.732  1.00  0.00     0.031 C 
ATOM     40  C   UNL A   1      47.640  27.677  30.122  1.00  0.00     0.037 A 
BRANCH  27  41
ATOM     41  C   UNL A   1      44.390  32.628  28.335  1.00  0.00     0.064 A 
ATOM     42  C   UNL A   1      44.625  33.937  28.785  1.00  0.00     0.173 A 
ATOM     43  C   UNL A   1      43.984  32.454  27.004  1.00  0.00     0.173 A 
ATOM     44  F   UNL A   1      44.986  34.158  30.059  1.00  0.00    -0.203 F 
ATOM     45  C   UNL A   1      44.429  35.028  27.942  1.00  0.00     0.198 A 
ATOM     46  C   UNL A   1      43.815  33.546  26.157  1.00  0.00     0.198 A 
ATOM     47  F   UNL A   1      43.739  31.224  26.527  1.00  0.00    -0.203 F 
ATOM     48  F   UNL A   1      44.602  36.273  28.410  1.00  0.00    -0.200 F 
ATOM     49  C   UNL A   1      44.028  34.832  26.630  1.00  0.00     0.200 A 
ATOM     50  F   UNL A   1      43.430  33.353  24.888  1.00  0.00    -0.200 F 
ATOM     51  F   UNL A   1      43.831  35.884  25.822  1.00  0.00    -0.200 F 
ENDBRANCH  27  41
BRANCH  28  52
ATOM     52  C   UNL A   1      44.817  24.853  34.637  1.00  0.00     0.064 A 
ATOM     53  C   UNL A   1      45.373  24.994  35.914  1.00  0.00     0.173 A 
ATOM     54  C   UNL A   1      44.459  23.566  34.212  1.00  0.00     0.173 A 
ATOM     55  F   UNL A   1      45.749  26.204  36.353  1.00  0.00    -0.203 F 
ATOM     56  C   UNL A   1      45.599  23.882  36.724  1.00  0.00     0.198 A 
ATOM     57  C   UNL A   1      44.682  22.457  35.025  1.00  0.00     0.198 A 
ATOM     58  F   UNL A   1      43.911  23.383  33.004  1.00  0.00    -0.203 F 
ATOM     59  F   UNL A   1      46.168  24.034  37.928  1.00  0.00    -0.200 F 
ATOM     60  C   UNL A   1      45.260  22.614  36.276  1.00  0.00     0.200 A 
ATOM     61  F   UNL A   1      44.321  21.238  34.601  1.00  0.00    -0.200 F 
ATOM     62  F   UNL A   1      45.479  21.544  37.051  1.00  0.00    -0.200 F 
ENDBRANCH  28  52
BRANCH  40  63
ATOM     63  C   UNL A   1      48.955  27.179  29.611  1.00  0.00     0.064 A 
ATOM     64  C   UNL A   1      49.029  26.212  28.598  1.00  0.00     0.173 A 
ATOM     65  C   UNL A   1      50.152  27.678  30.142  1.00  0.00     0.173 A 
ATOM     66  F   UNL A   1      47.907  25.688  28.082  1.00  0.00    -0.203 F 
ATOM     67  C   UNL A   1      50.260  25.743  28.154  1.00  0.00     0.198 A 
ATOM     68  C   UNL A   1      51.381  27.227  29.675  1.00  0.00     0.198 A 
ATOM     69  F   UNL A   1      50.126  28.601  31.115  1.00  0.00    -0.203 F 
ATOM     70  F   UNL A   1      50.311  24.777  27.226  1.00  0.00    -0.200 F 
ATOM     71  C   UNL A   1      51.434  26.254  28.688  1.00  0.00     0.200 A 
ATOM     72  F   UNL A   1      52.514  27.726  30.187  1.00  0.00    -0.200 F 
ATOM     73  F   UNL A   1      52.620  25.799  28.260  1.00  0.00    -0.200 F 
ENDBRANCH  40  63
ENDBRANCH  14  15
ENDBRANCH   7   9
ENDBRANCH   6   7
ENDBRANCH   5   6
ENDBRANCH   4   5
ENDBRANCH   3   4
ENDBRANCH   2   3
ENDBRANCH   1   2
BRANCH   1  74
ATOM     74  O   UNL A   1      35.628  32.099  27.708  1.00  0.00    -0.376 OA
BRANCH  74  75
ATOM     75  C   UNL A   1      35.097  30.780  27.789  1.00  0.00     0.202 C 
BRANCH  75  76
ATOM     76  C   UNL A   1      36.074  29.612  27.598  1.00  0.00     0.261 C 
BRANCH  76  77
ATOM     77  O   UNL A   1      37.430  29.890  27.987  1.00  0.00    -0.460 OA
BRANCH  77  78
ATOM     78  C   UNL A   1      37.833  29.230  29.099  1.00  0.00     0.338 C 
ATOM     79  O   UNL A   1      37.134  28.821  30.013  1.00  0.00    -0.246 OA
BRANCH  78  80
ATOM     80  C   UNL A   1      39.286  29.000  29.096  1.00  0.00     0.060 A 
ATOM     81  C   UNL A   1      40.069  29.681  28.151  1.00  0.00     0.017 A 
ATOM     82  C   UNL A   1      39.821  27.950  29.841  1.00  0.00     0.017 A 
ATOM     83  C   UNL A   1      41.363  29.241  27.866  1.00  0.00     0.023 A 
ATOM     84  C   UNL A   1      41.114  27.516  29.555  1.00  0.00     0.023 A 
ATOM     85  C   UNL A   1      41.845  28.104  28.515  1.00  0.00     0.087 A 
BRANCH  85  86
ATOM     86  S   UNL A   1      43.354  27.330  27.978  1.00  0.00     0.261 S 
ATOM     87  O   UNL A   1      43.941  28.143  26.935  1.00  0.00    -0.201 OA
ATOM     88  O   UNL A   1      44.111  26.993  29.166  1.00  0.00    -0.201 OA
BRANCH  86  89
ATOM     89  N   UNL A   1      42.908  25.842  27.246  1.00  0.00    -0.279 N 
ATOM     90  H   UNL A   1      41.963  25.574  27.171  1.00  0.00     0.180 HD
BRANCH  89  91
ATOM     91  C   UNL A   1      43.968  25.001  26.744  1.00  0.00     0.062 A 
ATOM     92  C   UNL A   1      44.567  25.309  25.517  1.00  0.00     0.028 A 
ATOM     93  C   UNL A   1      44.487  23.947  27.517  1.00  0.00     0.037 A 
ATOM     94  C   UNL A   1      45.690  24.594  25.087  1.00  0.00     0.002 A 
ATOM     95  C   UNL A   1      45.626  23.255  27.092  1.00  0.00     0.017 A 
ATOM     96  I   UNL A   1      43.583  23.304  29.297  1.00  0.00    -0.042 I 
ATOM     97  C   UNL A   1      46.231  23.584  25.880  1.00  0.00     0.001 A 
ENDBRANCH  89  91
ENDBRANCH  86  89
ENDBRANCH  85  86
ENDBRANCH  78  80
ENDBRANCH  77  78
ENDBRANCH  76  77
ENDBRANCH  75  76
ENDBRANCH  74  75
ENDBRANCH   1  74
TORSDOF 20
ENDMDL
MODEL 2
REMARK VINA RESULT:      -8.1      4.521      6.805
REMARK SMILES O=C(OCCOCCOCCOC(=O)c1ccc(S(=O)(=O)Nc2ccccc2I)cc1)c1ccc(-c2c3nc(c(-c4c(F)c(F)c(F)c(F)c4F)c4ccc([nH]4)c(-c4c(F)c(F)c(F)c(F)c4F)c4nc(c(-c5c(F)c(F)c(F)c(F)c5F)c5ccc2[nH]5)C=C4)C=C3)cc1
REMARK SMILES IDX 8 1 7 2 6 3 5 4 4 5 3 6 2 7 1 8 32 9 33 10 94 11 34 12 93 13
REMARK SMILES IDX 35 14 36 15 37 16 87 17 38 18 92 19 86 20 88 21 39 22 91 23
REMARK SMILES IDX 85 24 84 25 40 27 72 28 52 29 71 30 53 31 56 32 70 33 89 34
REMARK SMILES IDX 54 35 55 36 69 38 90 39 57 40 41 41 42 42 50 43 43 44 44 45
REMARK SMILES IDX 48 46 51 47 45 48 46 49 49 50 47 51 73 52 74 53 82 54 75 55
REMARK SMILES IDX 76 56 80 57 83 58 77 59 78 60 81 61 79 62 58 63 59 64 67 65
REMARK SMILES IDX 60 66 61 67 65 68 68 69 62 70 63 71 66 72 64 73 9 74 10 75
REMARK SMILES IDX 11 76 12 77 13 78 14 79 15 80 16 81 31 82 17 83 30 84 18 85
REMARK SMILES IDX 19 86 20 87 21 88 22 89 23 91 24 92 28 93 25 94 27 95 29 96
REMARK SMILES IDX 26 97
REMARK H PARENT 88 26 56 37 22 90
REMARK Flexibility Score: inf
ROOT
ATOM      1  C   UNL A   1      33.954  34.484  29.795  1.00  0.00     0.188 C 
ENDROOT
BRANCH   1   2
ATOM      2  C   UNL A   1      34.757  33.871  30.942  1.00  0.00     0.188 C 
BRANCH   2   3
ATOM      3  O   UNL A   1      34.053  33.917  32.189  1.00  0.00    -0.376 OA
BRANCH   3   4
ATOM      4  C   UNL A   1      34.771  34.618  33.212  1.00  0.00     0.202 C 
BRANCH   4   5
ATOM      5  C   UNL A   1      36.223  34.958  32.849  1.00  0.00     0.261 C 
BRANCH   5   6
ATOM      6  O   UNL A   1      37.171  34.112  33.522  1.00  0.00    -0.460 OA
BRANCH   6   7
ATOM      7  C   UNL A   1      37.244  32.757  33.533  1.00  0.00     0.338 C 
ATOM      8  O   UNL A   1      36.551  32.147  34.346  1.00  0.00    -0.246 OA
BRANCH   7   9
ATOM      9  C   UNL A   1      38.089  31.945  32.595  1.00  0.00     0.060 A 
ATOM     10  C   UNL A   1      39.016  30.973  32.968  1.00  0.00     0.016 A 
ATOM     11  C   UNL A   1      37.916  32.180  31.217  1.00  0.00     0.016 A 
ATOM     12  C   UNL A   1      39.857  30.377  32.035  1.00  0.00     0.010 A 
ATOM     13  C   UNL A   1      38.717  31.540  30.262  1.00  0.00     0.010 A 
ATOM     14  C   UNL A   1      39.741  30.687  30.681  1.00  0.00    -0.014 A 
BRANCH  14  15
ATOM     15  C   UNL A   1      40.836  30.257  29.786  1.00  0.00     0.031 A 
ATOM     16  C   UNL A   1      41.997  31.188  29.590  1.00  0.00     0.074 A 
ATOM     17  C   UNL A   1      40.879  28.997  29.318  1.00  0.00     0.049 A 
ATOM     18  N   UNL A   1      43.111  31.000  28.930  1.00  0.00    -0.248 NA
ATOM     19  C   UNL A   1      41.905  32.502  30.249  1.00  0.00     0.031 C 
ATOM     20  C   UNL A   1      39.852  27.983  29.548  1.00  0.00     0.029 A 
ATOM     21  N   UNL A   1      41.837  28.340  28.596  1.00  0.00    -0.354 N 
ATOM     22  C   UNL A   1      43.837  32.172  29.082  1.00  0.00     0.074 A 
ATOM     23  C   UNL A   1      43.041  33.073  29.884  1.00  0.00     0.031 C 
ATOM     24  C   UNL A   1      40.245  26.823  28.995  1.00  0.00     0.029 A 
ATOM     25  C   UNL A   1      41.531  27.026  28.345  1.00  0.00     0.049 A 
ATOM     26  H   UNL A   1      42.667  28.769  28.285  1.00  0.00     0.167 HD
ATOM     27  C   UNL A   1      45.064  32.468  28.595  1.00  0.00     0.037 A 
ATOM     28  C   UNL A   1      42.216  26.098  27.655  1.00  0.00     0.037 A 
ATOM     29  C   UNL A   1      45.848  31.562  27.802  1.00  0.00     0.049 A 
ATOM     30  C   UNL A   1      43.537  26.483  27.056  1.00  0.00     0.074 A 
ATOM     31  C   UNL A   1      47.081  31.768  27.211  1.00  0.00     0.029 A 
ATOM     32  N   UNL A   1      45.461  30.267  27.486  1.00  0.00    -0.354 N 
ATOM     33  N   UNL A   1      44.192  27.613  27.154  1.00  0.00    -0.248 NA
ATOM     34  C   UNL A   1      44.210  25.459  26.248  1.00  0.00     0.031 C 
ATOM     35  C   UNL A   1      47.422  30.609  26.505  1.00  0.00     0.029 A 
ATOM     36  C   UNL A   1      46.426  29.666  26.696  1.00  0.00     0.049 A 
ATOM     37  H   UNL A   1      44.625  29.839  27.782  1.00  0.00     0.167 HD
ATOM     38  C   UNL A   1      45.357  27.438  26.427  1.00  0.00     0.074 A 
ATOM     39  C   UNL A   1      45.331  26.082  25.915  1.00  0.00     0.031 C 
ATOM     40  C   UNL A   1      46.361  28.318  26.197  1.00  0.00     0.037 A 
BRANCH  27  41
ATOM     41  C   UNL A   1      45.585  33.849  28.858  1.00  0.00     0.064 A 
ATOM     42  C   UNL A   1      45.387  34.904  27.954  1.00  0.00     0.173 A 
ATOM     43  C   UNL A   1      46.325  34.109  30.020  1.00  0.00     0.173 A 
ATOM     44  F   UNL A   1      44.711  34.699  26.813  1.00  0.00    -0.203 F 
ATOM     45  C   UNL A   1      45.939  36.161  28.192  1.00  0.00     0.198 A 
ATOM     46  C   UNL A   1      46.853  35.374  30.266  1.00  0.00     0.198 A 
ATOM     47  F   UNL A   1      46.549  33.132  30.912  1.00  0.00    -0.203 F 
ATOM     48  F   UNL A   1      45.788  37.139  27.286  1.00  0.00    -0.200 F 
ATOM     49  C   UNL A   1      46.667  36.395  29.348  1.00  0.00     0.200 A 
ATOM     50  F   UNL A   1      47.554  35.598  31.386  1.00  0.00    -0.200 F 
ATOM     51  F   UNL A   1      47.205  37.603  29.571  1.00  0.00    -0.200 F 
ENDBRANCH  27  41
BRANCH  28  52
ATOM     52  C   UNL A   1      41.673  24.737  27.435  1.00  0.00     0.064 A 
ATOM     53  C   UNL A   1      40.564  24.523  26.607  1.00  0.00     0.173 A 
ATOM     54  C   UNL A   1      42.190  23.642  28.140  1.00  0.00     0.173 A 
ATOM     55  F   UNL A   1      40.025  25.547  25.929  1.00  0.00    -0.203 F 
ATOM     56  C   UNL A   1      39.969  23.265  26.517  1.00  0.00     0.198 A 
ATOM     57  C   UNL A   1      41.597  22.386  28.046  1.00  0.00     0.198 A 
ATOM     58  F   UNL A   1      43.259  23.795  28.934  1.00  0.00    -0.203 F 
ATOM     59  F   UNL A   1      38.886  23.090  25.749  1.00  0.00    -0.200 F 
ATOM     60  C   UNL A   1      40.482  22.199  27.243  1.00  0.00     0.200 A 
ATOM     61  F   UNL A   1      42.116  21.352  28.722  1.00  0.00    -0.200 F 
ATOM     62  F   UNL A   1      39.909  20.992  27.160  1.00  0.00    -0.200 F 
ENDBRANCH  28  52
BRANCH  40  63
ATOM     63  C   UNL A   1      47.511  27.819  25.380  1.00  0.00     0.064 A 
ATOM     64  C   UNL A   1      48.672  27.312  25.981  1.00  0.00     0.173 A 
ATOM     65  C   UNL A   1      47.444  27.848  23.980  1.00  0.00     0.173 A 
ATOM     66  F   UNL A   1      48.786  27.292  27.317  1.00  0.00    -0.203 F 
ATOM     67  C   UNL A   1      49.740  26.877  25.205  1.00  0.00     0.198 A 
ATOM     68  C   UNL A   1      48.503  27.384  23.208  1.00  0.00     0.198 A 
ATOM     69  F   UNL A   1      46.353  28.328  23.365  1.00  0.00    -0.203 F 
ATOM     70  F   UNL A   1      50.864  26.449  25.796  1.00  0.00    -0.200 F 
ATOM     71  C   UNL A   1      49.653  26.907  23.821  1.00  0.00     0.200 A 
ATOM     72  F   UNL A   1      48.416  27.409  21.872  1.00  0.00    -0.200 F 
ATOM     73  F   UNL A   1      50.685  26.489  23.074  1.00  0.00    -0.200 F 
ENDBRANCH  40  63
ENDBRANCH  14  15
ENDBRANCH   7   9
ENDBRANCH   6   7
ENDBRANCH   5   6
ENDBRANCH   4   5
ENDBRANCH   3   4
ENDBRANCH   2   3
ENDBRANCH   1   2
BRANCH   1  74
ATOM     74  O   UNL A   1      33.661  33.623  28.698  1.00  0.00    -0.376 OA
BRANCH  74  75
ATOM     75  C   UNL A   1      34.123  32.279  28.770  1.00  0.00     0.202 C 
BRANCH  75  76
ATOM     76  C   UNL A   1      34.290  31.517  27.449  1.00  0.00     0.261 C 
BRANCH  76  77
ATOM     77  O   UNL A   1      33.411  30.389  27.288  1.00  0.00    -0.460 OA
BRANCH  77  78
ATOM     78  C   UNL A   1      34.046  29.234  26.974  1.00  0.00     0.338 C 
ATOM     79  O   UNL A   1      35.189  28.914  27.261  1.00  0.00    -0.246 OA
BRANCH  78  80
ATOM     80  C   UNL A   1      33.166  28.317  26.233  1.00  0.00     0.060 A 
ATOM     81  C   UNL A   1      32.107  27.705  26.921  1.00  0.00     0.017 A 
ATOM     82  C   UNL A   1      33.534  27.883  24.961  1.00  0.00     0.017 A 
ATOM     83  C   UNL A   1      31.480  26.580  26.382  1.00  0.00     0.023 A 
ATOM     84  C   UNL A   1      32.905  26.760  24.426  1.00  0.00     0.023 A 
ATOM     85  C   UNL A   1      31.945  26.065  25.172  1.00  0.00     0.087 A 
BRANCH  85  86
ATOM     86  S   UNL A   1      31.391  24.476  24.594  1.00  0.00     0.261 S 
ATOM     87  O   UNL A   1      31.026  23.672  25.740  1.00  0.00    -0.201 OA
ATOM     88  O   UNL A   1      30.441  24.715  23.526  1.00  0.00    -0.201 OA
BRANCH  86  89
ATOM     89  N   UNL A   1      32.752  23.715  23.875  1.00  0.00    -0.279 N 
ATOM     90  H   UNL A   1      33.337  24.202  23.250  1.00  0.00     0.180 HD
BRANCH  89  91
ATOM     91  C   UNL A   1      33.007  22.338  24.221  1.00  0.00     0.062 A 
ATOM     92  C   UNL A   1      32.227  21.328  23.644  1.00  0.00     0.028 A 
ATOM     93  C   UNL A   1      34.096  21.984  25.037  1.00  0.00     0.037 A 
ATOM     94  C   UNL A   1      32.555  19.984  23.855  1.00  0.00     0.002 A 
ATOM     95  C   UNL A   1      34.433  20.637  25.220  1.00  0.00     0.017 A 
ATOM     96  I   UNL A   1      35.241  23.407  26.068  1.00  0.00    -0.042 I 
ATOM     97  C   UNL A   1      33.665  19.639  24.622  1.00  0.00     0.001 A 
ENDBRANCH  89  91
ENDBRANCH  86  89
ENDBRANCH  85  86
ENDBRANCH  78  80
ENDBRANCH  77  78
ENDBRANCH  76  77
ENDBRANCH  75  76
ENDBRANCH  74  75
ENDBRANCH   1  74
TORSDOF 20
ENDMDL
MODEL 3
REMARK VINA RESULT:      -7.6      4.219      8.490
REMARK SMILES O=C(OCCOCCOCCOC(=O)c1ccc(S(=O)(=O)Nc2ccccc2I)cc1)c1ccc(-c2c3nc(c(-c4c(F)c(F)c(F)c(F)c4F)c4ccc([nH]4)c(-c4c(F)c(F)c(F)c(F)c4F)c4nc(c(-c5c(F)c(F)c(F)c(F)c5F)c5ccc2[nH]5)C=C4)C=C3)cc1
REMARK SMILES IDX 8 1 7 2 6 3 5 4 4 5 3 6 2 7 1 8 32 9 33 10 94 11 34 12 93 13
REMARK SMILES IDX 35 14 36 15 37 16 87 17 38 18 92 19 86 20 88 21 39 22 91 23
REMARK SMILES IDX 85 24 84 25 40 27 72 28 52 29 71 30 53 31 56 32 70 33 89 34
REMARK SMILES IDX 54 35 55 36 69 38 90 39 57 40 41 41 42 42 50 43 43 44 44 45
REMARK SMILES IDX 48 46 51 47 45 48 46 49 49 50 47 51 73 52 74 53 82 54 75 55
REMARK SMILES IDX 76 56 80 57 83 58 77 59 78 60 81 61 79 62 58 63 59 64 67 65
REMARK SMILES IDX 60 66 61 67 65 68 68 69 62 70 63 71 66 72 64 73 9 74 10 75
REMARK SMILES IDX 11 76 12 77 13 78 14 79 15 80 16 81 31 82 17 83 30 84 18 85
REMARK SMILES IDX 19 86 20 87 21 88 22 89 23 91 24 92 28 93 25 94 27 95 29 96
REMARK SMILES IDX 26 97
REMARK H PARENT 88 26 56 37 22 90
REMARK Flexibility Score: inf
ROOT
ATOM      1  C   UNL A   1      33.257  35.225  31.700  1.00  0.00     0.188 C 
ENDROOT
BRANCH   1   2
ATOM      2  C   UNL A   1      33.457  35.700  30.261  1.00  0.00     0.188 C 
BRANCH   2   3
ATOM      3  O   UNL A   1      32.556  35.064  29.345  1.00  0.00    -0.376 OA
BRANCH   3   4
ATOM      4  C   UNL A   1      33.227  34.422  28.254  1.00  0.00     0.202 C 
BRANCH   4   5
ATOM      5  C   UNL A   1      34.516  33.687  28.646  1.00  0.00     0.261 C 
BRANCH   5   6
ATOM      6  O   UNL A   1      34.275  32.327  29.045  1.00  0.00    -0.460 OA
BRANCH   6   7
ATOM      7  C   UNL A   1      34.557  31.181  28.377  1.00  0.00     0.338 C 
ATOM      8  O   UNL A   1      33.746  30.784  27.542  1.00  0.00    -0.246 OA
BRANCH   7   9
ATOM      9  C   UNL A   1      35.813  30.379  28.559  1.00  0.00     0.060 A 
ATOM     10  C   UNL A   1      36.153  29.645  29.695  1.00  0.00     0.016 A 
ATOM     11  C   UNL A   1      36.718  30.358  27.480  1.00  0.00     0.016 A 
ATOM     12  C   UNL A   1      37.404  29.054  29.829  1.00  0.00     0.010 A 
ATOM     13  C   UNL A   1      37.958  29.714  27.581  1.00  0.00     0.010 A 
ATOM     14  C   UNL A   1      38.330  29.119  28.790  1.00  0.00    -0.014 A 
BRANCH  14  15
ATOM     15  C   UNL A   1      39.725  28.737  29.094  1.00  0.00     0.031 A 
ATOM     16  C   UNL A   1      40.478  29.553  30.104  1.00  0.00     0.074 A 
ATOM     17  C   UNL A   1      40.234  27.585  28.623  1.00  0.00     0.049 A 
ATOM     18  N   UNL A   1      41.673  29.363  30.601  1.00  0.00    -0.248 NA
ATOM     19  C   UNL A   1      39.781  30.728  30.651  1.00  0.00     0.031 C 
ATOM     20  C   UNL A   1      39.538  26.667  27.724  1.00  0.00     0.029 A 
ATOM     21  N   UNL A   1      41.429  26.965  28.868  1.00  0.00    -0.354 N 
ATOM     22  C   UNL A   1      41.873  30.400  31.501  1.00  0.00     0.074 A 
ATOM     23  C   UNL A   1      40.687  31.225  31.477  1.00  0.00     0.031 C 
ATOM     24  C   UNL A   1      40.310  25.588  27.508  1.00  0.00     0.029 A 
ATOM     25  C   UNL A   1      41.565  25.760  28.226  1.00  0.00     0.049 A 
ATOM     26  H   UNL A   1      42.126  27.348  29.450  1.00  0.00     0.167 HD
ATOM     27  C   UNL A   1      42.953  30.639  32.279  1.00  0.00     0.037 A 
ATOM     28  C   UNL A   1      42.598  24.901  28.215  1.00  0.00     0.037 A 
ATOM     29  C   UNL A   1      44.125  29.809  32.295  1.00  0.00     0.049 A 
ATOM     30  C   UNL A   1      43.816  25.237  29.024  1.00  0.00     0.074 A 
ATOM     31  C   UNL A   1      45.300  29.978  33.003  1.00  0.00     0.029 A 
ATOM     32  N   UNL A   1      44.265  28.643  31.555  1.00  0.00    -0.354 N 
ATOM     33  N   UNL A   1      44.021  26.250  29.828  1.00  0.00    -0.248 NA
ATOM     34  C   UNL A   1      44.946  24.306  28.920  1.00  0.00     0.031 C 
ATOM     35  C   UNL A   1      46.167  28.934  32.661  1.00  0.00     0.029 A 
ATOM     36  C   UNL A   1      45.514  28.089  31.778  1.00  0.00     0.049 A 
ATOM     37  H   UNL A   1      43.577  28.264  30.960  1.00  0.00     0.167 HD
ATOM     38  C   UNL A   1      45.299  26.079  30.332  1.00  0.00     0.074 A 
ATOM     39  C   UNL A   1      45.812  24.849  29.762  1.00  0.00     0.031 C 
ATOM     40  C   UNL A   1      45.994  26.868  31.187  1.00  0.00     0.037 A 
BRANCH  27  41
ATOM     41  C   UNL A   1      42.926  31.884  33.115  1.00  0.00     0.064 A 
ATOM     42  C   UNL A   1      43.586  33.059  32.722  1.00  0.00     0.173 A 
ATOM     43  C   UNL A   1      42.257  31.886  34.347  1.00  0.00     0.173 A 
ATOM     44  F   UNL A   1      44.266  33.098  31.566  1.00  0.00    -0.203 F 
ATOM     45  C   UNL A   1      43.600  34.179  33.549  1.00  0.00     0.198 A 
ATOM     46  C   UNL A   1      42.252  33.017  35.158  1.00  0.00     0.198 A 
ATOM     47  F   UNL A   1      41.618  30.785  34.770  1.00  0.00    -0.203 F 
ATOM     48  F   UNL A   1      44.287  35.272  33.182  1.00  0.00    -0.200 F 
ATOM     49  C   UNL A   1      42.932  34.159  34.763  1.00  0.00     0.200 A 
ATOM     50  F   UNL A   1      41.602  32.995  36.330  1.00  0.00    -0.200 F 
ATOM     51  F   UNL A   1      42.954  35.235  35.561  1.00  0.00    -0.200 F 
ENDBRANCH  27  41
BRANCH  28  52
ATOM     52  C   UNL A   1      42.575  23.670  27.389  1.00  0.00     0.064 A 
ATOM     53  C   UNL A   1      42.162  22.444  27.923  1.00  0.00     0.173 A 
ATOM     54  C   UNL A   1      43.075  23.684  26.080  1.00  0.00     0.173 A 
ATOM     55  F   UNL A   1      41.695  22.383  29.179  1.00  0.00    -0.203 F 
ATOM     56  C   UNL A   1      42.279  21.266  27.188  1.00  0.00     0.198 A 
ATOM     57  C   UNL A   1      43.188  22.506  25.345  1.00  0.00     0.198 A 
ATOM     58  F   UNL A   1      43.471  24.835  25.521  1.00  0.00    -0.203 F 
ATOM     59  F   UNL A   1      41.913  20.097  27.731  1.00  0.00    -0.200 F 
ATOM     60  C   UNL A   1      42.799  21.297  25.902  1.00  0.00     0.200 A 
ATOM     61  F   UNL A   1      43.659  22.546  24.091  1.00  0.00    -0.200 F 
ATOM     62  F   UNL A   1      42.916  20.166  25.196  1.00  0.00    -0.200 F 
ENDBRANCH  28  52
BRANCH  40  63
ATOM     63  C   UNL A   1      47.362  26.399  31.565  1.00  0.00     0.064 A 
ATOM     64  C   UNL A   1      47.578  25.601  32.698  1.00  0.00     0.173 A 
ATOM     65  C   UNL A   1      48.469  26.751  30.780  1.00  0.00     0.173 A 
ATOM     66  F   UNL A   1      46.549  25.264  33.491  1.00  0.00    -0.203 F 
ATOM     67  C   UNL A   1      48.861  25.196  33.047  1.00  0.00     0.198 A 
ATOM     68  C   UNL A   1      49.747  26.320  31.117  1.00  0.00     0.198 A 
ATOM     69  F   UNL A   1      48.309  27.516  29.689  1.00  0.00    -0.203 F 
ATOM     70  F   UNL A   1      49.054  24.482  34.165  1.00  0.00    -0.200 F 
ATOM     71  C   UNL A   1      49.942  25.549  32.254  1.00  0.00     0.200 A 
ATOM     72  F   UNL A   1      50.790  26.657  30.347  1.00  0.00    -0.200 F 
ATOM     73  F   UNL A   1      51.179  25.160  32.594  1.00  0.00    -0.200 F 
ENDBRANCH  40  63
ENDBRANCH  14  15
ENDBRANCH   7   9
ENDBRANCH   6   7
ENDBRANCH   5   6
ENDBRANCH   4   5
ENDBRANCH   3   4
ENDBRANCH   2   3
ENDBRANCH   1   2
BRANCH   1  74
ATOM     74  O   UNL A   1      33.815  33.956  32.030  1.00  0.00    -0.376 OA
BRANCH  74  75
ATOM     75  C   UNL A   1      35.143  33.930  32.543  1.00  0.00     0.202 C 
BRANCH  75  76
ATOM     76  C   UNL A   1      36.091  32.855  31.996  1.00  0.00     0.261 C 
BRANCH  76  77
ATOM     77  O   UNL A   1      36.874  32.177  32.994  1.00  0.00    -0.460 OA
BRANCH  77  78
ATOM     78  C   UNL A   1      37.914  32.904  33.469  1.00  0.00     0.338 C 
ATOM     79  O   UNL A   1      38.782  33.468  32.822  1.00  0.00    -0.246 OA
BRANCH  78  80
ATOM     80  C   UNL A   1      37.886  32.992  34.938  1.00  0.00     0.060 A 
ATOM     81  C   UNL A   1      38.174  34.226  35.540  1.00  0.00     0.017 A 
ATOM     82  C   UNL A   1      37.826  31.825  35.698  1.00  0.00     0.017 A 
ATOM     83  C   UNL A   1      38.513  34.283  36.893  1.00  0.00     0.023 A 
ATOM     84  C   UNL A   1      38.164  31.887  37.049  1.00  0.00     0.023 A 
ATOM     85  C   UNL A   1      38.587  33.094  37.618  1.00  0.00     0.087 A 
BRANCH  85  86
ATOM     86  S   UNL A   1      39.300  33.075  39.249  1.00  0.00     0.261 S 
ATOM     87  O   UNL A   1      40.635  32.526  39.161  1.00  0.00    -0.201 OA
ATOM     88  O   UNL A   1      39.074  34.382  39.831  1.00  0.00    -0.201 OA
BRANCH  86  89
ATOM     89  N   UNL A   1      38.373  31.963  40.174  1.00  0.00    -0.279 N 
ATOM     90  H   UNL A   1      38.669  31.032  40.297  1.00  0.00     0.180 HD
BRANCH  89  91
ATOM     91  C   UNL A   1      37.148  32.445  40.765  1.00  0.00     0.062 A 
ATOM     92  C   UNL A   1      35.993  32.534  39.979  1.00  0.00     0.028 A 
ATOM     93  C   UNL A   1      37.065  32.718  42.142  1.00  0.00     0.037 A 
ATOM     94  C   UNL A   1      34.767  32.857  40.570  1.00  0.00     0.002 A 
ATOM     95  C   UNL A   1      35.829  33.015  42.729  1.00  0.00     0.017 A 
ATOM     96  I   UNL A   1      38.752  32.760  43.387  1.00  0.00    -0.042 I 
ATOM     97  C   UNL A   1      34.680  33.078  41.942  1.00  0.00     0.001 A 
ENDBRANCH  89  91
ENDBRANCH  86  89
ENDBRANCH  85  86
ENDBRANCH  78  80
ENDBRANCH  77  78
ENDBRANCH  76  77
ENDBRANCH  75  76
ENDBRANCH  74  75
ENDBRANCH   1  74
TORSDOF 20
ENDMDL
