MODEL 1
REMARK VINA RESULT:     -10.0      0.000      0.000
REMARK SMILES CC[C@H](C(C)C)[C@](C)(O)C(=O)OCCOCCOCCOC(=O)c1ccc(-c2c3nc(c(-c4c(F)c(F)c(F)c(F)c4F)c4ccc([nH]4)c(-c4c(F)c(F)c(F)c(F)c4F)c4nc(c(-c5c(F)c(F)c(F)c(F)c5F)c5ccc2[nH]5)C=C4)C=C3)cc1
REMARK SMILES IDX 16 1 15 2 14 3 13 4 12 5 10 6 11 7 7 8 8 9 3 10 2 11 1 12
REMARK SMILES IDX 4 13 5 14 6 15 9 16 17 18 18 19 19 20 20 21 21 22 22 23
REMARK SMILES IDX 23 24 24 25 25 26 86 27 26 28 85 29 27 30 28 31 29 32 79 33
REMARK SMILES IDX 30 34 84 35 78 36 80 37 31 38 83 39 77 40 76 41 32 43 64 44
REMARK SMILES IDX 44 45 63 46 45 47 48 48 62 49 81 50 46 51 47 52 61 54 82 55
REMARK SMILES IDX 49 56 33 57 34 58 42 59 35 60 36 61 40 62 43 63 37 64 38 65
REMARK SMILES IDX 41 66 39 67 65 68 66 69 74 70 67 71 68 72 72 73 75 74 69 75
REMARK SMILES IDX 70 76 73 77 71 78 50 79 51 80 59 81 52 82 53 83 57 84 60 85
REMARK SMILES IDX 54 86 55 87 58 88 56 89
REMARK H PARENT 9 17 80 42 48 53
REMARK Flexibility Score: inf
ROOT
ATOM      1  C   UNL A   1      33.574  26.484  22.390  1.00  0.00     0.188 C 
ENDROOT
BRANCH   1   2
ATOM      2  O   UNL A   1      33.374  25.083  22.290  1.00  0.00    -0.376 OA
BRANCH   2   3
ATOM      3  C   UNL A   1      32.728  24.419  23.373  1.00  0.00     0.202 C 
BRANCH   3   4
ATOM      4  C   UNL A   1      32.005  23.077  23.134  1.00  0.00     0.261 C 
BRANCH   4   5
ATOM      5  O   UNL A   1      32.542  21.963  23.874  1.00  0.00    -0.461 OA
BRANCH   5   6
ATOM      6  C   UNL A   1      32.361  21.974  25.226  1.00  0.00     0.338 C 
ATOM      7  O   UNL A   1      31.319  22.324  25.775  1.00  0.00    -0.249 OA
BRANCH   6   8
ATOM      8  C   UNL A   1      33.587  21.389  26.022  1.00  0.00     0.162 C 
ATOM      9  C   UNL A   1      34.006  22.538  26.961  1.00  0.00     0.055 C 
BRANCH   8  10
ATOM     10  C   UNL A   1      34.631  20.854  24.976  1.00  0.00     0.034 C 
BRANCH  10  11
ATOM     11  C   UNL A   1      34.715  19.289  24.860  1.00  0.00     0.004 C 
ATOM     12  C   UNL A   1      33.590  18.507  24.180  1.00  0.00     0.004 C 
ENDBRANCH  10  11
BRANCH  10  13
ATOM     13  C   UNL A   1      36.046  21.512  24.923  1.00  0.00    -0.011 C 
ATOM     14  C   UNL A   1      37.193  20.496  24.814  1.00  0.00     0.008 C 
ATOM     15  C   UNL A   1      36.202  22.642  23.906  1.00  0.00     0.008 C 
ENDBRANCH  10  13
ENDBRANCH   8  10
BRANCH   8  16
ATOM     16  O   UNL A   1      33.278  20.315  26.897  1.00  0.00    -0.378 OA
ATOM     17  H   UNL A   1      32.511  20.552  27.441  1.00  0.00     0.212 HD
ENDBRANCH   8  16
ENDBRANCH   6   8
ENDBRANCH   5   6
ENDBRANCH   4   5
ENDBRANCH   3   4
ENDBRANCH   2   3
ENDBRANCH   1   2
BRANCH   1  18
ATOM     18  C   UNL A   1      33.236  27.196  23.709  1.00  0.00     0.188 C 
BRANCH  18  19
ATOM     19  O   UNL A   1      32.003  27.855  23.759  1.00  0.00    -0.376 OA
BRANCH  19  20
ATOM     20  C   UNL A   1      31.826  28.961  24.614  1.00  0.00     0.202 C 
BRANCH  20  21
ATOM     21  C   UNL A   1      32.959  29.694  25.363  1.00  0.00     0.261 C 
BRANCH  21  22
ATOM     22  O   UNL A   1      32.791  30.005  26.753  1.00  0.00    -0.460 OA
BRANCH  22  23
ATOM     23  C   UNL A   1      33.294  31.193  27.181  1.00  0.00     0.338 C 
ATOM     24  O   UNL A   1      32.708  32.250  27.285  1.00  0.00    -0.246 OA
BRANCH  23  25
ATOM     25  C   UNL A   1      34.649  30.937  27.729  1.00  0.00     0.060 A 
ATOM     26  C   UNL A   1      35.045  29.619  28.012  1.00  0.00     0.016 A 
ATOM     27  C   UNL A   1      35.525  31.997  27.952  1.00  0.00     0.016 A 
ATOM     28  C   UNL A   1      36.317  29.360  28.533  1.00  0.00     0.010 A 
ATOM     29  C   UNL A   1      36.784  31.740  28.499  1.00  0.00     0.010 A 
ATOM     30  C   UNL A   1      37.180  30.425  28.816  1.00  0.00    -0.014 A 
BRANCH  30  31
ATOM     31  C   UNL A   1      38.410  30.240  29.626  1.00  0.00     0.031 A 
ATOM     32  C   UNL A   1      39.444  29.275  29.121  1.00  0.00     0.074 A 
ATOM     33  C   UNL A   1      38.573  30.825  30.825  1.00  0.00     0.049 A 
ATOM     34  N   UNL A   1      40.467  28.743  29.739  1.00  0.00    -0.248 NA
ATOM     35  C   UNL A   1      39.281  28.836  27.727  1.00  0.00     0.031 C 
ATOM     36  C   UNL A   1      37.678  31.818  31.410  1.00  0.00     0.029 A 
ATOM     37  N   UNL A   1      39.536  30.624  31.785  1.00  0.00    -0.354 N 
ATOM     38  C   UNL A   1      41.048  27.878  28.822  1.00  0.00     0.074 A 
ATOM     39  C   UNL A   1      40.256  27.949  27.612  1.00  0.00     0.031 C 
ATOM     40  C   UNL A   1      38.106  32.105  32.652  1.00  0.00     0.029 A 
ATOM     41  C   UNL A   1      39.271  31.275  32.965  1.00  0.00     0.049 A 
ATOM     42  H   UNL A   1      40.336  30.068  31.641  1.00  0.00     0.167 HD
ATOM     43  C   UNL A   1      42.136  27.087  28.980  1.00  0.00     0.037 A 
ATOM     44  C   UNL A   1      39.863  31.169  34.172  1.00  0.00     0.037 A 
ATOM     45  C   UNL A   1      42.911  27.012  30.189  1.00  0.00     0.049 A 
ATOM     46  C   UNL A   1      41.029  30.228  34.358  1.00  0.00     0.074 A 
ATOM     47  C   UNL A   1      44.048  26.265  30.440  1.00  0.00     0.029 A 
ATOM     48  N   UNL A   1      42.615  27.694  31.361  1.00  0.00    -0.354 N 
ATOM     49  N   UNL A   1      41.589  29.422  33.489  1.00  0.00    -0.248 NA
ATOM     50  C   UNL A   1      41.642  30.181  35.694  1.00  0.00     0.031 C 
ATOM     51  C   UNL A   1      44.397  26.438  31.782  1.00  0.00     0.029 A 
ATOM     52  C   UNL A   1      43.527  27.356  32.348  1.00  0.00     0.049 A 
ATOM     53  H   UNL A   1      41.867  28.325  31.475  1.00  0.00     0.167 HD
ATOM     54  C   UNL A   1      42.637  28.799  34.159  1.00  0.00     0.074 A 
ATOM     55  C   UNL A   1      42.635  29.320  35.509  1.00  0.00     0.031 C 
ATOM     56  C   UNL A   1      43.526  27.887  33.691  1.00  0.00     0.037 A 
BRANCH  43  57
ATOM     57  C   UNL A   1      42.504  26.190  27.831  1.00  0.00     0.064 A 
ATOM     58  C   UNL A   1      43.466  26.556  26.876  1.00  0.00     0.173 A 
ATOM     59  C   UNL A   1      41.868  24.949  27.677  1.00  0.00     0.173 A 
ATOM     60  F   UNL A   1      44.096  27.736  26.970  1.00  0.00    -0.203 F 
ATOM     61  C   UNL A   1      43.738  25.735  25.784  1.00  0.00     0.198 A 
ATOM     62  C   UNL A   1      42.171  24.113  26.605  1.00  0.00     0.198 A 
ATOM     63  F   UNL A   1      40.945  24.545  28.562  1.00  0.00    -0.203 F 
ATOM     64  F   UNL A   1      44.603  26.142  24.844  1.00  0.00    -0.200 F 
ATOM     65  C   UNL A   1      43.094  24.515  25.651  1.00  0.00     0.200 A 
ATOM     66  F   UNL A   1      41.561  22.927  26.488  1.00  0.00    -0.200 F 
ATOM     67  F   UNL A   1      43.353  23.730  24.597  1.00  0.00    -0.200 F 
ENDBRANCH  43  57
BRANCH  44  68
ATOM     68  C   UNL A   1      39.331  31.956  35.316  1.00  0.00     0.064 A 
ATOM     69  C   UNL A   1      39.651  33.310  35.477  1.00  0.00     0.173 A 
ATOM     70  C   UNL A   1      38.474  31.372  36.262  1.00  0.00     0.173 A 
ATOM     71  F   UNL A   1      40.492  33.905  34.618  1.00  0.00    -0.203 F 
ATOM     72  C   UNL A   1      39.136  34.050  36.539  1.00  0.00     0.198 A 
ATOM     73  C   UNL A   1      37.935  32.121  37.306  1.00  0.00     0.198 A 
ATOM     74  F   UNL A   1      38.142  30.076  36.158  1.00  0.00    -0.203 F 
ATOM     75  F   UNL A   1      39.485  35.335  36.689  1.00  0.00    -0.200 F 
ATOM     76  C   UNL A   1      38.269  33.459  37.447  1.00  0.00     0.200 A 
ATOM     77  F   UNL A   1      37.090  31.546  38.173  1.00  0.00    -0.200 F 
ATOM     78  F   UNL A   1      37.761  34.176  38.458  1.00  0.00    -0.200 F 
ENDBRANCH  44  68
BRANCH  56  79
ATOM     79  C   UNL A   1      44.617  27.421  34.615  1.00  0.00     0.064 A 
ATOM     80  C   UNL A   1      44.502  26.250  35.378  1.00  0.00     0.173 A 
ATOM     81  C   UNL A   1      45.835  28.121  34.672  1.00  0.00     0.173 A 
ATOM     82  F   UNL A   1      43.358  25.550  35.370  1.00  0.00    -0.203 F 
ATOM     83  C   UNL A   1      45.558  25.803  36.169  1.00  0.00     0.198 A 
ATOM     84  C   UNL A   1      46.898  27.654  35.439  1.00  0.00     0.198 A 
ATOM     85  F   UNL A   1      46.002  29.244  33.958  1.00  0.00    -0.203 F 
ATOM     86  F   UNL A   1      45.414  24.700  36.916  1.00  0.00    -0.200 F 
ATOM     87  C   UNL A   1      46.759  26.499  36.190  1.00  0.00     0.200 A 
ATOM     88  F   UNL A   1      48.064  28.318  35.441  1.00  0.00    -0.200 F 
ATOM     89  F   UNL A   1      47.780  26.054  36.936  1.00  0.00    -0.200 F 
ENDBRANCH  56  79
ENDBRANCH  30  31
ENDBRANCH  23  25
ENDBRANCH  22  23
ENDBRANCH  21  22
ENDBRANCH  20  21
ENDBRANCH  19  20
ENDBRANCH  18  19
ENDBRANCH   1  18
TORSDOF 21
ENDMDL
MODEL 2
REMARK VINA RESULT:      -9.8      0.850      1.965
REMARK SMILES CC[C@H](C(C)C)[C@](C)(O)C(=O)OCCOCCOCCOC(=O)c1ccc(-c2c3nc(c(-c4c(F)c(F)c(F)c(F)c4F)c4ccc([nH]4)c(-c4c(F)c(F)c(F)c(F)c4F)c4nc(c(-c5c(F)c(F)c(F)c(F)c5F)c5ccc2[nH]5)C=C4)C=C3)cc1
REMARK SMILES IDX 16 1 15 2 14 3 13 4 12 5 10 6 11 7 7 8 8 9 3 10 2 11 1 12
REMARK SMILES IDX 4 13 5 14 6 15 9 16 17 18 18 19 19 20 20 21 21 22 22 23
REMARK SMILES IDX 23 24 24 25 25 26 86 27 26 28 85 29 27 30 28 31 29 32 79 33
REMARK SMILES IDX 30 34 84 35 78 36 80 37 31 38 83 39 77 40 76 41 32 43 64 44
REMARK SMILES IDX 44 45 63 46 45 47 48 48 62 49 81 50 46 51 47 52 61 54 82 55
REMARK SMILES IDX 49 56 33 57 34 58 42 59 35 60 36 61 40 62 43 63 37 64 38 65
REMARK SMILES IDX 41 66 39 67 65 68 66 69 74 70 67 71 68 72 72 73 75 74 69 75
REMARK SMILES IDX 70 76 73 77 71 78 50 79 51 80 59 81 52 82 53 83 57 84 60 85
REMARK SMILES IDX 54 86 55 87 58 88 56 89
REMARK H PARENT 9 17 80 42 48 53
REMARK Flexibility Score: inf
ROOT
ATOM      1  C   UNL A   1      31.225  28.571  22.348  1.00  0.00     0.188 C 
ENDROOT
BRANCH   1   2
ATOM      2  O   UNL A   1      30.777  27.258  22.050  1.00  0.00    -0.376 OA
BRANCH   2   3
ATOM      3  C   UNL A   1      30.746  26.304  23.109  1.00  0.00     0.202 C 
BRANCH   3   4
ATOM      4  C   UNL A   1      32.016  25.504  23.464  1.00  0.00     0.261 C 
BRANCH   4   5
ATOM      5  O   UNL A   1      31.865  24.594  24.572  1.00  0.00    -0.461 OA
BRANCH   5   6
ATOM      6  C   UNL A   1      31.654  23.282  24.269  1.00  0.00     0.338 C 
ATOM      7  O   UNL A   1      31.229  22.887  23.186  1.00  0.00    -0.249 OA
BRANCH   6   8
ATOM      8  C   UNL A   1      32.115  22.299  25.411  1.00  0.00     0.162 C 
ATOM      9  C   UNL A   1      32.454  23.231  26.591  1.00  0.00     0.055 C 
BRANCH   8  10
ATOM     10  C   UNL A   1      33.249  21.380  24.828  1.00  0.00     0.034 C 
BRANCH  10  11
ATOM     11  C   UNL A   1      32.989  19.836  24.962  1.00  0.00     0.004 C 
ATOM     12  C   UNL A   1      32.561  19.020  23.741  1.00  0.00     0.004 C 
ENDBRANCH  10  11
BRANCH  10  13
ATOM     13  C   UNL A   1      34.738  21.742  25.129  1.00  0.00    -0.011 C 
ATOM     14  C   UNL A   1      35.702  20.556  24.975  1.00  0.00     0.008 C 
ATOM     15  C   UNL A   1      35.264  22.986  24.416  1.00  0.00     0.008 C 
ENDBRANCH  10  13
ENDBRANCH   8  10
BRANCH   8  16
ATOM     16  O   UNL A   1      31.099  21.446  25.916  1.00  0.00    -0.378 OA
ATOM     17  H   UNL A   1      30.970  20.702  25.308  1.00  0.00     0.212 HD
ENDBRANCH   8  16
ENDBRANCH   6   8
ENDBRANCH   5   6
ENDBRANCH   4   5
ENDBRANCH   3   4
ENDBRANCH   2   3
ENDBRANCH   1   2
BRANCH   1  18
ATOM     18  C   UNL A   1      30.225  29.593  22.912  1.00  0.00     0.188 C 
BRANCH  18  19
ATOM     19  O   UNL A   1      30.108  29.642  24.304  1.00  0.00    -0.376 OA
BRANCH  19  20
ATOM     20  C   UNL A   1      31.014  30.410  25.064  1.00  0.00     0.202 C 
BRANCH  20  21
ATOM     21  C   UNL A   1      32.334  29.886  25.667  1.00  0.00     0.261 C 
BRANCH  21  22
ATOM     22  O   UNL A   1      32.656  30.206  27.027  1.00  0.00    -0.460 OA
BRANCH  22  23
ATOM     23  C   UNL A   1      33.271  31.399  27.247  1.00  0.00     0.338 C 
ATOM     24  O   UNL A   1      32.775  32.505  27.203  1.00  0.00    -0.246 OA
BRANCH  23  25
ATOM     25  C   UNL A   1      34.625  31.116  27.783  1.00  0.00     0.060 A 
ATOM     26  C   UNL A   1      34.980  29.796  28.110  1.00  0.00     0.016 A 
ATOM     27  C   UNL A   1      35.541  32.151  27.955  1.00  0.00     0.016 A 
ATOM     28  C   UNL A   1      36.250  29.511  28.621  1.00  0.00     0.010 A 
ATOM     29  C   UNL A   1      36.798  31.870  28.492  1.00  0.00     0.010 A 
ATOM     30  C   UNL A   1      37.153  30.555  28.851  1.00  0.00    -0.014 A 
BRANCH  30  31
ATOM     31  C   UNL A   1      38.390  30.357  29.649  1.00  0.00     0.031 A 
ATOM     32  C   UNL A   1      39.410  29.385  29.131  1.00  0.00     0.074 A 
ATOM     33  C   UNL A   1      38.568  30.935  30.849  1.00  0.00     0.049 A 
ATOM     34  N   UNL A   1      40.435  28.842  29.737  1.00  0.00    -0.248 NA
ATOM     35  C   UNL A   1      39.232  28.953  27.737  1.00  0.00     0.031 C 
ATOM     36  C   UNL A   1      37.687  31.933  31.447  1.00  0.00     0.029 A 
ATOM     37  N   UNL A   1      39.538  30.722  31.800  1.00  0.00    -0.354 N 
ATOM     38  C   UNL A   1      41.000  27.976  28.811  1.00  0.00     0.074 A 
ATOM     39  C   UNL A   1      40.198  28.058  27.610  1.00  0.00     0.031 C 
ATOM     40  C   UNL A   1      38.129  32.211  32.685  1.00  0.00     0.029 A 
ATOM     41  C   UNL A   1      39.289  31.370  32.984  1.00  0.00     0.049 A 
ATOM     42  H   UNL A   1      40.333  30.160  31.646  1.00  0.00     0.167 HD
ATOM     43  C   UNL A   1      42.083  27.175  28.956  1.00  0.00     0.037 A 
ATOM     44  C   UNL A   1      39.892  31.255  34.186  1.00  0.00     0.037 A 
ATOM     45  C   UNL A   1      42.869  27.089  30.158  1.00  0.00     0.049 A 
ATOM     46  C   UNL A   1      41.051  30.303  34.357  1.00  0.00     0.074 A 
ATOM     47  C   UNL A   1      44.002  26.332  30.395  1.00  0.00     0.029 A 
ATOM     48  N   UNL A   1      42.589  27.768  31.335  1.00  0.00    -0.354 N 
ATOM     49  N   UNL A   1      41.597  29.496  33.479  1.00  0.00    -0.248 NA
ATOM     50  C   UNL A   1      41.676  30.245  35.687  1.00  0.00     0.031 C 
ATOM     51  C   UNL A   1      44.364  26.495  31.735  1.00  0.00     0.029 A 
ATOM     52  C   UNL A   1      43.507  27.419  32.313  1.00  0.00     0.049 A 
ATOM     53  H   UNL A   1      41.847  28.405  31.458  1.00  0.00     0.167 HD
ATOM     54  C   UNL A   1      42.646  28.862  34.137  1.00  0.00     0.074 A 
ATOM     55  C   UNL A   1      42.660  29.377  35.490  1.00  0.00     0.031 C 
ATOM     56  C   UNL A   1      43.522  27.944  33.658  1.00  0.00     0.037 A 
BRANCH  43  57
ATOM     57  C   UNL A   1      42.433  26.280  27.801  1.00  0.00     0.064 A 
ATOM     58  C   UNL A   1      43.400  26.635  26.847  1.00  0.00     0.173 A 
ATOM     59  C   UNL A   1      41.774  25.052  27.638  1.00  0.00     0.173 A 
ATOM     60  F   UNL A   1      44.052  27.803  26.947  1.00  0.00    -0.203 F 
ATOM     61  C   UNL A   1      43.655  25.818  25.748  1.00  0.00     0.198 A 
ATOM     62  C   UNL A   1      42.061  24.219  26.560  1.00  0.00     0.198 A 
ATOM     63  F   UNL A   1      40.845  24.659  28.522  1.00  0.00    -0.203 F 
ATOM     64  F   UNL A   1      44.526  26.215  24.809  1.00  0.00    -0.200 F 
ATOM     65  C   UNL A   1      42.990  24.610  25.607  1.00  0.00     0.200 A 
ATOM     66  F   UNL A   1      41.429  23.044  26.436  1.00  0.00    -0.200 F 
ATOM     67  F   UNL A   1      43.233  23.828  24.547  1.00  0.00    -0.200 F 
ENDBRANCH  43  57
BRANCH  44  68
ATOM     68  C   UNL A   1      39.377  32.041  35.337  1.00  0.00     0.064 A 
ATOM     69  C   UNL A   1      38.507  31.469  36.275  1.00  0.00     0.173 A 
ATOM     70  C   UNL A   1      39.762  33.376  35.536  1.00  0.00     0.173 A 
ATOM     71  F   UNL A   1      38.085  30.207  36.112  1.00  0.00    -0.203 F 
ATOM     72  C   UNL A   1      38.040  32.202  37.364  1.00  0.00     0.198 A 
ATOM     73  C   UNL A   1      39.319  34.098  36.642  1.00  0.00     0.198 A 
ATOM     74  F   UNL A   1      40.588  33.973  34.663  1.00  0.00    -0.203 F 
ATOM     75  F   UNL A   1      37.181  31.641  38.227  1.00  0.00    -0.200 F 
ATOM     76  C   UNL A   1      38.455  33.512  37.554  1.00  0.00     0.200 A 
ATOM     77  F   UNL A   1      39.732  35.360  36.825  1.00  0.00    -0.200 F 
ATOM     78  F   UNL A   1      38.019  34.210  38.611  1.00  0.00    -0.200 F 
ENDBRANCH  44  68
BRANCH  56  79
ATOM     79  C   UNL A   1      44.618  27.466  34.570  1.00  0.00     0.064 A 
ATOM     80  C   UNL A   1      45.803  28.191  34.759  1.00  0.00     0.173 A 
ATOM     81  C   UNL A   1      44.439  26.299  35.332  1.00  0.00     0.173 A 
ATOM     82  F   UNL A   1      46.032  29.306  34.049  1.00  0.00    -0.203 F 
ATOM     83  C   UNL A   1      46.770  27.763  35.666  1.00  0.00     0.198 A 
ATOM     84  C   UNL A   1      45.392  25.891  36.260  1.00  0.00     0.198 A 
ATOM     85  F   UNL A   1      43.321  25.569  35.196  1.00  0.00    -0.203 F 
ATOM     86  F   UNL A   1      47.909  28.454  35.806  1.00  0.00    -0.200 F 
ATOM     87  C   UNL A   1      46.559  26.619  36.424  1.00  0.00     0.200 A 
ATOM     88  F   UNL A   1      45.175  24.797  37.005  1.00  0.00    -0.200 F 
ATOM     89  F   UNL A   1      47.481  26.222  37.312  1.00  0.00    -0.200 F 
ENDBRANCH  56  79
ENDBRANCH  30  31
ENDBRANCH  23  25
ENDBRANCH  22  23
ENDBRANCH  21  22
ENDBRANCH  20  21
ENDBRANCH  19  20
ENDBRANCH  18  19
ENDBRANCH   1  18
TORSDOF 21
ENDMDL
MODEL 3
REMARK VINA RESULT:      -9.8      5.518      9.390
REMARK SMILES CC[C@H](C(C)C)[C@](C)(O)C(=O)OCCOCCOCCOC(=O)c1ccc(-c2c3nc(c(-c4c(F)c(F)c(F)c(F)c4F)c4ccc([nH]4)c(-c4c(F)c(F)c(F)c(F)c4F)c4nc(c(-c5c(F)c(F)c(F)c(F)c5F)c5ccc2[nH]5)C=C4)C=C3)cc1
REMARK SMILES IDX 16 1 15 2 14 3 13 4 12 5 10 6 11 7 7 8 8 9 3 10 2 11 1 12
REMARK SMILES IDX 4 13 5 14 6 15 9 16 17 18 18 19 19 20 20 21 21 22 22 23
REMARK SMILES IDX 23 24 24 25 25 26 86 27 26 28 85 29 27 30 28 31 29 32 79 33
REMARK SMILES IDX 30 34 84 35 78 36 80 37 31 38 83 39 77 40 76 41 32 43 64 44
REMARK SMILES IDX 44 45 63 46 45 47 48 48 62 49 81 50 46 51 47 52 61 54 82 55
REMARK SMILES IDX 49 56 33 57 34 58 42 59 35 60 36 61 40 62 43 63 37 64 38 65
REMARK SMILES IDX 41 66 39 67 65 68 66 69 74 70 67 71 68 72 72 73 75 74 69 75
REMARK SMILES IDX 70 76 73 77 71 78 50 79 51 80 59 81 52 82 53 83 57 84 60 85
REMARK SMILES IDX 54 86 55 87 58 88 56 89
REMARK H PARENT 9 17 80 42 48 53
REMARK Flexibility Score: inf
ROOT
ATOM      1  C   UNL A   1      40.028  21.725  26.870  1.00  0.00     0.188 C 
ENDROOT
BRANCH   1   2
ATOM      2  O   UNL A   1      39.980  23.142  26.801  1.00  0.00    -0.376 OA
BRANCH   2   3
ATOM      3  C   UNL A   1      38.714  23.760  26.587  1.00  0.00     0.202 C 
BRANCH   3   4
ATOM      4  C   UNL A   1      37.758  23.207  25.510  1.00  0.00     0.261 C 
BRANCH   4   5
ATOM      5  O   UNL A   1      36.513  22.687  26.018  1.00  0.00    -0.461 OA
BRANCH   5   6
ATOM      6  C   UNL A   1      35.373  23.330  25.635  1.00  0.00     0.338 C 
ATOM      7  O   UNL A   1      35.356  24.428  25.084  1.00  0.00    -0.249 OA
BRANCH   6   8
ATOM      8  C   UNL A   1      34.070  22.476  25.869  1.00  0.00     0.162 C 
ATOM      9  C   UNL A   1      34.310  21.794  27.231  1.00  0.00     0.055 C 
BRANCH   8  10
ATOM     10  C   UNL A   1      33.853  21.571  24.603  1.00  0.00     0.034 C 
BRANCH  10  11
ATOM     11  C   UNL A   1      32.832  22.135  23.549  1.00  0.00     0.004 C 
ATOM     12  C   UNL A   1      33.319  23.034  22.412  1.00  0.00     0.004 C 
ENDBRANCH  10  11
BRANCH  10  13
ATOM     13  C   UNL A   1      33.686  20.031  24.800  1.00  0.00    -0.011 C 
ATOM     14  C   UNL A   1      32.533  19.428  23.983  1.00  0.00     0.008 C 
ATOM     15  C   UNL A   1      34.966  19.211  24.647  1.00  0.00     0.008 C 
ENDBRANCH  10  13
ENDBRANCH   8  10
BRANCH   8  16
ATOM     16  O   UNL A   1      32.883  23.230  26.057  1.00  0.00    -0.378 OA
ATOM     17  H   UNL A   1      32.668  23.262  27.002  1.00  0.00     0.212 HD
ENDBRANCH   8  16
ENDBRANCH   6   8
ENDBRANCH   5   6
ENDBRANCH   4   5
ENDBRANCH   3   4
ENDBRANCH   2   3
ENDBRANCH   1   2
BRANCH   1  18
ATOM     18  C   UNL A   1      41.317  21.000  26.454  1.00  0.00     0.188 C 
BRANCH  18  19
ATOM     19  O   UNL A   1      41.756  19.980  27.305  1.00  0.00    -0.376 OA
BRANCH  19  20
ATOM     20  C   UNL A   1      42.401  18.844  26.775  1.00  0.00     0.202 C 
BRANCH  20  21
ATOM     21  C   UNL A   1      43.063  18.768  25.383  1.00  0.00     0.261 C 
BRANCH  21  22
ATOM     22  O   UNL A   1      44.474  18.533  25.294  1.00  0.00    -0.460 OA
BRANCH  22  23
ATOM     23  C   UNL A   1      45.156  19.243  24.355  1.00  0.00     0.338 C 
ATOM     24  O   UNL A   1      45.650  18.827  23.328  1.00  0.00    -0.246 OA
BRANCH  23  25
ATOM     25  C   UNL A   1      45.000  20.683  24.678  1.00  0.00     0.060 A 
ATOM     26  C   UNL A   1      44.620  21.584  23.669  1.00  0.00     0.016 A 
ATOM     27  C   UNL A   1      45.222  21.136  25.977  1.00  0.00     0.016 A 
ATOM     28  C   UNL A   1      44.473  22.945  23.955  1.00  0.00     0.010 A 
ATOM     29  C   UNL A   1      45.103  22.499  26.255  1.00  0.00     0.010 A 
ATOM     30  C   UNL A   1      44.752  23.415  25.244  1.00  0.00    -0.014 A 
BRANCH  30  31
ATOM     31  C   UNL A   1      44.894  24.865  25.533  1.00  0.00     0.031 A 
ATOM     32  C   UNL A   1      46.260  25.475  25.405  1.00  0.00     0.074 A 
ATOM     33  C   UNL A   1      43.872  25.606  25.994  1.00  0.00     0.049 A 
ATOM     34  N   UNL A   1      46.706  26.628  25.833  1.00  0.00    -0.248 NA
ATOM     35  C   UNL A   1      47.265  24.654  24.714  1.00  0.00     0.031 C 
ATOM     36  C   UNL A   1      42.489  25.158  26.117  1.00  0.00     0.029 A 
ATOM     37  N   UNL A   1      43.861  26.888  26.491  1.00  0.00    -0.354 N 
ATOM     38  C   UNL A   1      48.053  26.654  25.497  1.00  0.00     0.074 A 
ATOM     39  C   UNL A   1      48.351  25.399  24.842  1.00  0.00     0.031 C 
ATOM     40  C   UNL A   1      41.771  26.132  26.701  1.00  0.00     0.029 A 
ATOM     41  C   UNL A   1      42.656  27.247  27.041  1.00  0.00     0.049 A 
ATOM     42  H   UNL A   1      44.642  27.489  26.455  1.00  0.00     0.167 HD
ATOM     43  C   UNL A   1      48.961  27.633  25.727  1.00  0.00     0.037 A 
ATOM     44  C   UNL A   1      42.321  28.324  27.782  1.00  0.00     0.037 A 
ATOM     45  C   UNL A   1      48.661  28.874  26.390  1.00  0.00     0.049 A 
ATOM     46  C   UNL A   1      43.359  29.373  28.096  1.00  0.00     0.074 A 
ATOM     47  C   UNL A   1      49.503  29.942  26.643  1.00  0.00     0.029 A 
ATOM     48  N   UNL A   1      47.424  29.204  26.926  1.00  0.00    -0.354 N 
ATOM     49  N   UNL A   1      44.628  29.408  27.766  1.00  0.00    -0.248 NA
ATOM     50  C   UNL A   1      42.920  30.531  28.888  1.00  0.00     0.031 C 
ATOM     51  C   UNL A   1      48.797  30.886  27.396  1.00  0.00     0.029 A 
ATOM     52  C   UNL A   1      47.491  30.444  27.541  1.00  0.00     0.049 A 
ATOM     53  H   UNL A   1      46.618  28.640  26.877  1.00  0.00     0.167 HD
ATOM     54  C   UNL A   1      45.128  30.600  28.278  1.00  0.00     0.074 A 
ATOM     55  C   UNL A   1      44.026  31.262  28.944  1.00  0.00     0.031 C 
ATOM     56  C   UNL A   1      46.385  31.104  28.194  1.00  0.00     0.037 A 
BRANCH  43  57
ATOM     57  C   UNL A   1      50.380  27.362  25.313  1.00  0.00     0.064 A 
ATOM     58  C   UNL A   1      51.348  26.904  26.221  1.00  0.00     0.173 A 
ATOM     59  C   UNL A   1      50.780  27.583  23.987  1.00  0.00     0.173 A 
ATOM     60  F   UNL A   1      51.023  26.688  27.504  1.00  0.00    -0.203 F 
ATOM     61  C   UNL A   1      52.673  26.727  25.827  1.00  0.00     0.198 A 
ATOM     62  C   UNL A   1      52.096  27.366  23.586  1.00  0.00     0.198 A 
ATOM     63  F   UNL A   1      49.897  28.015  23.075  1.00  0.00    -0.203 F 
ATOM     64  F   UNL A   1      53.595  26.365  26.730  1.00  0.00    -0.200 F 
ATOM     65  C   UNL A   1      53.044  26.954  24.511  1.00  0.00     0.200 A 
ATOM     66  F   UNL A   1      52.449  27.570  22.311  1.00  0.00    -0.200 F 
ATOM     67  F   UNL A   1      54.319  26.789  24.135  1.00  0.00    -0.200 F 
ENDBRANCH  43  57
BRANCH  44  68
ATOM     68  C   UNL A   1      40.938  28.440  28.313  1.00  0.00     0.064 A 
ATOM     69  C   UNL A   1      39.893  28.930  27.519  1.00  0.00     0.173 A 
ATOM     70  C   UNL A   1      40.627  28.043  29.624  1.00  0.00     0.173 A 
ATOM     71  F   UNL A   1      40.145  29.351  26.271  1.00  0.00    -0.203 F 
ATOM     72  C   UNL A   1      38.593  29.020  28.012  1.00  0.00     0.198 A 
ATOM     73  C   UNL A   1      39.322  28.106  30.106  1.00  0.00     0.198 A 
ATOM     74  F   UNL A   1      41.592  27.574  30.429  1.00  0.00    -0.203 F 
ATOM     75  F   UNL A   1      37.620  29.525  27.242  1.00  0.00    -0.200 F 
ATOM     76  C   UNL A   1      38.306  28.598  29.302  1.00  0.00     0.200 A 
ATOM     77  F   UNL A   1      39.048  27.685  31.350  1.00  0.00    -0.200 F 
ATOM     78  F   UNL A   1      37.053  28.669  29.770  1.00  0.00    -0.200 F 
ENDBRANCH  44  68
BRANCH  56  79
ATOM     79  C   UNL A   1      46.645  32.464  28.781  1.00  0.00     0.064 A 
ATOM     80  C   UNL A   1      47.131  32.635  30.085  1.00  0.00     0.173 A 
ATOM     81  C   UNL A   1      46.482  33.613  27.989  1.00  0.00     0.173 A 
ATOM     82  F   UNL A   1      47.294  31.573  30.889  1.00  0.00    -0.203 F 
ATOM     83  C   UNL A   1      47.433  33.902  30.578  1.00  0.00     0.198 A 
ATOM     84  C   UNL A   1      46.816  34.875  28.473  1.00  0.00     0.198 A 
ATOM     85  F   UNL A   1      46.027  33.508  26.731  1.00  0.00    -0.203 F 
ATOM     86  F   UNL A   1      47.864  34.046  31.839  1.00  0.00    -0.200 F 
ATOM     87  C   UNL A   1      47.286  35.020  29.768  1.00  0.00     0.200 A 
ATOM     88  F   UNL A   1      46.691  35.949  27.681  1.00  0.00    -0.200 F 
ATOM     89  F   UNL A   1      47.598  36.236  30.237  1.00  0.00    -0.200 F 
ENDBRANCH  56  79
ENDBRANCH  30  31
ENDBRANCH  23  25
ENDBRANCH  22  23
ENDBRANCH  21  22
ENDBRANCH  20  21
ENDBRANCH  19  20
ENDBRANCH  18  19
ENDBRANCH   1  18
TORSDOF 21
ENDMDL
