MODEL 1
REMARK VINA RESULT:     -12.6      0.000      0.000
REMARK SMILES Cc1nn([C@H]2CCS(=O)(=O)C2)c(C)c1/C=C(\CC(=O)OCCOCCOCCOC(=O)c1ccc(-c2c3nc(c(-c4c(F)c(F)c(F)c(F)c4F)c4ccc([nH]4)c(-c4c(F)c(F)c(F)c(F)c4F)c4nc(c(-c5c(F)c(F)c(F)c(F)c5F)c5ccc2[nH]5)C=C4)C=C3)cc1)c1nc2ccccc2s1
REMARK SMILES IDX 24 1 23 2 22 3 21 4 20 5 18 6 19 7 17 8 16 9 15 10 14 11
REMARK SMILES IDX 1 12 2 13 3 14 4 15 12 16 13 17 5 18 6 19 11 20 7 21 8 22
REMARK SMILES IDX 9 23 10 24 95 25 96 26 103 27 97 28 102 29 98 30 101 31
REMARK SMILES IDX 99 32 100 33 25 34 26 35 27 36 28 37 29 38 30 39 31 40 32 41
REMARK SMILES IDX 33 42 94 43 34 44 93 45 35 46 36 47 37 48 87 49 38 50 92 51
REMARK SMILES IDX 86 52 88 53 39 54 91 55 85 56 84 57 40 59 72 60 52 61 71 62
REMARK SMILES IDX 53 63 56 64 70 65 89 66 54 67 55 68 69 70 90 71 57 72 41 73
REMARK SMILES IDX 42 74 50 75 43 76 44 77 48 78 51 79 45 80 46 81 49 82 47 83
REMARK SMILES IDX 73 84 74 85 82 86 75 87 76 88 80 89 83 90 77 91 78 92 81 93
REMARK SMILES IDX 79 94 58 95 59 96 67 97 60 98 61 99 65 100 68 101 62 102
REMARK SMILES IDX 63 103 66 104 64 105
REMARK H PARENT 88 58 56 69
REMARK Flexibility Score: inf
ROOT
ATOM      1  C   UNL A   1      40.358  20.779  26.493  1.00  0.00     0.188 C 
ENDROOT
BRANCH   1   2
ATOM      2  O   UNL A   1      39.071  20.676  25.913  1.00  0.00    -0.376 OA
BRANCH   2   3
ATOM      3  C   UNL A   1      38.319  21.860  25.655  1.00  0.00     0.202 C 
BRANCH   3   4
ATOM      4  C   UNL A   1      36.807  21.785  25.371  1.00  0.00     0.261 C 
BRANCH   4   5
ATOM      5  O   UNL A   1      36.259  22.946  24.686  1.00  0.00    -0.463 OA
BRANCH   5   6
ATOM      6  C   UNL A   1      35.291  23.585  25.361  1.00  0.00     0.310 C 
ATOM      7  O   UNL A   1      34.738  23.103  26.357  1.00  0.00    -0.252 OA
BRANCH   6   8
ATOM      8  C   UNL A   1      34.755  24.924  24.845  1.00  0.00     0.161 C 
BRANCH   8   9
ATOM      9  C   UNL A   1      33.583  25.920  24.738  1.00  0.00    -0.000 C 
ATOM     10  C   UNL A   1      32.390  25.406  24.296  1.00  0.00     0.019 C 
BRANCH  10  11
ATOM     11  C   UNL A   1      32.185  24.102  23.732  1.00  0.00     0.019 A 
ATOM     12  C   UNL A   1      32.934  24.504  21.267  1.00  0.00     0.069 C 
ATOM     13  C   UNL A   1      32.536  23.678  22.432  1.00  0.00     0.067 A 
ATOM     14  N   UNL A   1      32.527  22.341  22.353  1.00  0.00    -0.177 NA
ATOM     15  N   UNL A   1      32.150  21.936  23.584  1.00  0.00    -0.265 N 
ATOM     16  C   UNL A   1      31.666  22.973  24.350  1.00  0.00     0.043 A 
ATOM     17  C   UNL A   1      30.936  22.790  25.637  1.00  0.00     0.067 C 
BRANCH  15  18
ATOM     18  C   UNL A   1      32.277  20.537  23.958  1.00  0.00     0.123 C 
ATOM     19  C   UNL A   1      32.229  19.544  22.775  1.00  0.00     0.044 C 
ATOM     20  C   UNL A   1      33.600  20.184  24.647  1.00  0.00     0.164 C 
ATOM     21  C   UNL A   1      32.452  18.158  23.370  1.00  0.00     0.139 C 
ATOM     22  S   UNL A   1      33.540  18.410  24.760  1.00  0.00     0.152 S 
ATOM     23  O   UNL A   1      32.813  18.069  25.969  1.00  0.00    -0.229 OA
ATOM     24  O   UNL A   1      34.842  17.864  24.459  1.00  0.00    -0.229 OA
ENDBRANCH  15  18
ENDBRANCH  10  11
BRANCH   9  25
ATOM     25  C   UNL A   1      33.527  27.251  25.367  1.00  0.00     0.121 A 
ATOM     26  N   UNL A   1      34.453  27.797  26.138  1.00  0.00    -0.236 NA
ATOM     27  S   UNL A   1      32.117  28.294  25.222  1.00  0.00    -0.114 S 
ATOM     28  C   UNL A   1      34.066  29.050  26.626  1.00  0.00     0.082 A 
ATOM     29  C   UNL A   1      32.788  29.463  26.276  1.00  0.00     0.055 A 
ATOM     30  C   UNL A   1      34.835  29.925  27.421  1.00  0.00     0.030 A 
ATOM     31  C   UNL A   1      32.239  30.677  26.743  1.00  0.00     0.021 A 
ATOM     32  C   UNL A   1      34.329  31.152  27.861  1.00  0.00     0.002 A 
ATOM     33  C   UNL A   1      33.033  31.516  27.535  1.00  0.00     0.002 A 
ENDBRANCH   9  25
ENDBRANCH   8   9
ENDBRANCH   6   8
ENDBRANCH   5   6
ENDBRANCH   4   5
ENDBRANCH   3   4
ENDBRANCH   2   3
ENDBRANCH   1   2
BRANCH   1  34
ATOM     34  C   UNL A   1      40.724  22.047  27.279  1.00  0.00     0.188 C 
BRANCH  34  35
ATOM     35  O   UNL A   1      42.097  22.206  27.598  1.00  0.00    -0.376 OA
BRANCH  35  36
ATOM     36  C   UNL A   1      42.412  23.160  28.607  1.00  0.00     0.202 C 
BRANCH  36  37
ATOM     37  C   UNL A   1      42.472  24.610  28.097  1.00  0.00     0.261 C 
BRANCH  37  38
ATOM     38  O   UNL A   1      41.404  25.412  28.608  1.00  0.00    -0.460 OA
BRANCH  38  39
ATOM     39  C   UNL A   1      40.714  26.012  27.624  1.00  0.00     0.338 C 
ATOM     40  O   UNL A   1      41.064  26.178  26.466  1.00  0.00    -0.246 OA
BRANCH  39  41
ATOM     41  C   UNL A   1      39.382  26.407  28.118  1.00  0.00     0.060 A 
ATOM     42  C   UNL A   1      38.906  27.597  27.544  1.00  0.00     0.016 A 
ATOM     43  C   UNL A   1      39.293  26.174  29.483  1.00  0.00     0.016 A 
ATOM     44  C   UNL A   1      38.844  28.714  28.339  1.00  0.00     0.010 A 
ATOM     45  C   UNL A   1      39.162  27.277  30.290  1.00  0.00     0.010 A 
ATOM     46  C   UNL A   1      39.097  28.548  29.694  1.00  0.00    -0.014 A 
BRANCH  46  47
ATOM     47  C   UNL A   1      39.247  29.736  30.518  1.00  0.00     0.031 A 
ATOM     48  C   UNL A   1      40.615  30.320  30.510  1.00  0.00     0.074 A 
ATOM     49  C   UNL A   1      38.132  30.309  31.020  1.00  0.00     0.049 A 
ATOM     50  N   UNL A   1      41.240  30.957  31.447  1.00  0.00    -0.248 NA
ATOM     51  C   UNL A   1      41.427  30.097  29.295  1.00  0.00     0.031 C 
ATOM     52  C   UNL A   1      36.749  29.836  30.856  1.00  0.00     0.029 A 
ATOM     53  N   UNL A   1      37.968  31.537  31.587  1.00  0.00    -0.354 N 
ATOM     54  C   UNL A   1      42.442  31.368  30.873  1.00  0.00     0.074 A 
ATOM     55  C   UNL A   1      42.571  30.693  29.614  1.00  0.00     0.031 C 
ATOM     56  C   UNL A   1      35.908  30.875  31.024  1.00  0.00     0.029 A 
ATOM     57  C   UNL A   1      36.687  32.045  31.390  1.00  0.00     0.049 A 
ATOM     58  H   UNL A   1      38.675  32.012  32.081  1.00  0.00     0.167 HD
ATOM     59  C   UNL A   1      43.119  32.449  31.336  1.00  0.00     0.037 A 
ATOM     60  C   UNL A   1      36.322  33.350  31.375  1.00  0.00     0.037 A 
ATOM     61  C   UNL A   1      42.873  32.680  32.730  1.00  0.00     0.049 A 
ATOM     62  C   UNL A   1      37.427  34.138  31.972  1.00  0.00     0.074 A 
ATOM     63  C   UNL A   1      43.057  31.932  33.876  1.00  0.00     0.029 A 
ATOM     64  N   UNL A   1      42.076  33.733  33.098  1.00  0.00    -0.354 N 
ATOM     65  N   UNL A   1      37.751  34.130  33.233  1.00  0.00    -0.248 NA
ATOM     66  C   UNL A   1      38.443  34.667  31.071  1.00  0.00     0.031 C 
ATOM     67  C   UNL A   1      42.004  32.316  34.754  1.00  0.00     0.029 A 
ATOM     68  C   UNL A   1      41.248  33.285  34.095  1.00  0.00     0.049 A 
ATOM     69  H   UNL A   1      42.094  34.641  32.718  1.00  0.00     0.167 HD
ATOM     70  C   UNL A   1      39.132  34.252  33.241  1.00  0.00     0.074 A 
ATOM     71  C   UNL A   1      39.487  34.699  31.900  1.00  0.00     0.031 C 
ATOM     72  C   UNL A   1      39.877  33.703  34.242  1.00  0.00     0.037 A 
BRANCH  59  73
ATOM     73  C   UNL A   1      43.697  33.489  30.406  1.00  0.00     0.064 A 
ATOM     74  C   UNL A   1      42.841  34.174  29.525  1.00  0.00     0.173 A 
ATOM     75  C   UNL A   1      45.080  33.625  30.140  1.00  0.00     0.173 A 
ATOM     76  F   UNL A   1      41.510  34.091  29.666  1.00  0.00    -0.203 F 
ATOM     77  C   UNL A   1      43.331  34.877  28.422  1.00  0.00     0.198 A 
ATOM     78  C   UNL A   1      45.567  34.377  29.075  1.00  0.00     0.198 A 
ATOM     79  F   UNL A   1      46.013  32.952  30.826  1.00  0.00    -0.203 F 
ATOM     80  F   UNL A   1      42.474  35.401  27.536  1.00  0.00    -0.200 F 
ATOM     81  C   UNL A   1      44.692  34.975  28.195  1.00  0.00     0.200 A 
ATOM     82  F   UNL A   1      46.889  34.443  28.865  1.00  0.00    -0.200 F 
ATOM     83  F   UNL A   1      45.160  35.595  27.105  1.00  0.00    -0.200 F 
ENDBRANCH  59  73
BRANCH  60  84
ATOM     84  C   UNL A   1      35.227  33.988  30.603  1.00  0.00     0.064 A 
ATOM     85  C   UNL A   1      34.157  34.615  31.260  1.00  0.00     0.173 A 
ATOM     86  C   UNL A   1      35.315  34.202  29.212  1.00  0.00     0.173 A 
ATOM     87  F   UNL A   1      34.031  34.513  32.590  1.00  0.00    -0.203 F 
ATOM     88  C   UNL A   1      33.234  35.407  30.569  1.00  0.00     0.198 A 
ATOM     89  C   UNL A   1      34.381  34.973  28.520  1.00  0.00     0.198 A 
ATOM     90  F   UNL A   1      36.358  33.743  28.505  1.00  0.00    -0.203 F 
ATOM     91  F   UNL A   1      32.261  36.037  31.241  1.00  0.00    -0.200 F 
ATOM     92  C   UNL A   1      33.347  35.586  29.200  1.00  0.00     0.200 A 
ATOM     93  F   UNL A   1      34.525  35.165  27.201  1.00  0.00    -0.200 F 
ATOM     94  F   UNL A   1      32.488  36.379  28.544  1.00  0.00    -0.200 F 
ENDBRANCH  60  84
BRANCH  72  95
ATOM     95  C   UNL A   1      39.154  33.240  35.472  1.00  0.00     0.064 A 
ATOM     96  C   UNL A   1      38.683  31.928  35.648  1.00  0.00     0.173 A 
ATOM     97  C   UNL A   1      39.055  34.116  36.560  1.00  0.00     0.173 A 
ATOM     98  F   UNL A   1      38.845  31.004  34.693  1.00  0.00    -0.203 F 
ATOM     99  C   UNL A   1      38.089  31.530  36.843  1.00  0.00     0.198 A 
ATOM    100  C   UNL A   1      38.496  33.704  37.767  1.00  0.00     0.198 A 
ATOM    101  F   UNL A   1      39.547  35.362  36.469  1.00  0.00    -0.203 F 
ATOM    102  F   UNL A   1      37.634  30.276  36.982  1.00  0.00    -0.200 F 
ATOM    103  C   UNL A   1      38.001  32.416  37.904  1.00  0.00     0.200 A 
ATOM    104  F   UNL A   1      38.461  34.548  38.807  1.00  0.00    -0.200 F 
ATOM    105  F   UNL A   1      37.468  32.021  39.067  1.00  0.00    -0.200 F 
ENDBRANCH  72  95
ENDBRANCH  46  47
ENDBRANCH  39  41
ENDBRANCH  38  39
ENDBRANCH  37  38
ENDBRANCH  36  37
ENDBRANCH  35  36
ENDBRANCH  34  35
ENDBRANCH   1  34
TORSDOF 21
ENDMDL
MODEL 2
REMARK VINA RESULT:     -11.8      1.619      4.826
REMARK SMILES Cc1nn([C@H]2CCS(=O)(=O)C2)c(C)c1/C=C(\CC(=O)OCCOCCOCCOC(=O)c1ccc(-c2c3nc(c(-c4c(F)c(F)c(F)c(F)c4F)c4ccc([nH]4)c(-c4c(F)c(F)c(F)c(F)c4F)c4nc(c(-c5c(F)c(F)c(F)c(F)c5F)c5ccc2[nH]5)C=C4)C=C3)cc1)c1nc2ccccc2s1
REMARK SMILES IDX 24 1 23 2 22 3 21 4 20 5 18 6 19 7 17 8 16 9 15 10 14 11
REMARK SMILES IDX 1 12 2 13 3 14 4 15 12 16 13 17 5 18 6 19 11 20 7 21 8 22
REMARK SMILES IDX 9 23 10 24 95 25 96 26 103 27 97 28 102 29 98 30 101 31
REMARK SMILES IDX 99 32 100 33 25 34 26 35 27 36 28 37 29 38 30 39 31 40 32 41
REMARK SMILES IDX 33 42 94 43 34 44 93 45 35 46 36 47 37 48 87 49 38 50 92 51
REMARK SMILES IDX 86 52 88 53 39 54 91 55 85 56 84 57 40 59 72 60 52 61 71 62
REMARK SMILES IDX 53 63 56 64 70 65 89 66 54 67 55 68 69 70 90 71 57 72 41 73
REMARK SMILES IDX 42 74 50 75 43 76 44 77 48 78 51 79 45 80 46 81 49 82 47 83
REMARK SMILES IDX 73 84 74 85 82 86 75 87 76 88 80 89 83 90 77 91 78 92 81 93
REMARK SMILES IDX 79 94 58 95 59 96 67 97 60 98 61 99 65 100 68 101 62 102
REMARK SMILES IDX 63 103 66 104 64 105
REMARK H PARENT 88 58 56 69
REMARK Flexibility Score: inf
ROOT
ATOM      1  C   UNL A   1      41.397  21.540  27.973  1.00  0.00     0.188 C 
ENDROOT
BRANCH   1   2
ATOM      2  O   UNL A   1      41.272  20.373  27.181  1.00  0.00    -0.376 OA
BRANCH   2   3
ATOM      3  C   UNL A   1      40.223  20.286  26.218  1.00  0.00     0.202 C 
BRANCH   3   4
ATOM      4  C   UNL A   1      39.375  21.522  25.864  1.00  0.00     0.261 C 
BRANCH   4   5
ATOM      5  O   UNL A   1      37.950  21.263  25.730  1.00  0.00    -0.463 OA
BRANCH   5   6
ATOM      6  C   UNL A   1      37.271  22.209  25.062  1.00  0.00     0.310 C 
ATOM      7  O   UNL A   1      37.642  23.388  25.011  1.00  0.00    -0.252 OA
BRANCH   6   8
ATOM      8  C   UNL A   1      35.928  21.870  24.409  1.00  0.00     0.161 C 
BRANCH   8   9
ATOM      9  C   UNL A   1      34.500  21.305  24.550  1.00  0.00    -0.000 C 
ATOM     10  C   UNL A   1      33.483  22.116  24.113  1.00  0.00     0.019 C 
BRANCH  10  11
ATOM     11  C   UNL A   1      33.599  23.497  23.740  1.00  0.00     0.019 A 
ATOM     12  C   UNL A   1      33.197  23.354  21.168  1.00  0.00     0.069 C 
ATOM     13  C   UNL A   1      33.356  24.053  22.466  1.00  0.00     0.067 A 
ATOM     14  N   UNL A   1      33.217  25.382  22.550  1.00  0.00    -0.177 NA
ATOM     15  N   UNL A   1      33.397  25.656  23.859  1.00  0.00    -0.265 N 
ATOM     16  C   UNL A   1      33.906  24.580  24.552  1.00  0.00     0.043 A 
ATOM     17  C   UNL A   1      34.454  24.663  25.936  1.00  0.00     0.067 C 
BRANCH  15  18
ATOM     18  C   UNL A   1      33.064  26.972  24.378  1.00  0.00     0.123 C 
ATOM     19  C   UNL A   1      33.598  28.153  23.537  1.00  0.00     0.044 C 
ATOM     20  C   UNL A   1      31.560  27.260  24.456  1.00  0.00     0.164 C 
ATOM     21  C   UNL A   1      33.081  29.423  24.204  1.00  0.00     0.139 C 
ATOM     22  S   UNL A   1      31.496  28.982  24.895  1.00  0.00     0.152 S 
ATOM     23  O   UNL A   1      31.594  29.072  26.340  1.00  0.00    -0.229 OA
ATOM     24  O   UNL A   1      30.446  29.631  24.147  1.00  0.00    -0.229 OA
ENDBRANCH  15  18
ENDBRANCH  10  11
BRANCH   9  25
ATOM     25  C   UNL A   1      34.155  19.892  24.784  1.00  0.00     0.121 A 
ATOM     26  N   UNL A   1      34.952  18.850  24.622  1.00  0.00    -0.236 NA
ATOM     27  S   UNL A   1      32.535  19.394  25.257  1.00  0.00    -0.114 S 
ATOM     28  C   UNL A   1      34.298  17.638  24.871  1.00  0.00     0.082 A 
ATOM     29  C   UNL A   1      32.948  17.735  25.175  1.00  0.00     0.055 A 
ATOM     30  C   UNL A   1      34.867  16.347  24.849  1.00  0.00     0.030 A 
ATOM     31  C   UNL A   1      32.146  16.594  25.393  1.00  0.00     0.021 A 
ATOM     32  C   UNL A   1      34.102  15.205  25.102  1.00  0.00     0.002 A 
ATOM     33  C   UNL A   1      32.747  15.329  25.358  1.00  0.00     0.002 A 
ENDBRANCH   9  25
ENDBRANCH   8   9
ENDBRANCH   6   8
ENDBRANCH   5   6
ENDBRANCH   4   5
ENDBRANCH   3   4
ENDBRANCH   2   3
ENDBRANCH   1   2
BRANCH   1  34
ATOM     34  C   UNL A   1      42.660  22.404  27.836  1.00  0.00     0.188 C 
BRANCH  34  35
ATOM     35  O   UNL A   1      43.173  22.552  26.523  1.00  0.00    -0.376 OA
BRANCH  35  36
ATOM     36  C   UNL A   1      42.505  23.480  25.676  1.00  0.00     0.202 C 
BRANCH  36  37
ATOM     37  C   UNL A   1      42.376  24.891  26.275  1.00  0.00     0.261 C 
BRANCH  37  38
ATOM     38  O   UNL A   1      41.036  25.195  26.672  1.00  0.00    -0.460 OA
BRANCH  38  39
ATOM     39  C   UNL A   1      40.990  25.751  27.893  1.00  0.00     0.338 C 
ATOM     40  O   UNL A   1      41.903  25.854  28.698  1.00  0.00    -0.246 OA
BRANCH  39  41
ATOM     41  C   UNL A   1      39.649  26.315  28.133  1.00  0.00     0.060 A 
ATOM     42  C   UNL A   1      39.426  27.527  27.460  1.00  0.00     0.016 A 
ATOM     43  C   UNL A   1      39.295  26.150  29.465  1.00  0.00     0.016 A 
ATOM     44  C   UNL A   1      39.360  28.676  28.209  1.00  0.00     0.010 A 
ATOM     45  C   UNL A   1      39.157  27.294  30.214  1.00  0.00     0.010 A 
ATOM     46  C   UNL A   1      39.350  28.537  29.590  1.00  0.00    -0.014 A 
BRANCH  46  47
ATOM     47  C   UNL A   1      39.494  29.734  30.403  1.00  0.00     0.031 A 
ATOM     48  C   UNL A   1      40.846  30.351  30.352  1.00  0.00     0.074 A 
ATOM     49  C   UNL A   1      38.381  30.282  30.934  1.00  0.00     0.049 A 
ATOM     50  N   UNL A   1      41.483  31.008  31.267  1.00  0.00    -0.248 NA
ATOM     51  C   UNL A   1      41.629  30.142  29.115  1.00  0.00     0.031 C 
ATOM     52  C   UNL A   1      37.006  29.774  30.813  1.00  0.00     0.029 A 
ATOM     53  N   UNL A   1      38.203  31.509  31.499  1.00  0.00    -0.354 N 
ATOM     54  C   UNL A   1      42.658  31.445  30.657  1.00  0.00     0.074 A 
ATOM     55  C   UNL A   1      42.766  30.766  29.398  1.00  0.00     0.031 C 
ATOM     56  C   UNL A   1      36.144  30.793  31.001  1.00  0.00     0.029 A 
ATOM     57  C   UNL A   1      36.904  31.984  31.338  1.00  0.00     0.049 A 
ATOM     58  H   UNL A   1      38.912  32.004  31.971  1.00  0.00     0.167 HD
ATOM     59  C   UNL A   1      43.320  32.546  31.094  1.00  0.00     0.037 A 
ATOM     60  C   UNL A   1      36.508  33.280  31.327  1.00  0.00     0.037 A 
ATOM     61  C   UNL A   1      43.110  32.779  32.493  1.00  0.00     0.049 A 
ATOM     62  C   UNL A   1      37.610  34.098  31.887  1.00  0.00     0.074 A 
ATOM     63  C   UNL A   1      43.345  32.042  33.638  1.00  0.00     0.029 A 
ATOM     64  N   UNL A   1      42.297  33.813  32.879  1.00  0.00    -0.354 N 
ATOM     65  N   UNL A   1      37.970  34.106  33.138  1.00  0.00    -0.248 NA
ATOM     66  C   UNL A   1      38.585  34.647  30.954  1.00  0.00     0.031 C 
ATOM     67  C   UNL A   1      42.308  32.405  34.543  1.00  0.00     0.029 A 
ATOM     68  C   UNL A   1      41.510  33.351  33.902  1.00  0.00     0.049 A 
ATOM     69  H   UNL A   1      42.282  34.719  32.494  1.00  0.00     0.167 HD
ATOM     70  C   UNL A   1      39.347  34.262  33.106  1.00  0.00     0.074 A 
ATOM     71  C   UNL A   1      39.652  34.709  31.753  1.00  0.00     0.031 C 
ATOM     72  C   UNL A   1      40.134  33.737  34.087  1.00  0.00     0.037 A 
BRANCH  59  73
ATOM     73  C   UNL A   1      43.845  33.594  30.143  1.00  0.00     0.064 A 
ATOM     74  C   UNL A   1      42.948  34.250  29.281  1.00  0.00     0.173 A 
ATOM     75  C   UNL A   1      45.217  33.765  29.839  1.00  0.00     0.173 A 
ATOM     76  F   UNL A   1      41.624  34.133  29.458  1.00  0.00    -0.203 F 
ATOM     77  C   UNL A   1      43.389  34.958  28.160  1.00  0.00     0.198 A 
ATOM     78  C   UNL A   1      45.654  34.522  28.756  1.00  0.00     0.198 A 
ATOM     79  F   UNL A   1      46.185  33.122  30.503  1.00  0.00    -0.203 F 
ATOM     80  F   UNL A   1      42.495  35.453  27.294  1.00  0.00    -0.200 F 
ATOM     81  C   UNL A   1      44.741  35.090  27.896  1.00  0.00     0.200 A 
ATOM     82  F   UNL A   1      46.969  34.622  28.510  1.00  0.00    -0.200 F 
ATOM     83  F   UNL A   1      45.162  35.715  26.790  1.00  0.00    -0.200 F 
ENDBRANCH  59  73
BRANCH  60  84
ATOM     84  C   UNL A   1      35.375  33.887  30.583  1.00  0.00     0.064 A 
ATOM     85  C   UNL A   1      34.334  34.535  31.266  1.00  0.00     0.173 A 
ATOM     86  C   UNL A   1      35.397  34.049  29.183  1.00  0.00     0.173 A 
ATOM     87  F   UNL A   1      34.270  34.481  32.604  1.00  0.00    -0.203 F 
ATOM     88  C   UNL A   1      33.376  35.298  30.591  1.00  0.00     0.198 A 
ATOM     89  C   UNL A   1      34.429  34.793  28.508  1.00  0.00     0.198 A 
ATOM     90  F   UNL A   1      36.409  33.567  28.445  1.00  0.00    -0.203 F 
ATOM     91  F   UNL A   1      32.433  35.950  31.284  1.00  0.00    -0.200 F 
ATOM     92  C   UNL A   1      33.425  35.427  29.213  1.00  0.00     0.200 A 
ATOM     93  F   UNL A   1      34.510  34.936  27.177  1.00  0.00    -0.200 F 
ATOM     94  F   UNL A   1      32.533  36.194  28.569  1.00  0.00    -0.200 F 
ENDBRANCH  60  84
BRANCH  72  95
ATOM     95  C   UNL A   1      39.459  33.263  35.340  1.00  0.00     0.064 A 
ATOM     96  C   UNL A   1      39.143  34.106  36.419  1.00  0.00     0.173 A 
ATOM     97  C   UNL A   1      38.996  31.943  35.393  1.00  0.00     0.173 A 
ATOM     98  F   UNL A   1      39.454  35.408  36.389  1.00  0.00    -0.203 F 
ATOM     99  C   UNL A   1      38.443  33.631  37.524  1.00  0.00     0.198 A 
ATOM    100  C   UNL A   1      38.263  31.480  36.482  1.00  0.00     0.198 A 
ATOM    101  F   UNL A   1      39.214  31.111  34.362  1.00  0.00    -0.203 F 
ATOM    102  F   UNL A   1      38.167  34.452  38.549  1.00  0.00    -0.200 F 
ATOM    103  C   UNL A   1      37.998  32.320  37.553  1.00  0.00     0.200 A 
ATOM    104  F   UNL A   1      37.789  30.227  36.482  1.00  0.00    -0.200 F 
ATOM    105  F   UNL A   1      37.289  31.874  38.598  1.00  0.00    -0.200 F 
ENDBRANCH  72  95
ENDBRANCH  46  47
ENDBRANCH  39  41
ENDBRANCH  38  39
ENDBRANCH  37  38
ENDBRANCH  36  37
ENDBRANCH  35  36
ENDBRANCH  34  35
ENDBRANCH   1  34
TORSDOF 21
ENDMDL
MODEL 3
REMARK VINA RESULT:     -10.9      2.589      5.847
REMARK SMILES Cc1nn([C@H]2CCS(=O)(=O)C2)c(C)c1/C=C(\CC(=O)OCCOCCOCCOC(=O)c1ccc(-c2c3nc(c(-c4c(F)c(F)c(F)c(F)c4F)c4ccc([nH]4)c(-c4c(F)c(F)c(F)c(F)c4F)c4nc(c(-c5c(F)c(F)c(F)c(F)c5F)c5ccc2[nH]5)C=C4)C=C3)cc1)c1nc2ccccc2s1
REMARK SMILES IDX 24 1 23 2 22 3 21 4 20 5 18 6 19 7 17 8 16 9 15 10 14 11
REMARK SMILES IDX 1 12 2 13 3 14 4 15 12 16 13 17 5 18 6 19 11 20 7 21 8 22
REMARK SMILES IDX 9 23 10 24 95 25 96 26 103 27 97 28 102 29 98 30 101 31
REMARK SMILES IDX 99 32 100 33 25 34 26 35 27 36 28 37 29 38 30 39 31 40 32 41
REMARK SMILES IDX 33 42 94 43 34 44 93 45 35 46 36 47 37 48 87 49 38 50 92 51
REMARK SMILES IDX 86 52 88 53 39 54 91 55 85 56 84 57 40 59 72 60 52 61 71 62
REMARK SMILES IDX 53 63 56 64 70 65 89 66 54 67 55 68 69 70 90 71 57 72 41 73
REMARK SMILES IDX 42 74 50 75 43 76 44 77 48 78 51 79 45 80 46 81 49 82 47 83
REMARK SMILES IDX 73 84 74 85 82 86 75 87 76 88 80 89 83 90 77 91 78 92 81 93
REMARK SMILES IDX 79 94 58 95 59 96 67 97 60 98 61 99 65 100 68 101 62 102
REMARK SMILES IDX 63 103 66 104 64 105
REMARK H PARENT 88 58 56 69
REMARK Flexibility Score: inf
ROOT
ATOM      1  C   UNL A   1      40.192  22.477  27.154  1.00  0.00     0.188 C 
ENDROOT
BRANCH   1   2
ATOM      2  O   UNL A   1      39.064  23.203  26.703  1.00  0.00    -0.376 OA
BRANCH   2   3
ATOM      3  C   UNL A   1      38.156  22.595  25.786  1.00  0.00     0.202 C 
BRANCH   3   4
ATOM      4  C   UNL A   1      36.923  23.362  25.274  1.00  0.00     0.261 C 
BRANCH   4   5
ATOM      5  O   UNL A   1      35.941  23.688  26.297  1.00  0.00    -0.463 OA
BRANCH   5   6
ATOM      6  C   UNL A   1      34.697  23.886  25.833  1.00  0.00     0.310 C 
ATOM      7  O   UNL A   1      34.362  24.915  25.234  1.00  0.00    -0.252 OA
BRANCH   6   8
ATOM      8  C   UNL A   1      33.599  22.860  26.126  1.00  0.00     0.161 C 
BRANCH   8   9
ATOM      9  C   UNL A   1      32.638  21.773  25.603  1.00  0.00    -0.000 C 
ATOM     10  C   UNL A   1      31.458  22.218  25.064  1.00  0.00     0.019 C 
BRANCH  10  11
ATOM     11  C   UNL A   1      30.945  23.557  25.132  1.00  0.00     0.019 A 
ATOM     12  C   UNL A   1      29.477  23.418  27.283  1.00  0.00     0.069 C 
ATOM     13  C   UNL A   1      30.170  24.114  26.172  1.00  0.00     0.067 A 
ATOM     14  N   UNL A   1      30.160  25.451  26.088  1.00  0.00    -0.177 NA
ATOM     15  N   UNL A   1      30.900  25.724  24.993  1.00  0.00    -0.265 N 
ATOM     16  C   UNL A   1      31.149  24.599  24.238  1.00  0.00     0.043 A 
ATOM     17  C   UNL A   1      31.701  24.629  22.854  1.00  0.00     0.067 C 
BRANCH  15  18
ATOM     18  C   UNL A   1      31.329  27.087  24.728  1.00  0.00     0.123 C 
ATOM     19  C   UNL A   1      30.250  27.995  24.097  1.00  0.00     0.044 C 
ATOM     20  C   UNL A   1      31.750  27.871  25.976  1.00  0.00     0.164 C 
ATOM     21  C   UNL A   1      30.874  29.380  23.973  1.00  0.00     0.139 C 
ATOM     22  S   UNL A   1      31.988  29.522  25.358  1.00  0.00     0.152 S 
ATOM     23  O   UNL A   1      33.342  29.608  24.842  1.00  0.00    -0.229 OA
ATOM     24  O   UNL A   1      31.459  30.472  26.308  1.00  0.00    -0.229 OA
ENDBRANCH  15  18
ENDBRANCH  10  11
BRANCH   9  25
ATOM     25  C   UNL A   1      32.997  20.372  25.321  1.00  0.00     0.121 A 
ATOM     26  N   UNL A   1      32.240  19.308  25.530  1.00  0.00    -0.236 NA
ATOM     27  S   UNL A   1      34.586  19.920  24.713  1.00  0.00    -0.114 S 
ATOM     28  C   UNL A   1      32.900  18.116  25.211  1.00  0.00     0.082 A 
ATOM     29  C   UNL A   1      34.219  18.250  24.802  1.00  0.00     0.055 A 
ATOM     30  C   UNL A   1      32.365  16.812  25.259  1.00  0.00     0.030 A 
ATOM     31  C   UNL A   1      35.028  17.132  24.504  1.00  0.00     0.021 A 
ATOM     32  C   UNL A   1      33.134  15.692  24.928  1.00  0.00     0.002 A 
ATOM     33  C   UNL A   1      34.462  15.853  24.568  1.00  0.00     0.002 A 
ENDBRANCH   9  25
ENDBRANCH   8   9
ENDBRANCH   6   8
ENDBRANCH   5   6
ENDBRANCH   4   5
ENDBRANCH   3   4
ENDBRANCH   2   3
ENDBRANCH   1   2
BRANCH   1  34
ATOM     34  C   UNL A   1      41.062  21.736  26.127  1.00  0.00     0.188 C 
BRANCH  34  35
ATOM     35  O   UNL A   1      42.462  21.927  26.245  1.00  0.00    -0.376 OA
BRANCH  35  36
ATOM     36  C   UNL A   1      43.125  22.508  25.127  1.00  0.00     0.202 C 
BRANCH  36  37
ATOM     37  C   UNL A   1      43.118  24.046  25.128  1.00  0.00     0.261 C 
BRANCH  37  38
ATOM     38  O   UNL A   1      43.140  24.592  26.450  1.00  0.00    -0.460 OA
BRANCH  38  39
ATOM     39  C   UNL A   1      42.391  25.702  26.545  1.00  0.00     0.338 C 
ATOM     40  O   UNL A   1      41.252  25.796  26.974  1.00  0.00    -0.246 OA
BRANCH  39  41
ATOM     41  C   UNL A   1      43.177  26.871  26.108  1.00  0.00     0.060 A 
ATOM     42  C   UNL A   1      44.267  27.155  26.946  1.00  0.00     0.016 A 
ATOM     43  C   UNL A   1      42.328  27.873  25.657  1.00  0.00     0.016 A 
ATOM     44  C   UNL A   1      44.198  28.279  27.731  1.00  0.00     0.010 A 
ATOM     45  C   UNL A   1      42.298  29.033  26.392  1.00  0.00     0.010 A 
ATOM     46  C   UNL A   1      43.132  29.143  27.517  1.00  0.00    -0.014 A 
BRANCH  46  47
ATOM     47  C   UNL A   1      42.919  30.222  28.467  1.00  0.00     0.031 A 
ATOM     48  C   UNL A   1      43.740  31.435  28.212  1.00  0.00     0.074 A 
ATOM     49  C   UNL A   1      41.884  30.119  29.327  1.00  0.00     0.049 A 
ATOM     50  N   UNL A   1      44.221  32.292  29.055  1.00  0.00    -0.248 NA
ATOM     51  C   UNL A   1      44.137  31.689  26.811  1.00  0.00     0.031 C 
ATOM     52  C   UNL A   1      40.943  28.994  29.442  1.00  0.00     0.029 A 
ATOM     53  N   UNL A   1      41.317  31.071  30.121  1.00  0.00    -0.354 N 
ATOM     54  C   UNL A   1      44.819  33.280  28.274  1.00  0.00     0.074 A 
ATOM     55  C   UNL A   1      44.871  32.790  26.926  1.00  0.00     0.031 C 
ATOM     56  C   UNL A   1      39.797  29.436  29.996  1.00  0.00     0.029 A 
ATOM     57  C   UNL A   1      39.964  30.835  30.348  1.00  0.00     0.049 A 
ATOM     58  H   UNL A   1      41.809  31.838  30.493  1.00  0.00     0.167 HD
ATOM     59  C   UNL A   1      44.976  34.549  28.728  1.00  0.00     0.037 A 
ATOM     60  C   UNL A   1      39.018  31.756  30.652  1.00  0.00     0.037 A 
ATOM     61  C   UNL A   1      45.091  34.597  30.157  1.00  0.00     0.049 A 
ATOM     62  C   UNL A   1      39.710  32.998  31.074  1.00  0.00     0.074 A 
ATOM     63  C   UNL A   1      45.963  34.039  31.072  1.00  0.00     0.029 A 
ATOM     64  N   UNL A   1      44.035  35.070  30.892  1.00  0.00    -0.354 N 
ATOM     65  N   UNL A   1      40.364  33.142  32.190  1.00  0.00    -0.248 NA
ATOM     66  C   UNL A   1      39.997  33.993  30.050  1.00  0.00     0.031 C 
ATOM     67  C   UNL A   1      45.186  33.802  32.241  1.00  0.00     0.029 A 
ATOM     68  C   UNL A   1      43.890  34.241  31.974  1.00  0.00     0.049 A 
ATOM     69  H   UNL A   1      43.485  35.859  30.683  1.00  0.00     0.167 HD
ATOM     70  C   UNL A   1      41.429  33.969  31.868  1.00  0.00     0.074 A 
ATOM     71  C   UNL A   1      41.085  34.555  30.579  1.00  0.00     0.031 C 
ATOM     72  C   UNL A   1      42.614  33.877  32.536  1.00  0.00     0.037 A 
BRANCH  59  73
ATOM     73  C   UNL A   1      44.646  35.750  27.876  1.00  0.00     0.064 A 
ATOM     74  C   UNL A   1      45.613  36.757  27.704  1.00  0.00     0.173 A 
ATOM     75  C   UNL A   1      43.333  36.092  27.472  1.00  0.00     0.173 A 
ATOM     76  F   UNL A   1      46.884  36.552  28.080  1.00  0.00    -0.203 F 
ATOM     77  C   UNL A   1      45.276  38.029  27.235  1.00  0.00     0.198 A 
ATOM     78  C   UNL A   1      43.013  37.341  26.948  1.00  0.00     0.198 A 
ATOM     79  F   UNL A   1      42.287  35.279  27.668  1.00  0.00    -0.203 F 
ATOM     80  F   UNL A   1      46.203  38.995  27.213  1.00  0.00    -0.200 F 
ATOM     81  C   UNL A   1      43.977  38.321  26.861  1.00  0.00     0.200 A 
ATOM     82  F   UNL A   1      41.744  37.607  26.609  1.00  0.00    -0.200 F 
ATOM     83  F   UNL A   1      43.640  39.556  26.471  1.00  0.00    -0.200 F 
ENDBRANCH  59  73
BRANCH  60  84
ATOM     84  C   UNL A   1      37.574  31.738  30.306  1.00  0.00     0.064 A 
ATOM     85  C   UNL A   1      36.610  32.165  31.232  1.00  0.00     0.173 A 
ATOM     86  C   UNL A   1      37.121  31.521  28.989  1.00  0.00     0.173 A 
ATOM     87  F   UNL A   1      36.965  32.451  32.492  1.00  0.00    -0.203 F 
ATOM     88  C   UNL A   1      35.275  32.364  30.862  1.00  0.00     0.198 A 
ATOM     89  C   UNL A   1      35.786  31.698  28.627  1.00  0.00     0.198 A 
ATOM     90  F   UNL A   1      37.977  31.219  28.002  1.00  0.00    -0.203 F 
ATOM     91  F   UNL A   1      34.397  32.830  31.760  1.00  0.00    -0.200 F 
ATOM     92  C   UNL A   1      34.865  32.131  29.560  1.00  0.00     0.200 A 
ATOM     93  F   UNL A   1      35.411  31.502  27.354  1.00  0.00    -0.200 F 
ATOM     94  F   UNL A   1      33.595  32.363  29.196  1.00  0.00    -0.200 F 
ENDBRANCH  60  84
BRANCH  72  95
ATOM     95  C   UNL A   1      42.633  33.086  33.810  1.00  0.00     0.064 A 
ATOM     96  C   UNL A   1      42.307  33.628  35.065  1.00  0.00     0.173 A 
ATOM     97  C   UNL A   1      42.857  31.706  33.738  1.00  0.00     0.173 A 
ATOM     98  F   UNL A   1      41.970  34.917  35.193  1.00  0.00    -0.203 F 
ATOM     99  C   UNL A   1      42.263  32.829  36.205  1.00  0.00     0.198 A 
ATOM    100  C   UNL A   1      42.775  30.904  34.872  1.00  0.00     0.198 A 
ATOM    101  F   UNL A   1      43.110  31.126  32.554  1.00  0.00    -0.203 F 
ATOM    102  F   UNL A   1      41.963  33.372  37.394  1.00  0.00    -0.200 F 
ATOM    103  C   UNL A   1      42.491  31.467  36.107  1.00  0.00     0.200 A 
ATOM    104  F   UNL A   1      42.944  29.579  34.765  1.00  0.00    -0.200 F 
ATOM    105  F   UNL A   1      42.407  30.692  37.196  1.00  0.00    -0.200 F 
ENDBRANCH  72  95
ENDBRANCH  46  47
ENDBRANCH  39  41
ENDBRANCH  38  39
ENDBRANCH  37  38
ENDBRANCH  36  37
ENDBRANCH  35  36
ENDBRANCH  34  35
ENDBRANCH   1  34
TORSDOF 21
ENDMDL
