MODEL 1
REMARK VINA RESULT:     -10.7      0.000      0.000
REMARK SMILES CC[C@](C)(NC(=O)N[C@@H]1C[C@@H]1C)C(=O)OCCOCCOCCOC(=O)c1ccc(-c2c3nc(c(-c4c(F)c(F)c(F)c(F)c4F)c4ccc([nH]4)c(-c4c(F)c(F)c(F)c(F)c4F)c4nc(c(-c5c(F)c(F)c(F)c(F)c5F)c5ccc2[nH]5)C=C4)C=C3)cc1
REMARK SMILES IDX 19 1 18 2 17 3 16 4 15 5 13 6 14 7 3 8 4 9 2 10 1 11 5 12
REMARK SMILES IDX 6 13 7 15 8 16 9 18 10 19 11 20 12 21 20 22 21 23 22 24
REMARK SMILES IDX 23 25 24 26 25 27 26 28 27 29 28 30 89 31 29 32 88 33 30 34
REMARK SMILES IDX 31 35 32 36 82 37 33 38 87 39 81 40 83 41 34 42 86 43 80 44
REMARK SMILES IDX 79 45 35 47 67 48 47 49 66 50 48 51 51 52 65 53 84 54 49 55
REMARK SMILES IDX 50 56 64 58 85 59 52 60 36 61 37 62 45 63 38 64 39 65 43 66
REMARK SMILES IDX 46 67 40 68 41 69 44 70 42 71 68 72 69 73 77 74 70 75 71 76
REMARK SMILES IDX 75 77 78 78 72 79 73 80 76 81 74 82 53 83 54 84 62 85 55 86
REMARK SMILES IDX 56 87 60 88 63 89 57 90 58 91 61 92 59 93
REMARK H PARENT 5 14 8 17 83 46 51 57
REMARK Flexibility Score: inf
ROOT
ATOM      1  C   UNL A   1      39.500  22.454  26.513  1.00  0.00     0.188 C 
ENDROOT
BRANCH   1   2
ATOM      2  O   UNL A   1      38.386  22.148  25.657  1.00  0.00    -0.376 OA
BRANCH   2   3
ATOM      3  C   UNL A   1      37.998  20.795  25.382  1.00  0.00     0.202 C 
BRANCH   3   4
ATOM      4  C   UNL A   1      36.610  20.687  24.651  1.00  0.00     0.261 C 
BRANCH   4   5
ATOM      5  O   UNL A   1      35.913  21.964  24.476  1.00  0.00    -0.462 OA
BRANCH   5   6
ATOM      6  C   UNL A   1      34.849  22.260  25.323  1.00  0.00     0.331 C 
ATOM      7  O   UNL A   1      34.819  21.903  26.497  1.00  0.00    -0.249 OA
BRANCH   6   8
ATOM      8  C   UNL A   1      33.678  23.117  24.635  1.00  0.00     0.136 C 
ATOM      9  C   UNL A   1      33.211  22.790  23.196  1.00  0.00     0.047 C 
BRANCH   8  10
ATOM     10  C   UNL A   1      34.139  24.606  24.583  1.00  0.00     0.037 C 
ATOM     11  C   UNL A   1      33.217  25.576  25.335  1.00  0.00     0.007 C 
ENDBRANCH   8  10
BRANCH   8  12
ATOM     12  N   UNL A   1      32.488  22.994  25.460  1.00  0.00    -0.322 N 
ATOM     13  C   UNL A   1      31.653  21.948  25.510  1.00  0.00     0.315 C 
ATOM     14  H   UNL A   1      32.273  23.758  26.042  1.00  0.00     0.166 HD
ATOM     15  O   UNL A   1      30.612  22.063  26.162  1.00  0.00    -0.249 OA
ATOM     16  N   UNL A   1      31.878  20.759  24.904  1.00  0.00    -0.335 N 
ATOM     17  H   UNL A   1      31.044  20.237  24.874  1.00  0.00     0.165 HD
BRANCH  16  18
ATOM     18  C   UNL A   1      32.940  20.014  24.293  1.00  0.00     0.087 C 
ATOM     19  C   UNL A   1      33.251  18.771  23.528  1.00  0.00     0.030 C 
ATOM     20  C   UNL A   1      33.468  18.781  24.998  1.00  0.00     0.010 C 
ATOM     21  C   UNL A   1      32.635  17.826  25.766  1.00  0.00     0.010 C 
ENDBRANCH  16  18
ENDBRANCH   8  12
ENDBRANCH   6   8
ENDBRANCH   5   6
ENDBRANCH   4   5
ENDBRANCH   3   4
ENDBRANCH   2   3
ENDBRANCH   1   2
BRANCH   1  22
ATOM     22  C   UNL A   1      40.611  21.414  26.730  1.00  0.00     0.188 C 
BRANCH  22  23
ATOM     23  O   UNL A   1      41.547  21.310  25.664  1.00  0.00    -0.376 OA
BRANCH  23  24
ATOM     24  C   UNL A   1      42.907  21.084  26.034  1.00  0.00     0.202 C 
BRANCH  24  25
ATOM     25  C   UNL A   1      43.932  22.142  25.588  1.00  0.00     0.261 C 
BRANCH  25  26
ATOM     26  O   UNL A   1      43.386  23.179  24.729  1.00  0.00    -0.460 OA
BRANCH  26  27
ATOM     27  C   UNL A   1      43.915  24.412  24.914  1.00  0.00     0.338 C 
ATOM     28  O   UNL A   1      45.052  24.773  24.580  1.00  0.00    -0.246 OA
BRANCH  27  29
ATOM     29  C   UNL A   1      42.974  25.386  25.510  1.00  0.00     0.060 A 
ATOM     30  C   UNL A   1      43.378  26.728  25.604  1.00  0.00     0.016 A 
ATOM     31  C   UNL A   1      41.823  24.968  26.183  1.00  0.00     0.016 A 
ATOM     32  C   UNL A   1      42.700  27.621  26.447  1.00  0.00     0.010 A 
ATOM     33  C   UNL A   1      41.143  25.867  27.027  1.00  0.00     0.010 A 
ATOM     34  C   UNL A   1      41.616  27.182  27.221  1.00  0.00    -0.014 A 
BRANCH  34  35
ATOM     35  C   UNL A   1      41.179  27.966  28.423  1.00  0.00     0.031 A 
ATOM     36  C   UNL A   1      41.969  27.806  29.698  1.00  0.00     0.074 A 
ATOM     37  C   UNL A   1      40.131  28.812  28.426  1.00  0.00     0.049 A 
ATOM     38  N   UNL A   1      41.762  28.327  30.881  1.00  0.00    -0.248 NA
ATOM     39  C   UNL A   1      43.145  26.927  29.626  1.00  0.00     0.031 C 
ATOM     40  C   UNL A   1      39.293  29.103  27.278  1.00  0.00     0.029 A 
ATOM     41  N   UNL A   1      39.581  29.578  29.431  1.00  0.00    -0.354 N 
ATOM     42  C   UNL A   1      42.770  27.827  31.695  1.00  0.00     0.074 A 
ATOM     43  C   UNL A   1      43.566  26.934  30.880  1.00  0.00     0.031 C 
ATOM     44  C   UNL A   1      38.335  29.979  27.622  1.00  0.00     0.029 A 
ATOM     45  C   UNL A   1      38.465  30.285  29.044  1.00  0.00     0.049 A 
ATOM     46  H   UNL A   1      39.953  29.615  30.342  1.00  0.00     0.167 HD
ATOM     47  C   UNL A   1      43.022  28.090  33.000  1.00  0.00     0.037 A 
ATOM     48  C   UNL A   1      37.630  31.071  29.755  1.00  0.00     0.037 A 
ATOM     49  C   UNL A   1      42.240  28.978  33.820  1.00  0.00     0.049 A 
ATOM     50  C   UNL A   1      37.891  31.297  31.223  1.00  0.00     0.074 A 
ATOM     51  C   UNL A   1      42.436  29.320  35.148  1.00  0.00     0.029 A 
ATOM     52  N   UNL A   1      41.108  29.657  33.398  1.00  0.00    -0.354 N 
ATOM     53  N   UNL A   1      38.866  30.843  31.971  1.00  0.00    -0.248 NA
ATOM     54  C   UNL A   1      36.936  32.153  31.943  1.00  0.00     0.031 C 
ATOM     55  C   UNL A   1      41.387  30.155  35.546  1.00  0.00     0.029 A 
ATOM     56  C   UNL A   1      40.580  30.395  34.447  1.00  0.00     0.049 A 
ATOM     57  H   UNL A   1      40.734  29.621  32.488  1.00  0.00     0.167 HD
ATOM     58  C   UNL A   1      38.671  31.396  33.232  1.00  0.00     0.074 A 
ATOM     59  C   UNL A   1      37.489  32.224  33.146  1.00  0.00     0.031 C 
ATOM     60  C   UNL A   1      39.413  31.237  34.356  1.00  0.00     0.037 A 
BRANCH  47  61
ATOM     61  C   UNL A   1      44.181  27.377  33.634  1.00  0.00     0.064 A 
ATOM     62  C   UNL A   1      45.483  27.898  33.596  1.00  0.00     0.173 A 
ATOM     63  C   UNL A   1      43.980  26.162  34.306  1.00  0.00     0.173 A 
ATOM     64  F   UNL A   1      45.732  29.050  32.954  1.00  0.00    -0.203 F 
ATOM     65  C   UNL A   1      46.546  27.212  34.178  1.00  0.00     0.198 A 
ATOM     66  C   UNL A   1      45.039  25.497  34.918  1.00  0.00     0.198 A 
ATOM     67  F   UNL A   1      42.755  25.621  34.375  1.00  0.00    -0.203 F 
ATOM     68  F   UNL A   1      47.791  27.699  34.079  1.00  0.00    -0.200 F 
ATOM     69  C   UNL A   1      46.322  26.017  34.845  1.00  0.00     0.200 A 
ATOM     70  F   UNL A   1      44.818  24.350  35.575  1.00  0.00    -0.200 F 
ATOM     71  F   UNL A   1      47.345  25.361  35.410  1.00  0.00    -0.200 F 
ENDBRANCH  47  61
BRANCH  48  72
ATOM     72  C   UNL A   1      36.458  31.718  29.099  1.00  0.00     0.064 A 
ATOM     73  C   UNL A   1      36.425  33.105  28.883  1.00  0.00     0.173 A 
ATOM     74  C   UNL A   1      35.326  30.977  28.725  1.00  0.00     0.173 A 
ATOM     75  F   UNL A   1      37.466  33.864  29.253  1.00  0.00    -0.203 F 
ATOM     76  C   UNL A   1      35.299  33.726  28.344  1.00  0.00     0.198 A 
ATOM     77  C   UNL A   1      34.214  31.597  28.156  1.00  0.00     0.198 A 
ATOM     78  F   UNL A   1      35.300  29.651  28.915  1.00  0.00    -0.203 F 
ATOM     79  F   UNL A   1      35.273  35.059  28.208  1.00  0.00    -0.200 F 
ATOM     80  C   UNL A   1      34.197  32.971  27.976  1.00  0.00     0.200 A 
ATOM     81  F   UNL A   1      33.153  30.861  27.793  1.00  0.00    -0.200 F 
ATOM     82  F   UNL A   1      33.113  33.569  27.461  1.00  0.00    -0.200 F 
ENDBRANCH  48  72
BRANCH  60  83
ATOM     83  C   UNL A   1      39.017  32.028  35.572  1.00  0.00     0.064 A 
ATOM     84  C   UNL A   1      38.270  31.469  36.618  1.00  0.00     0.173 A 
ATOM     85  C   UNL A   1      39.416  33.369  35.699  1.00  0.00     0.173 A 
ATOM     86  F   UNL A   1      37.852  30.196  36.546  1.00  0.00    -0.203 F 
ATOM     87  C   UNL A   1      37.904  32.231  37.726  1.00  0.00     0.198 A 
ATOM     88  C   UNL A   1      39.081  34.116  36.825  1.00  0.00     0.198 A 
ATOM     89  F   UNL A   1      40.141  33.955  34.734  1.00  0.00    -0.203 F 
ATOM     90  F   UNL A   1      37.136  31.691  38.684  1.00  0.00    -0.200 F 
ATOM     91  C   UNL A   1      38.314  33.551  37.832  1.00  0.00     0.200 A 
ATOM     92  F   UNL A   1      39.495  35.386  36.931  1.00  0.00    -0.200 F 
ATOM     93  F   UNL A   1      37.964  34.281  38.899  1.00  0.00    -0.200 F 
ENDBRANCH  60  83
ENDBRANCH  34  35
ENDBRANCH  27  29
ENDBRANCH  26  27
ENDBRANCH  25  26
ENDBRANCH  24  25
ENDBRANCH  23  24
ENDBRANCH  22  23
ENDBRANCH   1  22
TORSDOF 20
ENDMDL
MODEL 2
REMARK VINA RESULT:     -10.5      0.819      1.907
REMARK SMILES CC[C@](C)(NC(=O)N[C@@H]1C[C@@H]1C)C(=O)OCCOCCOCCOC(=O)c1ccc(-c2c3nc(c(-c4c(F)c(F)c(F)c(F)c4F)c4ccc([nH]4)c(-c4c(F)c(F)c(F)c(F)c4F)c4nc(c(-c5c(F)c(F)c(F)c(F)c5F)c5ccc2[nH]5)C=C4)C=C3)cc1
REMARK SMILES IDX 19 1 18 2 17 3 16 4 15 5 13 6 14 7 3 8 4 9 2 10 1 11 5 12
REMARK SMILES IDX 6 13 7 15 8 16 9 18 10 19 11 20 12 21 20 22 21 23 22 24
REMARK SMILES IDX 23 25 24 26 25 27 26 28 27 29 28 30 89 31 29 32 88 33 30 34
REMARK SMILES IDX 31 35 32 36 82 37 33 38 87 39 81 40 83 41 34 42 86 43 80 44
REMARK SMILES IDX 79 45 35 47 67 48 47 49 66 50 48 51 51 52 65 53 84 54 49 55
REMARK SMILES IDX 50 56 64 58 85 59 52 60 36 61 37 62 45 63 38 64 39 65 43 66
REMARK SMILES IDX 46 67 40 68 41 69 44 70 42 71 68 72 69 73 77 74 70 75 71 76
REMARK SMILES IDX 75 77 78 78 72 79 73 80 76 81 74 82 53 83 54 84 62 85 55 86
REMARK SMILES IDX 56 87 60 88 63 89 57 90 58 91 61 92 59 93
REMARK H PARENT 5 14 8 17 83 46 51 57
REMARK Flexibility Score: inf
ROOT
ATOM      1  C   UNL A   1      39.710  21.788  26.580  1.00  0.00     0.188 C 
ENDROOT
BRANCH   1   2
ATOM      2  O   UNL A   1      38.651  22.291  25.748  1.00  0.00    -0.376 OA
BRANCH   2   3
ATOM      3  C   UNL A   1      37.468  21.523  25.488  1.00  0.00     0.202 C 
BRANCH   3   4
ATOM      4  C   UNL A   1      36.144  22.265  25.903  1.00  0.00     0.261 C 
BRANCH   4   5
ATOM      5  O   UNL A   1      34.917  21.503  25.656  1.00  0.00    -0.462 OA
BRANCH   5   6
ATOM      6  C   UNL A   1      33.737  21.936  26.255  1.00  0.00     0.331 C 
ATOM      7  O   UNL A   1      33.691  22.331  27.415  1.00  0.00    -0.249 OA
BRANCH   6   8
ATOM      8  C   UNL A   1      32.453  21.884  25.292  1.00  0.00     0.136 C 
ATOM      9  C   UNL A   1      32.187  20.641  24.408  1.00  0.00     0.047 C 
BRANCH   8  10
ATOM     10  C   UNL A   1      32.552  23.077  24.294  1.00  0.00     0.037 C 
ATOM     11  C   UNL A   1      33.139  22.704  22.925  1.00  0.00     0.007 C 
ENDBRANCH   8  10
BRANCH   8  12
ATOM     12  N   UNL A   1      31.266  22.025  26.119  1.00  0.00    -0.322 N 
ATOM     13  C   UNL A   1      30.917  23.097  26.842  1.00  0.00     0.315 C 
ATOM     14  H   UNL A   1      30.656  21.254  26.151  1.00  0.00     0.166 HD
ATOM     15  O   UNL A   1      29.947  23.000  27.598  1.00  0.00    -0.249 OA
ATOM     16  N   UNL A   1      31.547  24.294  26.791  1.00  0.00    -0.335 N 
ATOM     17  H   UNL A   1      31.281  24.844  27.563  1.00  0.00     0.165 HD
BRANCH  16  18
ATOM     18  C   UNL A   1      32.478  25.018  25.976  1.00  0.00     0.087 C 
ATOM     19  C   UNL A   1      33.597  26.004  26.015  1.00  0.00     0.030 C 
ATOM     20  C   UNL A   1      32.226  26.488  25.710  1.00  0.00     0.010 C 
ATOM     21  C   UNL A   1      31.658  27.439  26.695  1.00  0.00     0.010 C 
ENDBRANCH  16  18
ENDBRANCH   8  12
ENDBRANCH   6   8
ENDBRANCH   5   6
ENDBRANCH   4   5
ENDBRANCH   3   4
ENDBRANCH   2   3
ENDBRANCH   1   2
BRANCH   1  22
ATOM     22  C   UNL A   1      40.495  20.538  26.152  1.00  0.00     0.188 C 
BRANCH  22  23
ATOM     23  O   UNL A   1      41.689  20.803  25.425  1.00  0.00    -0.376 OA
BRANCH  23  24
ATOM     24  C   UNL A   1      42.908  20.744  26.165  1.00  0.00     0.202 C 
BRANCH  24  25
ATOM     25  C   UNL A   1      44.088  21.571  25.625  1.00  0.00     0.261 C 
BRANCH  25  26
ATOM     26  O   UNL A   1      44.218  22.889  26.224  1.00  0.00    -0.460 OA
BRANCH  26  27
ATOM     27  C   UNL A   1      44.025  23.925  25.373  1.00  0.00     0.338 C 
ATOM     28  O   UNL A   1      44.479  24.017  24.225  1.00  0.00    -0.246 OA
BRANCH  27  29
ATOM     29  C   UNL A   1      43.124  24.975  25.900  1.00  0.00     0.060 A 
ATOM     30  C   UNL A   1      43.625  26.282  26.015  1.00  0.00     0.016 A 
ATOM     31  C   UNL A   1      41.902  24.653  26.495  1.00  0.00     0.016 A 
ATOM     32  C   UNL A   1      42.964  27.233  26.807  1.00  0.00     0.010 A 
ATOM     33  C   UNL A   1      41.239  25.611  27.287  1.00  0.00     0.010 A 
ATOM     34  C   UNL A   1      41.799  26.887  27.507  1.00  0.00    -0.014 A 
BRANCH  34  35
ATOM     35  C   UNL A   1      41.345  27.714  28.673  1.00  0.00     0.031 A 
ATOM     36  C   UNL A   1      42.109  27.591  29.968  1.00  0.00     0.074 A 
ATOM     37  C   UNL A   1      40.303  28.567  28.628  1.00  0.00     0.049 A 
ATOM     38  N   UNL A   1      41.883  28.153  31.130  1.00  0.00    -0.248 NA
ATOM     39  C   UNL A   1      43.279  26.701  29.949  1.00  0.00     0.031 C 
ATOM     40  C   UNL A   1      39.491  28.825  27.454  1.00  0.00     0.029 A 
ATOM     41  N   UNL A   1      39.740  29.370  29.596  1.00  0.00    -0.354 N 
ATOM     42  C   UNL A   1      42.871  27.673  31.979  1.00  0.00     0.074 A 
ATOM     43  C   UNL A   1      43.676  26.748  31.211  1.00  0.00     0.031 C 
ATOM     44  C   UNL A   1      38.533  29.719  27.750  1.00  0.00     0.029 A 
ATOM     45  C   UNL A   1      38.638  30.071  29.164  1.00  0.00     0.049 A 
ATOM     46  H   UNL A   1      40.094  29.435  30.512  1.00  0.00     0.167 HD
ATOM     47  C   UNL A   1      43.100  27.978  33.279  1.00  0.00     0.037 A 
ATOM     48  C   UNL A   1      37.796  30.887  29.831  1.00  0.00     0.037 A 
ATOM     49  C   UNL A   1      42.309  28.898  34.054  1.00  0.00     0.049 A 
ATOM     50  C   UNL A   1      38.029  31.159  31.296  1.00  0.00     0.074 A 
ATOM     51  C   UNL A   1      42.481  29.283  35.373  1.00  0.00     0.029 A 
ATOM     52  N   UNL A   1      41.190  29.571  33.588  1.00  0.00    -0.354 N 
ATOM     53  N   UNL A   1      38.986  30.725  32.078  1.00  0.00    -0.248 NA
ATOM     54  C   UNL A   1      37.068  32.047  31.968  1.00  0.00     0.031 C 
ATOM     55  C   UNL A   1      41.432  30.139  35.722  1.00  0.00     0.029 A 
ATOM     56  C   UNL A   1      40.648  30.347  34.600  1.00  0.00     0.049 A 
ATOM     57  H   UNL A   1      40.834  29.507  32.672  1.00  0.00     0.167 HD
ATOM     58  C   UNL A   1      38.771  31.321  33.315  1.00  0.00     0.074 A 
ATOM     59  C   UNL A   1      37.597  32.154  33.178  1.00  0.00     0.031 C 
ATOM     60  C   UNL A   1      39.490  31.194  34.458  1.00  0.00     0.037 A 
BRANCH  47  61
ATOM     61  C   UNL A   1      44.240  27.278  33.959  1.00  0.00     0.064 A 
ATOM     62  C   UNL A   1      45.532  27.826  33.993  1.00  0.00     0.173 A 
ATOM     63  C   UNL A   1      44.032  26.049  34.603  1.00  0.00     0.173 A 
ATOM     64  F   UNL A   1      45.789  28.992  33.381  1.00  0.00    -0.203 F 
ATOM     65  C   UNL A   1      46.579  27.152  34.617  1.00  0.00     0.198 A 
ATOM     66  C   UNL A   1      45.073  25.396  35.257  1.00  0.00     0.198 A 
ATOM     67  F   UNL A   1      42.816  25.483  34.604  1.00  0.00    -0.203 F 
ATOM     68  F   UNL A   1      47.817  27.665  34.587  1.00  0.00    -0.200 F 
ATOM     69  C   UNL A   1      46.347  25.943  35.255  1.00  0.00     0.200 A 
ATOM     70  F   UNL A   1      44.843  24.235  35.885  1.00  0.00    -0.200 F 
ATOM     71  F   UNL A   1      47.354  25.298  35.860  1.00  0.00    -0.200 F 
ENDBRANCH  47  61
BRANCH  48  72
ATOM     72  C   UNL A   1      36.641  31.520  29.131  1.00  0.00     0.064 A 
ATOM     73  C   UNL A   1      36.621  32.899  28.872  1.00  0.00     0.173 A 
ATOM     74  C   UNL A   1      35.513  30.774  28.757  1.00  0.00     0.173 A 
ATOM     75  F   UNL A   1      37.659  33.664  29.239  1.00  0.00    -0.203 F 
ATOM     76  C   UNL A   1      35.511  33.509  28.291  1.00  0.00     0.198 A 
ATOM     77  C   UNL A   1      34.416  31.382  28.145  1.00  0.00     0.198 A 
ATOM     78  F   UNL A   1      35.474  29.454  28.987  1.00  0.00    -0.203 F 
ATOM     79  F   UNL A   1      35.496  34.838  28.112  1.00  0.00    -0.200 F 
ATOM     80  C   UNL A   1      34.412  32.750  27.923  1.00  0.00     0.200 A 
ATOM     81  F   UNL A   1      33.359  30.641  27.784  1.00  0.00    -0.200 F 
ATOM     82  F   UNL A   1      33.343  33.337  27.367  1.00  0.00    -0.200 F 
ENDBRANCH  48  72
BRANCH  60  83
ATOM     83  C   UNL A   1      39.076  32.028  35.639  1.00  0.00     0.064 A 
ATOM     84  C   UNL A   1      38.320  31.505  36.697  1.00  0.00     0.173 A 
ATOM     85  C   UNL A   1      39.468  33.375  35.720  1.00  0.00     0.173 A 
ATOM     86  F   UNL A   1      37.909  30.228  36.668  1.00  0.00    -0.203 F 
ATOM     87  C   UNL A   1      37.938  32.306  37.772  1.00  0.00     0.198 A 
ATOM     88  C   UNL A   1      39.116  34.162  36.814  1.00  0.00     0.198 A 
ATOM     89  F   UNL A   1      40.201  33.927  34.742  1.00  0.00    -0.203 F 
ATOM     90  F   UNL A   1      37.162  31.799  38.741  1.00  0.00    -0.200 F 
ATOM     91  C   UNL A   1      38.341  33.631  37.832  1.00  0.00     0.200 A 
ATOM     92  F   UNL A   1      39.524  35.437  36.876  1.00  0.00    -0.200 F 
ATOM     93  F   UNL A   1      37.975  34.399  38.868  1.00  0.00    -0.200 F 
ENDBRANCH  60  83
ENDBRANCH  34  35
ENDBRANCH  27  29
ENDBRANCH  26  27
ENDBRANCH  25  26
ENDBRANCH  24  25
ENDBRANCH  23  24
ENDBRANCH  22  23
ENDBRANCH   1  22
TORSDOF 20
ENDMDL
MODEL 3
REMARK VINA RESULT:     -10.3      4.670      7.168
REMARK SMILES CC[C@](C)(NC(=O)N[C@@H]1C[C@@H]1C)C(=O)OCCOCCOCCOC(=O)c1ccc(-c2c3nc(c(-c4c(F)c(F)c(F)c(F)c4F)c4ccc([nH]4)c(-c4c(F)c(F)c(F)c(F)c4F)c4nc(c(-c5c(F)c(F)c(F)c(F)c5F)c5ccc2[nH]5)C=C4)C=C3)cc1
REMARK SMILES IDX 19 1 18 2 17 3 16 4 15 5 13 6 14 7 3 8 4 9 2 10 1 11 5 12
REMARK SMILES IDX 6 13 7 15 8 16 9 18 10 19 11 20 12 21 20 22 21 23 22 24
REMARK SMILES IDX 23 25 24 26 25 27 26 28 27 29 28 30 89 31 29 32 88 33 30 34
REMARK SMILES IDX 31 35 32 36 82 37 33 38 87 39 81 40 83 41 34 42 86 43 80 44
REMARK SMILES IDX 79 45 35 47 67 48 47 49 66 50 48 51 51 52 65 53 84 54 49 55
REMARK SMILES IDX 50 56 64 58 85 59 52 60 36 61 37 62 45 63 38 64 39 65 43 66
REMARK SMILES IDX 46 67 40 68 41 69 44 70 42 71 68 72 69 73 77 74 70 75 71 76
REMARK SMILES IDX 75 77 78 78 72 79 73 80 76 81 74 82 53 83 54 84 62 85 55 86
REMARK SMILES IDX 56 87 60 88 63 89 57 90 58 91 61 92 59 93
REMARK H PARENT 5 14 8 17 83 46 51 57
REMARK Flexibility Score: inf
ROOT
ATOM      1  C   UNL A   1      35.410  22.294  24.551  1.00  0.00     0.188 C 
ENDROOT
BRANCH   1   2
ATOM      2  O   UNL A   1      34.952  23.454  25.267  1.00  0.00    -0.376 OA
BRANCH   2   3
ATOM      3  C   UNL A   1      33.923  24.304  24.742  1.00  0.00     0.202 C 
BRANCH   3   4
ATOM      4  C   UNL A   1      33.140  25.090  25.857  1.00  0.00     0.261 C 
BRANCH   4   5
ATOM      5  O   UNL A   1      32.406  26.262  25.373  1.00  0.00    -0.462 OA
BRANCH   5   6
ATOM      6  C   UNL A   1      32.260  27.352  26.228  1.00  0.00     0.331 C 
ATOM      7  O   UNL A   1      31.503  27.338  27.193  1.00  0.00    -0.249 OA
BRANCH   6   8
ATOM      8  C   UNL A   1      33.175  28.615  25.847  1.00  0.00     0.136 C 
ATOM      9  C   UNL A   1      33.596  28.862  24.377  1.00  0.00     0.047 C 
BRANCH   8  10
ATOM     10  C   UNL A   1      34.514  28.495  26.636  1.00  0.00     0.037 C 
ATOM     11  C   UNL A   1      34.759  29.636  27.634  1.00  0.00     0.007 C 
ENDBRANCH   8  10
BRANCH   8  12
ATOM     12  N   UNL A   1      32.467  29.819  26.248  1.00  0.00    -0.322 N 
ATOM     13  C   UNL A   1      31.501  30.445  25.565  1.00  0.00     0.315 C 
ATOM     14  H   UNL A   1      32.724  30.215  27.111  1.00  0.00     0.166 HD
ATOM     15  O   UNL A   1      31.101  31.535  25.984  1.00  0.00    -0.249 OA
ATOM     16  N   UNL A   1      30.914  29.957  24.447  1.00  0.00    -0.335 N 
ATOM     17  H   UNL A   1      30.418  30.675  23.990  1.00  0.00     0.165 HD
BRANCH  16  18
ATOM     18  C   UNL A   1      30.782  28.733  23.712  1.00  0.00     0.087 C 
ATOM     19  C   UNL A   1      30.517  28.166  22.359  1.00  0.00     0.030 C 
ATOM     20  C   UNL A   1      29.397  28.255  23.330  1.00  0.00     0.010 C 
ATOM     21  C   UNL A   1      28.280  29.142  22.927  1.00  0.00     0.010 C 
ENDBRANCH  16  18
ENDBRANCH   8  12
ENDBRANCH   6   8
ENDBRANCH   5   6
ENDBRANCH   4   5
ENDBRANCH   3   4
ENDBRANCH   2   3
ENDBRANCH   1   2
BRANCH   1  22
ATOM     22  C   UNL A   1      36.915  22.070  24.337  1.00  0.00     0.188 C 
BRANCH  22  23
ATOM     23  O   UNL A   1      37.538  21.234  25.305  1.00  0.00    -0.376 OA
BRANCH  23  24
ATOM     24  C   UNL A   1      37.797  19.888  24.909  1.00  0.00     0.202 C 
BRANCH  24  25
ATOM     25  C   UNL A   1      39.148  19.286  25.336  1.00  0.00     0.261 C 
BRANCH  25  26
ATOM     26  O   UNL A   1      39.676  19.825  26.577  1.00  0.00    -0.460 OA
BRANCH  26  27
ATOM     27  C   UNL A   1      40.787  20.589  26.443  1.00  0.00     0.338 C 
ATOM     28  O   UNL A   1      41.754  20.341  25.710  1.00  0.00    -0.246 OA
BRANCH  27  29
ATOM     29  C   UNL A   1      40.745  21.851  27.213  1.00  0.00     0.060 A 
ATOM     30  C   UNL A   1      39.868  22.861  26.785  1.00  0.00     0.016 A 
ATOM     31  C   UNL A   1      41.706  22.144  28.184  1.00  0.00     0.016 A 
ATOM     32  C   UNL A   1      40.016  24.178  27.244  1.00  0.00     0.010 A 
ATOM     33  C   UNL A   1      41.851  23.467  28.645  1.00  0.00     0.010 A 
ATOM     34  C   UNL A   1      41.054  24.509  28.127  1.00  0.00    -0.014 A 
BRANCH  34  35
ATOM     35  C   UNL A   1      41.499  25.935  28.271  1.00  0.00     0.031 A 
ATOM     36  C   UNL A   1      42.855  26.311  27.729  1.00  0.00     0.074 A 
ATOM     37  C   UNL A   1      40.753  26.899  28.844  1.00  0.00     0.049 A 
ATOM     38  N   UNL A   1      43.488  27.456  27.778  1.00  0.00    -0.248 NA
ATOM     39  C   UNL A   1      43.602  25.241  27.049  1.00  0.00     0.031 C 
ATOM     40  C   UNL A   1      39.420  26.710  29.382  1.00  0.00     0.029 A 
ATOM     41  N   UNL A   1      41.014  28.231  29.081  1.00  0.00    -0.354 N 
ATOM     42  C   UNL A   1      44.710  27.240  27.153  1.00  0.00     0.074 A 
ATOM     43  C   UNL A   1      44.743  25.846  26.764  1.00  0.00     0.031 C 
ATOM     44  C   UNL A   1      38.963  27.867  29.887  1.00  0.00     0.029 A 
ATOM     45  C   UNL A   1      40.001  28.885  29.746  1.00  0.00     0.049 A 
ATOM     46  H   UNL A   1      41.847  28.674  28.801  1.00  0.00     0.167 HD
ATOM     47  C   UNL A   1      45.712  28.119  26.912  1.00  0.00     0.037 A 
ATOM     48  C   UNL A   1      39.923  30.151  30.207  1.00  0.00     0.037 A 
ATOM     49  C   UNL A   1      45.689  29.508  27.291  1.00  0.00     0.049 A 
ATOM     50  C   UNL A   1      41.079  31.094  29.988  1.00  0.00     0.074 A 
ATOM     51  C   UNL A   1      46.653  30.477  27.068  1.00  0.00     0.029 A 
ATOM     52  N   UNL A   1      44.657  30.125  27.980  1.00  0.00    -0.354 N 
ATOM     53  N   UNL A   1      42.214  30.885  29.367  1.00  0.00    -0.248 NA
ATOM     54  C   UNL A   1      40.938  32.455  30.527  1.00  0.00     0.031 C 
ATOM     55  C   UNL A   1      46.232  31.664  27.676  1.00  0.00     0.029 A 
ATOM     56  C   UNL A   1      44.972  31.455  28.213  1.00  0.00     0.049 A 
ATOM     57  H   UNL A   1      43.823  29.685  28.262  1.00  0.00     0.167 HD
ATOM     58  C   UNL A   1      42.897  32.096  29.398  1.00  0.00     0.074 A 
ATOM     59  C   UNL A   1      42.047  33.037  30.093  1.00  0.00     0.031 C 
ATOM     60  C   UNL A   1      44.116  32.398  28.887  1.00  0.00     0.037 A 
BRANCH  47  61
ATOM     61  C   UNL A   1      46.940  27.591  26.231  1.00  0.00     0.064 A 
ATOM     62  C   UNL A   1      48.017  27.054  26.954  1.00  0.00     0.173 A 
ATOM     63  C   UNL A   1      47.033  27.603  24.831  1.00  0.00     0.173 A 
ATOM     64  F   UNL A   1      47.986  27.031  28.295  1.00  0.00    -0.203 F 
ATOM     65  C   UNL A   1      49.153  26.583  26.302  1.00  0.00     0.198 A 
ATOM     66  C   UNL A   1      48.155  27.097  24.181  1.00  0.00     0.198 A 
ATOM     67  F   UNL A   1      46.031  28.101  24.091  1.00  0.00    -0.203 F 
ATOM     68  F   UNL A   1      50.194  26.129  27.015  1.00  0.00    -0.200 F 
ATOM     69  C   UNL A   1      49.218  26.597  24.917  1.00  0.00     0.200 A 
ATOM     70  F   UNL A   1      48.209  27.099  22.842  1.00  0.00    -0.200 F 
ATOM     71  F   UNL A   1      50.310  26.137  24.291  1.00  0.00    -0.200 F 
ENDBRANCH  47  61
BRANCH  48  72
ATOM     72  C   UNL A   1      38.706  30.621  30.929  1.00  0.00     0.064 A 
ATOM     73  C   UNL A   1      37.603  31.133  30.227  1.00  0.00     0.173 A 
ATOM     74  C   UNL A   1      38.638  30.620  32.330  1.00  0.00     0.173 A 
ATOM     75  F   UNL A   1      37.630  31.187  28.888  1.00  0.00    -0.203 F 
ATOM     76  C   UNL A   1      36.496  31.647  30.898  1.00  0.00     0.198 A 
ATOM     77  C   UNL A   1      37.515  31.105  32.999  1.00  0.00     0.198 A 
ATOM     78  F   UNL A   1      39.665  30.149  33.052  1.00  0.00    -0.203 F 
ATOM     79  F   UNL A   1      35.485  32.187  30.203  1.00  0.00    -0.200 F 
ATOM     80  C   UNL A   1      36.449  31.628  32.283  1.00  0.00     0.200 A 
ATOM     81  F   UNL A   1      37.471  31.077  34.339  1.00  0.00    -0.200 F 
ATOM     82  F   UNL A   1      35.385  32.126  32.928  1.00  0.00    -0.200 F 
ENDBRANCH  48  72
BRANCH  60  83
ATOM     83  C   UNL A   1      44.581  33.825  28.992  1.00  0.00     0.064 A 
ATOM     84  C   UNL A   1      45.352  34.284  30.070  1.00  0.00     0.173 A 
ATOM     85  C   UNL A   1      44.266  34.744  27.977  1.00  0.00     0.173 A 
ATOM     86  F   UNL A   1      45.674  33.453  31.073  1.00  0.00    -0.203 F 
ATOM     87  C   UNL A   1      45.757  35.615  30.147  1.00  0.00     0.198 A 
ATOM     88  C   UNL A   1      44.704  36.064  28.040  1.00  0.00     0.198 A 
ATOM     89  F   UNL A   1      43.540  34.360  26.917  1.00  0.00    -0.203 F 
ATOM     90  F   UNL A   1      46.440  36.044  31.219  1.00  0.00    -0.200 F 
ATOM     91  C   UNL A   1      45.437  36.502  29.131  1.00  0.00     0.200 A 
ATOM     92  F   UNL A   1      44.409  36.913  27.046  1.00  0.00    -0.200 F 
ATOM     93  F   UNL A   1      45.830  37.782  29.206  1.00  0.00    -0.200 F 
ENDBRANCH  60  83
ENDBRANCH  34  35
ENDBRANCH  27  29
ENDBRANCH  26  27
ENDBRANCH  25  26
ENDBRANCH  24  25
ENDBRANCH  23  24
ENDBRANCH  22  23
ENDBRANCH   1  22
TORSDOF 20
ENDMDL
