MODEL 1
REMARK VINA RESULT:     -10.1      0.000      0.000
REMARK SMILES C#CCN(CC(=O)OCCOCCOCCOC(=O)c1ccc(-c2c3nc(c(-c4c(F)c(F)c(F)c(F)c4F)c4ccc([nH]4)c(-c4c(F)c(F)c(F)c(F)c4F)c4nc(c(-c5c(F)c(F)c(F)c(F)c5F)c5ccc2[nH]5)C=C4)C=C3)cc1)C(=O)NCc1ccnc(C)n1
REMARK SMILES IDX 12 1 11 2 10 3 9 4 8 5 6 6 7 7 5 8 4 9 3 10 2 11 1 12 83 13
REMARK SMILES IDX 84 14 85 15 86 17 87 18 88 19 93 20 89 21 91 22 90 23 92 24
REMARK SMILES IDX 13 25 14 26 15 27 16 28 17 29 18 30 19 31 20 32 21 33 82 34
REMARK SMILES IDX 22 35 81 36 23 37 24 38 25 39 75 40 26 41 80 42 74 43 76 44
REMARK SMILES IDX 27 45 79 46 73 47 72 48 28 50 60 51 40 52 59 53 41 54 44 55
REMARK SMILES IDX 58 56 77 57 42 58 43 59 57 61 78 62 45 63 29 64 30 65 38 66
REMARK SMILES IDX 31 67 32 68 36 69 39 70 33 71 34 72 37 73 35 74 61 75 62 76
REMARK SMILES IDX 70 77 63 78 64 79 68 80 71 81 65 82 66 83 69 84 67 85 46 86
REMARK SMILES IDX 47 87 55 88 48 89 49 90 53 91 56 92 50 93 51 94 54 95 52 96
REMARK H PARENT 85 16 76 49 44 60
REMARK Flexibility Score: inf
ROOT
ATOM      1  C   UNL A   1      40.264  21.751  26.781  1.00  0.00     0.188 C 
ENDROOT
BRANCH   1   2
ATOM      2  O   UNL A   1      39.150  22.386  26.166  1.00  0.00    -0.376 OA
BRANCH   2   3
ATOM      3  C   UNL A   1      38.221  21.456  25.604  1.00  0.00     0.202 C 
BRANCH   3   4
ATOM      4  C   UNL A   1      36.714  21.829  25.548  1.00  0.00     0.261 C 
BRANCH   4   5
ATOM      5  O   UNL A   1      36.409  23.226  25.775  1.00  0.00    -0.462 OA
BRANCH   5   6
ATOM      6  C   UNL A   1      35.190  23.661  25.357  1.00  0.00     0.325 C 
ATOM      7  O   UNL A   1      34.778  24.805  25.541  1.00  0.00    -0.250 OA
BRANCH   6   8
ATOM      8  C   UNL A   1      34.289  22.563  24.727  1.00  0.00     0.245 C 
BRANCH   8   9
ATOM      9  N   UNL A   1      33.084  22.043  25.403  1.00  0.00    -0.303 N 
BRANCH   9  10
ATOM     10  C   UNL A   1      32.202  21.071  24.655  1.00  0.00     0.211 C 
BRANCH  10  11
ATOM     11  C   UNL A   1      32.646  19.628  24.827  1.00  0.00    -0.085 C 
ATOM     12  C   UNL A   1      33.027  18.389  24.975  1.00  0.00     0.006 C 
ENDBRANCH  10  11
ENDBRANCH   9  10
BRANCH   9  13
ATOM     13  C   UNL A   1      32.706  22.355  26.685  1.00  0.00     0.319 C 
ATOM     14  O   UNL A   1      33.299  21.882  27.660  1.00  0.00    -0.249 OA
ATOM     15  N   UNL A   1      31.632  23.081  27.021  1.00  0.00    -0.332 N 
ATOM     16  H   UNL A   1      31.457  22.954  27.982  1.00  0.00     0.165 HD
BRANCH  15  17
ATOM     17  C   UNL A   1      30.629  23.987  26.486  1.00  0.00     0.174 C 
BRANCH  17  18
ATOM     18  C   UNL A   1      31.165  25.133  25.625  1.00  0.00     0.063 A 
ATOM     19  C   UNL A   1      31.249  26.388  26.206  1.00  0.00     0.046 A 
ATOM     20  N   UNL A   1      31.433  24.949  24.303  1.00  0.00    -0.236 NA
ATOM     21  C   UNL A   1      31.656  27.426  25.402  1.00  0.00     0.115 A 
ATOM     22  C   UNL A   1      31.851  26.039  23.604  1.00  0.00     0.125 A 
ATOM     23  N   UNL A   1      31.961  27.280  24.109  1.00  0.00    -0.242 NA
ATOM     24  C   UNL A   1      32.227  25.915  22.158  1.00  0.00     0.089 C 
ENDBRANCH  17  18
ENDBRANCH  15  17
ENDBRANCH   9  13
ENDBRANCH   8   9
ENDBRANCH   6   8
ENDBRANCH   5   6
ENDBRANCH   4   5
ENDBRANCH   3   4
ENDBRANCH   2   3
ENDBRANCH   1   2
BRANCH   1  25
ATOM     25  C   UNL A   1      40.656  20.397  26.222  1.00  0.00     0.188 C 
BRANCH  25  26
ATOM     26  O   UNL A   1      41.995  20.369  25.761  1.00  0.00    -0.376 OA
BRANCH  26  27
ATOM     27  C   UNL A   1      42.777  21.438  26.277  1.00  0.00     0.202 C 
BRANCH  27  28
ATOM     28  C   UNL A   1      43.636  22.124  25.203  1.00  0.00     0.261 C 
BRANCH  28  29
ATOM     29  O   UNL A   1      43.110  23.394  24.743  1.00  0.00    -0.460 OA
BRANCH  29  30
ATOM     30  C   UNL A   1      43.831  24.511  25.019  1.00  0.00     0.338 C 
ATOM     31  O   UNL A   1      44.933  24.793  24.567  1.00  0.00    -0.246 OA
BRANCH  30  32
ATOM     32  C   UNL A   1      43.095  25.412  25.948  1.00  0.00     0.060 A 
ATOM     33  C   UNL A   1      43.638  26.664  26.259  1.00  0.00     0.016 A 
ATOM     34  C   UNL A   1      41.916  25.013  26.584  1.00  0.00     0.016 A 
ATOM     35  C   UNL A   1      42.984  27.529  27.151  1.00  0.00     0.010 A 
ATOM     36  C   UNL A   1      41.263  25.869  27.488  1.00  0.00     0.010 A 
ATOM     37  C   UNL A   1      41.803  27.130  27.794  1.00  0.00    -0.014 A 
BRANCH  37  38
ATOM     38  C   UNL A   1      41.307  27.902  28.971  1.00  0.00     0.031 A 
ATOM     39  C   UNL A   1      42.062  27.761  30.268  1.00  0.00     0.074 A 
ATOM     40  C   UNL A   1      40.250  28.736  28.916  1.00  0.00     0.049 A 
ATOM     41  N   UNL A   1      41.868  28.352  31.421  1.00  0.00    -0.248 NA
ATOM     42  C   UNL A   1      43.196  26.823  30.255  1.00  0.00     0.031 C 
ATOM     43  C   UNL A   1      39.439  29.000  27.731  1.00  0.00     0.029 A 
ATOM     44  N   UNL A   1      39.682  29.524  29.892  1.00  0.00    -0.354 N 
ATOM     45  C   UNL A   1      42.867  27.876  32.259  1.00  0.00     0.074 A 
ATOM     46  C   UNL A   1      43.640  26.918  31.497  1.00  0.00     0.031 C 
ATOM     47  C   UNL A   1      38.481  29.893  28.048  1.00  0.00     0.029 A 
ATOM     48  C   UNL A   1      38.591  30.243  29.466  1.00  0.00     0.049 A 
ATOM     49  H   UNL A   1      40.027  29.568  30.814  1.00  0.00     0.167 HD
ATOM     50  C   UNL A   1      43.131  28.207  33.545  1.00  0.00     0.037 A 
ATOM     51  C   UNL A   1      37.770  31.076  30.143  1.00  0.00     0.037 A 
ATOM     52  C   UNL A   1      42.348  29.122  34.330  1.00  0.00     0.049 A 
ATOM     53  C   UNL A   1      38.022  31.350  31.611  1.00  0.00     0.074 A 
ATOM     54  C   UNL A   1      42.530  29.502  35.648  1.00  0.00     0.029 A 
ATOM     55  N   UNL A   1      41.220  29.785  33.874  1.00  0.00    -0.354 N 
ATOM     56  N   UNL A   1      38.994  30.927  32.382  1.00  0.00    -0.248 NA
ATOM     57  C   UNL A   1      37.058  32.223  32.301  1.00  0.00     0.031 C 
ATOM     58  C   UNL A   1      41.476  30.346  36.009  1.00  0.00     0.029 A 
ATOM     59  C   UNL A   1      40.677  30.549  34.896  1.00  0.00     0.049 A 
ATOM     60  H   UNL A   1      40.858  29.723  32.961  1.00  0.00     0.167 HD
ATOM     61  C   UNL A   1      38.779  31.507  33.629  1.00  0.00     0.074 A 
ATOM     62  C   UNL A   1      37.593  32.325  33.510  1.00  0.00     0.031 C 
ATOM     63  C   UNL A   1      39.503  31.375  34.768  1.00  0.00     0.037 A 
BRANCH  50  64
ATOM     64  C   UNL A   1      44.304  27.532  34.195  1.00  0.00     0.064 A 
ATOM     65  C   UNL A   1      44.184  26.274  34.805  1.00  0.00     0.173 A 
ATOM     66  C   UNL A   1      45.562  28.151  34.207  1.00  0.00     0.173 A 
ATOM     67  F   UNL A   1      42.998  25.649  34.836  1.00  0.00    -0.203 F 
ATOM     68  C   UNL A   1      45.275  25.676  35.431  1.00  0.00     0.198 A 
ATOM     69  C   UNL A   1      46.657  27.536  34.805  1.00  0.00     0.198 A 
ATOM     70  F   UNL A   1      45.729  29.354  33.636  1.00  0.00    -0.203 F 
ATOM     71  F   UNL A   1      45.125  24.499  36.056  1.00  0.00    -0.200 F 
ATOM     72  C   UNL A   1      46.511  26.304  35.425  1.00  0.00     0.200 A 
ATOM     73  F   UNL A   1      47.854  28.139  34.787  1.00  0.00    -0.200 F 
ATOM     74  F   UNL A   1      47.560  25.726  36.026  1.00  0.00    -0.200 F 
ENDBRANCH  50  64
BRANCH  51  75
ATOM     75  C   UNL A   1      36.608  31.717  29.462  1.00  0.00     0.064 A 
ATOM     76  C   UNL A   1      35.506  30.963  29.032  1.00  0.00     0.173 A 
ATOM     77  C   UNL A   1      36.608  33.089  29.164  1.00  0.00     0.173 A 
ATOM     78  F   UNL A   1      35.471  29.642  29.257  1.00  0.00    -0.203 F 
ATOM     79  C   UNL A   1      34.465  31.548  28.311  1.00  0.00     0.198 A 
ATOM     80  C   UNL A   1      35.552  33.679  28.472  1.00  0.00     0.198 A 
ATOM     81  F   UNL A   1      37.641  33.858  29.539  1.00  0.00    -0.203 F 
ATOM     82  F   UNL A   1      33.457  30.791  27.857  1.00  0.00    -0.200 F 
ATOM     83  C   UNL A   1      34.486  32.907  28.037  1.00  0.00     0.200 A 
ATOM     84  F   UNL A   1      35.573  34.994  28.217  1.00  0.00    -0.200 F 
ATOM     85  F   UNL A   1      33.488  33.469  27.341  1.00  0.00    -0.200 F 
ENDBRANCH  51  75
BRANCH  63  86
ATOM     86  C   UNL A   1      39.070  32.166  35.973  1.00  0.00     0.064 A 
ATOM     87  C   UNL A   1      38.235  31.623  36.960  1.00  0.00     0.173 A 
ATOM     88  C   UNL A   1      39.545  33.474  36.168  1.00  0.00     0.173 A 
ATOM     89  F   UNL A   1      37.745  30.382  36.821  1.00  0.00    -0.203 F 
ATOM     90  C   UNL A   1      37.868  32.367  38.080  1.00  0.00     0.198 A 
ATOM     91  C   UNL A   1      39.205  34.203  37.305  1.00  0.00     0.198 A 
ATOM     92  F   UNL A   1      40.355  34.042  35.262  1.00  0.00    -0.203 F 
ATOM     93  F   UNL A   1      37.029  31.844  38.984  1.00  0.00    -0.200 F 
ATOM     94  C   UNL A   1      38.360  33.652  38.256  1.00  0.00     0.200 A 
ATOM     95  F   UNL A   1      39.696  35.437  37.481  1.00  0.00    -0.200 F 
ATOM     96  F   UNL A   1      38.015  34.362  39.338  1.00  0.00    -0.200 F 
ENDBRANCH  63  86
ENDBRANCH  37  38
ENDBRANCH  30  32
ENDBRANCH  29  30
ENDBRANCH  28  29
ENDBRANCH  27  28
ENDBRANCH  26  27
ENDBRANCH  25  26
ENDBRANCH   1  25
TORSDOF 23
ENDMDL
MODEL 2
REMARK VINA RESULT:      -9.9      4.642      7.343
REMARK SMILES C#CCN(CC(=O)OCCOCCOCCOC(=O)c1ccc(-c2c3nc(c(-c4c(F)c(F)c(F)c(F)c4F)c4ccc([nH]4)c(-c4c(F)c(F)c(F)c(F)c4F)c4nc(c(-c5c(F)c(F)c(F)c(F)c5F)c5ccc2[nH]5)C=C4)C=C3)cc1)C(=O)NCc1ccnc(C)n1
REMARK SMILES IDX 12 1 11 2 10 3 9 4 8 5 6 6 7 7 5 8 4 9 3 10 2 11 1 12 83 13
REMARK SMILES IDX 84 14 85 15 86 17 87 18 88 19 93 20 89 21 91 22 90 23 92 24
REMARK SMILES IDX 13 25 14 26 15 27 16 28 17 29 18 30 19 31 20 32 21 33 82 34
REMARK SMILES IDX 22 35 81 36 23 37 24 38 25 39 75 40 26 41 80 42 74 43 76 44
REMARK SMILES IDX 27 45 79 46 73 47 72 48 28 50 60 51 40 52 59 53 41 54 44 55
REMARK SMILES IDX 58 56 77 57 42 58 43 59 57 61 78 62 45 63 29 64 30 65 38 66
REMARK SMILES IDX 31 67 32 68 36 69 39 70 33 71 34 72 37 73 35 74 61 75 62 76
REMARK SMILES IDX 70 77 63 78 64 79 68 80 71 81 65 82 66 83 69 84 67 85 46 86
REMARK SMILES IDX 47 87 55 88 48 89 49 90 53 91 56 92 50 93 51 94 54 95 52 96
REMARK H PARENT 85 16 76 49 44 60
REMARK Flexibility Score: inf
ROOT
ATOM      1  C   UNL A   1      35.825  21.448  25.562  1.00  0.00     0.188 C 
ENDROOT
BRANCH   1   2
ATOM      2  O   UNL A   1      34.602  21.653  26.258  1.00  0.00    -0.376 OA
BRANCH   2   3
ATOM      3  C   UNL A   1      34.496  22.962  26.820  1.00  0.00     0.202 C 
BRANCH   3   4
ATOM      4  C   UNL A   1      33.655  24.039  26.081  1.00  0.00     0.261 C 
BRANCH   4   5
ATOM      5  O   UNL A   1      34.386  25.212  25.648  1.00  0.00    -0.462 OA
BRANCH   5   6
ATOM      6  C   UNL A   1      33.920  25.845  24.537  1.00  0.00     0.325 C 
ATOM      7  O   UNL A   1      33.995  27.061  24.369  1.00  0.00    -0.250 OA
BRANCH   6   8
ATOM      8  C   UNL A   1      33.169  24.930  23.533  1.00  0.00     0.245 C 
BRANCH   8   9
ATOM      9  N   UNL A   1      31.885  25.317  22.917  1.00  0.00    -0.303 N 
BRANCH   9  10
ATOM     10  C   UNL A   1      30.612  24.721  23.470  1.00  0.00     0.211 C 
BRANCH  10  11
ATOM     11  C   UNL A   1      30.289  25.227  24.867  1.00  0.00    -0.085 C 
ATOM     12  C   UNL A   1      30.012  25.660  26.065  1.00  0.00     0.006 C 
ENDBRANCH  10  11
ENDBRANCH   9  10
BRANCH   9  13
ATOM     13  C   UNL A   1      31.747  26.208  21.882  1.00  0.00     0.319 C 
ATOM     14  O   UNL A   1      31.832  25.841  20.705  1.00  0.00    -0.249 OA
ATOM     15  N   UNL A   1      31.623  27.535  22.014  1.00  0.00    -0.332 N 
ATOM     16  H   UNL A   1      31.781  27.952  21.136  1.00  0.00     0.165 HD
BRANCH  15  17
ATOM     17  C   UNL A   1      31.341  28.585  22.979  1.00  0.00     0.174 C 
BRANCH  17  18
ATOM     18  C   UNL A   1      29.869  28.981  23.115  1.00  0.00     0.063 A 
ATOM     19  C   UNL A   1      28.922  27.973  23.024  1.00  0.00     0.046 A 
ATOM     20  N   UNL A   1      29.500  30.289  23.200  1.00  0.00    -0.236 NA
ATOM     21  C   UNL A   1      27.601  28.347  23.066  1.00  0.00     0.115 A 
ATOM     22  C   UNL A   1      28.166  30.547  23.260  1.00  0.00     0.125 A 
ATOM     23  N   UNL A   1      27.198  29.616  23.184  1.00  0.00    -0.242 NA
ATOM     24  C   UNL A   1      27.671  31.954  23.415  1.00  0.00     0.089 C 
ENDBRANCH  17  18
ENDBRANCH  15  17
ENDBRANCH   9  13
ENDBRANCH   8   9
ENDBRANCH   6   8
ENDBRANCH   5   6
ENDBRANCH   4   5
ENDBRANCH   3   4
ENDBRANCH   2   3
ENDBRANCH   1   2
BRANCH   1  25
ATOM     25  C   UNL A   1      36.860  22.548  25.689  1.00  0.00     0.188 C 
BRANCH  25  26
ATOM     26  O   UNL A   1      38.118  22.172  25.157  1.00  0.00    -0.376 OA
BRANCH  26  27
ATOM     27  C   UNL A   1      38.406  20.793  25.348  1.00  0.00     0.202 C 
BRANCH  27  28
ATOM     28  C   UNL A   1      39.740  20.556  26.074  1.00  0.00     0.261 C 
BRANCH  28  29
ATOM     29  O   UNL A   1      40.384  19.301  25.738  1.00  0.00    -0.460 OA
BRANCH  29  30
ATOM     30  C   UNL A   1      41.712  19.186  25.999  1.00  0.00     0.338 C 
ATOM     31  O   UNL A   1      42.376  18.160  25.943  1.00  0.00    -0.246 OA
BRANCH  30  32
ATOM     32  C   UNL A   1      42.309  20.506  26.347  1.00  0.00     0.060 A 
ATOM     33  C   UNL A   1      42.224  20.968  27.665  1.00  0.00     0.016 A 
ATOM     34  C   UNL A   1      42.882  21.334  25.378  1.00  0.00     0.016 A 
ATOM     35  C   UNL A   1      42.755  22.218  28.023  1.00  0.00     0.010 A 
ATOM     36  C   UNL A   1      43.403  22.593  25.727  1.00  0.00     0.010 A 
ATOM     37  C   UNL A   1      43.326  23.054  27.052  1.00  0.00    -0.014 A 
BRANCH  37  38
ATOM     38  C   UNL A   1      43.575  24.491  27.371  1.00  0.00     0.031 A 
ATOM     39  C   UNL A   1      44.965  25.026  27.142  1.00  0.00     0.074 A 
ATOM     40  C   UNL A   1      42.616  25.326  27.815  1.00  0.00     0.049 A 
ATOM     41  N   UNL A   1      45.433  26.240  27.295  1.00  0.00    -0.248 NA
ATOM     42  C   UNL A   1      45.962  24.052  26.669  1.00  0.00     0.031 C 
ATOM     43  C   UNL A   1      41.223  24.965  28.058  1.00  0.00     0.029 A 
ATOM     44  N   UNL A   1      42.676  26.664  28.135  1.00  0.00    -0.354 N 
ATOM     45  C   UNL A   1      46.767  26.179  26.916  1.00  0.00     0.074 A 
ATOM     46  C   UNL A   1      47.046  24.802  26.564  1.00  0.00     0.031 C 
ATOM     47  C   UNL A   1      40.557  26.057  28.484  1.00  0.00     0.029 A 
ATOM     48  C   UNL A   1      41.482  27.189  28.573  1.00  0.00     0.049 A 
ATOM     49  H   UNL A   1      43.500  27.198  28.059  1.00  0.00     0.167 HD
ATOM     50  C   UNL A   1      47.683  27.174  26.854  1.00  0.00     0.037 A 
ATOM     51  C   UNL A   1      41.177  28.431  29.005  1.00  0.00     0.037 A 
ATOM     52  C   UNL A   1      47.436  28.537  27.241  1.00  0.00     0.049 A 
ATOM     53  C   UNL A   1      42.245  29.504  29.026  1.00  0.00     0.074 A 
ATOM     54  C   UNL A   1      48.311  29.608  27.230  1.00  0.00     0.029 A 
ATOM     55  N   UNL A   1      46.228  29.010  27.729  1.00  0.00    -0.354 N 
ATOM     56  N   UNL A   1      43.492  29.445  28.627  1.00  0.00    -0.248 NA
ATOM     57  C   UNL A   1      41.857  30.820  29.561  1.00  0.00     0.031 C 
ATOM     58  C   UNL A   1      47.652  30.716  27.771  1.00  0.00     0.029 A 
ATOM     59  C   UNL A   1      46.344  30.353  28.052  1.00  0.00     0.049 A 
ATOM     60  H   UNL A   1      45.410  28.473  27.831  1.00  0.00     0.167 HD
ATOM     61  C   UNL A   1      44.022  30.716  28.826  1.00  0.00     0.074 A 
ATOM     62  C   UNL A   1      42.959  31.532  29.370  1.00  0.00     0.031 C 
ATOM     63  C   UNL A   1      45.278  31.166  28.579  1.00  0.00     0.037 A 
BRANCH  50  64
ATOM     64  C   UNL A   1      49.060  26.805  26.383  1.00  0.00     0.064 A 
ATOM     65  C   UNL A   1      49.447  26.963  25.043  1.00  0.00     0.173 A 
ATOM     66  C   UNL A   1      50.003  26.289  27.282  1.00  0.00     0.173 A 
ATOM     67  F   UNL A   1      48.574  27.437  24.140  1.00  0.00    -0.203 F 
ATOM     68  C   UNL A   1      50.717  26.587  24.616  1.00  0.00     0.198 A 
ATOM     69  C   UNL A   1      51.283  25.944  26.859  1.00  0.00     0.198 A 
ATOM     70  F   UNL A   1      49.683  26.120  28.575  1.00  0.00    -0.203 F 
ATOM     71  F   UNL A   1      51.047  26.694  23.321  1.00  0.00    -0.200 F 
ATOM     72  C   UNL A   1      51.635  26.084  25.525  1.00  0.00     0.200 A 
ATOM     73  F   UNL A   1      52.173  25.469  27.741  1.00  0.00    -0.200 F 
ATOM     74  F   UNL A   1      52.859  25.724  25.114  1.00  0.00    -0.200 F 
ENDBRANCH  50  64
BRANCH  51  75
ATOM     75  C   UNL A   1      39.798  28.754  29.475  1.00  0.00     0.064 A 
ATOM     76  C   UNL A   1      39.393  28.485  30.792  1.00  0.00     0.173 A 
ATOM     77  C   UNL A   1      38.834  29.274  28.597  1.00  0.00     0.173 A 
ATOM     78  F   UNL A   1      40.263  27.953  31.663  1.00  0.00    -0.203 F 
ATOM     79  C   UNL A   1      38.077  28.698  31.203  1.00  0.00     0.198 A 
ATOM     80  C   UNL A   1      37.528  29.517  29.019  1.00  0.00     0.198 A 
ATOM     81  F   UNL A   1      39.159  29.539  27.324  1.00  0.00    -0.203 F 
ATOM     82  F   UNL A   1      37.704  28.371  32.448  1.00  0.00    -0.200 F 
ATOM     83  C   UNL A   1      37.147  29.220  30.318  1.00  0.00     0.200 A 
ATOM     84  F   UNL A   1      36.635  30.030  28.161  1.00  0.00    -0.200 F 
ATOM     85  F   UNL A   1      35.882  29.421  30.711  1.00  0.00    -0.200 F 
ENDBRANCH  51  75
BRANCH  63  86
ATOM     86  C   UNL A   1      45.570  32.619  28.843  1.00  0.00     0.064 A 
ATOM     87  C   UNL A   1      46.070  33.066  30.075  1.00  0.00     0.173 A 
ATOM     88  C   UNL A   1      45.397  33.571  27.825  1.00  0.00     0.173 A 
ATOM     89  F   UNL A   1      46.246  32.201  31.086  1.00  0.00    -0.203 F 
ATOM     90  C   UNL A   1      46.357  34.413  30.287  1.00  0.00     0.198 A 
ATOM     91  C   UNL A   1      45.717  34.911  28.029  1.00  0.00     0.198 A 
ATOM     92  F   UNL A   1      44.932  33.200  26.623  1.00  0.00    -0.203 F 
ATOM     93  F   UNL A   1      46.786  34.823  31.489  1.00  0.00    -0.200 F 
ATOM     94  C   UNL A   1      46.189  35.332  29.262  1.00  0.00     0.200 A 
ATOM     95  F   UNL A   1      45.571  35.794  27.031  1.00  0.00    -0.200 F 
ATOM     96  F   UNL A   1      46.476  36.625  29.466  1.00  0.00    -0.200 F 
ENDBRANCH  63  86
ENDBRANCH  37  38
ENDBRANCH  30  32
ENDBRANCH  29  30
ENDBRANCH  28  29
ENDBRANCH  27  28
ENDBRANCH  26  27
ENDBRANCH  25  26
ENDBRANCH   1  25
TORSDOF 23
ENDMDL
MODEL 3
REMARK VINA RESULT:      -9.8      4.408      8.919
REMARK SMILES C#CCN(CC(=O)OCCOCCOCCOC(=O)c1ccc(-c2c3nc(c(-c4c(F)c(F)c(F)c(F)c4F)c4ccc([nH]4)c(-c4c(F)c(F)c(F)c(F)c4F)c4nc(c(-c5c(F)c(F)c(F)c(F)c5F)c5ccc2[nH]5)C=C4)C=C3)cc1)C(=O)NCc1ccnc(C)n1
REMARK SMILES IDX 12 1 11 2 10 3 9 4 8 5 6 6 7 7 5 8 4 9 3 10 2 11 1 12 83 13
REMARK SMILES IDX 84 14 85 15 86 17 87 18 88 19 93 20 89 21 91 22 90 23 92 24
REMARK SMILES IDX 13 25 14 26 15 27 16 28 17 29 18 30 19 31 20 32 21 33 82 34
REMARK SMILES IDX 22 35 81 36 23 37 24 38 25 39 75 40 26 41 80 42 74 43 76 44
REMARK SMILES IDX 27 45 79 46 73 47 72 48 28 50 60 51 40 52 59 53 41 54 44 55
REMARK SMILES IDX 58 56 77 57 42 58 43 59 57 61 78 62 45 63 29 64 30 65 38 66
REMARK SMILES IDX 31 67 32 68 36 69 39 70 33 71 34 72 37 73 35 74 61 75 62 76
REMARK SMILES IDX 70 77 63 78 64 79 68 80 71 81 65 82 66 83 69 84 67 85 46 86
REMARK SMILES IDX 47 87 55 88 48 89 49 90 53 91 56 92 50 93 51 94 54 95 52 96
REMARK H PARENT 85 16 76 49 44 60
REMARK Flexibility Score: inf
ROOT
ATOM      1  C   UNL A   1      32.539  20.278  24.504  1.00  0.00     0.188 C 
ENDROOT
BRANCH   1   2
ATOM      2  O   UNL A   1      32.204  20.787  23.219  1.00  0.00    -0.376 OA
BRANCH   2   3
ATOM      3  C   UNL A   1      32.615  22.144  23.035  1.00  0.00     0.202 C 
BRANCH   3   4
ATOM      4  C   UNL A   1      31.544  23.269  23.054  1.00  0.00     0.261 C 
BRANCH   4   5
ATOM      5  O   UNL A   1      32.060  24.618  23.154  1.00  0.00    -0.462 OA
BRANCH   5   6
ATOM      6  C   UNL A   1      32.235  25.293  21.985  1.00  0.00     0.325 C 
ATOM      7  O   UNL A   1      32.955  24.892  21.072  1.00  0.00    -0.250 OA
BRANCH   6   8
ATOM      8  C   UNL A   1      31.548  26.685  21.928  1.00  0.00     0.245 C 
BRANCH   8   9
ATOM      9  N   UNL A   1      31.890  27.775  22.863  1.00  0.00    -0.303 N 
BRANCH   9  10
ATOM     10  C   UNL A   1      30.961  28.963  22.954  1.00  0.00     0.211 C 
BRANCH  10  11
ATOM     11  C   UNL A   1      29.497  28.557  23.010  1.00  0.00    -0.085 C 
ATOM     12  C   UNL A   1      28.242  28.209  23.058  1.00  0.00     0.006 C 
ENDBRANCH  10  11
ENDBRANCH   9  10
BRANCH   9  13
ATOM     13  C   UNL A   1      32.987  27.788  23.688  1.00  0.00     0.319 C 
ATOM     14  O   UNL A   1      34.098  28.129  23.271  1.00  0.00    -0.249 OA
ATOM     15  N   UNL A   1      33.009  27.346  24.953  1.00  0.00    -0.332 N 
ATOM     16  H   UNL A   1      33.948  27.246  25.232  1.00  0.00     0.165 HD
BRANCH  15  17
ATOM     17  C   UNL A   1      32.155  26.961  26.065  1.00  0.00     0.174 C 
BRANCH  17  18
ATOM     18  C   UNL A   1      32.098  25.461  26.366  1.00  0.00     0.063 A 
ATOM     19  C   UNL A   1      33.282  24.746  26.291  1.00  0.00     0.046 A 
ATOM     20  N   UNL A   1      30.908  24.835  26.579  1.00  0.00    -0.236 NA
ATOM     21  C   UNL A   1      33.208  23.388  26.483  1.00  0.00     0.115 A 
ATOM     22  C   UNL A   1      30.950  23.490  26.781  1.00  0.00     0.125 A 
ATOM     23  N   UNL A   1      32.064  22.740  26.729  1.00  0.00    -0.242 NA
ATOM     24  C   UNL A   1      29.694  22.729  27.083  1.00  0.00     0.089 C 
ENDBRANCH  17  18
ENDBRANCH  15  17
ENDBRANCH   9  13
ENDBRANCH   8   9
ENDBRANCH   6   8
ENDBRANCH   5   6
ENDBRANCH   4   5
ENDBRANCH   3   4
ENDBRANCH   2   3
ENDBRANCH   1   2
BRANCH   1  25
ATOM     25  C   UNL A   1      33.869  19.557  24.613  1.00  0.00     0.188 C 
BRANCH  25  26
ATOM     26  O   UNL A   1      34.916  20.414  25.032  1.00  0.00    -0.376 OA
BRANCH  26  27
ATOM     27  C   UNL A   1      36.192  19.789  24.979  1.00  0.00     0.202 C 
BRANCH  27  28
ATOM     28  C   UNL A   1      37.323  20.769  24.629  1.00  0.00     0.261 C 
BRANCH  28  29
ATOM     29  O   UNL A   1      37.784  21.567  25.749  1.00  0.00    -0.460 OA
BRANCH  29  30
ATOM     30  C   UNL A   1      39.070  21.401  26.152  1.00  0.00     0.338 C 
ATOM     31  O   UNL A   1      39.721  20.366  26.094  1.00  0.00    -0.246 OA
BRANCH  30  32
ATOM     32  C   UNL A   1      39.642  22.676  26.668  1.00  0.00     0.060 A 
ATOM     33  C   UNL A   1      39.182  23.891  26.149  1.00  0.00     0.016 A 
ATOM     34  C   UNL A   1      40.684  22.692  27.600  1.00  0.00     0.016 A 
ATOM     35  C   UNL A   1      39.717  25.110  26.595  1.00  0.00     0.010 A 
ATOM     36  C   UNL A   1      41.233  23.910  28.041  1.00  0.00     0.010 A 
ATOM     37  C   UNL A   1      40.766  25.131  27.526  1.00  0.00    -0.014 A 
BRANCH  37  38
ATOM     38  C   UNL A   1      41.541  26.389  27.736  1.00  0.00     0.031 A 
ATOM     39  C   UNL A   1      40.861  27.515  28.472  1.00  0.00     0.074 A 
ATOM     40  C   UNL A   1      42.817  26.546  27.333  1.00  0.00     0.049 A 
ATOM     41  N   UNL A   1      41.323  28.689  28.822  1.00  0.00    -0.248 NA
ATOM     42  C   UNL A   1      39.464  27.274  28.869  1.00  0.00     0.031 C 
ATOM     43  C   UNL A   1      43.616  25.543  26.636  1.00  0.00     0.029 A 
ATOM     44  N   UNL A   1      43.668  27.621  27.461  1.00  0.00    -0.354 N 
ATOM     45  C   UNL A   1      40.285  29.314  29.499  1.00  0.00     0.074 A 
ATOM     46  C   UNL A   1      39.156  28.408  29.476  1.00  0.00     0.031 C 
ATOM     47  C   UNL A   1      44.844  26.047  26.404  1.00  0.00     0.029 A 
ATOM     48  C   UNL A   1      44.911  27.421  26.909  1.00  0.00     0.049 A 
ATOM     49  H   UNL A   1      43.409  28.460  27.909  1.00  0.00     0.167 HD
ATOM     50  C   UNL A   1      40.266  30.529  30.098  1.00  0.00     0.037 A 
ATOM     51  C   UNL A   1      45.971  28.251  26.811  1.00  0.00     0.037 A 
ATOM     52  C   UNL A   1      41.362  31.459  30.093  1.00  0.00     0.049 A 
ATOM     53  C   UNL A   1      45.891  29.645  27.396  1.00  0.00     0.074 A 
ATOM     54  C   UNL A   1      41.425  32.721  30.656  1.00  0.00     0.029 A 
ATOM     55  N   UNL A   1      42.582  31.236  29.474  1.00  0.00    -0.354 N 
ATOM     56  N   UNL A   1      44.919  30.211  28.069  1.00  0.00    -0.248 NA
ATOM     57  C   UNL A   1      47.063  30.517  27.205  1.00  0.00     0.031 C 
ATOM     58  C   UNL A   1      42.660  33.286  30.326  1.00  0.00     0.029 A 
ATOM     59  C   UNL A   1      43.395  32.349  29.617  1.00  0.00     0.049 A 
ATOM     60  H   UNL A   1      42.835  30.408  29.004  1.00  0.00     0.167 HD
ATOM     61  C   UNL A   1      45.374  31.481  28.412  1.00  0.00     0.074 A 
ATOM     62  C   UNL A   1      46.715  31.601  27.884  1.00  0.00     0.031 C 
ATOM     63  C   UNL A   1      44.736  32.459  29.103  1.00  0.00     0.037 A 
BRANCH  50  64
ATOM     64  C   UNL A   1      38.990  30.934  30.776  1.00  0.00     0.064 A 
ATOM     65  C   UNL A   1      37.956  31.577  30.077  1.00  0.00     0.173 A 
ATOM     66  C   UNL A   1      38.798  30.676  32.141  1.00  0.00     0.173 A 
ATOM     67  F   UNL A   1      38.099  31.862  28.774  1.00  0.00    -0.203 F 
ATOM     68  C   UNL A   1      36.791  31.974  30.728  1.00  0.00     0.198 A 
ATOM     69  C   UNL A   1      37.619  31.045  32.781  1.00  0.00     0.198 A 
ATOM     70  F   UNL A   1      39.755  30.062  32.854  1.00  0.00    -0.203 F 
ATOM     71  F   UNL A   1      35.841  32.637  30.054  1.00  0.00    -0.200 F 
ATOM     72  C   UNL A   1      36.622  31.702  32.077  1.00  0.00     0.200 A 
ATOM     73  F   UNL A   1      37.452  30.771  34.082  1.00  0.00    -0.200 F 
ATOM     74  F   UNL A   1      35.499  32.084  32.702  1.00  0.00    -0.200 F 
ENDBRANCH  50  64
BRANCH  51  75
ATOM     75  C   UNL A   1      47.218  27.813  26.118  1.00  0.00     0.064 A 
ATOM     76  C   UNL A   1      47.315  27.814  24.718  1.00  0.00     0.173 A 
ATOM     77  C   UNL A   1      48.314  27.317  26.840  1.00  0.00     0.173 A 
ATOM     78  F   UNL A   1      46.283  28.243  23.976  1.00  0.00    -0.203 F 
ATOM     79  C   UNL A   1      48.444  27.315  24.069  1.00  0.00     0.198 A 
ATOM     80  C   UNL A   1      49.455  26.848  26.192  1.00  0.00     0.198 A 
ATOM     81  F   UNL A   1      48.274  27.278  28.180  1.00  0.00    -0.203 F 
ATOM     82  F   UNL A   1      48.482  27.269  22.731  1.00  0.00    -0.200 F 
ATOM     83  C   UNL A   1      49.516  26.838  24.807  1.00  0.00     0.200 A 
ATOM     84  F   UNL A   1      50.492  26.395  26.910  1.00  0.00    -0.200 F 
ATOM     85  F   UNL A   1      50.601  26.354  24.185  1.00  0.00    -0.200 F 
ENDBRANCH  51  75
BRANCH  63  86
ATOM     86  C   UNL A   1      45.490  33.732  29.379  1.00  0.00     0.064 A 
ATOM     87  C   UNL A   1      45.371  34.861  28.555  1.00  0.00     0.173 A 
ATOM     88  C   UNL A   1      46.303  33.840  30.518  1.00  0.00     0.173 A 
ATOM     89  F   UNL A   1      44.615  34.812  27.448  1.00  0.00    -0.203 F 
ATOM     90  C   UNL A   1      46.059  36.037  28.845  1.00  0.00     0.198 A 
ATOM     91  C   UNL A   1      46.962  35.027  30.825  1.00  0.00     0.198 A 
ATOM     92  F   UNL A   1      46.446  32.795  31.349  1.00  0.00    -0.203 F 
ATOM     93  F   UNL A   1      45.969  37.086  28.016  1.00  0.00    -0.200 F 
ATOM     94  C   UNL A   1      46.847  36.123  29.984  1.00  0.00     0.200 A 
ATOM     95  F   UNL A   1      47.708  35.112  31.936  1.00  0.00    -0.200 F 
ATOM     96  F   UNL A   1      47.499  37.258  30.267  1.00  0.00    -0.200 F 
ENDBRANCH  63  86
ENDBRANCH  37  38
ENDBRANCH  30  32
ENDBRANCH  29  30
ENDBRANCH  28  29
ENDBRANCH  27  28
ENDBRANCH  26  27
ENDBRANCH  25  26
ENDBRANCH   1  25
TORSDOF 23
ENDMDL
