MODEL 1
REMARK VINA RESULT:     -10.5      0.000      0.000
REMARK SMILES O=C(OCCOCCOCCOC(=O)[C@H]1C[C@H](O)CN1C(=O)CS[C@H]1CCS(=O)(=O)C1)c1ccc(-c2c3nc(c(-c4c(F)c(F)c(F)c(F)c4F)c4ccc([nH]4)c(-c4c(F)c(F)c(F)c(F)c4F)c4nc(c(-c5c(F)c(F)c(F)c(F)c5F)c5ccc2[nH]5)C=C4)C=C3)cc1
REMARK SMILES IDX 8 1 7 2 6 3 5 4 4 5 3 6 2 7 1 8 32 9 33 10 94 11 34 12 93 13
REMARK SMILES IDX 35 14 36 15 37 16 87 17 38 18 92 19 86 20 88 21 39 22 91 23
REMARK SMILES IDX 85 24 84 25 40 27 72 28 52 29 71 30 53 31 56 32 70 33 89 34
REMARK SMILES IDX 54 35 55 36 69 38 90 39 57 40 41 41 42 42 50 43 43 44 44 45
REMARK SMILES IDX 48 46 51 47 45 48 46 49 49 50 47 51 73 52 74 53 82 54 75 55
REMARK SMILES IDX 76 56 80 57 83 58 77 59 78 60 81 61 79 62 58 63 59 64 67 65
REMARK SMILES IDX 60 66 61 67 65 68 68 69 62 70 63 71 66 72 64 73 9 74 10 75
REMARK SMILES IDX 11 76 12 77 13 78 14 79 15 80 16 81 20 82 17 83 19 84 21 85
REMARK SMILES IDX 22 86 23 87 24 88 25 89 26 90 31 91 27 92 28 93 29 94 30 95
REMARK SMILES IDX 18 96
REMARK H PARENT 88 26 56 37 18 97
REMARK Flexibility Score: inf
ROOT
ATOM      1  C   UNL A   1      32.916  29.344  24.464  1.00  0.00     0.188 C 
ENDROOT
BRANCH   1   2
ATOM      2  C   UNL A   1      31.575  29.797  25.042  1.00  0.00     0.188 C 
BRANCH   2   3
ATOM      3  O   UNL A   1      31.664  30.236  26.402  1.00  0.00    -0.376 OA
BRANCH   3   4
ATOM      4  C   UNL A   1      31.509  31.649  26.579  1.00  0.00     0.202 C 
BRANCH   4   5
ATOM      5  C   UNL A   1      32.645  32.384  27.316  1.00  0.00     0.261 C 
BRANCH   5   6
ATOM      6  O   UNL A   1      32.368  33.766  27.608  1.00  0.00    -0.460 OA
BRANCH   6   7
ATOM      7  C   UNL A   1      32.972  34.585  28.506  1.00  0.00     0.338 C 
ATOM      8  O   UNL A   1      32.481  35.693  28.714  1.00  0.00    -0.246 OA
BRANCH   7   9
ATOM      9  C   UNL A   1      34.211  34.218  29.256  1.00  0.00     0.060 A 
ATOM     10  C   UNL A   1      35.509  34.431  28.799  1.00  0.00     0.016 A 
ATOM     11  C   UNL A   1      34.057  33.653  30.536  1.00  0.00     0.016 A 
ATOM     12  C   UNL A   1      36.614  33.985  29.500  1.00  0.00     0.010 A 
ATOM     13  C   UNL A   1      35.168  33.241  31.280  1.00  0.00     0.010 A 
ATOM     14  C   UNL A   1      36.447  33.357  30.728  1.00  0.00    -0.014 A 
BRANCH  14  15
ATOM     15  C   UNL A   1      37.619  32.650  31.273  1.00  0.00     0.031 A 
ATOM     16  C   UNL A   1      38.021  32.961  32.684  1.00  0.00     0.074 A 
ATOM     17  C   UNL A   1      38.157  31.625  30.591  1.00  0.00     0.049 A 
ATOM     18  N   UNL A   1      38.984  32.458  33.407  1.00  0.00    -0.248 NA
ATOM     19  C   UNL A   1      37.206  33.969  33.387  1.00  0.00     0.031 C 
ATOM     20  C   UNL A   1      37.709  31.168  29.274  1.00  0.00     0.029 A 
ATOM     21  N   UNL A   1      39.157  30.755  30.925  1.00  0.00    -0.354 N 
ATOM     22  C   UNL A   1      38.916  33.115  34.627  1.00  0.00     0.074 A 
ATOM     23  C   UNL A   1      37.824  34.054  34.553  1.00  0.00     0.031 C 
ATOM     24  C   UNL A   1      38.413  30.079  28.924  1.00  0.00     0.029 A 
ATOM     25  C   UNL A   1      39.406  29.812  29.959  1.00  0.00     0.049 A 
ATOM     26  H   UNL A   1      39.650  30.801  31.777  1.00  0.00     0.167 HD
ATOM     27  C   UNL A   1      39.714  32.948  35.707  1.00  0.00     0.037 A 
ATOM     28  C   UNL A   1      40.358  28.863  29.919  1.00  0.00     0.037 A 
ATOM     29  C   UNL A   1      40.790  31.997  35.741  1.00  0.00     0.049 A 
ATOM     30  C   UNL A   1      41.300  28.769  31.090  1.00  0.00     0.074 A 
ATOM     31  C   UNL A   1      41.711  31.761  36.743  1.00  0.00     0.029 A 
ATOM     32  N   UNL A   1      41.087  31.118  34.703  1.00  0.00    -0.354 N 
ATOM     33  N   UNL A   1      41.287  29.440  32.219  1.00  0.00    -0.248 NA
ATOM     34  C   UNL A   1      42.393  27.797  30.981  1.00  0.00     0.031 C 
ATOM     35  C   UNL A   1      42.603  30.785  36.286  1.00  0.00     0.029 A 
ATOM     36  C   UNL A   1      42.193  30.355  35.031  1.00  0.00     0.049 A 
ATOM     37  H   UNL A   1      40.583  31.049  33.861  1.00  0.00     0.167 HD
ATOM     38  C   UNL A   1      42.348  28.954  32.968  1.00  0.00     0.074 A 
ATOM     39  C   UNL A   1      42.974  27.920  32.166  1.00  0.00     0.031 C 
ATOM     40  C   UNL A   1      42.771  29.322  34.204  1.00  0.00     0.037 A 
BRANCH  27  41
ATOM     41  C   UNL A   1      39.499  33.882  36.864  1.00  0.00     0.064 A 
ATOM     42  C   UNL A   1      40.064  35.166  36.913  1.00  0.00     0.173 A 
ATOM     43  C   UNL A   1      38.770  33.447  37.982  1.00  0.00     0.173 A 
ATOM     44  F   UNL A   1      40.800  35.620  35.886  1.00  0.00    -0.203 F 
ATOM     45  C   UNL A   1      39.946  35.959  38.054  1.00  0.00     0.198 A 
ATOM     46  C   UNL A   1      38.624  34.256  39.106  1.00  0.00     0.198 A 
ATOM     47  F   UNL A   1      38.214  32.227  37.994  1.00  0.00    -0.203 F 
ATOM     48  F   UNL A   1      40.565  37.148  38.109  1.00  0.00    -0.200 F 
ATOM     49  C   UNL A   1      39.225  35.504  39.148  1.00  0.00     0.200 A 
ATOM     50  F   UNL A   1      37.922  33.816  40.159  1.00  0.00    -0.200 F 
ATOM     51  F   UNL A   1      39.125  36.261  40.249  1.00  0.00    -0.200 F 
ENDBRANCH  27  41
BRANCH  28  52
ATOM     52  C   UNL A   1      40.484  27.971  28.734  1.00  0.00     0.064 A 
ATOM     53  C   UNL A   1      41.194  28.370  27.594  1.00  0.00     0.173 A 
ATOM     54  C   UNL A   1      39.886  26.700  28.712  1.00  0.00     0.173 A 
ATOM     55  F   UNL A   1      41.767  29.582  27.551  1.00  0.00    -0.203 F 
ATOM     56  C   UNL A   1      41.286  27.544  26.474  1.00  0.00     0.198 A 
ATOM     57  C   UNL A   1      40.006  25.861  27.605  1.00  0.00     0.198 A 
ATOM     58  F   UNL A   1      39.187  26.269  29.771  1.00  0.00    -0.203 F 
ATOM     59  F   UNL A   1      41.927  27.974  25.378  1.00  0.00    -0.200 F 
ATOM     60  C   UNL A   1      40.697  26.287  26.483  1.00  0.00     0.200 A 
ATOM     61  F   UNL A   1      39.437  24.648  27.621  1.00  0.00    -0.200 F 
ATOM     62  F   UNL A   1      40.782  25.497  25.404  1.00  0.00    -0.200 F 
ENDBRANCH  28  52
BRANCH  40  63
ATOM     63  C   UNL A   1      43.920  28.553  34.785  1.00  0.00     0.064 A 
ATOM     64  C   UNL A   1      45.244  28.995  34.669  1.00  0.00     0.173 A 
ATOM     65  C   UNL A   1      43.678  27.374  35.507  1.00  0.00     0.173 A 
ATOM     66  F   UNL A   1      45.527  30.109  33.977  1.00  0.00    -0.203 F 
ATOM     67  C   UNL A   1      46.291  28.267  35.229  1.00  0.00     0.198 A 
ATOM     68  C   UNL A   1      44.721  26.670  36.099  1.00  0.00     0.198 A 
ATOM     69  F   UNL A   1      42.425  26.916  35.655  1.00  0.00    -0.203 F 
ATOM     70  F   UNL A   1      47.554  28.676  35.057  1.00  0.00    -0.200 F 
ATOM     71  C   UNL A   1      46.027  27.111  35.950  1.00  0.00     0.200 A 
ATOM     72  F   UNL A   1      44.461  25.565  36.812  1.00  0.00    -0.200 F 
ATOM     73  F   UNL A   1      47.034  26.418  36.497  1.00  0.00    -0.200 F 
ENDBRANCH  40  63
ENDBRANCH  14  15
ENDBRANCH   7   9
ENDBRANCH   6   7
ENDBRANCH   5   6
ENDBRANCH   4   5
ENDBRANCH   3   4
ENDBRANCH   2   3
ENDBRANCH   1   2
BRANCH   1  74
ATOM     74  O   UNL A   1      32.895  28.659  23.214  1.00  0.00    -0.376 OA
BRANCH  74  75
ATOM     75  C   UNL A   1      31.637  28.204  22.732  1.00  0.00     0.202 C 
BRANCH  75  76
ATOM     76  C   UNL A   1      31.491  26.715  22.381  1.00  0.00     0.261 C 
BRANCH  76  77
ATOM     77  O   UNL A   1      32.452  25.855  23.012  1.00  0.00    -0.462 OA
BRANCH  77  78
ATOM     78  C   UNL A   1      31.922  24.768  23.638  1.00  0.00     0.329 C 
ATOM     79  O   UNL A   1      31.115  23.994  23.132  1.00  0.00    -0.250 OA
BRANCH  78  80
ATOM     80  C   UNL A   1      32.432  24.640  25.087  1.00  0.00     0.197 C 
ATOM     81  C   UNL A   1      32.534  25.998  25.752  1.00  0.00     0.070 C 
ATOM     82  N   UNL A   1      31.386  23.975  25.876  1.00  0.00    -0.325 N 
ATOM     83  C   UNL A   1      31.076  26.336  26.075  1.00  0.00     0.136 C 
ATOM     84  C   UNL A   1      30.406  24.969  26.315  1.00  0.00     0.152 C 
BRANCH  82  85
ATOM     85  C   UNL A   1      31.364  22.603  26.018  1.00  0.00     0.233 C 
ATOM     86  O   UNL A   1      30.294  21.989  26.009  1.00  0.00    -0.274 OA
BRANCH  85  87
ATOM     87  C   UNL A   1      32.684  21.859  26.167  1.00  0.00     0.169 C 
BRANCH  87  88
ATOM     88  S   UNL A   1      33.147  20.935  24.648  1.00  0.00    -0.148 SA
BRANCH  88  89
ATOM     89  C   UNL A   1      34.836  21.541  24.427  1.00  0.00     0.063 C 
ATOM     90  C   UNL A   1      34.990  22.670  23.404  1.00  0.00     0.031 C 
ATOM     91  C   UNL A   1      35.428  22.108  25.711  1.00  0.00     0.151 C 
ATOM     92  C   UNL A   1      36.474  23.059  23.466  1.00  0.00     0.138 C 
ATOM     93  S   UNL A   1      36.989  22.745  25.156  1.00  0.00     0.151 S 
ATOM     94  O   UNL A   1      37.924  21.635  25.174  1.00  0.00    -0.229 OA
ATOM     95  O   UNL A   1      37.255  23.996  25.834  1.00  0.00    -0.229 OA
ENDBRANCH  88  89
ENDBRANCH  87  88
ENDBRANCH  85  87
ENDBRANCH  82  85
BRANCH  83  96
ATOM     96  O   UNL A   1      31.007  27.202  27.197  1.00  0.00    -0.391 OA
ATOM     97  H   UNL A   1      31.867  27.633  27.326  1.00  0.00     0.211 HD
ENDBRANCH  83  96
ENDBRANCH  78  80
ENDBRANCH  77  78
ENDBRANCH  76  77
ENDBRANCH  75  76
ENDBRANCH  74  75
ENDBRANCH   1  74
TORSDOF 22
ENDMDL
MODEL 2
REMARK VINA RESULT:     -10.3      4.525      7.447
REMARK SMILES O=C(OCCOCCOCCOC(=O)[C@H]1C[C@H](O)CN1C(=O)CS[C@H]1CCS(=O)(=O)C1)c1ccc(-c2c3nc(c(-c4c(F)c(F)c(F)c(F)c4F)c4ccc([nH]4)c(-c4c(F)c(F)c(F)c(F)c4F)c4nc(c(-c5c(F)c(F)c(F)c(F)c5F)c5ccc2[nH]5)C=C4)C=C3)cc1
REMARK SMILES IDX 8 1 7 2 6 3 5 4 4 5 3 6 2 7 1 8 32 9 33 10 94 11 34 12 93 13
REMARK SMILES IDX 35 14 36 15 37 16 87 17 38 18 92 19 86 20 88 21 39 22 91 23
REMARK SMILES IDX 85 24 84 25 40 27 72 28 52 29 71 30 53 31 56 32 70 33 89 34
REMARK SMILES IDX 54 35 55 36 69 38 90 39 57 40 41 41 42 42 50 43 43 44 44 45
REMARK SMILES IDX 48 46 51 47 45 48 46 49 49 50 47 51 73 52 74 53 82 54 75 55
REMARK SMILES IDX 76 56 80 57 83 58 77 59 78 60 81 61 79 62 58 63 59 64 67 65
REMARK SMILES IDX 60 66 61 67 65 68 68 69 62 70 63 71 66 72 64 73 9 74 10 75
REMARK SMILES IDX 11 76 12 77 13 78 14 79 15 80 16 81 20 82 17 83 19 84 21 85
REMARK SMILES IDX 22 86 23 87 24 88 25 89 26 90 31 91 27 92 28 93 29 94 30 95
REMARK SMILES IDX 18 96
REMARK H PARENT 88 26 56 37 18 97
REMARK Flexibility Score: inf
ROOT
ATOM      1  C   UNL A   1      34.704  31.896  28.373  1.00  0.00     0.188 C 
ENDROOT
BRANCH   1   2
ATOM      2  C   UNL A   1      35.424  33.241  28.280  1.00  0.00     0.188 C 
BRANCH   2   3
ATOM      3  O   UNL A   1      35.788  33.778  29.558  1.00  0.00    -0.376 OA
BRANCH   3   4
ATOM      4  C   UNL A   1      34.736  33.758  30.529  1.00  0.00     0.202 C 
BRANCH   4   5
ATOM      5  C   UNL A   1      35.158  33.814  32.010  1.00  0.00     0.261 C 
BRANCH   5   6
ATOM      6  O   UNL A   1      35.302  32.526  32.636  1.00  0.00    -0.460 OA
BRANCH   6   7
ATOM      7  C   UNL A   1      36.420  31.941  33.135  1.00  0.00     0.338 C 
ATOM      8  O   UNL A   1      36.647  32.037  34.339  1.00  0.00    -0.246 OA
BRANCH   7   9
ATOM      9  C   UNL A   1      37.402  31.185  32.298  1.00  0.00     0.060 A 
ATOM     10  C   UNL A   1      38.559  30.581  32.781  1.00  0.00     0.016 A 
ATOM     11  C   UNL A   1      37.115  31.039  30.928  1.00  0.00     0.016 A 
ATOM     12  C   UNL A   1      39.474  29.976  31.941  1.00  0.00     0.010 A 
ATOM     13  C   UNL A   1      38.008  30.385  30.072  1.00  0.00     0.010 A 
ATOM     14  C   UNL A   1      39.220  29.904  30.577  1.00  0.00    -0.014 A 
BRANCH  14  15
ATOM     15  C   UNL A   1      40.349  29.522  29.713  1.00  0.00     0.031 A 
ATOM     16  C   UNL A   1      41.470  30.506  29.562  1.00  0.00     0.074 A 
ATOM     17  C   UNL A   1      40.446  28.260  29.261  1.00  0.00     0.049 A 
ATOM     18  N   UNL A   1      42.587  30.402  28.894  1.00  0.00    -0.248 NA
ATOM     19  C   UNL A   1      41.321  31.781  30.286  1.00  0.00     0.031 C 
ATOM     20  C   UNL A   1      39.461  27.204  29.505  1.00  0.00     0.029 A 
ATOM     21  N   UNL A   1      41.434  27.638  28.549  1.00  0.00    -0.354 N 
ATOM     22  C   UNL A   1      43.247  31.608  29.082  1.00  0.00     0.074 A 
ATOM     23  C   UNL A   1      42.413  32.431  29.923  1.00  0.00     0.031 C 
ATOM     24  C   UNL A   1      39.910  26.054  28.977  1.00  0.00     0.029 A 
ATOM     25  C   UNL A   1      41.175  26.313  28.298  1.00  0.00     0.049 A 
ATOM     26  H   UNL A   1      42.252  28.096  28.247  1.00  0.00     0.167 HD
ATOM     27  C   UNL A   1      44.444  31.988  28.579  1.00  0.00     0.037 A 
ATOM     28  C   UNL A   1      41.879  25.430  27.569  1.00  0.00     0.037 A 
ATOM     29  C   UNL A   1      45.247  31.134  27.749  1.00  0.00     0.049 A 
ATOM     30  C   UNL A   1      43.157  25.911  26.933  1.00  0.00     0.074 A 
ATOM     31  C   UNL A   1      46.448  31.407  27.125  1.00  0.00     0.029 A 
ATOM     32  N   UNL A   1      44.911  29.823  27.423  1.00  0.00    -0.354 N 
ATOM     33  N   UNL A   1      43.751  27.077  27.048  1.00  0.00    -0.248 NA
ATOM     34  C   UNL A   1      43.857  24.963  26.060  1.00  0.00     0.031 C 
ATOM     35  C   UNL A   1      46.807  30.284  26.372  1.00  0.00     0.029 A 
ATOM     36  C   UNL A   1      45.871  29.281  26.587  1.00  0.00     0.049 A 
ATOM     37  H   UNL A   1      44.109  29.350  27.742  1.00  0.00     0.167 HD
ATOM     38  C   UNL A   1      44.908  26.996  26.287  1.00  0.00     0.074 A 
ATOM     39  C   UNL A   1      44.936  25.657  25.728  1.00  0.00     0.031 C 
ATOM     40  C   UNL A   1      45.864  27.934  26.068  1.00  0.00     0.037 A 
BRANCH  27  41
ATOM     41  C   UNL A   1      44.875  33.403  28.840  1.00  0.00     0.064 A 
ATOM     42  C   UNL A   1      44.543  34.464  27.982  1.00  0.00     0.173 A 
ATOM     43  C   UNL A   1      45.701  33.687  29.938  1.00  0.00     0.173 A 
ATOM     44  F   UNL A   1      43.784  34.243  26.897  1.00  0.00    -0.203 F 
ATOM     45  C   UNL A   1      45.061  35.742  28.187  1.00  0.00     0.198 A 
ATOM     46  C   UNL A   1      46.188  34.973  30.161  1.00  0.00     0.198 A 
ATOM     47  F   UNL A   1      46.057  32.713  30.787  1.00  0.00    -0.203 F 
ATOM     48  F   UNL A   1      44.798  36.719  27.307  1.00  0.00    -0.200 F 
ATOM     49  C   UNL A   1      45.881  35.996  29.276  1.00  0.00     0.200 A 
ATOM     50  F   UNL A   1      46.976  35.216  31.217  1.00  0.00    -0.200 F 
ATOM     51  F   UNL A   1      46.390  37.221  29.464  1.00  0.00    -0.200 F 
ENDBRANCH  27  41
BRANCH  28  52
ATOM     52  C   UNL A   1      41.380  24.040  27.379  1.00  0.00     0.064 A 
ATOM     53  C   UNL A   1      42.024  22.948  27.976  1.00  0.00     0.173 A 
ATOM     54  C   UNL A   1      40.252  23.773  26.586  1.00  0.00     0.173 A 
ATOM     55  F   UNL A   1      43.119  23.143  28.726  1.00  0.00    -0.203 F 
ATOM     56  C   UNL A   1      41.572  21.644  27.773  1.00  0.00     0.198 A 
ATOM     57  C   UNL A   1      39.782  22.472  26.410  1.00  0.00     0.198 A 
ATOM     58  F   UNL A   1      39.603  24.778  25.982  1.00  0.00    -0.203 F 
ATOM     59  F   UNL A   1      42.239  20.615  28.314  1.00  0.00    -0.200 F 
ATOM     60  C   UNL A   1      40.447  21.408  26.995  1.00  0.00     0.200 A 
ATOM     61  F   UNL A   1      38.694  22.251  25.660  1.00  0.00    -0.200 F 
ATOM     62  F   UNL A   1      40.018  20.154  26.798  1.00  0.00    -0.200 F 
ENDBRANCH  28  52
BRANCH  40  63
ATOM     63  C   UNL A   1      47.046  27.519  25.245  1.00  0.00     0.064 A 
ATOM     64  C   UNL A   1      47.150  27.828  23.883  1.00  0.00     0.173 A 
ATOM     65  C   UNL A   1      48.113  26.835  25.850  1.00  0.00     0.173 A 
ATOM     66  F   UNL A   1      46.150  28.469  23.257  1.00  0.00    -0.203 F 
ATOM     67  C   UNL A   1      48.265  27.441  23.146  1.00  0.00     0.198 A 
ATOM     68  C   UNL A   1      49.243  26.484  25.121  1.00  0.00     0.198 A 
ATOM     69  F   UNL A   1      48.066  26.526  27.155  1.00  0.00    -0.203 F 
ATOM     70  F   UNL A   1      48.319  27.696  21.832  1.00  0.00    -0.200 F 
ATOM     71  C   UNL A   1      49.313  26.778  23.767  1.00  0.00     0.200 A 
ATOM     72  F   UNL A   1      50.263  25.862  25.728  1.00  0.00    -0.200 F 
ATOM     73  F   UNL A   1      50.391  26.415  23.059  1.00  0.00    -0.200 F 
ENDBRANCH  40  63
ENDBRANCH  14  15
ENDBRANCH   7   9
ENDBRANCH   6   7
ENDBRANCH   5   6
ENDBRANCH   4   5
ENDBRANCH   3   4
ENDBRANCH   2   3
ENDBRANCH   1   2
BRANCH   1  74
ATOM     74  O   UNL A   1      34.354  31.252  27.150  1.00  0.00    -0.376 OA
BRANCH  74  75
ATOM     75  C   UNL A   1      33.399  30.200  27.208  1.00  0.00     0.202 C 
BRANCH  75  76
ATOM     76  C   UNL A   1      32.447  30.019  26.015  1.00  0.00     0.261 C 
BRANCH  76  77
ATOM     77  O   UNL A   1      31.527  28.924  26.146  1.00  0.00    -0.462 OA
BRANCH  77  78
ATOM     78  C   UNL A   1      31.819  27.837  25.381  1.00  0.00     0.329 C 
ATOM     79  O   UNL A   1      32.887  27.231  25.406  1.00  0.00    -0.250 OA
BRANCH  78  80
ATOM     80  C   UNL A   1      30.655  27.471  24.440  1.00  0.00     0.197 C 
ATOM     81  C   UNL A   1      30.121  28.700  23.730  1.00  0.00     0.070 C 
ATOM     82  N   UNL A   1      31.201  26.674  23.334  1.00  0.00    -0.325 N 
ATOM     83  C   UNL A   1      31.179  28.965  22.655  1.00  0.00     0.136 C 
ATOM     84  C   UNL A   1      31.739  27.571  22.311  1.00  0.00     0.152 C 
BRANCH  82  85
ATOM     85  C   UNL A   1      31.255  25.298  23.407  1.00  0.00     0.233 C 
ATOM     86  O   UNL A   1      30.541  24.684  24.204  1.00  0.00    -0.274 OA
BRANCH  85  87
ATOM     87  C   UNL A   1      32.197  24.549  22.474  1.00  0.00     0.169 C 
BRANCH  87  88
ATOM     88  S   UNL A   1      33.921  24.496  23.106  1.00  0.00    -0.148 SA
BRANCH  88  89
ATOM     89  C   UNL A   1      33.809  23.042  24.174  1.00  0.00     0.063 C 
ATOM     90  C   UNL A   1      32.955  21.897  23.621  1.00  0.00     0.031 C 
ATOM     91  C   UNL A   1      35.166  22.407  24.445  1.00  0.00     0.151 C 
ATOM     92  C   UNL A   1      33.088  20.770  24.654  1.00  0.00     0.138 C 
ATOM     93  S   UNL A   1      34.725  20.956  25.368  1.00  0.00     0.151 S 
ATOM     94  O   UNL A   1      34.599  21.364  26.755  1.00  0.00    -0.229 OA
ATOM     95  O   UNL A   1      35.573  19.859  24.954  1.00  0.00    -0.229 OA
ENDBRANCH  88  89
ENDBRANCH  87  88
ENDBRANCH  85  87
ENDBRANCH  82  85
BRANCH  83  96
ATOM     96  O   UNL A   1      30.597  29.629  21.544  1.00  0.00    -0.391 OA
ATOM     97  H   UNL A   1      29.718  29.257  21.368  1.00  0.00     0.211 HD
ENDBRANCH  83  96
ENDBRANCH  78  80
ENDBRANCH  77  78
ENDBRANCH  76  77
ENDBRANCH  75  76
ENDBRANCH  74  75
ENDBRANCH   1  74
TORSDOF 22
ENDMDL
MODEL 3
REMARK VINA RESULT:     -10.2      4.663      9.489
REMARK SMILES O=C(OCCOCCOCCOC(=O)[C@H]1C[C@H](O)CN1C(=O)CS[C@H]1CCS(=O)(=O)C1)c1ccc(-c2c3nc(c(-c4c(F)c(F)c(F)c(F)c4F)c4ccc([nH]4)c(-c4c(F)c(F)c(F)c(F)c4F)c4nc(c(-c5c(F)c(F)c(F)c(F)c5F)c5ccc2[nH]5)C=C4)C=C3)cc1
REMARK SMILES IDX 8 1 7 2 6 3 5 4 4 5 3 6 2 7 1 8 32 9 33 10 94 11 34 12 93 13
REMARK SMILES IDX 35 14 36 15 37 16 87 17 38 18 92 19 86 20 88 21 39 22 91 23
REMARK SMILES IDX 85 24 84 25 40 27 72 28 52 29 71 30 53 31 56 32 70 33 89 34
REMARK SMILES IDX 54 35 55 36 69 38 90 39 57 40 41 41 42 42 50 43 43 44 44 45
REMARK SMILES IDX 48 46 51 47 45 48 46 49 49 50 47 51 73 52 74 53 82 54 75 55
REMARK SMILES IDX 76 56 80 57 83 58 77 59 78 60 81 61 79 62 58 63 59 64 67 65
REMARK SMILES IDX 60 66 61 67 65 68 68 69 62 70 63 71 66 72 64 73 9 74 10 75
REMARK SMILES IDX 11 76 12 77 13 78 14 79 15 80 16 81 20 82 17 83 19 84 21 85
REMARK SMILES IDX 22 86 23 87 24 88 25 89 26 90 31 91 27 92 28 93 29 94 30 95
REMARK SMILES IDX 18 96
REMARK H PARENT 88 26 56 37 18 97
REMARK Flexibility Score: inf
ROOT
ATOM      1  C   UNL A   1      33.120  33.348  27.847  1.00  0.00     0.188 C 
ENDROOT
BRANCH   1   2
ATOM      2  C   UNL A   1      33.489  34.591  28.656  1.00  0.00     0.188 C 
BRANCH   2   3
ATOM      3  O   UNL A   1      33.559  34.349  30.066  1.00  0.00    -0.376 OA
BRANCH   3   4
ATOM      4  C   UNL A   1      34.500  33.338  30.446  1.00  0.00     0.202 C 
BRANCH   4   5
ATOM      5  C   UNL A   1      34.744  33.149  31.956  1.00  0.00     0.261 C 
BRANCH   5   6
ATOM      6  O   UNL A   1      35.260  31.856  32.318  1.00  0.00    -0.460 OA
BRANCH   6   7
ATOM      7  C   UNL A   1      36.456  31.540  32.877  1.00  0.00     0.338 C 
ATOM      8  O   UNL A   1      36.655  31.845  34.050  1.00  0.00    -0.246 OA
BRANCH   7   9
ATOM      9  C   UNL A   1      37.554  30.844  32.139  1.00  0.00     0.060 A 
ATOM     10  C   UNL A   1      38.674  30.274  32.737  1.00  0.00     0.016 A 
ATOM     11  C   UNL A   1      37.428  30.721  30.743  1.00  0.00     0.016 A 
ATOM     12  C   UNL A   1      39.702  29.725  31.993  1.00  0.00     0.010 A 
ATOM     13  C   UNL A   1      38.436  30.123  29.979  1.00  0.00     0.010 A 
ATOM     14  C   UNL A   1      39.603  29.678  30.608  1.00  0.00    -0.014 A 
BRANCH  14  15
ATOM     15  C   UNL A   1      40.837  29.361  29.868  1.00  0.00     0.031 A 
ATOM     16  C   UNL A   1      40.929  28.012  29.220  1.00  0.00     0.074 A 
ATOM     17  C   UNL A   1      41.735  30.330  29.622  1.00  0.00     0.049 A 
ATOM     18  N   UNL A   1      41.882  27.502  28.488  1.00  0.00    -0.248 NA
ATOM     19  C   UNL A   1      39.771  27.119  29.404  1.00  0.00     0.031 C 
ATOM     20  C   UNL A   1      41.628  31.712  30.095  1.00  0.00     0.029 A 
ATOM     21  N   UNL A   1      42.882  30.319  28.879  1.00  0.00    -0.354 N 
ATOM     22  C   UNL A   1      41.458  26.221  28.165  1.00  0.00     0.074 A 
ATOM     23  C   UNL A   1      40.166  26.025  28.776  1.00  0.00     0.031 C 
ATOM     24  C   UNL A   1      42.654  32.425  29.603  1.00  0.00     0.029 A 
ATOM     25  C   UNL A   1      43.523  31.532  28.845  1.00  0.00     0.049 A 
ATOM     26  H   UNL A   1      43.216  29.518  28.413  1.00  0.00     0.167 HD
ATOM     27  C   UNL A   1      42.108  25.291  27.427  1.00  0.00     0.037 A 
ATOM     28  C   UNL A   1      44.701  31.860  28.284  1.00  0.00     0.037 A 
ATOM     29  C   UNL A   1      43.393  25.529  26.831  1.00  0.00     0.049 A 
ATOM     30  C   UNL A   1      45.454  30.776  27.559  1.00  0.00     0.074 A 
ATOM     31  C   UNL A   1      44.190  24.662  26.110  1.00  0.00     0.029 A 
ATOM     32  N   UNL A   1      44.071  26.742  26.898  1.00  0.00    -0.354 N 
ATOM     33  N   UNL A   1      45.090  29.538  27.312  1.00  0.00    -0.248 NA
ATOM     34  C   UNL A   1      46.781  31.126  27.043  1.00  0.00     0.031 C 
ATOM     35  C   UNL A   1      45.378  25.331  25.796  1.00  0.00     0.029 A 
ATOM     36  C   UNL A   1      45.290  26.639  26.251  1.00  0.00     0.049 A 
ATOM     37  H   UNL A   1      43.733  27.554  27.340  1.00  0.00     0.167 HD
ATOM     38  C   UNL A   1      46.128  28.969  26.589  1.00  0.00     0.074 A 
ATOM     39  C   UNL A   1      47.129  30.006  26.425  1.00  0.00     0.031 C 
ATOM     40  C   UNL A   1      46.248  27.708  26.100  1.00  0.00     0.037 A 
BRANCH  27  41
ATOM     41  C   UNL A   1      41.475  23.933  27.333  1.00  0.00     0.064 A 
ATOM     42  C   UNL A   1      42.048  22.790  27.912  1.00  0.00     0.173 A 
ATOM     43  C   UNL A   1      40.303  23.763  26.579  1.00  0.00     0.173 A 
ATOM     44  F   UNL A   1      43.188  22.888  28.615  1.00  0.00    -0.203 F 
ATOM     45  C   UNL A   1      41.499  21.525  27.702  1.00  0.00     0.198 A 
ATOM     46  C   UNL A   1      39.737  22.503  26.400  1.00  0.00     0.198 A 
ATOM     47  F   UNL A   1      39.715  24.817  25.996  1.00  0.00    -0.203 F 
ATOM     48  F   UNL A   1      42.112  20.439  28.195  1.00  0.00    -0.200 F 
ATOM     49  C   UNL A   1      40.344  21.383  26.948  1.00  0.00     0.200 A 
ATOM     50  F   UNL A   1      38.617  22.370  25.675  1.00  0.00    -0.200 F 
ATOM     51  F   UNL A   1      39.826  20.166  26.734  1.00  0.00    -0.200 F 
ENDBRANCH  27  41
BRANCH  28  52
ATOM     52  C   UNL A   1      45.243  33.240  28.417  1.00  0.00     0.064 A 
ATOM     53  C   UNL A   1      46.075  33.596  29.486  1.00  0.00     0.173 A 
ATOM     54  C   UNL A   1      44.929  34.239  27.481  1.00  0.00     0.173 A 
ATOM     55  F   UNL A   1      46.390  32.688  30.422  1.00  0.00    -0.203 F 
ATOM     56  C   UNL A   1      46.557  34.898  29.624  1.00  0.00     0.198 A 
ATOM     57  C   UNL A   1      45.437  35.532  27.602  1.00  0.00     0.198 A 
ATOM     58  F   UNL A   1      44.128  33.958  26.443  1.00  0.00    -0.203 F 
ATOM     59  F   UNL A   1      47.309  35.221  30.686  1.00  0.00    -0.200 F 
ATOM     60  C   UNL A   1      46.243  35.862  28.678  1.00  0.00     0.200 A 
ATOM     61  F   UNL A   1      45.132  36.458  26.683  1.00  0.00    -0.200 F 
ATOM     62  F   UNL A   1      46.703  37.114  28.816  1.00  0.00    -0.200 F 
ENDBRANCH  28  52
BRANCH  40  63
ATOM     63  C   UNL A   1      47.474  27.410  25.288  1.00  0.00     0.064 A 
ATOM     64  C   UNL A   1      47.540  27.681  23.915  1.00  0.00     0.173 A 
ATOM     65  C   UNL A   1      48.615  26.884  25.913  1.00  0.00     0.173 A 
ATOM     66  F   UNL A   1      46.470  28.172  23.270  1.00  0.00    -0.203 F 
ATOM     67  C   UNL A   1      48.695  27.406  23.189  1.00  0.00     0.198 A 
ATOM     68  C   UNL A   1      49.780  26.648  25.193  1.00  0.00     0.198 A 
ATOM     69  F   UNL A   1      48.605  26.618  27.229  1.00  0.00    -0.203 F 
ATOM     70  F   UNL A   1      48.718  27.618  21.866  1.00  0.00    -0.200 F 
ATOM     71  C   UNL A   1      49.815  26.898  23.830  1.00  0.00     0.200 A 
ATOM     72  F   UNL A   1      50.868  26.176  25.818  1.00  0.00    -0.200 F 
ATOM     73  F   UNL A   1      50.930  26.644  23.131  1.00  0.00    -0.200 F 
ENDBRANCH  40  63
ENDBRANCH  14  15
ENDBRANCH   7   9
ENDBRANCH   6   7
ENDBRANCH   5   6
ENDBRANCH   4   5
ENDBRANCH   3   4
ENDBRANCH   2   3
ENDBRANCH   1   2
BRANCH   1  74
ATOM     74  O   UNL A   1      31.773  33.236  27.391  1.00  0.00    -0.376 OA
BRANCH  74  75
ATOM     75  C   UNL A   1      31.466  32.174  26.497  1.00  0.00     0.202 C 
BRANCH  75  76
ATOM     76  C   UNL A   1      32.235  30.853  26.649  1.00  0.00     0.261 C 
BRANCH  76  77
ATOM     77  O   UNL A   1      31.619  29.725  26.008  1.00  0.00    -0.462 OA
BRANCH  77  78
ATOM     78  C   UNL A   1      32.401  29.093  25.091  1.00  0.00     0.329 C 
ATOM     79  O   UNL A   1      33.574  29.372  24.860  1.00  0.00    -0.250 OA
BRANCH  78  80
ATOM     80  C   UNL A   1      31.624  27.994  24.339  1.00  0.00     0.197 C 
ATOM     81  C   UNL A   1      30.195  28.423  24.070  1.00  0.00     0.070 C 
ATOM     82  N   UNL A   1      32.186  27.889  22.986  1.00  0.00    -0.325 N 
ATOM     83  C   UNL A   1      30.342  29.407  22.905  1.00  0.00     0.136 C 
ATOM     84  C   UNL A   1      31.574  28.902  22.127  1.00  0.00     0.152 C 
BRANCH  82  85
ATOM     85  C   UNL A   1      33.215  27.013  22.708  1.00  0.00     0.233 C 
ATOM     86  O   UNL A   1      33.949  27.196  21.734  1.00  0.00    -0.274 OA
BRANCH  85  87
ATOM     87  C   UNL A   1      33.441  25.827  23.636  1.00  0.00     0.169 C 
BRANCH  87  88
ATOM     88  S   UNL A   1      32.439  24.361  23.164  1.00  0.00    -0.148 SA
BRANCH  88  89
ATOM     89  C   UNL A   1      33.599  23.047  23.603  1.00  0.00     0.063 C 
ATOM     90  C   UNL A   1      35.077  23.450  23.570  1.00  0.00     0.031 C 
ATOM     91  C   UNL A   1      33.381  22.518  25.014  1.00  0.00     0.151 C 
ATOM     92  C   UNL A   1      35.835  22.207  24.056  1.00  0.00     0.138 C 
ATOM     93  S   UNL A   1      34.730  21.379  25.202  1.00  0.00     0.151 S 
ATOM     94  O   UNL A   1      34.298  20.119  24.626  1.00  0.00    -0.229 OA
ATOM     95  O   UNL A   1      35.247  21.480  26.551  1.00  0.00    -0.229 OA
ENDBRANCH  88  89
ENDBRANCH  87  88
ENDBRANCH  85  87
ENDBRANCH  82  85
BRANCH  83  96
ATOM     96  O   UNL A   1      29.155  29.431  22.128  1.00  0.00    -0.391 OA
ATOM     97  H   UNL A   1      29.336  29.060  21.249  1.00  0.00     0.211 HD
ENDBRANCH  83  96
ENDBRANCH  78  80
ENDBRANCH  77  78
ENDBRANCH  76  77
ENDBRANCH  75  76
ENDBRANCH  74  75
ENDBRANCH   1  74
TORSDOF 22
ENDMDL
