MODEL 1
REMARK VINA RESULT:      -9.6      0.000      0.000
REMARK SMILES C#CCN(CC(=O)OCCOCCOCCOC(=O)c1ccc(-c2c3nc(c(-c4c(F)c(F)c(F)c(F)c4F)c4ccc([nH]4)c(-c4c(F)c(F)c(F)c(F)c4F)c4nc(c(-c5c(F)c(F)c(F)c(F)c5F)c5ccc2[nH]5)C=C4)C=C3)cc1)C(=O)CCc1ccc(Cl)cc1Cl
REMARK SMILES IDX 11 1 10 2 9 3 8 4 6 5 7 6 5 7 4 8 3 9 2 10 1 11 83 12 84 13
REMARK SMILES IDX 85 14 86 15 87 16 88 17 93 18 89 19 92 20 94 21 90 22 91 23
REMARK SMILES IDX 12 24 13 25 14 26 15 27 16 28 17 29 18 30 19 31 20 32 21 33
REMARK SMILES IDX 82 34 22 35 81 36 23 37 24 38 25 39 75 40 26 41 80 42 74 43
REMARK SMILES IDX 76 44 27 45 79 46 73 47 72 48 28 50 60 51 40 52 59 53 41 54
REMARK SMILES IDX 44 55 58 56 77 57 42 58 43 59 57 61 78 62 45 63 29 64 30 65
REMARK SMILES IDX 38 66 31 67 32 68 36 69 39 70 33 71 34 72 37 73 35 74 61 75
REMARK SMILES IDX 62 76 70 77 63 78 64 79 68 80 71 81 65 82 66 83 69 84 67 85
REMARK SMILES IDX 46 86 47 87 55 88 48 89 49 90 53 91 56 92 50 93 51 94 54 95
REMARK SMILES IDX 52 96
REMARK H PARENT 76 49 44 60
REMARK Flexibility Score: inf
ROOT
ATOM      1  O   UNL A   1      39.838  21.643  27.122  1.00  0.00    -0.376 OA
ENDROOT
BRANCH   1   2
ATOM      2  C   UNL A   1      39.393  20.815  26.060  1.00  0.00     0.202 C 
BRANCH   2   3
ATOM      3  C   UNL A   1      38.164  21.345  25.318  1.00  0.00     0.261 C 
BRANCH   3   4
ATOM      4  O   UNL A   1      37.798  22.687  25.712  1.00  0.00    -0.462 OA
BRANCH   4   5
ATOM      5  C   UNL A   1      36.907  23.302  24.899  1.00  0.00     0.325 C 
ATOM      6  O   UNL A   1      36.812  23.094  23.691  1.00  0.00    -0.250 OA
BRANCH   5   7
ATOM      7  C   UNL A   1      35.881  24.187  25.613  1.00  0.00     0.243 C 
BRANCH   7   8
ATOM      8  N   UNL A   1      34.477  24.399  25.222  1.00  0.00    -0.320 N 
BRANCH   8   9
ATOM      9  C   UNL A   1      33.462  23.487  25.751  1.00  0.00     0.210 C 
BRANCH   9  10
ATOM     10  C   UNL A   1      33.260  22.320  24.798  1.00  0.00    -0.085 C 
ATOM     11  C   UNL A   1      33.087  21.319  23.980  1.00  0.00     0.006 C 
ENDBRANCH   9  10
ENDBRANCH   8   9
BRANCH   8  12
ATOM     12  C   UNL A   1      34.026  25.401  24.383  1.00  0.00     0.224 C 
ATOM     13  O   UNL A   1      33.806  25.192  23.187  1.00  0.00    -0.275 OA
BRANCH  12  14
ATOM     14  C   UNL A   1      33.727  26.777  24.954  1.00  0.00     0.105 C 
BRANCH  14  15
ATOM     15  C   UNL A   1      32.394  26.912  25.705  1.00  0.00     0.047 C 
BRANCH  15  16
ATOM     16  C   UNL A   1      31.391  27.803  25.009  1.00  0.00    -0.029 A 
ATOM     17  C   UNL A   1      31.481  29.193  25.203  1.00  0.00     0.007 A 
ATOM     18  C   UNL A   1      30.452  27.312  24.082  1.00  0.00     0.045 A 
ATOM     19  C   UNL A   1      30.729  30.069  24.418  1.00  0.00     0.021 A 
ATOM     20  C   UNL A   1      29.702  28.190  23.296  1.00  0.00     0.041 A 
ATOM     21  Cl  UNL A   1      30.232  25.620  23.814  1.00  0.00    -0.084 Cl
ATOM     22  C   UNL A   1      29.863  29.563  23.452  1.00  0.00     0.042 A 
ATOM     23  Cl  UNL A   1      29.016  30.644  22.418  1.00  0.00    -0.084 Cl
ENDBRANCH  15  16
ENDBRANCH  14  15
ENDBRANCH  12  14
ENDBRANCH   8  12
ENDBRANCH   7   8
ENDBRANCH   5   7
ENDBRANCH   4   5
ENDBRANCH   3   4
ENDBRANCH   2   3
ENDBRANCH   1   2
BRANCH   1  24
ATOM     24  C   UNL A   1      41.162  22.173  27.053  1.00  0.00     0.188 C 
BRANCH  24  25
ATOM     25  C   UNL A   1      42.367  21.251  26.814  1.00  0.00     0.188 C 
BRANCH  25  26
ATOM     26  O   UNL A   1      42.827  21.340  25.465  1.00  0.00    -0.376 OA
BRANCH  26  27
ATOM     27  C   UNL A   1      44.232  21.555  25.371  1.00  0.00     0.202 C 
BRANCH  27  28
ATOM     28  C   UNL A   1      44.536  22.385  24.128  1.00  0.00     0.261 C 
BRANCH  28  29
ATOM     29  O   UNL A   1      44.029  23.727  24.284  1.00  0.00    -0.460 OA
BRANCH  29  30
ATOM     30  C   UNL A   1      44.855  24.628  24.851  1.00  0.00     0.338 C 
ATOM     31  O   UNL A   1      46.068  24.674  24.779  1.00  0.00    -0.246 OA
BRANCH  30  32
ATOM     32  C   UNL A   1      44.052  25.555  25.674  1.00  0.00     0.060 A 
ATOM     33  C   UNL A   1      44.028  26.922  25.396  1.00  0.00     0.016 A 
ATOM     34  C   UNL A   1      43.398  25.058  26.799  1.00  0.00     0.016 A 
ATOM     35  C   UNL A   1      43.404  27.807  26.285  1.00  0.00     0.010 A 
ATOM     36  C   UNL A   1      42.743  25.939  27.666  1.00  0.00     0.010 A 
ATOM     37  C   UNL A   1      42.777  27.327  27.445  1.00  0.00    -0.014 A 
BRANCH  37  38
ATOM     38  C   UNL A   1      42.292  28.256  28.505  1.00  0.00     0.031 A 
ATOM     39  C   UNL A   1      43.189  28.555  29.678  1.00  0.00     0.074 A 
ATOM     40  C   UNL A   1      41.088  28.855  28.439  1.00  0.00     0.049 A 
ATOM     41  N   UNL A   1      42.906  29.129  30.820  1.00  0.00    -0.248 NA
ATOM     42  C   UNL A   1      44.597  28.145  29.546  1.00  0.00     0.031 C 
ATOM     43  C   UNL A   1      40.146  28.749  27.330  1.00  0.00     0.029 A 
ATOM     44  N   UNL A   1      40.454  29.684  29.338  1.00  0.00    -0.354 N 
ATOM     45  C   UNL A   1      44.076  29.080  31.568  1.00  0.00     0.074 A 
ATOM     46  C   UNL A   1      45.082  28.451  30.740  1.00  0.00     0.031 C 
ATOM     47  C   UNL A   1      39.070  29.510  27.596  1.00  0.00     0.029 A 
ATOM     48  C   UNL A   1      39.207  30.089  28.930  1.00  0.00     0.049 A 
ATOM     49  H   UNL A   1      40.858  29.961  30.192  1.00  0.00     0.167 HD
ATOM     50  C   UNL A   1      44.283  29.501  32.838  1.00  0.00     0.037 A 
ATOM     51  C   UNL A   1      38.265  30.808  29.574  1.00  0.00     0.037 A 
ATOM     52  C   UNL A   1      43.301  30.176  33.645  1.00  0.00     0.049 A 
ATOM     53  C   UNL A   1      38.508  31.247  30.996  1.00  0.00     0.074 A 
ATOM     54  C   UNL A   1      43.406  30.606  34.956  1.00  0.00     0.029 A 
ATOM     55  N   UNL A   1      42.039  30.541  33.204  1.00  0.00    -0.354 N 
ATOM     56  N   UNL A   1      39.577  31.098  31.741  1.00  0.00    -0.248 NA
ATOM     57  C   UNL A   1      37.395  31.923  31.681  1.00  0.00     0.031 C 
ATOM     58  C   UNL A   1      42.196  31.208  35.319  1.00  0.00     0.029 A 
ATOM     59  C   UNL A   1      41.352  31.186  34.220  1.00  0.00     0.049 A 
ATOM     60  H   UNL A   1      41.683  30.368  32.303  1.00  0.00     0.167 HD
ATOM     61  C   UNL A   1      39.265  31.655  32.975  1.00  0.00     0.074 A 
ATOM     62  C   UNL A   1      37.921  32.180  32.871  1.00  0.00     0.031 C 
ATOM     63  C   UNL A   1      40.017  31.708  34.101  1.00  0.00     0.037 A 
BRANCH  50  64
ATOM     64  C   UNL A   1      45.607  29.183  33.463  1.00  0.00     0.064 A 
ATOM     65  C   UNL A   1      46.685  30.077  33.422  1.00  0.00     0.173 A 
ATOM     66  C   UNL A   1      45.782  27.969  34.145  1.00  0.00     0.173 A 
ATOM     67  F   UNL A   1      46.572  31.241  32.767  1.00  0.00    -0.203 F 
ATOM     68  C   UNL A   1      47.898  29.757  34.028  1.00  0.00     0.198 A 
ATOM     69  C   UNL A   1      46.987  27.664  34.769  1.00  0.00     0.198 A 
ATOM     70  F   UNL A   1      44.777  27.082  34.214  1.00  0.00    -0.203 F 
ATOM     71  F   UNL A   1      48.929  30.610  33.947  1.00  0.00    -0.200 F 
ATOM     72  C   UNL A   1      48.046  28.556  34.706  1.00  0.00     0.200 A 
ATOM     73  F   UNL A   1      47.123  26.506  35.431  1.00  0.00    -0.200 F 
ATOM     74  F   UNL A   1      49.212  28.255  35.294  1.00  0.00    -0.200 F 
ENDBRANCH  50  64
BRANCH  51  75
ATOM     75  C   UNL A   1      36.971  31.121  28.908  1.00  0.00     0.064 A 
ATOM     76  C   UNL A   1      36.682  32.423  28.476  1.00  0.00     0.173 A 
ATOM     77  C   UNL A   1      35.985  30.140  28.726  1.00  0.00     0.173 A 
ATOM     78  F   UNL A   1      37.577  33.404  28.662  1.00  0.00    -0.203 F 
ATOM     79  C   UNL A   1      35.451  32.734  27.900  1.00  0.00     0.198 A 
ATOM     80  C   UNL A   1      34.768  30.446  28.121  1.00  0.00     0.198 A 
ATOM     81  F   UNL A   1      36.205  28.883  29.136  1.00  0.00    -0.203 F 
ATOM     82  F   UNL A   1      35.181  33.998  27.545  1.00  0.00    -0.200 F 
ATOM     83  C   UNL A   1      34.499  31.743  27.717  1.00  0.00     0.200 A 
ATOM     84  F   UNL A   1      33.853  29.484  27.940  1.00  0.00    -0.200 F 
ATOM     85  F   UNL A   1      33.316  32.043  27.163  1.00  0.00    -0.200 F 
ENDBRANCH  51  75
BRANCH  63  86
ATOM     86  C   UNL A   1      39.410  32.361  35.307  1.00  0.00     0.064 A 
ATOM     87  C   UNL A   1      38.681  31.620  36.248  1.00  0.00     0.173 A 
ATOM     88  C   UNL A   1      39.600  33.729  35.550  1.00  0.00     0.173 A 
ATOM     89  F   UNL A   1      38.463  30.311  36.052  1.00  0.00    -0.203 F 
ATOM     90  C   UNL A   1      38.146  32.230  37.379  1.00  0.00     0.198 A 
ATOM     91  C   UNL A   1      39.082  34.332  36.694  1.00  0.00     0.198 A 
ATOM     92  F   UNL A   1      40.296  34.481  34.683  1.00  0.00    -0.203 F 
ATOM     93  F   UNL A   1      37.421  31.511  38.247  1.00  0.00    -0.200 F 
ATOM     94  C   UNL A   1      38.352  33.583  37.605  1.00  0.00     0.200 A 
ATOM     95  F   UNL A   1      39.291  35.637  36.915  1.00  0.00    -0.200 F 
ATOM     96  F   UNL A   1      37.842  34.167  38.697  1.00  0.00    -0.200 F 
ENDBRANCH  63  86
ENDBRANCH  37  38
ENDBRANCH  30  32
ENDBRANCH  29  30
ENDBRANCH  28  29
ENDBRANCH  27  28
ENDBRANCH  26  27
ENDBRANCH  25  26
ENDBRANCH  24  25
ENDBRANCH   1  24
TORSDOF 24
ENDMDL
MODEL 2
REMARK VINA RESULT:      -9.3      4.357     10.165
REMARK SMILES C#CCN(CC(=O)OCCOCCOCCOC(=O)c1ccc(-c2c3nc(c(-c4c(F)c(F)c(F)c(F)c4F)c4ccc([nH]4)c(-c4c(F)c(F)c(F)c(F)c4F)c4nc(c(-c5c(F)c(F)c(F)c(F)c5F)c5ccc2[nH]5)C=C4)C=C3)cc1)C(=O)CCc1ccc(Cl)cc1Cl
REMARK SMILES IDX 11 1 10 2 9 3 8 4 6 5 7 6 5 7 4 8 3 9 2 10 1 11 83 12 84 13
REMARK SMILES IDX 85 14 86 15 87 16 88 17 93 18 89 19 92 20 94 21 90 22 91 23
REMARK SMILES IDX 12 24 13 25 14 26 15 27 16 28 17 29 18 30 19 31 20 32 21 33
REMARK SMILES IDX 82 34 22 35 81 36 23 37 24 38 25 39 75 40 26 41 80 42 74 43
REMARK SMILES IDX 76 44 27 45 79 46 73 47 72 48 28 50 60 51 40 52 59 53 41 54
REMARK SMILES IDX 44 55 58 56 77 57 42 58 43 59 57 61 78 62 45 63 29 64 30 65
REMARK SMILES IDX 38 66 31 67 32 68 36 69 39 70 33 71 34 72 37 73 35 74 61 75
REMARK SMILES IDX 62 76 70 77 63 78 64 79 68 80 71 81 65 82 66 83 69 84 67 85
REMARK SMILES IDX 46 86 47 87 55 88 48 89 49 90 53 91 56 92 50 93 51 94 54 95
REMARK SMILES IDX 52 96
REMARK H PARENT 76 49 44 60
REMARK Flexibility Score: inf
ROOT
ATOM      1  O   UNL A   1      35.132  31.290  29.013  1.00  0.00    -0.376 OA
ENDROOT
BRANCH   1   2
ATOM      2  C   UNL A   1      34.849  31.139  27.631  1.00  0.00     0.202 C 
BRANCH   2   3
ATOM      3  C   UNL A   1      33.377  30.861  27.314  1.00  0.00     0.261 C 
BRANCH   3   4
ATOM      4  O   UNL A   1      33.058  29.451  27.294  1.00  0.00    -0.462 OA
BRANCH   4   5
ATOM      5  C   UNL A   1      31.999  29.113  26.522  1.00  0.00     0.325 C 
ATOM      6  O   UNL A   1      31.511  29.838  25.658  1.00  0.00    -0.250 OA
BRANCH   5   7
ATOM      7  C   UNL A   1      31.517  27.667  26.678  1.00  0.00     0.243 C 
BRANCH   7   8
ATOM      8  N   UNL A   1      31.353  26.673  25.604  1.00  0.00    -0.320 N 
BRANCH   8   9
ATOM      9  C   UNL A   1      30.189  25.787  25.648  1.00  0.00     0.210 C 
BRANCH   9  10
ATOM     10  C   UNL A   1      30.604  24.402  26.118  1.00  0.00    -0.085 C 
ATOM     11  C   UNL A   1      30.961  23.214  26.521  1.00  0.00     0.006 C 
ENDBRANCH   9  10
ENDBRANCH   8   9
BRANCH   8  12
ATOM     12  C   UNL A   1      32.217  26.499  24.539  1.00  0.00     0.224 C 
ATOM     13  O   UNL A   1      31.880  26.764  23.383  1.00  0.00    -0.275 OA
BRANCH  12  14
ATOM     14  C   UNL A   1      33.641  26.036  24.799  1.00  0.00     0.105 C 
BRANCH  14  15
ATOM     15  C   UNL A   1      34.207  25.023  23.793  1.00  0.00     0.047 C 
BRANCH  15  16
ATOM     16  C   UNL A   1      33.669  23.621  23.973  1.00  0.00    -0.029 A 
ATOM     17  C   UNL A   1      32.671  23.168  23.092  1.00  0.00     0.007 A 
ATOM     18  C   UNL A   1      34.212  22.712  24.901  1.00  0.00     0.045 A 
ATOM     19  C   UNL A   1      32.302  21.823  23.071  1.00  0.00     0.021 A 
ATOM     20  C   UNL A   1      33.843  21.365  24.876  1.00  0.00     0.041 A 
ATOM     21  Cl  UNL A   1      35.404  23.188  26.056  1.00  0.00    -0.084 Cl
ATOM     22  C   UNL A   1      32.908  20.924  23.946  1.00  0.00     0.042 A 
ATOM     23  Cl  UNL A   1      32.526  19.251  23.847  1.00  0.00    -0.084 Cl
ENDBRANCH  15  16
ENDBRANCH  14  15
ENDBRANCH  12  14
ENDBRANCH   8  12
ENDBRANCH   7   8
ENDBRANCH   5   7
ENDBRANCH   4   5
ENDBRANCH   3   4
ENDBRANCH   2   3
ENDBRANCH   1   2
BRANCH   1  24
ATOM     24  C   UNL A   1      34.868  32.555  29.619  1.00  0.00     0.188 C 
BRANCH  24  25
ATOM     25  C   UNL A   1      35.691  33.796  29.241  1.00  0.00     0.188 C 
BRANCH  25  26
ATOM     26  O   UNL A   1      34.846  34.867  28.817  1.00  0.00    -0.376 OA
BRANCH  26  27
ATOM     27  C   UNL A   1      33.463  34.527  28.844  1.00  0.00     0.202 C 
BRANCH  27  28
ATOM     28  C   UNL A   1      32.690  35.609  29.592  1.00  0.00     0.261 C 
BRANCH  28  29
ATOM     29  O   UNL A   1      33.356  35.939  30.829  1.00  0.00    -0.460 OA
BRANCH  29  30
ATOM     30  C   UNL A   1      33.033  35.201  31.910  1.00  0.00     0.338 C 
ATOM     31  O   UNL A   1      31.921  34.953  32.336  1.00  0.00    -0.246 OA
BRANCH  30  32
ATOM     32  C   UNL A   1      34.276  34.775  32.582  1.00  0.00     0.060 A 
ATOM     33  C   UNL A   1      35.443  35.535  32.480  1.00  0.00     0.016 A 
ATOM     34  C   UNL A   1      34.297  33.546  33.238  1.00  0.00     0.016 A 
ATOM     35  C   UNL A   1      36.652  35.031  32.976  1.00  0.00     0.010 A 
ATOM     36  C   UNL A   1      35.499  33.061  33.766  1.00  0.00     0.010 A 
ATOM     37  C   UNL A   1      36.698  33.776  33.601  1.00  0.00    -0.014 A 
BRANCH  37  38
ATOM     38  C   UNL A   1      37.996  33.130  33.948  1.00  0.00     0.031 A 
ATOM     39  C   UNL A   1      38.588  32.124  32.994  1.00  0.00     0.074 A 
ATOM     40  C   UNL A   1      38.670  33.430  35.074  1.00  0.00     0.049 A 
ATOM     41  N   UNL A   1      39.562  31.270  33.180  1.00  0.00    -0.248 NA
ATOM     42  C   UNL A   1      37.993  32.073  31.648  1.00  0.00     0.031 C 
ATOM     43  C   UNL A   1      38.286  34.446  36.049  1.00  0.00     0.029 A 
ATOM     44  N   UNL A   1      39.835  32.901  35.584  1.00  0.00    -0.354 N 
ATOM     45  C   UNL A   1      39.646  30.532  32.006  1.00  0.00     0.074 A 
ATOM     46  C   UNL A   1      38.648  31.058  31.101  1.00  0.00     0.031 C 
ATOM     47  C   UNL A   1      39.213  34.492  37.021  1.00  0.00     0.029 A 
ATOM     48  C   UNL A   1      40.211  33.452  36.784  1.00  0.00     0.049 A 
ATOM     49  H   UNL A   1      40.350  32.195  35.130  1.00  0.00     0.167 HD
ATOM     50  C   UNL A   1      40.467  29.493  31.720  1.00  0.00     0.037 A 
ATOM     51  C   UNL A   1      41.219  33.128  37.619  1.00  0.00     0.037 A 
ATOM     52  C   UNL A   1      41.497  29.002  32.596  1.00  0.00     0.049 A 
ATOM     53  C   UNL A   1      42.107  31.953  37.292  1.00  0.00     0.074 A 
ATOM     54  C   UNL A   1      42.354  27.930  32.410  1.00  0.00     0.029 A 
ATOM     55  N   UNL A   1      41.827  29.569  33.817  1.00  0.00    -0.354 N 
ATOM     56  N   UNL A   1      42.110  31.184  36.231  1.00  0.00    -0.248 NA
ATOM     57  C   UNL A   1      43.111  31.579  38.301  1.00  0.00     0.031 C 
ATOM     58  C   UNL A   1      43.184  27.832  33.532  1.00  0.00     0.029 A 
ATOM     59  C   UNL A   1      42.870  28.866  34.398  1.00  0.00     0.049 A 
ATOM     60  H   UNL A   1      41.386  30.355  34.212  1.00  0.00     0.167 HD
ATOM     61  C   UNL A   1      43.104  30.238  36.445  1.00  0.00     0.074 A 
ATOM     62  C   UNL A   1      43.713  30.550  37.720  1.00  0.00     0.031 C 
ATOM     63  C   UNL A   1      43.469  29.191  35.665  1.00  0.00     0.037 A 
BRANCH  50  64
ATOM     64  C   UNL A   1      40.240  28.770  30.428  1.00  0.00     0.064 A 
ATOM     65  C   UNL A   1      40.798  29.207  29.220  1.00  0.00     0.173 A 
ATOM     66  C   UNL A   1      39.473  27.594  30.413  1.00  0.00     0.173 A 
ATOM     67  F   UNL A   1      41.523  30.335  29.180  1.00  0.00    -0.203 F 
ATOM     68  C   UNL A   1      40.581  28.502  28.039  1.00  0.00     0.198 A 
ATOM     69  C   UNL A   1      39.278  26.880  29.236  1.00  0.00     0.198 A 
ATOM     70  F   UNL A   1      38.921  27.133  31.547  1.00  0.00    -0.203 F 
ATOM     71  F   UNL A   1      41.093  28.956  26.886  1.00  0.00    -0.200 F 
ATOM     72  C   UNL A   1      39.828  27.336  28.049  1.00  0.00     0.200 A 
ATOM     73  F   UNL A   1      38.558  25.749  29.252  1.00  0.00    -0.200 F 
ATOM     74  F   UNL A   1      39.627  26.656  26.912  1.00  0.00    -0.200 F 
ENDBRANCH  50  64
BRANCH  51  75
ATOM     75  C   UNL A   1      41.423  33.887  38.883  1.00  0.00     0.064 A 
ATOM     76  C   UNL A   1      40.704  33.561  40.041  1.00  0.00     0.173 A 
ATOM     77  C   UNL A   1      42.307  34.975  38.950  1.00  0.00     0.173 A 
ATOM     78  F   UNL A   1      39.818  32.554  40.018  1.00  0.00    -0.203 F 
ATOM     79  C   UNL A   1      40.850  34.301  41.213  1.00  0.00     0.198 A 
ATOM     80  C   UNL A   1      42.476  35.694  40.131  1.00  0.00     0.198 A 
ATOM     81  F   UNL A   1      43.007  35.339  37.867  1.00  0.00    -0.203 F 
ATOM     82  F   UNL A   1      40.110  34.001  42.289  1.00  0.00    -0.200 F 
ATOM     83  C   UNL A   1      41.741  35.362  41.259  1.00  0.00     0.200 A 
ATOM     84  F   UNL A   1      43.343  36.714  40.172  1.00  0.00    -0.200 F 
ATOM     85  F   UNL A   1      41.882  36.074  42.385  1.00  0.00    -0.200 F 
ENDBRANCH  51  75
BRANCH  63  86
ATOM     86  C   UNL A   1      44.578  28.312  36.161  1.00  0.00     0.064 A 
ATOM     87  C   UNL A   1      44.314  27.171  36.932  1.00  0.00     0.173 A 
ATOM     88  C   UNL A   1      45.911  28.586  35.824  1.00  0.00     0.173 A 
ATOM     89  F   UNL A   1      43.056  26.876  37.290  1.00  0.00    -0.203 F 
ATOM     90  C   UNL A   1      45.348  26.345  37.364  1.00  0.00     0.198 A 
ATOM     91  C   UNL A   1      46.941  27.745  36.239  1.00  0.00     0.198 A 
ATOM     92  F   UNL A   1      46.215  29.662  35.083  1.00  0.00    -0.203 F 
ATOM     93  F   UNL A   1      45.077  25.280  38.130  1.00  0.00    -0.200 F 
ATOM     94  C   UNL A   1      46.660  26.629  37.012  1.00  0.00     0.200 A 
ATOM     95  F   UNL A   1      48.207  28.015  35.890  1.00  0.00    -0.200 F 
ATOM     96  F   UNL A   1      47.653  25.830  37.423  1.00  0.00    -0.200 F 
ENDBRANCH  63  86
ENDBRANCH  37  38
ENDBRANCH  30  32
ENDBRANCH  29  30
ENDBRANCH  28  29
ENDBRANCH  27  28
ENDBRANCH  26  27
ENDBRANCH  25  26
ENDBRANCH  24  25
ENDBRANCH   1  24
TORSDOF 24
ENDMDL
MODEL 3
REMARK VINA RESULT:      -9.3      4.422      7.194
REMARK SMILES C#CCN(CC(=O)OCCOCCOCCOC(=O)c1ccc(-c2c3nc(c(-c4c(F)c(F)c(F)c(F)c4F)c4ccc([nH]4)c(-c4c(F)c(F)c(F)c(F)c4F)c4nc(c(-c5c(F)c(F)c(F)c(F)c5F)c5ccc2[nH]5)C=C4)C=C3)cc1)C(=O)CCc1ccc(Cl)cc1Cl
REMARK SMILES IDX 11 1 10 2 9 3 8 4 6 5 7 6 5 7 4 8 3 9 2 10 1 11 83 12 84 13
REMARK SMILES IDX 85 14 86 15 87 16 88 17 93 18 89 19 92 20 94 21 90 22 91 23
REMARK SMILES IDX 12 24 13 25 14 26 15 27 16 28 17 29 18 30 19 31 20 32 21 33
REMARK SMILES IDX 82 34 22 35 81 36 23 37 24 38 25 39 75 40 26 41 80 42 74 43
REMARK SMILES IDX 76 44 27 45 79 46 73 47 72 48 28 50 60 51 40 52 59 53 41 54
REMARK SMILES IDX 44 55 58 56 77 57 42 58 43 59 57 61 78 62 45 63 29 64 30 65
REMARK SMILES IDX 38 66 31 67 32 68 36 69 39 70 33 71 34 72 37 73 35 74 61 75
REMARK SMILES IDX 62 76 70 77 63 78 64 79 68 80 71 81 65 82 66 83 69 84 67 85
REMARK SMILES IDX 46 86 47 87 55 88 48 89 49 90 53 91 56 92 50 93 51 94 54 95
REMARK SMILES IDX 52 96
REMARK H PARENT 76 49 44 60
REMARK Flexibility Score: inf
ROOT
ATOM      1  O   UNL A   1      38.982  22.307  26.452  1.00  0.00    -0.376 OA
ENDROOT
BRANCH   1   2
ATOM      2  C   UNL A   1      38.635  21.195  25.643  1.00  0.00     0.202 C 
BRANCH   2   3
ATOM      3  C   UNL A   1      37.151  21.117  25.277  1.00  0.00     0.261 C 
BRANCH   3   4
ATOM      4  O   UNL A   1      36.642  22.344  24.706  1.00  0.00    -0.462 OA
BRANCH   4   5
ATOM      5  C   UNL A   1      35.917  23.113  25.552  1.00  0.00     0.325 C 
ATOM      6  O   UNL A   1      36.088  24.320  25.711  1.00  0.00    -0.250 OA
BRANCH   5   7
ATOM      7  C   UNL A   1      34.726  22.409  26.210  1.00  0.00     0.243 C 
BRANCH   7   8
ATOM      8  N   UNL A   1      33.300  22.702  25.992  1.00  0.00    -0.320 N 
BRANCH   8   9
ATOM      9  C   UNL A   1      32.542  21.836  25.087  1.00  0.00     0.210 C 
BRANCH   9  10
ATOM     10  C   UNL A   1      31.772  22.677  24.083  1.00  0.00    -0.085 C 
ATOM     11  C   UNL A   1      31.111  23.399  23.221  1.00  0.00     0.006 C 
ENDBRANCH   9  10
ENDBRANCH   8   9
BRANCH   8  12
ATOM     12  C   UNL A   1      32.601  23.741  26.577  1.00  0.00     0.224 C 
ATOM     13  O   UNL A   1      31.763  23.542  27.460  1.00  0.00    -0.275 OA
BRANCH  12  14
ATOM     14  C   UNL A   1      32.916  25.173  26.176  1.00  0.00     0.105 C 
BRANCH  14  15
ATOM     15  C   UNL A   1      31.795  26.195  26.419  1.00  0.00     0.047 C 
BRANCH  15  16
ATOM     16  C   UNL A   1      31.437  27.008  25.196  1.00  0.00    -0.029 A 
ATOM     17  C   UNL A   1      30.240  26.710  24.520  1.00  0.00     0.007 A 
ATOM     18  C   UNL A   1      32.184  28.126  24.780  1.00  0.00     0.045 A 
ATOM     19  C   UNL A   1      29.754  27.564  23.529  1.00  0.00     0.021 A 
ATOM     20  C   UNL A   1      31.695  28.981  23.790  1.00  0.00     0.041 A 
ATOM     21  Cl  UNL A   1      33.692  28.541  25.515  1.00  0.00    -0.084 Cl
ATOM     22  C   UNL A   1      30.472  28.708  23.187  1.00  0.00     0.042 A 
ATOM     23  Cl  UNL A   1      29.821  29.810  22.040  1.00  0.00    -0.084 Cl
ENDBRANCH  15  16
ENDBRANCH  14  15
ENDBRANCH  12  14
ENDBRANCH   8  12
ENDBRANCH   7   8
ENDBRANCH   5   7
ENDBRANCH   4   5
ENDBRANCH   3   4
ENDBRANCH   2   3
ENDBRANCH   1   2
BRANCH   1  24
ATOM     24  C   UNL A   1      40.356  22.688  26.520  1.00  0.00     0.188 C 
BRANCH  24  25
ATOM     25  C   UNL A   1      41.470  21.650  26.319  1.00  0.00     0.188 C 
BRANCH  25  26
ATOM     26  O   UNL A   1      41.674  20.874  27.501  1.00  0.00    -0.376 OA
BRANCH  26  27
ATOM     27  C   UNL A   1      42.128  19.552  27.225  1.00  0.00     0.202 C 
BRANCH  27  28
ATOM     28  C   UNL A   1      42.379  19.404  25.728  1.00  0.00     0.261 C 
BRANCH  28  29
ATOM     29  O   UNL A   1      43.744  19.002  25.485  1.00  0.00    -0.460 OA
BRANCH  29  30
ATOM     30  C   UNL A   1      44.332  19.489  24.374  1.00  0.00     0.338 C 
ATOM     31  O   UNL A   1      44.521  18.913  23.319  1.00  0.00    -0.246 OA
BRANCH  30  32
ATOM     32  C   UNL A   1      44.807  20.859  24.651  1.00  0.00     0.060 A 
ATOM     33  C   UNL A   1      45.518  21.149  25.816  1.00  0.00     0.016 A 
ATOM     34  C   UNL A   1      44.444  21.884  23.779  1.00  0.00     0.016 A 
ATOM     35  C   UNL A   1      45.809  22.480  26.145  1.00  0.00     0.010 A 
ATOM     36  C   UNL A   1      44.768  23.208  24.092  1.00  0.00     0.010 A 
ATOM     37  C   UNL A   1      45.413  23.526  25.300  1.00  0.00    -0.014 A 
BRANCH  37  38
ATOM     38  C   UNL A   1      45.523  24.951  25.725  1.00  0.00     0.031 A 
ATOM     39  C   UNL A   1      46.828  25.675  25.515  1.00  0.00     0.074 A 
ATOM     40  C   UNL A   1      44.490  25.620  26.270  1.00  0.00     0.049 A 
ATOM     41  N   UNL A   1      47.237  26.817  26.008  1.00  0.00    -0.248 NA
ATOM     42  C   UNL A   1      47.806  25.017  24.634  1.00  0.00     0.031 C 
ATOM     43  C   UNL A   1      43.139  25.097  26.451  1.00  0.00     0.029 A 
ATOM     44  N   UNL A   1      44.421  26.901  26.771  1.00  0.00    -0.354 N 
ATOM     45  C   UNL A   1      48.542  26.976  25.559  1.00  0.00     0.074 A 
ATOM     46  C   UNL A   1      48.847  25.832  24.728  1.00  0.00     0.031 C 
ATOM     47  C   UNL A   1      42.367  26.056  26.990  1.00  0.00     0.029 A 
ATOM     48  C   UNL A   1      43.187  27.232  27.272  1.00  0.00     0.049 A 
ATOM     49  H   UNL A   1      45.186  27.521  26.769  1.00  0.00     0.167 HD
ATOM     50  C   UNL A   1      49.413  27.976  25.835  1.00  0.00     0.037 A 
ATOM     51  C   UNL A   1      42.773  28.339  27.921  1.00  0.00     0.037 A 
ATOM     52  C   UNL A   1      49.096  29.142  26.616  1.00  0.00     0.049 A 
ATOM     53  C   UNL A   1      43.765  29.430  28.239  1.00  0.00     0.074 A 
ATOM     54  C   UNL A   1      49.924  30.189  26.982  1.00  0.00     0.029 A 
ATOM     55  N   UNL A   1      47.841  29.425  27.131  1.00  0.00    -0.354 N 
ATOM     56  N   UNL A   1      45.030  29.523  27.910  1.00  0.00    -0.248 NA
ATOM     57  C   UNL A   1      43.277  30.555  29.053  1.00  0.00     0.031 C 
ATOM     58  C   UNL A   1      49.175  31.095  27.743  1.00  0.00     0.029 A 
ATOM     59  C   UNL A   1      47.873  30.629  27.817  1.00  0.00     0.049 A 
ATOM     60  H   UNL A   1      47.045  28.856  27.024  1.00  0.00     0.167 HD
ATOM     61  C   UNL A   1      45.488  30.706  28.476  1.00  0.00     0.074 A 
ATOM     62  C   UNL A   1      44.357  31.318  29.139  1.00  0.00     0.031 C 
ATOM     63  C   UNL A   1      46.738  31.229  28.467  1.00  0.00     0.037 A 
BRANCH  50  64
ATOM     64  C   UNL A   1      50.820  27.820  25.344  1.00  0.00     0.064 A 
ATOM     65  C   UNL A   1      51.852  27.358  26.170  1.00  0.00     0.173 A 
ATOM     66  C   UNL A   1      51.125  28.109  24.005  1.00  0.00     0.173 A 
ATOM     67  F   UNL A   1      51.613  27.087  27.462  1.00  0.00    -0.203 F 
ATOM     68  C   UNL A   1      53.146  27.208  25.677  1.00  0.00     0.198 A 
ATOM     69  C   UNL A   1      52.413  27.935  23.510  1.00  0.00     0.198 A 
ATOM     70  F   UNL A   1      50.168  28.550  23.173  1.00  0.00    -0.203 F 
ATOM     71  F   UNL A   1      54.128  26.800  26.492  1.00  0.00    -0.200 F 
ATOM     72  C   UNL A   1      53.424  27.490  24.347  1.00  0.00     0.200 A 
ATOM     73  F   UNL A   1      52.676  28.199  22.222  1.00  0.00    -0.200 F 
ATOM     74  F   UNL A   1      54.669  27.337  23.874  1.00  0.00    -0.200 F 
ENDBRANCH  50  64
BRANCH  51  75
ATOM     75  C   UNL A   1      41.360  28.463  28.372  1.00  0.00     0.064 A 
ATOM     76  C   UNL A   1      40.977  28.051  29.657  1.00  0.00     0.173 A 
ATOM     77  C   UNL A   1      40.359  28.954  27.521  1.00  0.00     0.173 A 
ATOM     78  F   UNL A   1      41.889  27.538  30.495  1.00  0.00    -0.203 F 
ATOM     79  C   UNL A   1      39.646  28.114  30.067  1.00  0.00     0.198 A 
ATOM     80  C   UNL A   1      39.035  29.047  27.944  1.00  0.00     0.198 A 
ATOM     81  F   UNL A   1      40.669  29.347  26.277  1.00  0.00    -0.203 F 
ATOM     82  F   UNL A   1      39.300  27.664  31.281  1.00  0.00    -0.200 F 
ATOM     83  C   UNL A   1      38.678  28.619  29.213  1.00  0.00     0.200 A 
ATOM     84  F   UNL A   1      38.104  29.541  27.117  1.00  0.00    -0.200 F 
ATOM     85  F   UNL A   1      37.399  28.680  29.607  1.00  0.00    -0.200 F 
ENDBRANCH  51  75
BRANCH  63  86
ATOM     86  C   UNL A   1      46.950  32.528  29.186  1.00  0.00     0.064 A 
ATOM     87  C   UNL A   1      46.759  33.758  28.539  1.00  0.00     0.173 A 
ATOM     88  C   UNL A   1      47.300  32.545  30.543  1.00  0.00     0.173 A 
ATOM     89  F   UNL A   1      46.437  33.793  27.238  1.00  0.00    -0.203 F 
ATOM     90  C   UNL A   1      46.931  34.959  29.222  1.00  0.00     0.198 A 
ATOM     91  C   UNL A   1      47.448  33.748  31.230  1.00  0.00     0.198 A 
ATOM     92  F   UNL A   1      47.487  31.395  31.208  1.00  0.00    -0.203 F 
ATOM     93  F   UNL A   1      46.778  36.123  28.577  1.00  0.00    -0.200 F 
ATOM     94  C   UNL A   1      47.268  34.953  30.568  1.00  0.00     0.200 A 
ATOM     95  F   UNL A   1      47.765  33.740  32.532  1.00  0.00    -0.200 F 
ATOM     96  F   UNL A   1      47.426  36.109  31.226  1.00  0.00    -0.200 F 
ENDBRANCH  63  86
ENDBRANCH  37  38
ENDBRANCH  30  32
ENDBRANCH  29  30
ENDBRANCH  28  29
ENDBRANCH  27  28
ENDBRANCH  26  27
ENDBRANCH  25  26
ENDBRANCH  24  25
ENDBRANCH   1  24
TORSDOF 24
ENDMDL
