MODEL 1
REMARK VINA RESULT:     -11.6      0.000      0.000
REMARK SMILES NC(=O)c1c(-c2ccc(Cl)cc2)csc1NC(=O)[C@H]1[C@@H](C(=O)OCCOCCOCCOC(=O)c2ccc(-c3c4nc(c(-c5c(F)c(F)c(F)c(F)c5F)c5ccc([nH]5)c(-c5c(F)c(F)c(F)c(F)c5F)c5nc(c(-c6c(F)c(F)c(F)c(F)c6F)c6ccc3[nH]6)C=C5)C=C4)cc2)[C@@H]2CC[C@H]1O2
REMARK SMILES IDX 27 1 26 2 25 3 24 4 23 5 21 6 22 7 20 8 19 9 101 10 98 11
REMARK SMILES IDX 100 12 102 13 99 14 17 15 16 16 18 18 15 19 4 20 5 21 13 22
REMARK SMILES IDX 14 23 2 24 1 25 3 28 6 29 7 30 12 31 8 32 11 33 9 34 10 35
REMARK SMILES IDX 28 36 29 37 30 38 31 39 32 40 33 41 34 42 35 43 36 44 97 45
REMARK SMILES IDX 37 46 96 47 38 48 39 49 40 50 90 51 41 52 95 53 89 54 91 55
REMARK SMILES IDX 42 56 94 57 88 58 87 59 43 61 75 62 55 63 74 64 56 65 59 66
REMARK SMILES IDX 73 67 92 68 57 69 58 70 72 72 93 73 60 74 44 75 45 76 53 77
REMARK SMILES IDX 46 78 47 79 51 80 54 81 48 82 49 83 52 84 50 85 76 86 77 87
REMARK SMILES IDX 85 88 78 89 79 90 83 91 86 92 80 93 81 94 84 95 82 96 61 97
REMARK SMILES IDX 62 98 70 99 63 100 64 101 68 102 71 103 65 104 66 105 69 106
REMARK SMILES IDX 67 107
REMARK H PARENT 16 17 1 26 1 27 91 60 59 71
REMARK Flexibility Score: inf
ROOT
ATOM      1  C   UNL A   1      41.496  19.569  26.236  1.00  0.00     0.188 C 
ENDROOT
BRANCH   1   2
ATOM      2  O   UNL A   1      40.177  19.373  25.739  1.00  0.00    -0.376 OA
BRANCH   2   3
ATOM      3  C   UNL A   1      39.283  20.472  25.720  1.00  0.00     0.202 C 
BRANCH   3   4
ATOM      4  C   UNL A   1      37.969  20.288  24.960  1.00  0.00     0.261 C 
BRANCH   4   5
ATOM      5  O   UNL A   1      36.839  20.973  25.524  1.00  0.00    -0.463 OA
BRANCH   5   6
ATOM      6  C   UNL A   1      36.170  21.790  24.678  1.00  0.00     0.312 C 
ATOM      7  O   UNL A   1      36.678  22.727  24.068  1.00  0.00    -0.252 OA
BRANCH   6   8
ATOM      8  C   UNL A   1      34.719  21.421  24.460  1.00  0.00     0.143 C 
ATOM      9  C   UNL A   1      33.565  22.285  25.021  1.00  0.00     0.124 C 
ATOM     10  C   UNL A   1      32.629  21.194  25.510  1.00  0.00     0.132 C 
ATOM     11  C   UNL A   1      34.382  20.021  24.994  1.00  0.00     0.133 C 
ATOM     12  C   UNL A   1      32.123  20.286  24.375  1.00  0.00     0.035 C 
ATOM     13  O   UNL A   1      33.572  20.305  26.154  1.00  0.00    -0.373 OA
ATOM     14  C   UNL A   1      33.314  19.357  24.136  1.00  0.00     0.036 C 
BRANCH   9  15
ATOM     15  C   UNL A   1      33.997  23.479  25.889  1.00  0.00     0.231 C 
ATOM     16  N   UNL A   1      33.969  24.804  25.581  1.00  0.00    -0.317 N 
ATOM     17  H   UNL A   1      34.600  25.328  26.125  1.00  0.00     0.170 HD
ATOM     18  O   UNL A   1      34.657  23.203  26.907  1.00  0.00    -0.274 OA
BRANCH  16  19
ATOM     19  C   UNL A   1      33.267  25.588  24.690  1.00  0.00     0.108 A 
ATOM     20  C   UNL A   1      32.080  26.288  24.904  1.00  0.00     0.082 A 
ATOM     21  C   UNL A   1      31.831  27.196  23.793  1.00  0.00     0.007 A 
ATOM     22  C   UNL A   1      32.689  26.922  22.745  1.00  0.00     0.076 A 
ATOM     23  S   UNL A   1      33.526  25.465  23.017  1.00  0.00    -0.125 S 
BRANCH  20  24
ATOM     24  C   UNL A   1      31.291  26.107  26.118  1.00  0.00     0.252 C 
ATOM     25  N   UNL A   1      31.217  27.208  26.929  1.00  0.00    -0.365 N 
ATOM     26  H   UNL A   1      30.704  27.167  27.768  1.00  0.00     0.159 HD
ATOM     27  H   UNL A   1      31.677  28.039  26.673  1.00  0.00     0.159 HD
ATOM     28  O   UNL A   1      30.652  25.099  26.366  1.00  0.00    -0.269 OA
ENDBRANCH  20  24
BRANCH  21  29
ATOM     29  C   UNL A   1      30.828  28.256  23.653  1.00  0.00    -0.017 A 
ATOM     30  C   UNL A   1      29.635  27.999  22.957  1.00  0.00     0.010 A 
ATOM     31  C   UNL A   1      31.018  29.522  24.222  1.00  0.00     0.010 A 
ATOM     32  C   UNL A   1      28.642  28.973  22.855  1.00  0.00     0.021 A 
ATOM     33  C   UNL A   1      30.014  30.495  24.134  1.00  0.00     0.021 A 
ATOM     34  C   UNL A   1      28.828  30.213  23.456  1.00  0.00     0.041 A 
ATOM     35  Cl  UNL A   1      27.581  31.393  23.374  1.00  0.00    -0.084 Cl
ENDBRANCH  21  29
ENDBRANCH  16  19
ENDBRANCH   9  15
ENDBRANCH   6   8
ENDBRANCH   5   6
ENDBRANCH   4   5
ENDBRANCH   3   4
ENDBRANCH   2   3
ENDBRANCH   1   2
BRANCH   1  36
ATOM     36  C   UNL A   1      42.653  18.663  25.767  1.00  0.00     0.188 C 
BRANCH  36  37
ATOM     37  O   UNL A   1      43.805  19.411  25.399  1.00  0.00    -0.376 OA
BRANCH  37  38
ATOM     38  C   UNL A   1      43.880  20.720  25.937  1.00  0.00     0.202 C 
BRANCH  38  39
ATOM     39  C   UNL A   1      44.840  21.617  25.151  1.00  0.00     0.261 C 
BRANCH  39  40
ATOM     40  O   UNL A   1      44.921  22.976  25.618  1.00  0.00    -0.460 OA
BRANCH  40  41
ATOM     41  C   UNL A   1      43.894  23.796  25.310  1.00  0.00     0.338 C 
ATOM     42  O   UNL A   1      43.229  23.791  24.290  1.00  0.00    -0.246 OA
BRANCH  41  43
ATOM     43  C   UNL A   1      43.604  24.638  26.494  1.00  0.00     0.060 A 
ATOM     44  C   UNL A   1      42.682  24.186  27.447  1.00  0.00     0.016 A 
ATOM     45  C   UNL A   1      44.232  25.876  26.657  1.00  0.00     0.016 A 
ATOM     46  C   UNL A   1      42.360  24.991  28.546  1.00  0.00     0.010 A 
ATOM     47  C   UNL A   1      43.900  26.684  27.748  1.00  0.00     0.010 A 
ATOM     48  C   UNL A   1      42.940  26.262  28.685  1.00  0.00    -0.014 A 
BRANCH  48  49
ATOM     49  C   UNL A   1      42.430  27.223  29.699  1.00  0.00     0.031 A 
ATOM     50  C   UNL A   1      43.117  27.290  31.038  1.00  0.00     0.074 A 
ATOM     51  C   UNL A   1      41.369  28.013  29.456  1.00  0.00     0.049 A 
ATOM     52  N   UNL A   1      42.806  27.986  32.102  1.00  0.00    -0.248 NA
ATOM     53  C   UNL A   1      44.315  26.452  31.196  1.00  0.00     0.031 C 
ATOM     54  C   UNL A   1      40.630  28.077  28.198  1.00  0.00     0.029 A 
ATOM     55  N   UNL A   1      40.719  28.908  30.274  1.00  0.00    -0.354 N 
ATOM     56  C   UNL A   1      43.761  27.664  33.057  1.00  0.00     0.074 A 
ATOM     57  C   UNL A   1      44.649  26.692  32.456  1.00  0.00     0.031 C 
ATOM     58  C   UNL A   1      39.620  28.954  28.331  1.00  0.00     0.029 A 
ATOM     59  C   UNL A   1      39.618  29.488  29.693  1.00  0.00     0.049 A 
ATOM     60  H   UNL A   1      41.017  29.112  31.190  1.00  0.00     0.167 HD
ATOM     61  C   UNL A   1      43.892  28.136  34.319  1.00  0.00     0.037 A 
ATOM     62  C   UNL A   1      38.702  30.331  30.213  1.00  0.00     0.037 A 
ATOM     63  C   UNL A   1      43.015  29.102  34.925  1.00  0.00     0.049 A 
ATOM     64  C   UNL A   1      38.826  30.782  31.647  1.00  0.00     0.074 A 
ATOM     65  C   UNL A   1      43.088  29.662  36.189  1.00  0.00     0.029 A 
ATOM     66  N   UNL A   1      41.894  29.644  34.313  1.00  0.00    -0.354 N 
ATOM     67  N   UNL A   1      39.753  30.502  32.530  1.00  0.00    -0.248 NA
ATOM     68  C   UNL A   1      37.768  31.669  32.157  1.00  0.00     0.031 C 
ATOM     69  C   UNL A   1      41.982  30.501  36.362  1.00  0.00     0.029 A 
ATOM     70  C   UNL A   1      41.251  30.508  35.185  1.00  0.00     0.049 A 
ATOM     71  H   UNL A   1      41.598  29.444  33.396  1.00  0.00     0.167 HD
ATOM     72  C   UNL A   1      39.412  31.203  33.681  1.00  0.00     0.074 A 
ATOM     73  C   UNL A   1      38.196  31.929  33.385  1.00  0.00     0.031 C 
ATOM     74  C   UNL A   1      40.050  31.241  34.878  1.00  0.00     0.037 A 
BRANCH  61  75
ATOM     75  C   UNL A   1      45.018  27.591  35.148  1.00  0.00     0.064 A 
ATOM     76  C   UNL A   1      44.863  26.445  35.942  1.00  0.00     0.173 A 
ATOM     77  C   UNL A   1      46.280  28.203  35.116  1.00  0.00     0.173 A 
ATOM     78  F   UNL A   1      43.673  25.831  36.017  1.00  0.00    -0.203 F 
ATOM     79  C   UNL A   1      45.924  25.946  36.693  1.00  0.00     0.198 A 
ATOM     80  C   UNL A   1      47.346  27.685  35.845  1.00  0.00     0.198 A 
ATOM     81  F   UNL A   1      46.482  29.299  34.370  1.00  0.00    -0.203 F 
ATOM     82  F   UNL A   1      45.742  24.876  37.479  1.00  0.00    -0.200 F 
ATOM     83  C   UNL A   1      47.166  26.562  36.638  1.00  0.00     0.200 A 
ATOM     84  F   UNL A   1      48.549  28.273  35.781  1.00  0.00    -0.200 F 
ATOM     85  F   UNL A   1      48.189  26.075  37.355  1.00  0.00    -0.200 F 
ENDBRANCH  61  75
BRANCH  62  86
ATOM     86  C   UNL A   1      37.565  30.805  29.378  1.00  0.00     0.064 A 
ATOM     87  C   UNL A   1      37.508  32.131  28.923  1.00  0.00     0.173 A 
ATOM     88  C   UNL A   1      36.491  29.961  29.062  1.00  0.00     0.173 A 
ATOM     89  F   UNL A   1      38.494  32.986  29.230  1.00  0.00    -0.203 F 
ATOM     90  C   UNL A   1      36.411  32.599  28.202  1.00  0.00     0.198 A 
ATOM     91  C   UNL A   1      35.408  30.422  28.315  1.00  0.00     0.198 A 
ATOM     92  F   UNL A   1      36.489  28.689  29.483  1.00  0.00    -0.203 F 
ATOM     93  F   UNL A   1      36.356  33.885  27.830  1.00  0.00    -0.200 F 
ATOM     94  C   UNL A   1      35.364  31.743  27.894  1.00  0.00     0.200 A 
ATOM     95  F   UNL A   1      34.400  29.591  28.017  1.00  0.00    -0.200 F 
ATOM     96  F   UNL A   1      34.307  32.195  27.207  1.00  0.00    -0.200 F 
ENDBRANCH  62  86
BRANCH  74  97
ATOM     97  C   UNL A   1      39.482  32.133  35.944  1.00  0.00     0.064 A 
ATOM     98  C   UNL A   1      38.477  31.695  36.820  1.00  0.00     0.173 A 
ATOM     99  C   UNL A   1      39.984  33.432  36.123  1.00  0.00     0.173 A 
ATOM    100  F   UNL A   1      37.953  30.467  36.684  1.00  0.00    -0.203 F 
ATOM    101  C   UNL A   1      37.981  32.530  37.817  1.00  0.00     0.198 A 
ATOM    102  C   UNL A   1      39.507  34.254  37.141  1.00  0.00     0.198 A 
ATOM    103  F   UNL A   1      40.952  33.900  35.320  1.00  0.00    -0.203 F 
ATOM    104  F   UNL A   1      36.989  32.106  38.613  1.00  0.00    -0.200 F 
ATOM    105  C   UNL A   1      38.501  33.806  37.982  1.00  0.00     0.200 A 
ATOM    106  F   UNL A   1      40.023  35.480  37.308  1.00  0.00    -0.200 F 
ATOM    107  F   UNL A   1      38.028  34.605  38.949  1.00  0.00    -0.200 F 
ENDBRANCH  74  97
ENDBRANCH  48  49
ENDBRANCH  41  43
ENDBRANCH  40  41
ENDBRANCH  39  40
ENDBRANCH  38  39
ENDBRANCH  37  38
ENDBRANCH  36  37
ENDBRANCH   1  36
TORSDOF 21
ENDMDL
MODEL 2
REMARK VINA RESULT:     -11.2      1.132      6.874
REMARK SMILES NC(=O)c1c(-c2ccc(Cl)cc2)csc1NC(=O)[C@H]1[C@@H](C(=O)OCCOCCOCCOC(=O)c2ccc(-c3c4nc(c(-c5c(F)c(F)c(F)c(F)c5F)c5ccc([nH]5)c(-c5c(F)c(F)c(F)c(F)c5F)c5nc(c(-c6c(F)c(F)c(F)c(F)c6F)c6ccc3[nH]6)C=C5)C=C4)cc2)[C@@H]2CC[C@H]1O2
REMARK SMILES IDX 27 1 26 2 25 3 24 4 23 5 21 6 22 7 20 8 19 9 101 10 98 11
REMARK SMILES IDX 100 12 102 13 99 14 17 15 16 16 18 18 15 19 4 20 5 21 13 22
REMARK SMILES IDX 14 23 2 24 1 25 3 28 6 29 7 30 12 31 8 32 11 33 9 34 10 35
REMARK SMILES IDX 28 36 29 37 30 38 31 39 32 40 33 41 34 42 35 43 36 44 97 45
REMARK SMILES IDX 37 46 96 47 38 48 39 49 40 50 90 51 41 52 95 53 89 54 91 55
REMARK SMILES IDX 42 56 94 57 88 58 87 59 43 61 75 62 55 63 74 64 56 65 59 66
REMARK SMILES IDX 73 67 92 68 57 69 58 70 72 72 93 73 60 74 44 75 45 76 53 77
REMARK SMILES IDX 46 78 47 79 51 80 54 81 48 82 49 83 52 84 50 85 76 86 77 87
REMARK SMILES IDX 85 88 78 89 79 90 83 91 86 92 80 93 81 94 84 95 82 96 61 97
REMARK SMILES IDX 62 98 70 99 63 100 64 101 68 102 71 103 65 104 66 105 69 106
REMARK SMILES IDX 67 107
REMARK H PARENT 16 17 1 26 1 27 91 60 59 71
REMARK Flexibility Score: inf
ROOT
ATOM      1  C   UNL A   1      39.941  20.816  26.124  1.00  0.00     0.188 C 
ENDROOT
BRANCH   1   2
ATOM      2  O   UNL A   1      39.472  21.984  26.788  1.00  0.00    -0.376 OA
BRANCH   2   3
ATOM      3  C   UNL A   1      38.877  23.015  26.020  1.00  0.00     0.202 C 
BRANCH   3   4
ATOM      4  C   UNL A   1      37.355  22.990  25.880  1.00  0.00     0.261 C 
BRANCH   4   5
ATOM      5  O   UNL A   1      36.854  22.117  24.854  1.00  0.00    -0.463 OA
BRANCH   5   6
ATOM      6  C   UNL A   1      35.831  22.609  24.118  1.00  0.00     0.312 C 
ATOM      7  O   UNL A   1      35.934  23.526  23.308  1.00  0.00    -0.252 OA
BRANCH   6   8
ATOM      8  C   UNL A   1      34.515  21.886  24.304  1.00  0.00     0.143 C 
ATOM      9  C   UNL A   1      33.352  22.506  25.114  1.00  0.00     0.124 C 
ATOM     10  C   UNL A   1      32.874  21.281  25.874  1.00  0.00     0.132 C 
ATOM     11  C   UNL A   1      34.688  20.510  24.962  1.00  0.00     0.133 C 
ATOM     12  C   UNL A   1      32.355  20.166  24.948  1.00  0.00     0.035 C 
ATOM     13  O   UNL A   1      34.141  20.712  26.282  1.00  0.00    -0.373 OA
ATOM     14  C   UNL A   1      33.649  19.526  24.442  1.00  0.00     0.036 C 
BRANCH   9  15
ATOM     15  C   UNL A   1      33.662  23.851  25.790  1.00  0.00     0.231 C 
ATOM     16  N   UNL A   1      33.154  25.081  25.503  1.00  0.00    -0.317 N 
ATOM     17  H   UNL A   1      33.741  25.810  25.810  1.00  0.00     0.170 HD
ATOM     18  O   UNL A   1      34.655  23.870  26.540  1.00  0.00    -0.274 OA
BRANCH  16  19
ATOM     19  C   UNL A   1      32.014  25.549  24.886  1.00  0.00     0.108 A 
ATOM     20  C   UNL A   1      31.622  26.872  24.681  1.00  0.00     0.082 A 
ATOM     21  C   UNL A   1      30.497  26.922  23.758  1.00  0.00     0.007 A 
ATOM     22  C   UNL A   1      29.985  25.654  23.555  1.00  0.00     0.076 A 
ATOM     23  S   UNL A   1      30.664  24.546  24.655  1.00  0.00    -0.125 S 
BRANCH  20  24
ATOM     24  C   UNL A   1      32.328  27.986  25.307  1.00  0.00     0.252 C 
ATOM     25  N   UNL A   1      31.647  28.607  26.319  1.00  0.00    -0.365 N 
ATOM     26  H   UNL A   1      32.055  29.369  26.792  1.00  0.00     0.159 HD
ATOM     27  H   UNL A   1      30.750  28.293  26.573  1.00  0.00     0.159 HD
ATOM     28  O   UNL A   1      33.476  28.296  25.039  1.00  0.00    -0.269 OA
ENDBRANCH  20  24
BRANCH  21  29
ATOM     29  C   UNL A   1      29.870  28.073  23.104  1.00  0.00    -0.017 A 
ATOM     30  C   UNL A   1      30.666  29.002  22.415  1.00  0.00     0.010 A 
ATOM     31  C   UNL A   1      28.481  28.260  23.127  1.00  0.00     0.010 A 
ATOM     32  C   UNL A   1      30.089  30.078  21.738  1.00  0.00     0.021 A 
ATOM     33  C   UNL A   1      27.900  29.330  22.434  1.00  0.00     0.021 A 
ATOM     34  C   UNL A   1      28.706  30.230  21.739  1.00  0.00     0.041 A 
ATOM     35  Cl  UNL A   1      27.994  31.525  20.861  1.00  0.00    -0.084 Cl
ENDBRANCH  21  29
ENDBRANCH  16  19
ENDBRANCH   9  15
ENDBRANCH   6   8
ENDBRANCH   5   6
ENDBRANCH   4   5
ENDBRANCH   3   4
ENDBRANCH   2   3
ENDBRANCH   1   2
BRANCH   1  36
ATOM     36  C   UNL A   1      41.216  20.097  26.610  1.00  0.00     0.188 C 
BRANCH  36  37
ATOM     37  O   UNL A   1      42.339  20.381  25.785  1.00  0.00    -0.376 OA
BRANCH  37  38
ATOM     38  C   UNL A   1      42.661  21.754  25.645  1.00  0.00     0.202 C 
BRANCH  38  39
ATOM     39  C   UNL A   1      44.172  21.997  25.626  1.00  0.00     0.261 C 
BRANCH  39  40
ATOM     40  O   UNL A   1      44.609  23.162  26.350  1.00  0.00    -0.460 OA
BRANCH  40  41
ATOM     41  C   UNL A   1      44.377  24.365  25.781  1.00  0.00     0.338 C 
ATOM     42  O   UNL A   1      44.591  24.685  24.626  1.00  0.00    -0.246 OA
BRANCH  41  43
ATOM     43  C   UNL A   1      43.678  25.216  26.771  1.00  0.00     0.060 A 
ATOM     44  C   UNL A   1      44.037  26.565  26.889  1.00  0.00     0.016 A 
ATOM     45  C   UNL A   1      42.679  24.682  27.589  1.00  0.00     0.016 A 
ATOM     46  C   UNL A   1      43.421  27.372  27.852  1.00  0.00     0.010 A 
ATOM     47  C   UNL A   1      42.074  25.485  28.560  1.00  0.00     0.010 A 
ATOM     48  C   UNL A   1      42.460  26.828  28.720  1.00  0.00    -0.014 A 
BRANCH  48  49
ATOM     49  C   UNL A   1      41.981  27.595  29.900  1.00  0.00     0.031 A 
ATOM     50  C   UNL A   1      40.737  28.433  29.759  1.00  0.00     0.074 A 
ATOM     51  C   UNL A   1      42.636  27.573  31.074  1.00  0.00     0.049 A 
ATOM     52  N   UNL A   1      40.175  29.245  30.617  1.00  0.00    -0.248 NA
ATOM     53  C   UNL A   1      40.036  28.342  28.469  1.00  0.00     0.031 C 
ATOM     54  C   UNL A   1      43.831  26.784  31.363  1.00  0.00     0.029 A 
ATOM     55  N   UNL A   1      42.390  28.252  32.245  1.00  0.00    -0.354 N 
ATOM     56  C   UNL A   1      39.064  29.769  29.970  1.00  0.00     0.074 A 
ATOM     57  C   UNL A   1      39.043  29.202  28.639  1.00  0.00     0.031 C 
ATOM     58  C   UNL A   1      44.222  27.034  32.625  1.00  0.00     0.029 A 
ATOM     59  C   UNL A   1      43.328  28.025  33.222  1.00  0.00     0.049 A 
ATOM     60  H   UNL A   1      41.614  28.845  32.369  1.00  0.00     0.167 HD
ATOM     61  C   UNL A   1      38.140  30.641  30.441  1.00  0.00     0.037 A 
ATOM     62  C   UNL A   1      43.460  28.576  34.447  1.00  0.00     0.037 A 
ATOM     63  C   UNL A   1      38.153  31.210  31.762  1.00  0.00     0.049 A 
ATOM     64  C   UNL A   1      42.462  29.604  34.919  1.00  0.00     0.074 A 
ATOM     65  C   UNL A   1      37.241  32.078  32.337  1.00  0.00     0.029 A 
ATOM     66  N   UNL A   1      39.135  30.977  32.713  1.00  0.00    -0.354 N 
ATOM     67  N   UNL A   1      41.393  30.064  34.315  1.00  0.00    -0.248 NA
ATOM     68  C   UNL A   1      42.693  30.192  36.248  1.00  0.00     0.031 C 
ATOM     69  C   UNL A   1      37.700  32.414  33.615  1.00  0.00     0.029 A 
ATOM     70  C   UNL A   1      38.867  31.709  33.858  1.00  0.00     0.049 A 
ATOM     71  H   UNL A   1      39.909  30.381  32.591  1.00  0.00     0.167 HD
ATOM     72  C   UNL A   1      40.809  30.963  35.201  1.00  0.00     0.074 A 
ATOM     73  C   UNL A   1      41.635  30.979  36.388  1.00  0.00     0.031 C 
ATOM     74  C   UNL A   1      39.687  31.708  35.043  1.00  0.00     0.037 A 
BRANCH  61  75
ATOM     75  C   UNL A   1      37.044  31.059  29.505  1.00  0.00     0.064 A 
ATOM     76  C   UNL A   1      35.982  30.201  29.183  1.00  0.00     0.173 A 
ATOM     77  C   UNL A   1      37.036  32.350  28.956  1.00  0.00     0.173 A 
ATOM     78  F   UNL A   1      35.950  28.953  29.672  1.00  0.00    -0.203 F 
ATOM     79  C   UNL A   1      34.966  30.613  28.324  1.00  0.00     0.198 A 
ATOM     80  C   UNL A   1      36.005  32.768  28.121  1.00  0.00     0.198 A 
ATOM     81  F   UNL A   1      38.027  33.210  29.236  1.00  0.00    -0.203 F 
ATOM     82  F   UNL A   1      33.984  29.762  27.994  1.00  0.00    -0.200 F 
ATOM     83  C   UNL A   1      34.974  31.897  27.800  1.00  0.00     0.200 A 
ATOM     84  F   UNL A   1      36.007  34.013  27.626  1.00  0.00    -0.200 F 
ATOM     85  F   UNL A   1      33.990  32.294  26.981  1.00  0.00    -0.200 F 
ENDBRANCH  61  75
BRANCH  62  86
ATOM     86  C   UNL A   1      44.595  28.181  35.325  1.00  0.00     0.064 A 
ATOM     87  C   UNL A   1      45.824  28.855  35.263  1.00  0.00     0.173 A 
ATOM     88  C   UNL A   1      44.492  27.094  36.206  1.00  0.00     0.173 A 
ATOM     89  F   UNL A   1      45.982  29.878  34.409  1.00  0.00    -0.203 F 
ATOM     90  C   UNL A   1      46.911  28.444  36.030  1.00  0.00     0.198 A 
ATOM     91  C   UNL A   1      45.572  26.703  36.996  1.00  0.00     0.198 A 
ATOM     92  F   UNL A   1      43.344  26.408  36.295  1.00  0.00    -0.203 F 
ATOM     93  F   UNL A   1      48.090  29.070  35.908  1.00  0.00    -0.200 F 
ATOM     94  C   UNL A   1      46.783  27.372  36.901  1.00  0.00     0.200 A 
ATOM     95  F   UNL A   1      45.443  25.668  37.838  1.00  0.00    -0.200 F 
ATOM     96  F   UNL A   1      47.830  26.973  37.635  1.00  0.00    -0.200 F 
ENDBRANCH  62  86
BRANCH  74  97
ATOM     97  C   UNL A   1      39.250  32.566  36.196  1.00  0.00     0.064 A 
ATOM     98  C   UNL A   1      38.342  32.105  37.162  1.00  0.00     0.173 A 
ATOM     99  C   UNL A   1      39.785  33.853  36.364  1.00  0.00     0.173 A 
ATOM    100  F   UNL A   1      37.792  30.886  37.042  1.00  0.00    -0.203 F 
ATOM    101  C   UNL A   1      37.968  32.907  38.236  1.00  0.00     0.198 A 
ATOM    102  C   UNL A   1      39.433  34.642  37.457  1.00  0.00     0.198 A 
ATOM    103  F   UNL A   1      40.664  34.342  35.476  1.00  0.00    -0.203 F 
ATOM    104  F   UNL A   1      37.065  32.463  39.121  1.00  0.00    -0.200 F 
ATOM    105  C   UNL A   1      38.519  34.171  38.387  1.00  0.00     0.200 A 
ATOM    106  F   UNL A   1      39.979  35.857  37.609  1.00  0.00    -0.200 F 
ATOM    107  F   UNL A   1      38.165  34.939  39.428  1.00  0.00    -0.200 F 
ENDBRANCH  74  97
ENDBRANCH  48  49
ENDBRANCH  41  43
ENDBRANCH  40  41
ENDBRANCH  39  40
ENDBRANCH  38  39
ENDBRANCH  37  38
ENDBRANCH  36  37
ENDBRANCH   1  36
TORSDOF 21
ENDMDL
MODEL 3
REMARK VINA RESULT:     -11.1      1.473      2.462
REMARK SMILES NC(=O)c1c(-c2ccc(Cl)cc2)csc1NC(=O)[C@H]1[C@@H](C(=O)OCCOCCOCCOC(=O)c2ccc(-c3c4nc(c(-c5c(F)c(F)c(F)c(F)c5F)c5ccc([nH]5)c(-c5c(F)c(F)c(F)c(F)c5F)c5nc(c(-c6c(F)c(F)c(F)c(F)c6F)c6ccc3[nH]6)C=C5)C=C4)cc2)[C@@H]2CC[C@H]1O2
REMARK SMILES IDX 27 1 26 2 25 3 24 4 23 5 21 6 22 7 20 8 19 9 101 10 98 11
REMARK SMILES IDX 100 12 102 13 99 14 17 15 16 16 18 18 15 19 4 20 5 21 13 22
REMARK SMILES IDX 14 23 2 24 1 25 3 28 6 29 7 30 12 31 8 32 11 33 9 34 10 35
REMARK SMILES IDX 28 36 29 37 30 38 31 39 32 40 33 41 34 42 35 43 36 44 97 45
REMARK SMILES IDX 37 46 96 47 38 48 39 49 40 50 90 51 41 52 95 53 89 54 91 55
REMARK SMILES IDX 42 56 94 57 88 58 87 59 43 61 75 62 55 63 74 64 56 65 59 66
REMARK SMILES IDX 73 67 92 68 57 69 58 70 72 72 93 73 60 74 44 75 45 76 53 77
REMARK SMILES IDX 46 78 47 79 51 80 54 81 48 82 49 83 52 84 50 85 76 86 77 87
REMARK SMILES IDX 85 88 78 89 79 90 83 91 86 92 80 93 81 94 84 95 82 96 61 97
REMARK SMILES IDX 62 98 70 99 63 100 64 101 68 102 71 103 65 104 66 105 69 106
REMARK SMILES IDX 67 107
REMARK H PARENT 16 17 1 26 1 27 91 60 59 71
REMARK Flexibility Score: inf
ROOT
ATOM      1  C   UNL A   1      40.015  20.886  26.339  1.00  0.00     0.188 C 
ENDROOT
BRANCH   1   2
ATOM      2  O   UNL A   1      38.892  21.236  25.537  1.00  0.00    -0.376 OA
BRANCH   2   3
ATOM      3  C   UNL A   1      37.958  22.175  26.039  1.00  0.00     0.202 C 
BRANCH   3   4
ATOM      4  C   UNL A   1      37.810  23.488  25.271  1.00  0.00     0.261 C 
BRANCH   4   5
ATOM      5  O   UNL A   1      36.460  23.843  24.929  1.00  0.00    -0.463 OA
BRANCH   5   6
ATOM      6  C   UNL A   1      35.676  22.822  24.513  1.00  0.00     0.312 C 
ATOM      7  O   UNL A   1      36.034  21.941  23.737  1.00  0.00    -0.252 OA
BRANCH   6   8
ATOM      8  C   UNL A   1      34.301  22.785  25.143  1.00  0.00     0.143 C 
ATOM      9  C   UNL A   1      33.065  23.393  24.440  1.00  0.00     0.124 C 
ATOM     10  C   UNL A   1      32.386  24.060  25.623  1.00  0.00     0.132 C 
ATOM     11  C   UNL A   1      34.269  23.460  26.523  1.00  0.00     0.133 C 
ATOM     12  C   UNL A   1      31.952  23.059  26.708  1.00  0.00     0.035 C 
ATOM     13  O   UNL A   1      33.526  24.672  26.272  1.00  0.00    -0.373 OA
ATOM     14  C   UNL A   1      33.266  22.773  27.438  1.00  0.00     0.036 C 
BRANCH   9  15
ATOM     15  C   UNL A   1      33.350  24.114  23.112  1.00  0.00     0.231 C 
ATOM     16  N   UNL A   1      32.602  25.062  22.485  1.00  0.00    -0.317 N 
ATOM     17  H   UNL A   1      32.791  25.111  21.520  1.00  0.00     0.170 HD
ATOM     18  O   UNL A   1      34.252  23.624  22.407  1.00  0.00    -0.274 OA
BRANCH  16  19
ATOM     19  C   UNL A   1      31.644  25.973  22.879  1.00  0.00     0.108 A 
ATOM     20  C   UNL A   1      31.728  27.365  22.892  1.00  0.00     0.082 A 
ATOM     21  C   UNL A   1      30.411  27.941  23.120  1.00  0.00     0.007 A 
ATOM     22  C   UNL A   1      29.517  26.959  23.508  1.00  0.00     0.076 A 
ATOM     23  S   UNL A   1      30.330  25.503  23.845  1.00  0.00    -0.125 S 
BRANCH  20  24
ATOM     24  C   UNL A   1      32.990  28.059  22.654  1.00  0.00     0.252 C 
ATOM     25  N   UNL A   1      33.119  29.259  23.298  1.00  0.00    -0.365 N 
ATOM     26  H   UNL A   1      33.941  29.791  23.189  1.00  0.00     0.159 HD
ATOM     27  H   UNL A   1      32.391  29.592  23.871  1.00  0.00     0.159 HD
ATOM     28  O   UNL A   1      33.914  27.584  22.017  1.00  0.00    -0.269 OA
ENDBRANCH  20  24
BRANCH  21  29
ATOM     29  C   UNL A   1      29.967  29.334  23.032  1.00  0.00    -0.017 A 
ATOM     30  C   UNL A   1      29.511  29.845  21.806  1.00  0.00     0.010 A 
ATOM     31  C   UNL A   1      29.963  30.173  24.155  1.00  0.00     0.010 A 
ATOM     32  C   UNL A   1      29.033  31.152  21.707  1.00  0.00     0.021 A 
ATOM     33  C   UNL A   1      29.468  31.480  24.060  1.00  0.00     0.021 A 
ATOM     34  C   UNL A   1      29.000  31.960  22.838  1.00  0.00     0.041 A 
ATOM     35  Cl  UNL A   1      28.363  33.553  22.726  1.00  0.00    -0.084 Cl
ENDBRANCH  21  29
ENDBRANCH  16  19
ENDBRANCH   9  15
ENDBRANCH   6   8
ENDBRANCH   5   6
ENDBRANCH   4   5
ENDBRANCH   3   4
ENDBRANCH   2   3
ENDBRANCH   1   2
BRANCH   1  36
ATOM     36  C   UNL A   1      40.903  19.684  25.962  1.00  0.00     0.188 C 
BRANCH  36  37
ATOM     37  O   UNL A   1      42.229  20.080  25.630  1.00  0.00    -0.376 OA
BRANCH  37  38
ATOM     38  C   UNL A   1      42.589  21.392  26.022  1.00  0.00     0.202 C 
BRANCH  38  39
ATOM     39  C   UNL A   1      43.618  22.019  25.077  1.00  0.00     0.261 C 
BRANCH  39  40
ATOM     40  O   UNL A   1      43.306  23.353  24.636  1.00  0.00    -0.460 OA
BRANCH  40  41
ATOM     41  C   UNL A   1      44.166  24.334  24.982  1.00  0.00     0.338 C 
ATOM     42  O   UNL A   1      45.284  24.522  24.536  1.00  0.00    -0.246 OA
BRANCH  41  43
ATOM     43  C   UNL A   1      43.471  25.252  25.912  1.00  0.00     0.060 A 
ATOM     44  C   UNL A   1      43.797  26.615  25.902  1.00  0.00     0.016 A 
ATOM     45  C   UNL A   1      42.508  24.768  26.802  1.00  0.00     0.016 A 
ATOM     46  C   UNL A   1      43.185  27.489  26.808  1.00  0.00     0.010 A 
ATOM     47  C   UNL A   1      41.907  25.640  27.716  1.00  0.00     0.010 A 
ATOM     48  C   UNL A   1      42.262  27.000  27.746  1.00  0.00    -0.014 A 
BRANCH  48  49
ATOM     49  C   UNL A   1      41.794  27.856  28.868  1.00  0.00     0.031 A 
ATOM     50  C   UNL A   1      42.577  27.849  30.155  1.00  0.00     0.074 A 
ATOM     51  C   UNL A   1      40.689  28.616  28.768  1.00  0.00     0.049 A 
ATOM     52  N   UNL A   1      42.322  28.447  31.292  1.00  0.00    -0.248 NA
ATOM     53  C   UNL A   1      43.815  27.055  30.158  1.00  0.00     0.031 C 
ATOM     54  C   UNL A   1      39.854  28.745  27.576  1.00  0.00     0.029 A 
ATOM     55  N   UNL A   1      40.070  29.416  29.701  1.00  0.00    -0.354 N 
ATOM     56  C   UNL A   1      43.359  28.093  32.145  1.00  0.00     0.074 A 
ATOM     57  C   UNL A   1      44.234  27.210  31.405  1.00  0.00     0.031 C 
ATOM     58  C   UNL A   1      38.825  29.565  27.853  1.00  0.00     0.029 A 
ATOM     59  C   UNL A   1      38.907  29.990  29.250  1.00  0.00     0.049 A 
ATOM     60  H   UNL A   1      40.428  29.561  30.607  1.00  0.00     0.167 HD
ATOM     61  C   UNL A   1      43.566  28.471  33.429  1.00  0.00     0.037 A 
ATOM     62  C   UNL A   1      38.002  30.750  29.901  1.00  0.00     0.037 A 
ATOM     63  C   UNL A   1      42.702  29.348  34.173  1.00  0.00     0.049 A 
ATOM     64  C   UNL A   1      38.216  31.093  31.355  1.00  0.00     0.074 A 
ATOM     65  C   UNL A   1      42.850  29.811  35.469  1.00  0.00     0.029 A 
ATOM     66  N   UNL A   1      41.519  29.886  33.690  1.00  0.00    -0.354 N 
ATOM     67  N   UNL A   1      39.218  30.786  32.142  1.00  0.00    -0.248 NA
ATOM     68  C   UNL A   1      37.167  31.890  32.010  1.00  0.00     0.031 C 
ATOM     69  C   UNL A   1      41.730  30.584  35.790  1.00  0.00     0.029 A 
ATOM     70  C   UNL A   1      40.912  30.651  34.674  1.00  0.00     0.049 A 
ATOM     71  H   UNL A   1      41.162  29.745  32.783  1.00  0.00     0.167 HD
ATOM     72  C   UNL A   1      38.938  31.380  33.368  1.00  0.00     0.074 A 
ATOM     73  C   UNL A   1      37.678  32.073  33.220  1.00  0.00     0.031 C 
ATOM     74  C   UNL A   1      39.664  31.352  34.514  1.00  0.00     0.037 A 
BRANCH  61  75
ATOM     75  C   UNL A   1      44.772  27.912  34.128  1.00  0.00     0.064 A 
ATOM     76  C   UNL A   1      46.001  28.586  34.132  1.00  0.00     0.173 A 
ATOM     77  C   UNL A   1      44.682  26.704  34.836  1.00  0.00     0.173 A 
ATOM     78  F   UNL A   1      46.142  29.738  33.459  1.00  0.00    -0.203 F 
ATOM     79  C   UNL A   1      47.104  28.058  34.798  1.00  0.00     0.198 A 
ATOM     80  C   UNL A   1      45.777  26.194  35.525  1.00  0.00     0.198 A 
ATOM     81  F   UNL A   1      43.527  26.022  34.867  1.00  0.00    -0.203 F 
ATOM     82  F   UNL A   1      48.282  28.696  34.752  1.00  0.00    -0.200 F 
ATOM     83  C   UNL A   1      46.990  26.867  35.500  1.00  0.00     0.200 A 
ATOM     84  F   UNL A   1      45.662  25.050  36.213  1.00  0.00    -0.200 F 
ATOM     85  F   UNL A   1      48.050  26.365  36.148  1.00  0.00    -0.200 F 
ENDBRANCH  61  75
BRANCH  62  86
ATOM     86  C   UNL A   1      36.787  31.238  29.192  1.00  0.00     0.064 A 
ATOM     87  C   UNL A   1      35.728  30.368  28.893  1.00  0.00     0.173 A 
ATOM     88  C   UNL A   1      36.682  32.566  28.756  1.00  0.00     0.173 A 
ATOM     89  F   UNL A   1      35.799  29.079  29.258  1.00  0.00    -0.203 F 
ATOM     90  C   UNL A   1      34.622  30.802  28.167  1.00  0.00     0.198 A 
ATOM     91  C   UNL A   1      35.560  33.007  28.055  1.00  0.00     0.198 A 
ATOM     92  F   UNL A   1      37.671  33.436  29.004  1.00  0.00    -0.203 F 
ATOM     93  F   UNL A   1      33.652  29.935  27.845  1.00  0.00    -0.200 F 
ATOM     94  C   UNL A   1      34.535  32.123  27.753  1.00  0.00     0.200 A 
ATOM     95  F   UNL A   1      35.479  34.285  27.660  1.00  0.00    -0.200 F 
ATOM     96  F   UNL A   1      33.474  32.539  27.050  1.00  0.00    -0.200 F 
ENDBRANCH  62  86
BRANCH  74  97
ATOM     97  C   UNL A   1      39.145  32.134  35.687  1.00  0.00     0.064 A 
ATOM     98  C   UNL A   1      38.328  31.547  36.666  1.00  0.00     0.173 A 
ATOM     99  C   UNL A   1      39.509  33.479  35.860  1.00  0.00     0.173 A 
ATOM    100  F   UNL A   1      37.941  30.268  36.542  1.00  0.00    -0.203 F 
ATOM    101  C   UNL A   1      37.878  32.282  37.759  1.00  0.00     0.198 A 
ATOM    102  C   UNL A   1      39.082  34.202  36.970  1.00  0.00     0.198 A 
ATOM    103  F   UNL A   1      40.295  34.088  34.960  1.00  0.00    -0.203 F 
ATOM    104  F   UNL A   1      37.061  31.713  38.657  1.00  0.00    -0.200 F 
ATOM    105  C   UNL A   1      38.260  33.606  37.915  1.00  0.00     0.200 A 
ATOM    106  F   UNL A   1      39.466  35.477  37.127  1.00  0.00    -0.200 F 
ATOM    107  F   UNL A   1      37.833  34.310  38.972  1.00  0.00    -0.200 F 
ENDBRANCH  74  97
ENDBRANCH  48  49
ENDBRANCH  41  43
ENDBRANCH  40  41
ENDBRANCH  39  40
ENDBRANCH  38  39
ENDBRANCH  37  38
ENDBRANCH  36  37
ENDBRANCH   1  36
TORSDOF 21
ENDMDL
