MODEL 1
REMARK VINA RESULT:     -10.8      0.000      0.000
REMARK SMILES C[C@@H](C(=O)OCCOCCOCCOC(=O)c1ccc(-c2c3nc(c(-c4c(F)c(F)c(F)c(F)c4F)c4ccc([nH]4)c(-c4c(F)c(F)c(F)c(F)c4F)c4nc(c(-c5c(F)c(F)c(F)c(F)c5F)c5ccc2[nH]5)C=C4)C=C3)cc1)c1ccc(C[C@H]2CCCC2=O)cc1[N+](=O)[O-]
REMARK SMILES IDX 9 1 8 2 7 3 6 4 5 5 3 6 4 7 2 8 1 9 80 10 81 11 92 12 82 13
REMARK SMILES IDX 91 14 83 15 93 16 94 17 95 18 84 19 85 20 86 21 89 22 87 23
REMARK SMILES IDX 88 24 90 25 10 26 11 27 12 28 13 29 14 30 15 31 16 32 17 33
REMARK SMILES IDX 18 34 79 35 19 36 78 37 20 38 21 39 22 40 72 41 23 42 77 43
REMARK SMILES IDX 71 44 73 45 24 46 76 47 70 48 69 49 25 51 57 52 37 53 56 54
REMARK SMILES IDX 38 55 41 56 55 57 74 58 39 59 40 60 54 62 75 63 42 64 26 65
REMARK SMILES IDX 27 66 35 67 28 68 29 69 33 70 36 71 30 72 31 73 34 74 32 75
REMARK SMILES IDX 58 76 59 77 67 78 60 79 61 80 65 81 68 82 62 83 63 84 66 85
REMARK SMILES IDX 64 86 43 87 44 88 52 89 45 90 46 91 50 92 53 93 47 94 48 95
REMARK SMILES IDX 51 96 49 97
REMARK H PARENT 73 50 41 61
REMARK Flexibility Score: inf
ROOT
ATOM      1  C   UNL A   1      40.061  21.829  26.138  1.00  0.00     0.188 C 
ENDROOT
BRANCH   1   2
ATOM      2  O   UNL A   1      38.655  21.877  26.239  1.00  0.00    -0.376 OA
BRANCH   2   3
ATOM      3  C   UNL A   1      37.933  23.035  25.848  1.00  0.00     0.202 C 
BRANCH   3   4
ATOM      4  C   UNL A   1      36.563  23.019  25.141  1.00  0.00     0.261 C 
BRANCH   4   5
ATOM      5  O   UNL A   1      35.454  22.396  25.815  1.00  0.00    -0.463 OA
BRANCH   5   6
ATOM      6  C   UNL A   1      35.052  21.220  25.268  1.00  0.00     0.313 C 
ATOM      7  O   UNL A   1      35.846  20.356  24.911  1.00  0.00    -0.252 OA
BRANCH   6   8
ATOM      8  C   UNL A   1      33.525  21.051  25.117  1.00  0.00     0.133 C 
ATOM      9  C   UNL A   1      33.077  19.685  24.572  1.00  0.00     0.025 C 
BRANCH   8  10
ATOM     10  C   UNL A   1      32.913  22.279  24.406  1.00  0.00     0.044 A 
ATOM     11  C   UNL A   1      33.425  22.748  23.178  1.00  0.00     0.012 A 
ATOM     12  C   UNL A   1      31.873  23.056  24.984  1.00  0.00     0.273 A 
ATOM     13  C   UNL A   1      32.969  23.945  22.594  1.00  0.00     0.004 A 
ATOM     14  C   UNL A   1      31.448  24.270  24.418  1.00  0.00     0.089 A 
ATOM     15  C   UNL A   1      32.027  24.747  23.244  1.00  0.00    -0.040 A 
BRANCH  12  16
ATOM     16  N   UNL A   1      31.182  22.671  26.220  1.00  0.00     0.063 N 
ATOM     17  O   UNL A   1      30.274  21.830  26.127  1.00  0.00    -0.258 OA
ATOM     18  O   UNL A   1      31.597  23.159  27.279  1.00  0.00    -0.258 OA
ENDBRANCH  12  16
BRANCH  15  19
ATOM     19  C   UNL A   1      31.733  26.163  22.799  1.00  0.00     0.047 C 
BRANCH  19  20
ATOM     20  C   UNL A   1      30.666  26.880  23.642  1.00  0.00     0.060 C 
ATOM     21  C   UNL A   1      31.042  27.239  25.085  1.00  0.00     0.012 C 
ATOM     22  C   UNL A   1      30.412  28.238  23.049  1.00  0.00     0.136 C 
ATOM     23  C   UNL A   1      31.624  28.650  25.071  1.00  0.00     0.009 C 
ATOM     24  C   UNL A   1      31.085  29.327  23.827  1.00  0.00     0.076 C 
ATOM     25  O   UNL A   1      29.808  28.428  22.001  1.00  0.00    -0.299 OA
ENDBRANCH  19  20
ENDBRANCH  15  19
ENDBRANCH   8  10
ENDBRANCH   6   8
ENDBRANCH   5   6
ENDBRANCH   4   5
ENDBRANCH   3   4
ENDBRANCH   2   3
ENDBRANCH   1   2
BRANCH   1  26
ATOM     26  C   UNL A   1      40.925  21.921  27.400  1.00  0.00     0.188 C 
BRANCH  26  27
ATOM     27  O   UNL A   1      41.983  21.008  27.535  1.00  0.00    -0.376 OA
BRANCH  27  28
ATOM     28  C   UNL A   1      41.792  19.623  27.295  1.00  0.00     0.202 C 
BRANCH  28  29
ATOM     29  C   UNL A   1      42.616  18.738  26.332  1.00  0.00     0.261 C 
BRANCH  29  30
ATOM     30  O   UNL A   1      42.873  19.205  25.001  1.00  0.00    -0.460 OA
BRANCH  30  31
ATOM     31  C   UNL A   1      44.177  19.446  24.706  1.00  0.00     0.338 C 
ATOM     32  O   UNL A   1      44.958  18.677  24.184  1.00  0.00    -0.246 OA
BRANCH  31  33
ATOM     33  C   UNL A   1      44.460  20.893  24.899  1.00  0.00     0.060 A 
ATOM     34  C   UNL A   1      45.373  21.245  25.894  1.00  0.00     0.016 A 
ATOM     35  C   UNL A   1      43.843  21.895  24.142  1.00  0.00     0.016 A 
ATOM     36  C   UNL A   1      45.666  22.591  26.126  1.00  0.00     0.010 A 
ATOM     37  C   UNL A   1      44.128  23.254  24.391  1.00  0.00     0.010 A 
ATOM     38  C   UNL A   1      45.048  23.623  25.383  1.00  0.00    -0.014 A 
BRANCH  38  39
ATOM     39  C   UNL A   1      45.357  25.050  25.746  1.00  0.00     0.031 A 
ATOM     40  C   UNL A   1      44.355  25.802  26.579  1.00  0.00     0.074 A 
ATOM     41  C   UNL A   1      46.529  25.660  25.456  1.00  0.00     0.049 A 
ATOM     42  N   UNL A   1      44.432  27.003  27.092  1.00  0.00    -0.248 NA
ATOM     43  C   UNL A   1      43.075  25.121  26.828  1.00  0.00     0.031 C 
ATOM     44  C   UNL A   1      47.595  25.101  24.635  1.00  0.00     0.029 A 
ATOM     45  N   UNL A   1      47.068  26.852  25.910  1.00  0.00    -0.354 N 
ATOM     46  C   UNL A   1      43.192  27.248  27.660  1.00  0.00     0.074 A 
ATOM     47  C   UNL A   1      42.407  26.043  27.498  1.00  0.00     0.031 C 
ATOM     48  C   UNL A   1      48.703  25.851  24.777  1.00  0.00     0.029 A 
ATOM     49  C   UNL A   1      48.416  26.996  25.636  1.00  0.00     0.049 A 
ATOM     50  H   UNL A   1      46.541  27.535  26.385  1.00  0.00     0.167 HD
ATOM     51  C   UNL A   1      42.720  28.401  28.189  1.00  0.00     0.037 A 
ATOM     52  C   UNL A   1      49.309  27.929  26.043  1.00  0.00     0.037 A 
ATOM     53  C   UNL A   1      43.477  29.617  28.310  1.00  0.00     0.049 A 
ATOM     54  C   UNL A   1      48.786  29.173  26.731  1.00  0.00     0.074 A 
ATOM     55  C   UNL A   1      43.044  30.864  28.726  1.00  0.00     0.029 A 
ATOM     56  N   UNL A   1      44.825  29.742  28.013  1.00  0.00    -0.354 N 
ATOM     57  N   UNL A   1      47.584  29.429  27.183  1.00  0.00    -0.248 NA
ATOM     58  C   UNL A   1      49.728  30.298  26.879  1.00  0.00     0.031 C 
ATOM     59  C   UNL A   1      44.118  31.756  28.632  1.00  0.00     0.029 A 
ATOM     60  C   UNL A   1      45.237  31.049  28.227  1.00  0.00     0.049 A 
ATOM     61  H   UNL A   1      45.403  29.011  27.696  1.00  0.00     0.167 HD
ATOM     62  C   UNL A   1      47.613  30.748  27.621  1.00  0.00     0.074 A 
ATOM     63  C   UNL A   1      48.972  31.215  27.466  1.00  0.00     0.031 C 
ATOM     64  C   UNL A   1      46.588  31.517  28.062  1.00  0.00     0.037 A 
BRANCH  51  65
ATOM     65  C   UNL A   1      41.258  28.426  28.518  1.00  0.00     0.064 A 
ATOM     66  C   UNL A   1      40.291  28.895  27.618  1.00  0.00     0.173 A 
ATOM     67  C   UNL A   1      40.833  28.029  29.796  1.00  0.00     0.173 A 
ATOM     68  F   UNL A   1      40.655  29.323  26.399  1.00  0.00    -0.203 F 
ATOM     69  C   UNL A   1      38.957  29.003  28.001  1.00  0.00     0.198 A 
ATOM     70  C   UNL A   1      39.495  28.104  30.162  1.00  0.00     0.198 A 
ATOM     71  F   UNL A   1      41.722  27.583  30.697  1.00  0.00    -0.203 F 
ATOM     72  F   UNL A   1      38.062  29.530  27.154  1.00  0.00    -0.200 F 
ATOM     73  C   UNL A   1      38.560  28.605  29.269  1.00  0.00     0.200 A 
ATOM     74  F   UNL A   1      39.114  27.713  31.386  1.00  0.00    -0.200 F 
ATOM     75  F   UNL A   1      37.278  28.722  29.639  1.00  0.00    -0.200 F 
ENDBRANCH  51  65
BRANCH  52  76
ATOM     76  C   UNL A   1      50.786  27.805  25.800  1.00  0.00     0.064 A 
ATOM     77  C   UNL A   1      51.326  28.083  24.528  1.00  0.00     0.173 A 
ATOM     78  C   UNL A   1      51.680  27.330  26.771  1.00  0.00     0.173 A 
ATOM     79  F   UNL A   1      50.525  28.502  23.537  1.00  0.00    -0.203 F 
ATOM     80  C   UNL A   1      52.676  27.866  24.238  1.00  0.00     0.198 A 
ATOM     81  C   UNL A   1      53.040  27.169  26.496  1.00  0.00     0.198 A 
ATOM     82  F   UNL A   1      51.236  27.000  27.991  1.00  0.00    -0.203 F 
ATOM     83  F   UNL A   1      53.132  28.058  22.993  1.00  0.00    -0.200 F 
ATOM     84  C   UNL A   1      53.535  27.421  25.227  1.00  0.00     0.200 A 
ATOM     85  F   UNL A   1      53.868  26.750  27.464  1.00  0.00    -0.200 F 
ATOM     86  F   UNL A   1      54.831  27.217  24.955  1.00  0.00    -0.200 F 
ENDBRANCH  52  76
BRANCH  64  87
ATOM     87  C   UNL A   1      46.881  32.956  28.387  1.00  0.00     0.064 A 
ATOM     88  C   UNL A   1      47.290  33.350  29.671  1.00  0.00     0.173 A 
ATOM     89  C   UNL A   1      46.810  33.943  27.392  1.00  0.00     0.173 A 
ATOM     90  F   UNL A   1      47.367  32.450  30.663  1.00  0.00    -0.203 F 
ATOM     91  C   UNL A   1      47.592  34.682  29.952  1.00  0.00     0.198 A 
ATOM     92  C   UNL A   1      47.142  35.267  27.669  1.00  0.00     0.198 A 
ATOM     93  F   UNL A   1      46.433  33.621  26.146  1.00  0.00    -0.203 F 
ATOM     94  F   UNL A   1      47.938  35.041  31.196  1.00  0.00    -0.200 F 
ATOM     95  C   UNL A   1      47.526  35.636  28.949  1.00  0.00     0.200 A 
ATOM     96  F   UNL A   1      47.093  36.186  26.695  1.00  0.00    -0.200 F 
ATOM     97  F   UNL A   1      47.827  36.915  29.218  1.00  0.00    -0.200 F 
ENDBRANCH  64  87
ENDBRANCH  38  39
ENDBRANCH  31  33
ENDBRANCH  30  31
ENDBRANCH  29  30
ENDBRANCH  28  29
ENDBRANCH  27  28
ENDBRANCH  26  27
ENDBRANCH   1  26
TORSDOF 21
ENDMDL
MODEL 2
REMARK VINA RESULT:     -10.6      0.950      7.046
REMARK SMILES C[C@@H](C(=O)OCCOCCOCCOC(=O)c1ccc(-c2c3nc(c(-c4c(F)c(F)c(F)c(F)c4F)c4ccc([nH]4)c(-c4c(F)c(F)c(F)c(F)c4F)c4nc(c(-c5c(F)c(F)c(F)c(F)c5F)c5ccc2[nH]5)C=C4)C=C3)cc1)c1ccc(C[C@H]2CCCC2=O)cc1[N+](=O)[O-]
REMARK SMILES IDX 9 1 8 2 7 3 6 4 5 5 3 6 4 7 2 8 1 9 80 10 81 11 92 12 82 13
REMARK SMILES IDX 91 14 83 15 93 16 94 17 95 18 84 19 85 20 86 21 89 22 87 23
REMARK SMILES IDX 88 24 90 25 10 26 11 27 12 28 13 29 14 30 15 31 16 32 17 33
REMARK SMILES IDX 18 34 79 35 19 36 78 37 20 38 21 39 22 40 72 41 23 42 77 43
REMARK SMILES IDX 71 44 73 45 24 46 76 47 70 48 69 49 25 51 57 52 37 53 56 54
REMARK SMILES IDX 38 55 41 56 55 57 74 58 39 59 40 60 54 62 75 63 42 64 26 65
REMARK SMILES IDX 27 66 35 67 28 68 29 69 33 70 36 71 30 72 31 73 34 74 32 75
REMARK SMILES IDX 58 76 59 77 67 78 60 79 61 80 65 81 68 82 62 83 63 84 66 85
REMARK SMILES IDX 64 86 43 87 44 88 52 89 45 90 46 91 50 92 53 93 47 94 48 95
REMARK SMILES IDX 51 96 49 97
REMARK H PARENT 73 50 41 61
REMARK Flexibility Score: inf
ROOT
ATOM      1  C   UNL A   1      40.466  21.818  26.161  1.00  0.00     0.188 C 
ENDROOT
BRANCH   1   2
ATOM      2  O   UNL A   1      39.068  21.702  26.013  1.00  0.00    -0.376 OA
BRANCH   2   3
ATOM      3  C   UNL A   1      38.223  22.837  26.134  1.00  0.00     0.202 C 
BRANCH   3   4
ATOM      4  C   UNL A   1      36.746  22.883  25.696  1.00  0.00     0.261 C 
BRANCH   4   5
ATOM      5  O   UNL A   1      35.816  21.987  26.332  1.00  0.00    -0.463 OA
BRANCH   5   6
ATOM      6  C   UNL A   1      35.161  21.157  25.481  1.00  0.00     0.313 C 
ATOM      7  O   UNL A   1      35.720  20.225  24.911  1.00  0.00    -0.252 OA
BRANCH   6   8
ATOM      8  C   UNL A   1      33.665  21.475  25.270  1.00  0.00     0.133 C 
ATOM      9  C   UNL A   1      32.910  20.470  24.386  1.00  0.00     0.025 C 
BRANCH   8  10
ATOM     10  C   UNL A   1      33.477  22.961  24.892  1.00  0.00     0.044 A 
ATOM     11  C   UNL A   1      34.003  23.486  23.693  1.00  0.00     0.012 A 
ATOM     12  C   UNL A   1      32.852  23.896  25.760  1.00  0.00     0.273 A 
ATOM     13  C   UNL A   1      33.960  24.864  23.406  1.00  0.00     0.004 A 
ATOM     14  C   UNL A   1      32.846  25.276  25.488  1.00  0.00     0.089 A 
ATOM     15  C   UNL A   1      33.442  25.774  24.332  1.00  0.00    -0.040 A 
BRANCH  12  16
ATOM     16  N   UNL A   1      32.191  23.507  27.011  1.00  0.00     0.063 N 
ATOM     17  O   UNL A   1      32.825  22.772  27.785  1.00  0.00    -0.258 OA
ATOM     18  O   UNL A   1      31.077  23.995  27.241  1.00  0.00    -0.258 OA
ENDBRANCH  12  16
BRANCH  15  19
ATOM     19  C   UNL A   1      33.643  27.267  24.190  1.00  0.00     0.047 C 
BRANCH  19  20
ATOM     20  C   UNL A   1      32.617  27.957  23.275  1.00  0.00     0.060 C 
ATOM     21  C   UNL A   1      31.785  27.054  22.355  1.00  0.00     0.012 C 
ATOM     22  C   UNL A   1      31.550  28.583  24.129  1.00  0.00     0.136 C 
ATOM     23  C   UNL A   1      30.505  26.690  23.103  1.00  0.00     0.009 C 
ATOM     24  C   UNL A   1      30.292  27.770  24.143  1.00  0.00     0.076 C 
ATOM     25  O   UNL A   1      31.716  29.586  24.811  1.00  0.00    -0.299 OA
ENDBRANCH  19  20
ENDBRANCH  15  19
ENDBRANCH   8  10
ENDBRANCH   6   8
ENDBRANCH   5   6
ENDBRANCH   4   5
ENDBRANCH   3   4
ENDBRANCH   2   3
ENDBRANCH   1   2
BRANCH   1  26
ATOM     26  C   UNL A   1      41.140  21.370  27.463  1.00  0.00     0.188 C 
BRANCH  26  27
ATOM     27  O   UNL A   1      42.203  20.457  27.366  1.00  0.00    -0.376 OA
BRANCH  27  28
ATOM     28  C   UNL A   1      42.112  19.308  26.539  1.00  0.00     0.202 C 
BRANCH  28  29
ATOM     29  C   UNL A   1      43.280  18.619  25.797  1.00  0.00     0.261 C 
BRANCH  29  30
ATOM     30  O   UNL A   1      43.497  18.912  24.411  1.00  0.00    -0.460 OA
BRANCH  30  31
ATOM     31  C   UNL A   1      44.739  19.364  24.095  1.00  0.00     0.338 C 
ATOM     32  O   UNL A   1      45.555  18.811  23.388  1.00  0.00    -0.246 OA
BRANCH  31  33
ATOM     33  C   UNL A   1      44.875  20.772  24.553  1.00  0.00     0.060 A 
ATOM     34  C   UNL A   1      45.648  21.009  25.690  1.00  0.00     0.016 A 
ATOM     35  C   UNL A   1      44.254  21.845  23.904  1.00  0.00     0.016 A 
ATOM     36  C   UNL A   1      45.799  22.313  26.171  1.00  0.00     0.010 A 
ATOM     37  C   UNL A   1      44.394  23.157  24.403  1.00  0.00     0.010 A 
ATOM     38  C   UNL A   1      45.173  23.412  25.541  1.00  0.00    -0.014 A 
BRANCH  38  39
ATOM     39  C   UNL A   1      45.319  24.773  26.165  1.00  0.00     0.031 A 
ATOM     40  C   UNL A   1      46.557  25.568  25.849  1.00  0.00     0.074 A 
ATOM     41  C   UNL A   1      44.355  25.365  26.907  1.00  0.00     0.049 A 
ATOM     42  N   UNL A   1      46.870  26.792  26.190  1.00  0.00    -0.248 NA
ATOM     43  C   UNL A   1      47.599  24.869  25.083  1.00  0.00     0.031 C 
ATOM     44  C   UNL A   1      43.113  24.737  27.339  1.00  0.00     0.029 A 
ATOM     45  N   UNL A   1      44.220  26.672  27.345  1.00  0.00    -0.354 N 
ATOM     46  C   UNL A   1      48.168  26.984  25.743  1.00  0.00     0.074 A 
ATOM     47  C   UNL A   1      48.556  25.780  25.039  1.00  0.00     0.031 C 
ATOM     48  C   UNL A   1      42.284  25.681  27.820  1.00  0.00     0.029 A 
ATOM     49  C   UNL A   1      42.955  26.978  27.812  1.00  0.00     0.049 A 
ATOM     50  H   UNL A   1      44.957  27.324  27.325  1.00  0.00     0.167 HD
ATOM     51  C   UNL A   1      48.993  28.031  25.975  1.00  0.00     0.037 A 
ATOM     52  C   UNL A   1      42.404  28.162  28.170  1.00  0.00     0.037 A 
ATOM     53  C   UNL A   1      48.632  29.210  26.714  1.00  0.00     0.049 A 
ATOM     54  C   UNL A   1      43.317  29.361  28.326  1.00  0.00     0.074 A 
ATOM     55  C   UNL A   1      49.438  30.269  27.096  1.00  0.00     0.029 A 
ATOM     56  N   UNL A   1      47.358  29.488  27.187  1.00  0.00    -0.354 N 
ATOM     57  N   UNL A   1      44.572  29.500  27.982  1.00  0.00    -0.248 NA
ATOM     58  C   UNL A   1      42.755  30.539  29.012  1.00  0.00     0.031 C 
ATOM     59  C   UNL A   1      48.664  31.163  27.844  1.00  0.00     0.029 A 
ATOM     60  C   UNL A   1      47.361  30.697  27.866  1.00  0.00     0.049 A 
ATOM     61  H   UNL A   1      46.571  28.911  27.060  1.00  0.00     0.167 HD
ATOM     62  C   UNL A   1      44.960  30.751  28.447  1.00  0.00     0.074 A 
ATOM     63  C   UNL A   1      43.787  31.372  29.019  1.00  0.00     0.031 C 
ATOM     64  C   UNL A   1      46.195  31.310  28.447  1.00  0.00     0.037 A 
BRANCH  51  65
ATOM     65  C   UNL A   1      50.420  27.853  25.554  1.00  0.00     0.064 A 
ATOM     66  C   UNL A   1      50.838  28.005  24.225  1.00  0.00     0.173 A 
ATOM     67  C   UNL A   1      51.373  27.453  26.504  1.00  0.00     0.173 A 
ATOM     68  F   UNL A   1      49.954  28.347  23.275  1.00  0.00    -0.203 F 
ATOM     69  C   UNL A   1      52.150  27.725  23.856  1.00  0.00     0.198 A 
ATOM     70  C   UNL A   1      52.691  27.209  26.138  1.00  0.00     0.198 A 
ATOM     71  F   UNL A   1      51.020  27.282  27.787  1.00  0.00    -0.203 F 
ATOM     72  F   UNL A   1      52.510  27.798  22.567  1.00  0.00    -0.200 F 
ATOM     73  C   UNL A   1      53.075  27.331  24.812  1.00  0.00     0.200 A 
ATOM     74  F   UNL A   1      53.584  26.834  27.065  1.00  0.00    -0.200 F 
ATOM     75  F   UNL A   1      54.335  27.050  24.451  1.00  0.00    -0.200 F 
ENDBRANCH  51  65
BRANCH  52  76
ATOM     76  C   UNL A   1      40.941  28.324  28.465  1.00  0.00     0.064 A 
ATOM     77  C   UNL A   1      40.080  28.908  27.514  1.00  0.00     0.173 A 
ATOM     78  C   UNL A   1      40.374  27.997  29.706  1.00  0.00     0.173 A 
ATOM     79  F   UNL A   1      40.560  29.284  26.318  1.00  0.00    -0.203 F 
ATOM     80  C   UNL A   1      38.740  29.177  27.801  1.00  0.00     0.198 A 
ATOM     81  C   UNL A   1      39.020  28.213  29.971  1.00  0.00     0.198 A 
ATOM     82  F   UNL A   1      41.136  27.481  30.679  1.00  0.00    -0.203 F 
ATOM     83  F   UNL A   1      37.977  29.814  26.901  1.00  0.00    -0.200 F 
ATOM     84  C   UNL A   1      38.207  28.818  29.026  1.00  0.00     0.200 A 
ATOM     85  F   UNL A   1      38.509  27.851  31.156  1.00  0.00    -0.200 F 
ATOM     86  F   UNL A   1      36.921  29.071  29.305  1.00  0.00    -0.200 F 
ENDBRANCH  52  76
BRANCH  64  87
ATOM     87  C   UNL A   1      46.356  32.652  29.105  1.00  0.00     0.064 A 
ATOM     88  C   UNL A   1      46.706  32.769  30.460  1.00  0.00     0.173 A 
ATOM     89  C   UNL A   1      46.217  33.835  28.362  1.00  0.00     0.173 A 
ATOM     90  F   UNL A   1      46.844  31.672  31.220  1.00  0.00    -0.203 F 
ATOM     91  C   UNL A   1      46.886  34.018  31.051  1.00  0.00     0.198 A 
ATOM     92  C   UNL A   1      46.428  35.080  28.949  1.00  0.00     0.198 A 
ATOM     93  F   UNL A   1      45.892  33.782  27.062  1.00  0.00    -0.203 F 
ATOM     94  F   UNL A   1      47.177  34.105  32.356  1.00  0.00    -0.200 F 
ATOM     95  C   UNL A   1      46.755  35.171  30.293  1.00  0.00     0.200 A 
ATOM     96  F   UNL A   1      46.317  36.194  28.211  1.00  0.00    -0.200 F 
ATOM     97  F   UNL A   1      46.939  36.372  30.860  1.00  0.00    -0.200 F 
ENDBRANCH  64  87
ENDBRANCH  38  39
ENDBRANCH  31  33
ENDBRANCH  30  31
ENDBRANCH  29  30
ENDBRANCH  28  29
ENDBRANCH  27  28
ENDBRANCH  26  27
ENDBRANCH   1  26
TORSDOF 21
ENDMDL
MODEL 3
REMARK VINA RESULT:      -9.6      3.277      8.532
REMARK SMILES C[C@@H](C(=O)OCCOCCOCCOC(=O)c1ccc(-c2c3nc(c(-c4c(F)c(F)c(F)c(F)c4F)c4ccc([nH]4)c(-c4c(F)c(F)c(F)c(F)c4F)c4nc(c(-c5c(F)c(F)c(F)c(F)c5F)c5ccc2[nH]5)C=C4)C=C3)cc1)c1ccc(C[C@H]2CCCC2=O)cc1[N+](=O)[O-]
REMARK SMILES IDX 9 1 8 2 7 3 6 4 5 5 3 6 4 7 2 8 1 9 80 10 81 11 92 12 82 13
REMARK SMILES IDX 91 14 83 15 93 16 94 17 95 18 84 19 85 20 86 21 89 22 87 23
REMARK SMILES IDX 88 24 90 25 10 26 11 27 12 28 13 29 14 30 15 31 16 32 17 33
REMARK SMILES IDX 18 34 79 35 19 36 78 37 20 38 21 39 22 40 72 41 23 42 77 43
REMARK SMILES IDX 71 44 73 45 24 46 76 47 70 48 69 49 25 51 57 52 37 53 56 54
REMARK SMILES IDX 38 55 41 56 55 57 74 58 39 59 40 60 54 62 75 63 42 64 26 65
REMARK SMILES IDX 27 66 35 67 28 68 29 69 33 70 36 71 30 72 31 73 34 74 32 75
REMARK SMILES IDX 58 76 59 77 67 78 60 79 61 80 65 81 68 82 62 83 63 84 66 85
REMARK SMILES IDX 64 86 43 87 44 88 52 89 45 90 46 91 50 92 53 93 47 94 48 95
REMARK SMILES IDX 51 96 49 97
REMARK H PARENT 73 50 41 61
REMARK Flexibility Score: inf
ROOT
ATOM      1  C   UNL A   1      38.771  24.227  26.557  1.00  0.00     0.188 C 
ENDROOT
BRANCH   1   2
ATOM      2  O   UNL A   1      37.363  24.180  26.507  1.00  0.00    -0.376 OA
BRANCH   2   3
ATOM      3  C   UNL A   1      36.692  23.244  25.676  1.00  0.00     0.202 C 
BRANCH   3   4
ATOM      4  C   UNL A   1      35.297  23.462  25.055  1.00  0.00     0.261 C 
BRANCH   4   5
ATOM      5  O   UNL A   1      34.318  24.195  25.815  1.00  0.00    -0.463 OA
BRANCH   5   6
ATOM      6  C   UNL A   1      33.208  24.543  25.116  1.00  0.00     0.313 C 
ATOM      7  O   UNL A   1      33.148  24.459  23.893  1.00  0.00    -0.252 OA
BRANCH   6   8
ATOM      8  C   UNL A   1      32.029  25.062  25.966  1.00  0.00     0.133 C 
ATOM      9  C   UNL A   1      31.034  23.981  26.419  1.00  0.00     0.025 C 
BRANCH   8  10
ATOM     10  C   UNL A   1      31.396  26.309  25.308  1.00  0.00     0.044 A 
ATOM     11  C   UNL A   1      30.330  26.194  24.391  1.00  0.00     0.012 A 
ATOM     12  C   UNL A   1      31.903  27.620  25.513  1.00  0.00     0.273 A 
ATOM     13  C   UNL A   1      29.842  27.307  23.681  1.00  0.00     0.004 A 
ATOM     14  C   UNL A   1      31.439  28.722  24.774  1.00  0.00     0.089 A 
ATOM     15  C   UNL A   1      30.438  28.564  23.818  1.00  0.00    -0.040 A 
BRANCH  12  16
ATOM     16  N   UNL A   1      32.959  27.925  26.485  1.00  0.00     0.063 N 
ATOM     17  O   UNL A   1      34.130  27.931  26.071  1.00  0.00    -0.258 OA
ATOM     18  O   UNL A   1      32.607  28.223  27.633  1.00  0.00    -0.258 OA
ENDBRANCH  12  16
BRANCH  15  19
ATOM     19  C   UNL A   1      30.138  29.704  22.869  1.00  0.00     0.047 C 
BRANCH  19  20
ATOM     20  C   UNL A   1      28.734  30.309  23.034  1.00  0.00     0.060 C 
ATOM     21  C   UNL A   1      28.618  31.579  23.887  1.00  0.00     0.012 C 
ATOM     22  C   UNL A   1      28.258  30.800  21.695  1.00  0.00     0.136 C 
ATOM     23  C   UNL A   1      28.755  32.776  22.950  1.00  0.00     0.009 C 
ATOM     24  C   UNL A   1      28.374  32.288  21.568  1.00  0.00     0.076 C 
ATOM     25  O   UNL A   1      27.907  30.067  20.779  1.00  0.00    -0.299 OA
ENDBRANCH  19  20
ENDBRANCH  15  19
ENDBRANCH   8  10
ENDBRANCH   6   8
ENDBRANCH   5   6
ENDBRANCH   4   5
ENDBRANCH   3   4
ENDBRANCH   2   3
ENDBRANCH   1   2
BRANCH   1  26
ATOM     26  C   UNL A   1      39.581  22.928  26.648  1.00  0.00     0.188 C 
BRANCH  26  27
ATOM     27  O   UNL A   1      40.949  22.989  26.339  1.00  0.00    -0.376 OA
BRANCH  27  28
ATOM     28  C   UNL A   1      41.728  21.810  26.219  1.00  0.00     0.202 C 
BRANCH  28  29
ATOM     29  C   UNL A   1      43.261  21.741  26.030  1.00  0.00     0.261 C 
BRANCH  29  30
ATOM     30  O   UNL A   1      44.054  22.901  26.310  1.00  0.00    -0.460 OA
BRANCH  30  31
ATOM     31  C   UNL A   1      45.394  22.750  26.146  1.00  0.00     0.338 C 
ATOM     32  O   UNL A   1      45.968  21.761  25.740  1.00  0.00    -0.246 OA
BRANCH  31  33
ATOM     33  C   UNL A   1      46.057  24.070  26.313  1.00  0.00     0.060 A 
ATOM     34  C   UNL A   1      45.959  24.979  25.258  1.00  0.00     0.016 A 
ATOM     35  C   UNL A   1      46.774  24.420  27.462  1.00  0.00     0.016 A 
ATOM     36  C   UNL A   1      46.574  26.230  25.357  1.00  0.00     0.010 A 
ATOM     37  C   UNL A   1      47.409  25.677  27.551  1.00  0.00     0.010 A 
ATOM     38  C   UNL A   1      47.314  26.603  26.502  1.00  0.00    -0.014 A 
BRANCH  38  39
ATOM     39  C   UNL A   1      48.013  27.936  26.500  1.00  0.00     0.031 A 
ATOM     40  C   UNL A   1      49.390  28.012  25.899  1.00  0.00     0.074 A 
ATOM     41  C   UNL A   1      47.432  29.087  26.910  1.00  0.00     0.049 A 
ATOM     42  N   UNL A   1      50.154  29.055  25.700  1.00  0.00    -0.248 NA
ATOM     43  C   UNL A   1      50.002  26.732  25.513  1.00  0.00     0.031 C 
ATOM     44  C   UNL A   1      46.125  29.198  27.546  1.00  0.00     0.029 A 
ATOM     45  N   UNL A   1      47.824  30.406  26.757  1.00  0.00    -0.354 N 
ATOM     46  C   UNL A   1      51.359  28.553  25.235  1.00  0.00     0.074 A 
ATOM     47  C   UNL A   1      51.198  27.120  25.106  1.00  0.00     0.031 C 
ATOM     48  C   UNL A   1      45.755  30.490  27.573  1.00  0.00     0.029 A 
ATOM     49  C   UNL A   1      46.826  31.322  27.032  1.00  0.00     0.049 A 
ATOM     50  H   UNL A   1      48.731  30.668  26.477  1.00  0.00     0.167 HD
ATOM     51  C   UNL A   1      52.521  29.213  25.018  1.00  0.00     0.037 A 
ATOM     52  C   UNL A   1      46.778  32.664  26.852  1.00  0.00     0.037 A 
ATOM     53  C   UNL A   1      52.702  30.628  25.188  1.00  0.00     0.049 A 
ATOM     54  C   UNL A   1      48.063  33.388  26.506  1.00  0.00     0.074 A 
ATOM     55  C   UNL A   1      53.872  31.364  25.104  1.00  0.00     0.029 A 
ATOM     56  N   UNL A   1      51.687  31.526  25.482  1.00  0.00    -0.354 N 
ATOM     57  N   UNL A   1      49.224  32.897  26.154  1.00  0.00    -0.248 NA
ATOM     58  C   UNL A   1      48.050  34.857  26.624  1.00  0.00     0.031 C 
ATOM     59  C   UNL A   1      53.574  32.699  25.396  1.00  0.00     0.029 A 
ATOM     60  C   UNL A   1      52.208  32.807  25.591  1.00  0.00     0.049 A 
ATOM     61  H   UNL A   1      50.739  31.288  25.595  1.00  0.00     0.167 HD
ATOM     62  C   UNL A   1      50.086  33.984  26.058  1.00  0.00     0.074 A 
ATOM     63  C   UNL A   1      49.297  35.171  26.298  1.00  0.00     0.031 C 
ATOM     64  C   UNL A   1      51.424  33.988  25.842  1.00  0.00     0.037 A 
BRANCH  51  65
ATOM     65  C   UNL A   1      53.720  28.361  24.733  1.00  0.00     0.064 A 
ATOM     66  C   UNL A   1      54.513  27.813  25.751  1.00  0.00     0.173 A 
ATOM     67  C   UNL A   1      54.115  28.150  23.402  1.00  0.00     0.173 A 
ATOM     68  F   UNL A   1      54.198  28.021  27.038  1.00  0.00    -0.203 F 
ATOM     69  C   UNL A   1      55.680  27.117  25.446  1.00  0.00     0.198 A 
ATOM     70  C   UNL A   1      55.261  27.424  23.101  1.00  0.00     0.198 A 
ATOM     71  F   UNL A   1      53.395  28.664  22.393  1.00  0.00    -0.203 F 
ATOM     72  F   UNL A   1      56.468  26.671  26.434  1.00  0.00    -0.200 F 
ATOM     73  C   UNL A   1      56.051  26.921  24.123  1.00  0.00     0.200 A 
ATOM     74  F   UNL A   1      55.613  27.232  21.822  1.00  0.00    -0.200 F 
ATOM     75  F   UNL A   1      57.181  26.263  23.833  1.00  0.00    -0.200 F 
ENDBRANCH  51  65
BRANCH  52  76
ATOM     76  C   UNL A   1      45.521  33.466  27.029  1.00  0.00     0.064 A 
ATOM     77  C   UNL A   1      45.123  33.897  28.311  1.00  0.00     0.173 A 
ATOM     78  C   UNL A   1      44.644  33.748  25.972  1.00  0.00     0.173 A 
ATOM     79  F   UNL A   1      45.892  33.627  29.377  1.00  0.00    -0.203 F 
ATOM     80  C   UNL A   1      43.903  34.544  28.523  1.00  0.00     0.198 A 
ATOM     81  C   UNL A   1      43.452  34.446  26.177  1.00  0.00     0.198 A 
ATOM     82  F   UNL A   1      44.929  33.331  24.731  1.00  0.00    -0.203 F 
ATOM     83  F   UNL A   1      43.521  34.859  29.769  1.00  0.00    -0.200 F 
ATOM     84  C   UNL A   1      43.074  34.830  27.454  1.00  0.00     0.200 A 
ATOM     85  F   UNL A   1      42.660  34.730  25.134  1.00  0.00    -0.200 F 
ATOM     86  F   UNL A   1      41.904  35.454  27.653  1.00  0.00    -0.200 F 
ENDBRANCH  52  76
BRANCH  64  87
ATOM     87  C   UNL A   1      52.135  35.313  25.879  1.00  0.00     0.064 A 
ATOM     88  C   UNL A   1      52.366  36.056  24.710  1.00  0.00     0.173 A 
ATOM     89  C   UNL A   1      52.538  35.874  27.100  1.00  0.00     0.173 A 
ATOM     90  F   UNL A   1      52.009  35.564  23.514  1.00  0.00    -0.203 F 
ATOM     91  C   UNL A   1      52.996  37.298  24.761  1.00  0.00     0.198 A 
ATOM     92  C   UNL A   1      53.139  37.129  27.150  1.00  0.00     0.198 A 
ATOM     93  F   UNL A   1      52.335  35.212  28.249  1.00  0.00    -0.203 F 
ATOM     94  F   UNL A   1      53.245  37.968  23.628  1.00  0.00    -0.200 F 
ATOM     95  C   UNL A   1      53.374  37.837  25.981  1.00  0.00     0.200 A 
ATOM     96  F   UNL A   1      53.490  37.656  28.331  1.00  0.00    -0.200 F 
ATOM     97  F   UNL A   1      53.970  39.036  26.030  1.00  0.00    -0.200 F 
ENDBRANCH  64  87
ENDBRANCH  38  39
ENDBRANCH  31  33
ENDBRANCH  30  31
ENDBRANCH  29  30
ENDBRANCH  28  29
ENDBRANCH  27  28
ENDBRANCH  26  27
ENDBRANCH   1  26
TORSDOF 21
ENDMDL
