MODEL 1
REMARK VINA RESULT:      -9.0      0.000      0.000
REMARK SMILES CCC[C@@](C)(NC(=O)N1CCN(C)C(=O)C1(C)C)C(=O)OCCOCCOCCOC(=O)c1ccc(-c2c3nc(c(-c4c(F)c(F)c(F)c(F)c4F)c4ccc([nH]4)c(-c4c(F)c(F)c(F)c(F)c4F)c4nc(c(-c5c(F)c(F)c(F)c(F)c5F)c5ccc2[nH]5)C=C4)C=C3)cc1
REMARK SMILES IDX 25 1 24 2 23 3 22 4 21 5 19 6 20 7 4 8 5 9 3 10 2 11 1 12
REMARK SMILES IDX 6 13 7 14 8 16 9 17 10 18 16 19 11 20 14 21 17 22 18 23
REMARK SMILES IDX 12 24 15 25 13 26 26 27 27 28 28 29 29 30 30 31 31 32 32 33
REMARK SMILES IDX 33 34 34 35 95 36 35 37 94 38 36 39 37 40 38 41 88 42 39 43
REMARK SMILES IDX 93 44 87 45 89 46 40 47 92 48 86 49 85 50 41 52 73 53 53 54
REMARK SMILES IDX 72 55 54 56 57 57 71 58 90 59 55 60 56 61 70 63 91 64 58 65
REMARK SMILES IDX 42 66 43 67 51 68 44 69 45 70 49 71 52 72 46 73 47 74 50 75
REMARK SMILES IDX 48 76 74 77 75 78 83 79 76 80 77 81 81 82 84 83 78 84 79 85
REMARK SMILES IDX 82 86 80 87 59 88 60 89 68 90 61 91 62 92 66 93 69 94 63 95
REMARK SMILES IDX 64 96 67 97 65 98
REMARK H PARENT 6 15 89 51 57 62
REMARK Flexibility Score: inf
ROOT
ATOM      1  C   UNL A   1      39.467  33.422  43.149  1.00  0.00     0.188 C 
ENDROOT
BRANCH   1   2
ATOM      2  O   UNL A   1      40.081  32.703  41.882  1.00  0.00    -0.376 OA
BRANCH   2   3
ATOM      3  C   UNL A   1      40.894  32.694  40.097  1.00  0.00     0.202 C 
BRANCH   3   4
ATOM      4  C   UNL A   1      39.649  33.042  38.660  1.00  0.00     0.261 C 
BRANCH   4   5
ATOM      5  O   UNL A   1      39.613  31.960  37.253  1.00  0.00    -0.462 OA
BRANCH   5   6
ATOM      6  C   UNL A   1      38.687  31.306  36.310  1.00  0.00     0.331 C 
ATOM      7  O   UNL A   1      38.358  30.142  36.576  1.00  0.00    -0.249 OA
BRANCH   6   8
ATOM      8  C   UNL A   1      38.090  31.983  34.770  1.00  0.00     0.136 C 
ATOM      9  C   UNL A   1      37.130  33.126  35.362  1.00  0.00     0.047 C 
BRANCH   8  10
ATOM     10  C   UNL A   1      39.135  32.880  33.955  1.00  0.00     0.040 C 
BRANCH  10  11
ATOM     11  C   UNL A   1      38.750  34.253  33.357  1.00  0.00    -0.000 C 
ATOM     12  C   UNL A   1      39.622  34.700  32.193  1.00  0.00     0.004 C 
ENDBRANCH  10  11
ENDBRANCH   8  10
BRANCH   8  13
ATOM     13  N   UNL A   1      37.109  31.322  33.613  1.00  0.00    -0.322 N 
ATOM     14  C   UNL A   1      37.071  30.802  32.306  1.00  0.00     0.319 C 
ATOM     15  H   UNL A   1      36.198  31.274  33.982  1.00  0.00     0.166 HD
ATOM     16  O   UNL A   1      35.976  30.403  31.910  1.00  0.00    -0.249 OA
BRANCH  14  17
ATOM     17  N   UNL A   1      38.269  30.600  31.612  1.00  0.00    -0.309 N 
ATOM     18  C   UNL A   1      39.766  29.482  31.784  1.00  0.00     0.144 C 
ATOM     19  C   UNL A   1      37.897  30.913  30.146  1.00  0.00     0.118 C 
ATOM     20  C   UNL A   1      39.966  27.928  30.627  1.00  0.00     0.140 C 
ATOM     21  C   UNL A   1      37.697  29.163  28.966  1.00  0.00     0.247 C 
ATOM     22  C   UNL A   1      36.993  32.365  30.096  1.00  0.00     0.045 C 
ATOM     23  C   UNL A   1      39.261  32.171  30.264  1.00  0.00     0.045 C 
ATOM     24  N   UNL A   1      38.912  27.877  29.186  1.00  0.00    -0.342 N 
ATOM     25  O   UNL A   1      37.151  28.888  27.878  1.00  0.00    -0.272 OA
ATOM     26  C   UNL A   1      39.476  27.224  27.988  1.00  0.00     0.146 C 
ENDBRANCH  14  17
ENDBRANCH   8  13
ENDBRANCH   6   8
ENDBRANCH   5   6
ENDBRANCH   4   5
ENDBRANCH   3   4
ENDBRANCH   2   3
ENDBRANCH   1   2
BRANCH   1  27
ATOM     27  C   UNL A   1      38.765  34.953  43.335  1.00  0.00     0.188 C 
BRANCH  27  28
ATOM     28  O   UNL A   1      38.712  36.055  42.419  1.00  0.00    -0.376 OA
BRANCH  28  29
ATOM     29  C   UNL A   1      39.811  36.771  41.846  1.00  0.00     0.202 C 
BRANCH  29  30
ATOM     30  C   UNL A   1      39.952  37.086  40.327  1.00  0.00     0.261 C 
BRANCH  30  31
ATOM     31  O   UNL A   1      40.615  36.103  39.508  1.00  0.00    -0.460 OA
BRANCH  31  32
ATOM     32  C   UNL A   1      41.914  36.386  39.234  1.00  0.00     0.338 C 
ATOM     33  O   UNL A   1      42.769  36.674  40.052  1.00  0.00    -0.246 OA
BRANCH  32  34
ATOM     34  C   UNL A   1      42.235  36.060  37.820  1.00  0.00     0.060 A 
ATOM     35  C   UNL A   1      41.180  35.715  36.954  1.00  0.00     0.016 A 
ATOM     36  C   UNL A   1      43.551  35.955  37.375  1.00  0.00     0.016 A 
ATOM     37  C   UNL A   1      41.417  35.267  35.667  1.00  0.00     0.010 A 
ATOM     38  C   UNL A   1      43.796  35.393  36.110  1.00  0.00     0.010 A 
ATOM     39  C   UNL A   1      42.726  35.001  35.279  1.00  0.00    -0.014 A 
BRANCH  39  40
ATOM     40  C   UNL A   1      42.883  34.017  34.181  1.00  0.00     0.031 A 
ATOM     41  C   UNL A   1      43.122  34.546  32.789  1.00  0.00     0.074 A 
ATOM     42  C   UNL A   1      43.007  32.702  34.429  1.00  0.00     0.049 A 
ATOM     43  N   UNL A   1      43.325  33.898  31.670  1.00  0.00    -0.248 NA
ATOM     44  C   UNL A   1      43.151  36.011  32.644  1.00  0.00     0.031 C 
ATOM     45  C   UNL A   1      42.937  32.079  35.748  1.00  0.00     0.029 A 
ATOM     46  N   UNL A   1      43.239  31.657  33.570  1.00  0.00    -0.354 N 
ATOM     47  C   UNL A   1      43.483  34.872  30.692  1.00  0.00     0.074 A 
ATOM     48  C   UNL A   1      43.332  36.155  31.341  1.00  0.00     0.031 C 
ATOM     49  C   UNL A   1      43.102  30.753  35.609  1.00  0.00     0.029 A 
ATOM     50  C   UNL A   1      43.251  30.433  34.189  1.00  0.00     0.049 A 
ATOM     51  H   UNL A   1      43.382  31.774  32.603  1.00  0.00     0.167 HD
ATOM     52  C   UNL A   1      43.733  34.711  29.371  1.00  0.00     0.037 A 
ATOM     53  C   UNL A   1      43.339  29.196  33.663  1.00  0.00     0.037 A 
ATOM     54  C   UNL A   1      43.887  33.431  28.729  1.00  0.00     0.049 A 
ATOM     55  C   UNL A   1      43.502  29.040  32.170  1.00  0.00     0.074 A 
ATOM     56  C   UNL A   1      44.129  33.159  27.394  1.00  0.00     0.029 A 
ATOM     57  N   UNL A   1      43.805  32.206  29.376  1.00  0.00    -0.354 N 
ATOM     58  N   UNL A   1      43.619  29.959  31.243  1.00  0.00    -0.248 NA
ATOM     59  C   UNL A   1      43.553  27.664  31.655  1.00  0.00     0.031 C 
ATOM     60  C   UNL A   1      44.110  31.772  27.219  1.00  0.00     0.029 A 
ATOM     61  C   UNL A   1      43.955  31.176  28.460  1.00  0.00     0.049 A 
ATOM     62  H   UNL A   1      43.662  32.086  30.342  1.00  0.00     0.167 HD
ATOM     63  C   UNL A   1      43.796  29.277  30.044  1.00  0.00     0.074 A 
ATOM     64  C   UNL A   1      43.795  27.866  30.369  1.00  0.00     0.031 C 
ATOM     65  C   UNL A   1      43.952  29.772  28.789  1.00  0.00     0.037 A 
BRANCH  52  66
ATOM     66  C   UNL A   1      43.790  35.947  28.518  1.00  0.00     0.064 A 
ATOM     67  C   UNL A   1      42.643  36.517  27.941  1.00  0.00     0.173 A 
ATOM     68  C   UNL A   1      45.019  36.586  28.290  1.00  0.00     0.173 A 
ATOM     69  F   UNL A   1      41.444  35.941  28.112  1.00  0.00    -0.203 F 
ATOM     70  C   UNL A   1      42.731  37.657  27.146  1.00  0.00     0.198 A 
ATOM     71  C   UNL A   1      45.097  37.748  27.528  1.00  0.00     0.198 A 
ATOM     72  F   UNL A   1      46.149  36.088  28.817  1.00  0.00    -0.203 F 
ATOM     73  F   UNL A   1      41.631  38.148  26.556  1.00  0.00    -0.200 F 
ATOM     74  C   UNL A   1      43.956  38.277  26.948  1.00  0.00     0.200 A 
ATOM     75  F   UNL A   1      46.280  38.355  27.354  1.00  0.00    -0.200 F 
ATOM     76  F   UNL A   1      44.037  39.378  26.188  1.00  0.00    -0.200 F 
ENDBRANCH  52  66
BRANCH  53  77
ATOM     77  C   UNL A   1      43.235  28.001  34.544  1.00  0.00     0.064 A 
ATOM     78  C   UNL A   1      44.341  27.521  35.260  1.00  0.00     0.173 A 
ATOM     79  C   UNL A   1      42.033  27.283  34.649  1.00  0.00     0.173 A 
ATOM     80  F   UNL A   1      45.521  28.151  35.169  1.00  0.00    -0.203 F 
ATOM     81  C   UNL A   1      44.256  26.358  36.023  1.00  0.00     0.198 A 
ATOM     82  C   UNL A   1      41.939  26.143  35.443  1.00  0.00     0.198 A 
ATOM     83  F   UNL A   1      40.946  27.689  33.975  1.00  0.00    -0.203 F 
ATOM     84  F   UNL A   1      45.347  25.884  36.640  1.00  0.00    -0.200 F 
ATOM     85  C   UNL A   1      43.054  25.674  36.120  1.00  0.00     0.200 A 
ATOM     86  F   UNL A   1      40.772  25.493  35.542  1.00  0.00    -0.200 F 
ATOM     87  F   UNL A   1      42.974  24.555  36.853  1.00  0.00    -0.200 F 
ENDBRANCH  53  77
BRANCH  65  88
ATOM     88  C   UNL A   1      44.193  28.781  27.681  1.00  0.00     0.064 A 
ATOM     89  C   UNL A   1      43.184  28.404  26.779  1.00  0.00     0.173 A 
ATOM     90  C   UNL A   1      45.459  28.192  27.521  1.00  0.00     0.173 A 
ATOM     91  F   UNL A   1      41.954  28.930  26.883  1.00  0.00    -0.203 F 
ATOM     92  C   UNL A   1      43.414  27.432  25.807  1.00  0.00     0.198 A 
ATOM     93  C   UNL A   1      45.698  27.257  26.517  1.00  0.00     0.198 A 
ATOM     94  F   UNL A   1      46.468  28.524  28.339  1.00  0.00    -0.203 F 
ATOM     95  F   UNL A   1      42.410  27.025  25.019  1.00  0.00    -0.200 F 
ATOM     96  C   UNL A   1      44.672  26.863  25.675  1.00  0.00     0.200 A 
ATOM     97  F   UNL A   1      46.923  26.730  26.375  1.00  0.00    -0.200 F 
ATOM     98  F   UNL A   1      44.890  25.925  24.744  1.00  0.00    -0.200 F 
ENDBRANCH  65  88
ENDBRANCH  39  40
ENDBRANCH  32  34
ENDBRANCH  31  32
ENDBRANCH  30  31
ENDBRANCH  29  30
ENDBRANCH  28  29
ENDBRANCH  27  28
ENDBRANCH   1  27
TORSDOF 21
ENDMDL
MODEL 2
REMARK VINA RESULT:      -9.0      5.420      9.704
REMARK SMILES CCC[C@@](C)(NC(=O)N1CCN(C)C(=O)C1(C)C)C(=O)OCCOCCOCCOC(=O)c1ccc(-c2c3nc(c(-c4c(F)c(F)c(F)c(F)c4F)c4ccc([nH]4)c(-c4c(F)c(F)c(F)c(F)c4F)c4nc(c(-c5c(F)c(F)c(F)c(F)c5F)c5ccc2[nH]5)C=C4)C=C3)cc1
REMARK SMILES IDX 25 1 24 2 23 3 22 4 21 5 19 6 20 7 4 8 5 9 3 10 2 11 1 12
REMARK SMILES IDX 6 13 7 14 8 16 9 17 10 18 16 19 11 20 14 21 17 22 18 23
REMARK SMILES IDX 12 24 15 25 13 26 26 27 27 28 28 29 29 30 30 31 31 32 32 33
REMARK SMILES IDX 33 34 34 35 95 36 35 37 94 38 36 39 37 40 38 41 88 42 39 43
REMARK SMILES IDX 93 44 87 45 89 46 40 47 92 48 86 49 85 50 41 52 73 53 53 54
REMARK SMILES IDX 72 55 54 56 57 57 71 58 90 59 55 60 56 61 70 63 91 64 58 65
REMARK SMILES IDX 42 66 43 67 51 68 44 69 45 70 49 71 52 72 46 73 47 74 50 75
REMARK SMILES IDX 48 76 74 77 75 78 83 79 76 80 77 81 81 82 84 83 78 84 79 85
REMARK SMILES IDX 82 86 80 87 59 88 60 89 68 90 61 91 62 92 66 93 69 94 63 95
REMARK SMILES IDX 64 96 67 97 65 98
REMARK H PARENT 6 15 89 51 57 62
REMARK Flexibility Score: inf
ROOT
ATOM      1  C   UNL A   1      32.497  30.456  26.415  1.00  0.00     0.188 C 
ENDROOT
BRANCH   1   2
ATOM      2  O   UNL A   1      32.821  29.914  24.967  1.00  0.00    -0.376 OA
BRANCH   2   3
ATOM      3  C   UNL A   1      32.328  29.393  23.141  1.00  0.00     0.202 C 
BRANCH   3   4
ATOM      4  C   UNL A   1      33.509  28.085  22.347  1.00  0.00     0.261 C 
BRANCH   4   5
ATOM      5  O   UNL A   1      34.260  26.847  23.375  1.00  0.00    -0.462 OA
BRANCH   5   6
ATOM      6  C   UNL A   1      34.182  26.245  24.718  1.00  0.00     0.331 C 
ATOM      7  O   UNL A   1      34.037  27.028  25.668  1.00  0.00    -0.249 OA
BRANCH   6   8
ATOM      8  C   UNL A   1      34.394  24.518  25.120  1.00  0.00     0.136 C 
ATOM      9  C   UNL A   1      33.731  23.880  23.804  1.00  0.00     0.047 C 
BRANCH   8  10
ATOM     10  C   UNL A   1      35.886  23.955  24.991  1.00  0.00     0.040 C 
BRANCH  10  11
ATOM     11  C   UNL A   1      36.245  22.787  24.043  1.00  0.00    -0.000 C 
ATOM     12  C   UNL A   1      35.999  21.404  24.627  1.00  0.00     0.004 C 
ENDBRANCH  10  11
ENDBRANCH   8  10
BRANCH   8  13
ATOM     13  N   UNL A   1      33.694  23.595  26.300  1.00  0.00    -0.322 N 
ATOM     14  C   UNL A   1      32.562  23.456  27.124  1.00  0.00     0.319 C 
ATOM     15  H   UNL A   1      34.309  22.855  26.508  1.00  0.00     0.166 HD
ATOM     16  O   UNL A   1      32.557  22.491  27.886  1.00  0.00    -0.249 OA
BRANCH  14  17
ATOM     17  N   UNL A   1      31.455  24.287  26.915  1.00  0.00    -0.309 N 
ATOM     18  C   UNL A   1      31.111  26.130  26.970  1.00  0.00     0.144 C 
ATOM     19  C   UNL A   1      30.635  23.536  25.843  1.00  0.00     0.118 C 
ATOM     20  C   UNL A   1      30.961  27.147  25.315  1.00  0.00     0.140 C 
ATOM     21  C   UNL A   1      30.813  24.415  23.921  1.00  0.00     0.247 C 
ATOM     22  C   UNL A   1      30.526  21.885  26.275  1.00  0.00     0.045 C 
ATOM     23  C   UNL A   1      29.272  23.601  27.105  1.00  0.00     0.045 C 
ATOM     24  N   UNL A   1      30.755  26.194  23.819  1.00  0.00    -0.342 N 
ATOM     25  O   UNL A   1      30.605  24.033  22.751  1.00  0.00    -0.272 OA
ATOM     26  C   UNL A   1      29.942  26.815  22.756  1.00  0.00     0.146 C 
ENDBRANCH  14  17
ENDBRANCH   8  13
ENDBRANCH   6   8
ENDBRANCH   5   6
ENDBRANCH   4   5
ENDBRANCH   3   4
ENDBRANCH   2   3
ENDBRANCH   1   2
BRANCH   1  27
ATOM     27  C   UNL A   1      33.504  31.081  27.626  1.00  0.00     0.188 C 
BRANCH  27  28
ATOM     28  O   UNL A   1      34.253  32.304  27.656  1.00  0.00    -0.376 OA
BRANCH  28  29
ATOM     29  C   UNL A   1      34.146  33.374  28.600  1.00  0.00     0.202 C 
BRANCH  29  30
ATOM     30  C   UNL A   1      34.723  33.324  30.047  1.00  0.00     0.261 C 
BRANCH  30  31
ATOM     31  O   UNL A   1      34.518  32.112  30.797  1.00  0.00    -0.460 OA
BRANCH  31  32
ATOM     32  C   UNL A   1      35.526  31.806  31.654  1.00  0.00     0.338 C 
ATOM     33  O   UNL A   1      35.608  32.164  32.815  1.00  0.00    -0.246 OA
BRANCH  32  34
ATOM     34  C   UNL A   1      36.411  30.763  31.071  1.00  0.00     0.060 A 
ATOM     35  C   UNL A   1      37.480  30.279  31.849  1.00  0.00     0.016 A 
ATOM     36  C   UNL A   1      36.291  30.362  29.743  1.00  0.00     0.016 A 
ATOM     37  C   UNL A   1      38.422  29.413  31.324  1.00  0.00     0.010 A 
ATOM     38  C   UNL A   1      37.310  29.575  29.178  1.00  0.00     0.010 A 
ATOM     39  C   UNL A   1      38.403  29.146  29.959  1.00  0.00    -0.014 A 
BRANCH  39  40
ATOM     40  C   UNL A   1      39.697  28.730  29.367  1.00  0.00     0.031 A 
ATOM     41  C   UNL A   1      40.824  29.733  29.360  1.00  0.00     0.074 A 
ATOM     42  C   UNL A   1      39.935  27.452  29.027  1.00  0.00     0.049 A 
ATOM     43  N   UNL A   1      42.055  29.605  28.936  1.00  0.00    -0.248 NA
ATOM     44  C   UNL A   1      40.521  31.059  29.925  1.00  0.00     0.031 C 
ATOM     45  C   UNL A   1      38.972  26.358  29.122  1.00  0.00     0.029 A 
ATOM     46  N   UNL A   1      41.077  26.861  28.549  1.00  0.00    -0.354 N 
ATOM     47  C   UNL A   1      42.662  30.834  29.162  1.00  0.00     0.074 A 
ATOM     48  C   UNL A   1      41.661  31.703  29.740  1.00  0.00     0.031 C 
ATOM     49  C   UNL A   1      39.559  25.228  28.694  1.00  0.00     0.029 A 
ATOM     50  C   UNL A   1      40.924  25.528  28.261  1.00  0.00     0.049 A 
ATOM     51  H   UNL A   1      41.925  27.346  28.425  1.00  0.00     0.167 HD
ATOM     52  C   UNL A   1      43.940  31.205  28.911  1.00  0.00     0.037 A 
ATOM     53  C   UNL A   1      41.779  24.662  27.684  1.00  0.00     0.037 A 
ATOM     54  C   UNL A   1      44.935  30.335  28.337  1.00  0.00     0.049 A 
ATOM     55  C   UNL A   1      43.163  25.133  27.307  1.00  0.00     0.074 A 
ATOM     56  C   UNL A   1      46.254  30.619  28.031  1.00  0.00     0.029 A 
ATOM     57  N   UNL A   1      44.717  29.013  27.977  1.00  0.00    -0.354 N 
ATOM     58  N   UNL A   1      43.725  26.303  27.491  1.00  0.00    -0.248 NA
ATOM     59  C   UNL A   1      44.034  24.151  26.646  1.00  0.00     0.031 C 
ATOM     60  C   UNL A   1      46.810  29.496  27.409  1.00  0.00     0.029 A 
ATOM     61  C   UNL A   1      45.868  28.480  27.416  1.00  0.00     0.049 A 
ATOM     62  H   UNL A   1      43.871  28.526  28.100  1.00  0.00     0.167 HD
ATOM     63  C   UNL A   1      45.024  26.187  27.006  1.00  0.00     0.074 A 
ATOM     64  C   UNL A   1      45.170  24.823  26.543  1.00  0.00     0.031 C 
ATOM     65  C   UNL A   1      46.007  27.122  26.955  1.00  0.00     0.037 A 
BRANCH  52  66
ATOM     66  C   UNL A   1      44.318  32.633  29.191  1.00  0.00     0.064 A 
ATOM     67  C   UNL A   1      44.257  33.634  28.209  1.00  0.00     0.173 A 
ATOM     68  C   UNL A   1      44.732  33.008  30.480  1.00  0.00     0.173 A 
ATOM     69  F   UNL A   1      43.884  33.331  26.957  1.00  0.00    -0.203 F 
ATOM     70  C   UNL A   1      44.625  34.947  28.499  1.00  0.00     0.198 A 
ATOM     71  C   UNL A   1      45.060  34.328  30.775  1.00  0.00     0.198 A 
ATOM     72  F   UNL A   1      44.808  32.094  31.459  1.00  0.00    -0.203 F 
ATOM     73  F   UNL A   1      44.617  35.873  27.530  1.00  0.00    -0.200 F 
ATOM     74  C   UNL A   1      45.018  35.294  29.783  1.00  0.00     0.200 A 
ATOM     75  F   UNL A   1      45.421  34.663  32.022  1.00  0.00    -0.200 F 
ATOM     76  F   UNL A   1      45.364  36.558  30.061  1.00  0.00    -0.200 F 
ENDBRANCH  52  66
BRANCH  53  77
ATOM     77  C   UNL A   1      41.344  23.270  27.387  1.00  0.00     0.064 A 
ATOM     78  C   UNL A   1      41.984  22.164  27.966  1.00  0.00     0.173 A 
ATOM     79  C   UNL A   1      40.306  23.016  26.476  1.00  0.00     0.173 A 
ATOM     80  F   UNL A   1      43.002  22.350  28.817  1.00  0.00    -0.203 F 
ATOM     81  C   UNL A   1      41.621  20.862  27.625  1.00  0.00     0.198 A 
ATOM     82  C   UNL A   1      39.919  21.715  26.167  1.00  0.00     0.198 A 
ATOM     83  F   UNL A   1      39.668  24.035  25.883  1.00  0.00    -0.203 F 
ATOM     84  F   UNL A   1      42.296  19.826  28.140  1.00  0.00    -0.200 F 
ATOM     85  C   UNL A   1      40.585  20.638  26.732  1.00  0.00     0.200 A 
ATOM     86  F   UNL A   1      38.909  21.504  25.311  1.00  0.00    -0.200 F 
ATOM     87  F   UNL A   1      40.238  19.386  26.404  1.00  0.00    -0.200 F 
ENDBRANCH  53  77
BRANCH  65  88
ATOM     88  C   UNL A   1      47.350  26.682  26.430  1.00  0.00     0.064 A 
ATOM     89  C   UNL A   1      48.325  26.103  27.257  1.00  0.00     0.173 A 
ATOM     90  C   UNL A   1      47.667  26.850  25.071  1.00  0.00     0.173 A 
ATOM     91  F   UNL A   1      48.081  25.919  28.564  1.00  0.00    -0.203 F 
ATOM     92  C   UNL A   1      49.584  25.770  26.760  1.00  0.00     0.198 A 
ATOM     93  C   UNL A   1      48.909  26.472  24.569  1.00  0.00     0.198 A 
ATOM     94  F   UNL A   1      46.771  27.381  24.227  1.00  0.00    -0.203 F 
ATOM     95  F   UNL A   1      50.527  25.304  27.591  1.00  0.00    -0.200 F 
ATOM     96  C   UNL A   1      49.874  25.951  25.417  1.00  0.00     0.200 A 
ATOM     97  F   UNL A   1      49.176  26.622  23.263  1.00  0.00    -0.200 F 
ATOM     98  F   UNL A   1      51.086  25.637  24.942  1.00  0.00    -0.200 F 
ENDBRANCH  65  88
ENDBRANCH  39  40
ENDBRANCH  32  34
ENDBRANCH  31  32
ENDBRANCH  30  31
ENDBRANCH  29  30
ENDBRANCH  28  29
ENDBRANCH  27  28
ENDBRANCH   1  27
TORSDOF 21
ENDMDL
MODEL 3
REMARK VINA RESULT:      -8.9      5.623     11.455
REMARK SMILES CCC[C@@](C)(NC(=O)N1CCN(C)C(=O)C1(C)C)C(=O)OCCOCCOCCOC(=O)c1ccc(-c2c3nc(c(-c4c(F)c(F)c(F)c(F)c4F)c4ccc([nH]4)c(-c4c(F)c(F)c(F)c(F)c4F)c4nc(c(-c5c(F)c(F)c(F)c(F)c5F)c5ccc2[nH]5)C=C4)C=C3)cc1
REMARK SMILES IDX 25 1 24 2 23 3 22 4 21 5 19 6 20 7 4 8 5 9 3 10 2 11 1 12
REMARK SMILES IDX 6 13 7 14 8 16 9 17 10 18 16 19 11 20 14 21 17 22 18 23
REMARK SMILES IDX 12 24 15 25 13 26 26 27 27 28 28 29 29 30 30 31 31 32 32 33
REMARK SMILES IDX 33 34 34 35 95 36 35 37 94 38 36 39 37 40 38 41 88 42 39 43
REMARK SMILES IDX 93 44 87 45 89 46 40 47 92 48 86 49 85 50 41 52 73 53 53 54
REMARK SMILES IDX 72 55 54 56 57 57 71 58 90 59 55 60 56 61 70 63 91 64 58 65
REMARK SMILES IDX 42 66 43 67 51 68 44 69 45 70 49 71 52 72 46 73 47 74 50 75
REMARK SMILES IDX 48 76 74 77 75 78 83 79 76 80 77 81 81 82 84 83 78 84 79 85
REMARK SMILES IDX 82 86 80 87 59 88 60 89 68 90 61 91 62 92 66 93 69 94 63 95
REMARK SMILES IDX 64 96 67 97 65 98
REMARK H PARENT 6 15 89 51 57 62
REMARK Flexibility Score: inf
ROOT
ATOM      1  C   UNL A   1      41.362  20.656  26.334  1.00  0.00     0.188 C 
ENDROOT
BRANCH   1   2
ATOM      2  O   UNL A   1      39.808  20.923  26.230  1.00  0.00    -0.376 OA
BRANCH   2   3
ATOM      3  C   UNL A   1      38.245  21.973  25.679  1.00  0.00     0.202 C 
BRANCH   3   4
ATOM      4  C   UNL A   1      36.738  20.905  25.108  1.00  0.00     0.261 C 
BRANCH   4   5
ATOM      5  O   UNL A   1      35.310  21.706  24.420  1.00  0.00    -0.462 OA
BRANCH   5   6
ATOM      6  C   UNL A   1      34.909  22.826  23.550  1.00  0.00     0.331 C 
ATOM      7  O   UNL A   1      35.823  23.445  22.988  1.00  0.00    -0.249 OA
BRANCH   6   8
ATOM      8  C   UNL A   1      33.252  23.450  23.323  1.00  0.00     0.136 C 
ATOM      9  C   UNL A   1      32.830  22.561  22.054  1.00  0.00     0.047 C 
BRANCH   8  10
ATOM     10  C   UNL A   1      32.171  22.955  24.393  1.00  0.00     0.040 C 
BRANCH  10  11
ATOM     11  C   UNL A   1      32.580  22.258  25.712  1.00  0.00    -0.000 C 
ATOM     12  C   UNL A   1      32.903  23.211  26.854  1.00  0.00     0.004 C 
ENDBRANCH  10  11
ENDBRANCH   8  10
BRANCH   8  13
ATOM     13  N   UNL A   1      32.721  24.943  22.847  1.00  0.00    -0.322 N 
ATOM     14  C   UNL A   1      32.270  26.196  23.302  1.00  0.00     0.319 C 
ATOM     15  H   UNL A   1      32.719  24.963  21.863  1.00  0.00     0.166 HD
ATOM     16  O   UNL A   1      31.991  27.023  22.435  1.00  0.00    -0.249 OA
BRANCH  14  17
ATOM     17  N   UNL A   1      32.334  26.495  24.668  1.00  0.00    -0.309 N 
ATOM     18  C   UNL A   1      33.689  26.768  25.936  1.00  0.00     0.144 C 
ATOM     19  C   UNL A   1      31.077  27.359  24.910  1.00  0.00     0.118 C 
ATOM     20  C   UNL A   1      34.140  28.572  26.514  1.00  0.00     0.140 C 
ATOM     21  C   UNL A   1      31.536  29.418  25.123  1.00  0.00     0.247 C 
ATOM     22  C   UNL A   1      29.734  26.619  24.152  1.00  0.00     0.045 C 
ATOM     23  C   UNL A   1      30.650  26.056  26.165  1.00  0.00     0.045 C 
ATOM     24  N   UNL A   1      32.960  29.849  26.107  1.00  0.00    -0.342 N 
ATOM     25  O   UNL A   1      30.889  30.482  25.036  1.00  0.00    -0.272 OA
ATOM     26  C   UNL A   1      32.843  30.962  27.068  1.00  0.00     0.146 C 
ENDBRANCH  14  17
ENDBRANCH   8  13
ENDBRANCH   6   8
ENDBRANCH   5   6
ENDBRANCH   4   5
ENDBRANCH   3   4
ENDBRANCH   2   3
ENDBRANCH   1   2
BRANCH   1  27
ATOM     27  C   UNL A   1      42.683  21.715  26.296  1.00  0.00     0.188 C 
BRANCH  27  28
ATOM     28  O   UNL A   1      42.719  23.142  26.437  1.00  0.00    -0.376 OA
BRANCH  28  29
ATOM     29  C   UNL A   1      43.261  24.099  25.519  1.00  0.00     0.202 C 
BRANCH  29  30
ATOM     30  C   UNL A   1      42.580  25.456  25.170  1.00  0.00     0.261 C 
BRANCH  30  31
ATOM     31  O   UNL A   1      42.380  26.391  26.247  1.00  0.00    -0.460 OA
BRANCH  31  32
ATOM     32  C   UNL A   1      41.096  26.484  26.678  1.00  0.00     0.338 C 
ATOM     33  O   UNL A   1      40.172  25.773  26.325  1.00  0.00    -0.246 OA
BRANCH  32  34
ATOM     34  C   UNL A   1      40.997  27.414  27.833  1.00  0.00     0.060 A 
ATOM     35  C   UNL A   1      40.336  28.644  27.650  1.00  0.00     0.016 A 
ATOM     36  C   UNL A   1      41.651  27.158  29.036  1.00  0.00     0.016 A 
ATOM     37  C   UNL A   1      40.326  29.613  28.637  1.00  0.00     0.010 A 
ATOM     38  C   UNL A   1      41.739  28.185  29.992  1.00  0.00     0.010 A 
ATOM     39  C   UNL A   1      41.118  29.431  29.766  1.00  0.00    -0.014 A 
BRANCH  39  40
ATOM     40  C   UNL A   1      41.528  30.670  30.470  1.00  0.00     0.031 A 
ATOM     41  C   UNL A   1      42.662  31.472  29.881  1.00  0.00     0.074 A 
ATOM     42  C   UNL A   1      40.801  31.178  31.479  1.00  0.00     0.049 A 
ATOM     43  N   UNL A   1      43.184  32.603  30.283  1.00  0.00    -0.248 NA
ATOM     44  C   UNL A   1      43.283  30.928  28.662  1.00  0.00     0.031 C 
ATOM     45  C   UNL A   1      39.600  30.571  32.045  1.00  0.00     0.029 A 
ATOM     46  N   UNL A   1      40.966  32.338  32.192  1.00  0.00    -0.354 N 
ATOM     47  C   UNL A   1      44.201  32.891  29.382  1.00  0.00     0.074 A 
ATOM     48  C   UNL A   1      44.241  31.808  28.425  1.00  0.00     0.031 C 
ATOM     49  C   UNL A   1      39.145  31.356  33.036  1.00  0.00     0.029 A 
ATOM     50  C   UNL A   1      40.044  32.498  33.196  1.00  0.00     0.049 A 
ATOM     51  H   UNL A   1      41.676  32.994  32.002  1.00  0.00     0.167 HD
ATOM     52  C   UNL A   1      45.028  33.963  29.354  1.00  0.00     0.037 A 
ATOM     53  C   UNL A   1      39.960  33.443  34.154  1.00  0.00     0.037 A 
ATOM     54  C   UNL A   1      44.983  35.041  30.308  1.00  0.00     0.049 A 
ATOM     55  C   UNL A   1      40.967  34.567  34.170  1.00  0.00     0.074 A 
ATOM     56  C   UNL A   1      45.786  36.167  30.376  1.00  0.00     0.029 A 
ATOM     57  N   UNL A   1      44.090  35.126  31.367  1.00  0.00    -0.354 N 
ATOM     58  N   UNL A   1      41.948  34.821  33.338  1.00  0.00    -0.248 NA
ATOM     59  C   UNL A   1      40.844  35.543  35.262  1.00  0.00     0.031 C 
ATOM     60  C   UNL A   1      45.434  36.888  31.521  1.00  0.00     0.029 A 
ATOM     61  C   UNL A   1      44.347  36.265  32.114  1.00  0.00     0.049 A 
ATOM     62  H   UNL A   1      43.379  34.472  31.559  1.00  0.00     0.167 HD
ATOM     63  C   UNL A   1      42.533  36.003  33.781  1.00  0.00     0.074 A 
ATOM     64  C   UNL A   1      41.778  36.426  34.942  1.00  0.00     0.031 C 
ATOM     65  C   UNL A   1      43.593  36.680  33.271  1.00  0.00     0.037 A 
BRANCH  52  66
ATOM     66  C   UNL A   1      46.098  33.990  28.298  1.00  0.00     0.064 A 
ATOM     67  C   UNL A   1      47.402  33.529  28.536  1.00  0.00     0.173 A 
ATOM     68  C   UNL A   1      45.801  34.472  27.013  1.00  0.00     0.173 A 
ATOM     69  F   UNL A   1      47.746  33.072  29.749  1.00  0.00    -0.203 F 
ATOM     70  C   UNL A   1      48.374  33.578  27.538  1.00  0.00     0.198 A 
ATOM     71  C   UNL A   1      46.764  34.482  26.007  1.00  0.00     0.198 A 
ATOM     72  F   UNL A   1      44.571  34.924  26.727  1.00  0.00    -0.203 F 
ATOM     73  F   UNL A   1      49.628  33.189  27.807  1.00  0.00    -0.200 F 
ATOM     74  C   UNL A   1      48.051  34.046  26.273  1.00  0.00     0.200 A 
ATOM     75  F   UNL A   1      46.443  34.918  24.781  1.00  0.00    -0.200 F 
ATOM     76  F   UNL A   1      48.985  34.086  25.313  1.00  0.00    -0.200 F 
ENDBRANCH  52  66
BRANCH  53  77
ATOM     77  C   UNL A   1      38.909  33.349  35.204  1.00  0.00     0.064 A 
ATOM     78  C   UNL A   1      37.602  33.799  34.972  1.00  0.00     0.173 A 
ATOM     79  C   UNL A   1      39.208  32.851  36.482  1.00  0.00     0.173 A 
ATOM     80  F   UNL A   1      37.273  34.315  33.779  1.00  0.00    -0.203 F 
ATOM     81  C   UNL A   1      36.643  33.779  35.984  1.00  0.00     0.198 A 
ATOM     82  C   UNL A   1      38.238  32.794  37.479  1.00  0.00     0.198 A 
ATOM     83  F   UNL A   1      40.446  32.418  36.763  1.00  0.00    -0.203 F 
ATOM     84  F   UNL A   1      35.422  34.280  35.755  1.00  0.00    -0.200 F 
ATOM     85  C   UNL A   1      36.959  33.270  37.234  1.00  0.00     0.200 A 
ATOM     86  F   UNL A   1      38.546  32.291  38.682  1.00  0.00    -0.200 F 
ATOM     87  F   UNL A   1      36.037  33.252  38.206  1.00  0.00    -0.200 F 
ENDBRANCH  53  77
BRANCH  65  88
ATOM     88  C   UNL A   1      43.964  37.982  33.932  1.00  0.00     0.064 A 
ATOM     89  C   UNL A   1      44.671  38.033  35.144  1.00  0.00     0.173 A 
ATOM     90  C   UNL A   1      43.599  39.204  33.341  1.00  0.00     0.173 A 
ATOM     91  F   UNL A   1      45.044  36.899  35.757  1.00  0.00    -0.203 F 
ATOM     92  C   UNL A   1      44.939  39.248  35.770  1.00  0.00     0.198 A 
ATOM     93  C   UNL A   1      43.913  40.419  33.946  1.00  0.00     0.198 A 
ATOM     94  F   UNL A   1      42.939  39.222  32.175  1.00  0.00    -0.203 F 
ATOM     95  F   UNL A   1      45.535  39.264  36.971  1.00  0.00    -0.200 F 
ATOM     96  C   UNL A   1      44.564  40.440  35.169  1.00  0.00     0.200 A 
ATOM     97  F   UNL A   1      43.573  41.570  33.347  1.00  0.00    -0.200 F 
ATOM     98  F   UNL A   1      44.817  41.608  35.774  1.00  0.00    -0.200 F 
ENDBRANCH  65  88
ENDBRANCH  39  40
ENDBRANCH  32  34
ENDBRANCH  31  32
ENDBRANCH  30  31
ENDBRANCH  29  30
ENDBRANCH  28  29
ENDBRANCH  27  28
ENDBRANCH   1  27
TORSDOF 21
ENDMDL
