MODEL 1
REMARK VINA RESULT:     -10.9      0.000      0.000
REMARK SMILES O=C(OCCOCCOCCOC(=O)[C@@H]1C=C[C@@H](NS(=O)(=O)c2ccc(F)c(F)c2F)C1)c1ccc(-c2c3nc(c(-c4c(F)c(F)c(F)c(F)c4F)c4ccc([nH]4)c(-c4c(F)c(F)c(F)c(F)c4F)c4nc(c(-c5c(F)c(F)c(F)c(F)c5F)c5ccc2[nH]5)C=C4)C=C3)cc1
REMARK SMILES IDX 8 1 7 2 6 3 5 4 4 5 3 6 2 7 1 8 33 9 34 10 95 11 35 12 94 13
REMARK SMILES IDX 36 14 37 15 38 16 88 17 39 18 93 19 87 20 89 21 40 22 92 23
REMARK SMILES IDX 86 24 85 25 41 27 73 28 53 29 72 30 54 31 57 32 71 33 90 34
REMARK SMILES IDX 55 35 56 36 70 38 91 39 58 40 42 41 43 42 51 43 44 44 45 45
REMARK SMILES IDX 49 46 52 47 46 48 47 49 50 50 48 51 74 52 75 53 83 54 76 55
REMARK SMILES IDX 77 56 81 57 84 58 78 59 79 60 82 61 80 62 59 63 60 64 68 65
REMARK SMILES IDX 61 66 62 67 66 68 69 69 63 70 64 71 67 72 65 73 9 74 10 75
REMARK SMILES IDX 11 76 12 77 13 78 14 79 15 80 16 81 32 82 17 83 18 84 19 85
REMARK SMILES IDX 20 87 21 88 22 89 23 90 24 91 30 92 25 93 28 94 31 95 26 96
REMARK SMILES IDX 29 97 27 98
REMARK H PARENT 89 26 57 37 19 86
REMARK Flexibility Score: inf
ROOT
ATOM      1  C   UNL A   1      40.411  21.680  27.054  1.00  0.00     0.188 C 
ENDROOT
BRANCH   1   2
ATOM      2  C   UNL A   1      41.613  21.369  26.162  1.00  0.00     0.188 C 
BRANCH   2   3
ATOM      3  O   UNL A   1      41.614  20.036  25.652  1.00  0.00    -0.376 OA
BRANCH   3   4
ATOM      4  C   UNL A   1      42.231  19.049  26.483  1.00  0.00     0.202 C 
BRANCH   4   5
ATOM      5  C   UNL A   1      43.455  18.304  25.923  1.00  0.00     0.261 C 
BRANCH   5   6
ATOM      6  O   UNL A   1      43.834  18.647  24.579  1.00  0.00    -0.460 OA
BRANCH   6   7
ATOM      7  C   UNL A   1      44.832  19.433  24.121  1.00  0.00     0.338 C 
ATOM      8  O   UNL A   1      45.664  18.951  23.354  1.00  0.00    -0.246 OA
BRANCH   7   9
ATOM      9  C   UNL A   1      44.996  20.861  24.501  1.00  0.00     0.060 A 
ATOM     10  C   UNL A   1      44.496  21.935  23.769  1.00  0.00     0.016 A 
ATOM     11  C   UNL A   1      45.563  21.125  25.757  1.00  0.00     0.016 A 
ATOM     12  C   UNL A   1      44.627  23.244  24.214  1.00  0.00     0.010 A 
ATOM     13  C   UNL A   1      45.652  22.431  26.242  1.00  0.00     0.010 A 
ATOM     14  C   UNL A   1      45.202  23.495  25.455  1.00  0.00    -0.014 A 
BRANCH  14  15
ATOM     15  C   UNL A   1      45.353  24.898  25.882  1.00  0.00     0.031 A 
ATOM     16  C   UNL A   1      46.662  25.567  25.634  1.00  0.00     0.074 A 
ATOM     17  C   UNL A   1      44.308  25.524  26.455  1.00  0.00     0.049 A 
ATOM     18  N   UNL A   1      47.034  26.769  25.967  1.00  0.00    -0.248 NA
ATOM     19  C   UNL A   1      47.713  24.769  24.973  1.00  0.00     0.031 C 
ATOM     20  C   UNL A   1      43.050  24.865  26.789  1.00  0.00     0.029 A 
ATOM     21  N   UNL A   1      44.114  26.820  26.861  1.00  0.00    -0.354 N 
ATOM     22  C   UNL A   1      48.380  26.839  25.650  1.00  0.00     0.074 A 
ATOM     23  C   UNL A   1      48.757  25.582  25.049  1.00  0.00     0.031 C 
ATOM     24  C   UNL A   1      42.198  25.767  27.301  1.00  0.00     0.029 A 
ATOM     25  C   UNL A   1      42.850  27.068  27.364  1.00  0.00     0.049 A 
ATOM     26  H   UNL A   1      44.812  27.510  26.801  1.00  0.00     0.167 HD
ATOM     27  C   UNL A   1      49.217  27.867  25.901  1.00  0.00     0.037 A 
ATOM     28  C   UNL A   1      42.315  28.220  27.826  1.00  0.00     0.037 A 
ATOM     29  C   UNL A   1      48.778  29.108  26.474  1.00  0.00     0.049 A 
ATOM     30  C   UNL A   1      43.268  29.397  27.910  1.00  0.00     0.074 A 
ATOM     31  C   UNL A   1      49.526  30.227  26.780  1.00  0.00     0.029 A 
ATOM     32  N   UNL A   1      47.462  29.386  26.822  1.00  0.00    -0.354 N 
ATOM     33  N   UNL A   1      44.509  29.488  27.491  1.00  0.00    -0.248 NA
ATOM     34  C   UNL A   1      42.771  30.615  28.566  1.00  0.00     0.031 C 
ATOM     35  C   UNL A   1      48.672  31.168  27.355  1.00  0.00     0.029 A 
ATOM     36  C   UNL A   1      47.383  30.654  27.362  1.00  0.00     0.049 A 
ATOM     37  H   UNL A   1      46.702  28.772  26.701  1.00  0.00     0.167 HD
ATOM     38  C   UNL A   1      44.940  30.752  27.860  1.00  0.00     0.074 A 
ATOM     39  C   UNL A   1      43.793  31.441  28.408  1.00  0.00     0.031 C 
ATOM     40  C   UNL A   1      46.185  31.284  27.846  1.00  0.00     0.037 A 
BRANCH  27  41
ATOM     41  C   UNL A   1      50.676  27.684  25.630  1.00  0.00     0.064 A 
ATOM     42  C   UNL A   1      51.158  27.809  24.317  1.00  0.00     0.173 A 
ATOM     43  C   UNL A   1      51.577  27.302  26.631  1.00  0.00     0.173 A 
ATOM     44  F   UNL A   1      50.335  28.188  23.328  1.00  0.00    -0.203 F 
ATOM     45  C   UNL A   1      52.482  27.515  24.010  1.00  0.00     0.198 A 
ATOM     46  C   UNL A   1      52.908  27.033  26.324  1.00  0.00     0.198 A 
ATOM     47  F   UNL A   1      51.169  27.202  27.904  1.00  0.00    -0.203 F 
ATOM     48  F   UNL A   1      52.908  27.596  22.742  1.00  0.00    -0.200 F 
ATOM     49  C   UNL A   1      53.355  27.122  25.013  1.00  0.00     0.200 A 
ATOM     50  F   UNL A   1      53.759  26.681  27.298  1.00  0.00    -0.200 F 
ATOM     51  F   UNL A   1      54.629  26.830  24.715  1.00  0.00    -0.200 F 
ENDBRANCH  27  41
BRANCH  28  52
ATOM     52  C   UNL A   1      40.883  28.369  28.261  1.00  0.00     0.064 A 
ATOM     53  C   UNL A   1      40.416  27.988  29.529  1.00  0.00     0.173 A 
ATOM     54  C   UNL A   1      39.929  28.962  27.406  1.00  0.00     0.173 A 
ATOM     55  F   UNL A   1      41.255  27.457  30.430  1.00  0.00    -0.203 F 
ATOM     56  C   UNL A   1      39.077  28.147  29.902  1.00  0.00     0.198 A 
ATOM     57  C   UNL A   1      38.615  29.216  27.815  1.00  0.00     0.198 A 
ATOM     58  F   UNL A   1      40.275  29.312  26.156  1.00  0.00    -0.203 F 
ATOM     59  F   UNL A   1      38.660  27.683  31.089  1.00  0.00    -0.200 F 
ATOM     60  C   UNL A   1      38.182  28.781  29.057  1.00  0.00     0.200 A 
ATOM     61  F   UNL A   1      37.762  29.827  26.981  1.00  0.00    -0.200 F 
ATOM     62  F   UNL A   1      36.903  28.945  29.423  1.00  0.00    -0.200 F 
ENDBRANCH  28  52
BRANCH  40  63
ATOM     63  C   UNL A   1      46.343  32.630  28.477  1.00  0.00     0.064 A 
ATOM     64  C   UNL A   1      46.549  32.759  29.855  1.00  0.00     0.173 A 
ATOM     65  C   UNL A   1      46.192  33.795  27.710  1.00  0.00     0.173 A 
ATOM     66  F   UNL A   1      46.690  31.668  30.624  1.00  0.00    -0.203 F 
ATOM     67  C   UNL A   1      46.575  34.015  30.451  1.00  0.00     0.198 A 
ATOM     68  C   UNL A   1      46.254  35.049  28.304  1.00  0.00     0.198 A 
ATOM     69  F   UNL A   1      46.008  33.714  26.383  1.00  0.00    -0.203 F 
ATOM     70  F   UNL A   1      46.727  34.119  31.778  1.00  0.00    -0.200 F 
ATOM     71  C   UNL A   1      46.431  35.157  29.676  1.00  0.00     0.200 A 
ATOM     72  F   UNL A   1      46.144  36.151  27.550  1.00  0.00    -0.200 F 
ATOM     73  F   UNL A   1      46.462  36.366  30.252  1.00  0.00    -0.200 F 
ENDBRANCH  40  63
ENDBRANCH  14  15
ENDBRANCH   7   9
ENDBRANCH   6   7
ENDBRANCH   5   6
ENDBRANCH   4   5
ENDBRANCH   3   4
ENDBRANCH   2   3
ENDBRANCH   1   2
BRANCH   1  74
ATOM     74  O   UNL A   1      40.012  23.041  27.187  1.00  0.00    -0.376 OA
BRANCH  74  75
ATOM     75  C   UNL A   1      38.846  23.475  26.498  1.00  0.00     0.202 C 
BRANCH  75  76
ATOM     76  C   UNL A   1      38.018  22.431  25.735  1.00  0.00     0.261 C 
BRANCH  76  77
ATOM     77  O   UNL A   1      36.604  22.578  25.885  1.00  0.00    -0.463 OA
BRANCH  77  78
ATOM     78  C   UNL A   1      35.878  21.445  25.666  1.00  0.00     0.312 C 
ATOM     79  O   UNL A   1      36.211  20.530  24.927  1.00  0.00    -0.252 OA
BRANCH  78  80
ATOM     80  C   UNL A   1      34.601  21.482  26.508  1.00  0.00     0.123 C 
ATOM     81  C   UNL A   1      33.504  20.705  25.832  1.00  0.00    -0.015 C 
ATOM     82  C   UNL A   1      34.000  22.885  26.471  1.00  0.00     0.043 C 
ATOM     83  C   UNL A   1      32.788  21.515  25.042  1.00  0.00    -0.011 C 
ATOM     84  C   UNL A   1      33.335  22.908  25.098  1.00  0.00     0.093 C 
BRANCH  84  85
ATOM     85  N   UNL A   1      32.271  23.876  25.040  1.00  0.00    -0.204 NA
ATOM     86  H   UNL A   1      32.521  24.643  25.664  1.00  0.00     0.142 HD
BRANCH  85  87
ATOM     87  S   UNL A   1      31.924  24.533  23.555  1.00  0.00     0.244 S 
ATOM     88  O   UNL A   1      33.079  24.421  22.691  1.00  0.00    -0.207 OA
ATOM     89  O   UNL A   1      30.670  23.933  23.193  1.00  0.00    -0.207 OA
BRANCH  87  90
ATOM     90  C   UNL A   1      31.605  26.241  23.763  1.00  0.00     0.121 A 
ATOM     91  C   UNL A   1      31.666  26.724  25.080  1.00  0.00     0.028 A 
ATOM     92  C   UNL A   1      31.281  27.091  22.716  1.00  0.00     0.181 A 
ATOM     93  C   UNL A   1      31.370  28.057  25.347  1.00  0.00     0.044 A 
ATOM     94  C   UNL A   1      30.988  28.423  22.989  1.00  0.00     0.195 A 
ATOM     95  F   UNL A   1      31.227  26.671  21.444  1.00  0.00    -0.202 F 
ATOM     96  C   UNL A   1      31.024  28.899  24.296  1.00  0.00     0.161 A 
ATOM     97  F   UNL A   1      30.653  29.249  21.987  1.00  0.00    -0.200 F 
ATOM     98  F   UNL A   1      30.715  30.175  24.557  1.00  0.00    -0.204 F 
ENDBRANCH  87  90
ENDBRANCH  85  87
ENDBRANCH  84  85
ENDBRANCH  78  80
ENDBRANCH  77  78
ENDBRANCH  76  77
ENDBRANCH  75  76
ENDBRANCH  74  75
ENDBRANCH   1  74
TORSDOF 20
ENDMDL
MODEL 2
REMARK VINA RESULT:     -10.9      6.893     12.433
REMARK SMILES O=C(OCCOCCOCCOC(=O)[C@@H]1C=C[C@@H](NS(=O)(=O)c2ccc(F)c(F)c2F)C1)c1ccc(-c2c3nc(c(-c4c(F)c(F)c(F)c(F)c4F)c4ccc([nH]4)c(-c4c(F)c(F)c(F)c(F)c4F)c4nc(c(-c5c(F)c(F)c(F)c(F)c5F)c5ccc2[nH]5)C=C4)C=C3)cc1
REMARK SMILES IDX 8 1 7 2 6 3 5 4 4 5 3 6 2 7 1 8 33 9 34 10 95 11 35 12 94 13
REMARK SMILES IDX 36 14 37 15 38 16 88 17 39 18 93 19 87 20 89 21 40 22 92 23
REMARK SMILES IDX 86 24 85 25 41 27 73 28 53 29 72 30 54 31 57 32 71 33 90 34
REMARK SMILES IDX 55 35 56 36 70 38 91 39 58 40 42 41 43 42 51 43 44 44 45 45
REMARK SMILES IDX 49 46 52 47 46 48 47 49 50 50 48 51 74 52 75 53 83 54 76 55
REMARK SMILES IDX 77 56 81 57 84 58 78 59 79 60 82 61 80 62 59 63 60 64 68 65
REMARK SMILES IDX 61 66 62 67 66 68 69 69 63 70 64 71 67 72 65 73 9 74 10 75
REMARK SMILES IDX 11 76 12 77 13 78 14 79 15 80 16 81 32 82 17 83 18 84 19 85
REMARK SMILES IDX 20 87 21 88 22 89 23 90 24 91 30 92 25 93 28 94 31 95 26 96
REMARK SMILES IDX 29 97 27 98
REMARK H PARENT 89 26 57 37 19 86
REMARK Flexibility Score: inf
ROOT
ATOM      1  C   UNL A   1      34.744  31.984  28.590  1.00  0.00     0.188 C 
ENDROOT
BRANCH   1   2
ATOM      2  C   UNL A   1      34.821  33.440  29.046  1.00  0.00     0.188 C 
BRANCH   2   3
ATOM      3  O   UNL A   1      33.604  34.162  28.856  1.00  0.00    -0.376 OA
BRANCH   3   4
ATOM      4  C   UNL A   1      33.720  35.588  28.834  1.00  0.00     0.202 C 
BRANCH   4   5
ATOM      5  C   UNL A   1      32.628  36.406  29.542  1.00  0.00     0.261 C 
BRANCH   5   6
ATOM      6  O   UNL A   1      32.781  36.554  30.964  1.00  0.00    -0.460 OA
BRANCH   6   7
ATOM      7  C   UNL A   1      32.766  35.630  31.949  1.00  0.00     0.338 C 
ATOM      8  O   UNL A   1      31.715  35.423  32.553  1.00  0.00    -0.246 OA
BRANCH   7   9
ATOM      9  C   UNL A   1      33.960  34.847  32.363  1.00  0.00     0.060 A 
ATOM     10  C   UNL A   1      33.937  33.499  32.714  1.00  0.00     0.016 A 
ATOM     11  C   UNL A   1      35.208  35.477  32.242  1.00  0.00     0.016 A 
ATOM     12  C   UNL A   1      35.100  32.808  33.027  1.00  0.00     0.010 A 
ATOM     13  C   UNL A   1      36.389  34.780  32.501  1.00  0.00     0.010 A 
ATOM     14  C   UNL A   1      36.331  33.446  32.917  1.00  0.00    -0.014 A 
BRANCH  14  15
ATOM     15  C   UNL A   1      37.542  32.692  33.287  1.00  0.00     0.031 A 
ATOM     16  C   UNL A   1      38.112  32.908  34.648  1.00  0.00     0.074 A 
ATOM     17  C   UNL A   1      38.072  31.829  32.400  1.00  0.00     0.049 A 
ATOM     18  N   UNL A   1      39.190  32.395  35.166  1.00  0.00    -0.248 NA
ATOM     19  C   UNL A   1      37.414  33.865  35.527  1.00  0.00     0.031 C 
ATOM     20  C   UNL A   1      37.587  31.667  31.034  1.00  0.00     0.029 A 
ATOM     21  N   UNL A   1      39.111  30.937  32.483  1.00  0.00    -0.354 N 
ATOM     22  C   UNL A   1      39.354  33.035  36.383  1.00  0.00     0.074 A 
ATOM     23  C   UNL A   1      38.243  33.938  36.559  1.00  0.00     0.031 C 
ATOM     24  C   UNL A   1      38.290  30.700  30.423  1.00  0.00     0.029 A 
ATOM     25  C   UNL A   1      39.301  30.187  31.337  1.00  0.00     0.049 A 
ATOM     26  H   UNL A   1      39.672  30.840  33.286  1.00  0.00     0.167 HD
ATOM     27  C   UNL A   1      40.390  32.895  37.236  1.00  0.00     0.037 A 
ATOM     28  C   UNL A   1      40.203  29.213  31.082  1.00  0.00     0.037 A 
ATOM     29  C   UNL A   1      41.455  31.956  37.022  1.00  0.00     0.049 A 
ATOM     30  C   UNL A   1      41.235  28.975  32.167  1.00  0.00     0.074 A 
ATOM     31  C   UNL A   1      42.562  31.718  37.811  1.00  0.00     0.029 A 
ATOM     32  N   UNL A   1      41.533  31.097  35.934  1.00  0.00    -0.354 N 
ATOM     33  N   UNL A   1      41.308  29.500  33.369  1.00  0.00    -0.248 NA
ATOM     34  C   UNL A   1      42.333  28.048  31.857  1.00  0.00     0.031 C 
ATOM     35  C   UNL A   1      43.336  30.745  37.177  1.00  0.00     0.029 A 
ATOM     36  C   UNL A   1      42.686  30.343  36.020  1.00  0.00     0.049 A 
ATOM     37  H   UNL A   1      40.867  31.035  35.211  1.00  0.00     0.167 HD
ATOM     38  C   UNL A   1      42.466  28.992  33.934  1.00  0.00     0.074 A 
ATOM     39  C   UNL A   1      42.988  28.014  33.005  1.00  0.00     0.031 C 
ATOM     40  C   UNL A   1      43.110  29.353  35.069  1.00  0.00     0.037 A 
BRANCH  27  41
ATOM     41  C   UNL A   1      40.465  33.800  38.424  1.00  0.00     0.064 A 
ATOM     42  C   UNL A   1      41.249  34.963  38.360  1.00  0.00     0.173 A 
ATOM     43  C   UNL A   1      39.851  33.483  39.641  1.00  0.00     0.173 A 
ATOM     44  F   UNL A   1      41.843  35.316  37.210  1.00  0.00    -0.203 F 
ATOM     45  C   UNL A   1      41.448  35.755  39.487  1.00  0.00     0.198 A 
ATOM     46  C   UNL A   1      40.032  34.291  40.760  1.00  0.00     0.198 A 
ATOM     47  F   UNL A   1      39.068  32.399  39.740  1.00  0.00    -0.203 F 
ATOM     48  F   UNL A   1      42.237  36.835  39.414  1.00  0.00    -0.200 F 
ATOM     49  C   UNL A   1      40.843  35.415  40.687  1.00  0.00     0.200 A 
ATOM     50  F   UNL A   1      39.425  33.979  41.914  1.00  0.00    -0.200 F 
ATOM     51  F   UNL A   1      41.043  36.172  41.774  1.00  0.00    -0.200 F 
ENDBRANCH  27  41
BRANCH  28  52
ATOM     52  C   UNL A   1      40.237  28.408  29.811  1.00  0.00     0.064 A 
ATOM     53  C   UNL A   1      39.530  27.208  29.637  1.00  0.00     0.173 A 
ATOM     54  C   UNL A   1      40.961  28.865  28.690  1.00  0.00     0.173 A 
ATOM     55  F   UNL A   1      38.775  26.715  30.630  1.00  0.00    -0.203 F 
ATOM     56  C   UNL A   1      39.578  26.489  28.438  1.00  0.00     0.198 A 
ATOM     57  C   UNL A   1      40.927  28.201  27.458  1.00  0.00     0.198 A 
ATOM     58  F   UNL A   1      41.707  29.979  28.781  1.00  0.00    -0.203 F 
ATOM     59  F   UNL A   1      38.962  25.301  28.352  1.00  0.00    -0.200 F 
ATOM     60  C   UNL A   1      40.256  26.995  27.341  1.00  0.00     0.200 A 
ATOM     61  F   UNL A   1      41.593  28.704  26.409  1.00  0.00    -0.200 F 
ATOM     62  F   UNL A   1      40.289  26.311  26.190  1.00  0.00    -0.200 F 
ENDBRANCH  28  52
BRANCH  40  63
ATOM     63  C   UNL A   1      44.442  28.717  35.310  1.00  0.00     0.064 A 
ATOM     64  C   UNL A   1      45.603  29.236  34.727  1.00  0.00     0.173 A 
ATOM     65  C   UNL A   1      44.538  27.530  36.053  1.00  0.00     0.173 A 
ATOM     66  F   UNL A   1      45.552  30.364  34.003  1.00  0.00    -0.203 F 
ATOM     67  C   UNL A   1      46.817  28.572  34.859  1.00  0.00     0.198 A 
ATOM     68  C   UNL A   1      45.758  26.889  36.212  1.00  0.00     0.198 A 
ATOM     69  F   UNL A   1      43.450  27.010  36.641  1.00  0.00    -0.203 F 
ATOM     70  F   UNL A   1      47.911  29.056  34.255  1.00  0.00    -0.200 F 
ATOM     71  C   UNL A   1      46.895  27.402  35.603  1.00  0.00     0.200 A 
ATOM     72  F   UNL A   1      45.837  25.776  36.954  1.00  0.00    -0.200 F 
ATOM     73  F   UNL A   1      48.067  26.767  35.732  1.00  0.00    -0.200 F 
ENDBRANCH  40  63
ENDBRANCH  14  15
ENDBRANCH   7   9
ENDBRANCH   6   7
ENDBRANCH   5   6
ENDBRANCH   4   5
ENDBRANCH   3   4
ENDBRANCH   2   3
ENDBRANCH   1   2
BRANCH   1  74
ATOM     74  O   UNL A   1      33.983  31.687  27.424  1.00  0.00    -0.376 OA
BRANCH  74  75
ATOM     75  C   UNL A   1      33.272  30.456  27.375  1.00  0.00     0.202 C 
BRANCH  75  76
ATOM     76  C   UNL A   1      32.480  30.122  26.103  1.00  0.00     0.261 C 
BRANCH  76  77
ATOM     77  O   UNL A   1      31.735  28.904  26.176  1.00  0.00    -0.463 OA
BRANCH  77  78
ATOM     78  C   UNL A   1      31.817  28.108  25.072  1.00  0.00     0.312 C 
ATOM     79  O   UNL A   1      30.884  27.839  24.330  1.00  0.00    -0.252 OA
BRANCH  78  80
ATOM     80  C   UNL A   1      33.259  27.630  24.889  1.00  0.00     0.123 C 
ATOM     81  C   UNL A   1      33.352  26.669  23.734  1.00  0.00    -0.015 C 
ATOM     82  C   UNL A   1      33.645  26.703  26.041  1.00  0.00     0.043 C 
ATOM     83  C   UNL A   1      33.182  25.414  24.167  1.00  0.00    -0.011 C 
ATOM     84  C   UNL A   1      32.951  25.403  25.647  1.00  0.00     0.093 C 
BRANCH  84  85
ATOM     85  N   UNL A   1      33.581  24.260  26.253  1.00  0.00    -0.204 NA
ATOM     86  H   UNL A   1      34.026  24.578  27.114  1.00  0.00     0.142 HD
BRANCH  85  87
ATOM     87  S   UNL A   1      32.606  22.972  26.639  1.00  0.00     0.244 S 
ATOM     88  O   UNL A   1      32.748  22.660  28.045  1.00  0.00    -0.207 OA
ATOM     89  O   UNL A   1      31.328  23.325  26.086  1.00  0.00    -0.207 OA
BRANCH  87  90
ATOM     90  C   UNL A   1      33.154  21.572  25.745  1.00  0.00     0.121 A 
ATOM     91  C   UNL A   1      32.158  20.835  25.083  1.00  0.00     0.028 A 
ATOM     92  C   UNL A   1      34.480  21.168  25.694  1.00  0.00     0.181 A 
ATOM     93  C   UNL A   1      32.494  19.673  24.395  1.00  0.00     0.044 A 
ATOM     94  C   UNL A   1      34.810  20.008  25.002  1.00  0.00     0.195 A 
ATOM     95  F   UNL A   1      35.460  21.853  26.299  1.00  0.00    -0.202 F 
ATOM     96  C   UNL A   1      33.822  19.262  24.366  1.00  0.00     0.161 A 
ATOM     97  F   UNL A   1      36.085  19.597  24.963  1.00  0.00    -0.200 F 
ATOM     98  F   UNL A   1      34.141  18.131  23.724  1.00  0.00    -0.204 F 
ENDBRANCH  87  90
ENDBRANCH  85  87
ENDBRANCH  84  85
ENDBRANCH  78  80
ENDBRANCH  77  78
ENDBRANCH  76  77
ENDBRANCH  75  76
ENDBRANCH  74  75
ENDBRANCH   1  74
TORSDOF 20
ENDMDL
MODEL 3
REMARK VINA RESULT:     -10.7      6.843     12.368
REMARK SMILES O=C(OCCOCCOCCOC(=O)[C@@H]1C=C[C@@H](NS(=O)(=O)c2ccc(F)c(F)c2F)C1)c1ccc(-c2c3nc(c(-c4c(F)c(F)c(F)c(F)c4F)c4ccc([nH]4)c(-c4c(F)c(F)c(F)c(F)c4F)c4nc(c(-c5c(F)c(F)c(F)c(F)c5F)c5ccc2[nH]5)C=C4)C=C3)cc1
REMARK SMILES IDX 8 1 7 2 6 3 5 4 4 5 3 6 2 7 1 8 33 9 34 10 95 11 35 12 94 13
REMARK SMILES IDX 36 14 37 15 38 16 88 17 39 18 93 19 87 20 89 21 40 22 92 23
REMARK SMILES IDX 86 24 85 25 41 27 73 28 53 29 72 30 54 31 57 32 71 33 90 34
REMARK SMILES IDX 55 35 56 36 70 38 91 39 58 40 42 41 43 42 51 43 44 44 45 45
REMARK SMILES IDX 49 46 52 47 46 48 47 49 50 50 48 51 74 52 75 53 83 54 76 55
REMARK SMILES IDX 77 56 81 57 84 58 78 59 79 60 82 61 80 62 59 63 60 64 68 65
REMARK SMILES IDX 61 66 62 67 66 68 69 69 63 70 64 71 67 72 65 73 9 74 10 75
REMARK SMILES IDX 11 76 12 77 13 78 14 79 15 80 16 81 32 82 17 83 18 84 19 85
REMARK SMILES IDX 20 87 21 88 22 89 23 90 24 91 30 92 25 93 28 94 31 95 26 96
REMARK SMILES IDX 29 97 27 98
REMARK H PARENT 89 26 57 37 19 86
REMARK Flexibility Score: inf
ROOT
ATOM      1  C   UNL A   1      34.908  31.748  28.417  1.00  0.00     0.188 C 
ENDROOT
BRANCH   1   2
ATOM      2  C   UNL A   1      34.833  33.105  29.114  1.00  0.00     0.188 C 
BRANCH   2   3
ATOM      3  O   UNL A   1      33.660  33.851  28.787  1.00  0.00    -0.376 OA
BRANCH   3   4
ATOM      4  C   UNL A   1      33.795  35.275  28.822  1.00  0.00     0.202 C 
BRANCH   4   5
ATOM      5  C   UNL A   1      32.624  36.091  29.393  1.00  0.00     0.261 C 
BRANCH   5   6
ATOM      6  O   UNL A   1      32.712  36.417  30.790  1.00  0.00    -0.460 OA
BRANCH   6   7
ATOM      7  C   UNL A   1      32.738  35.618  31.879  1.00  0.00     0.338 C 
ATOM      8  O   UNL A   1      31.727  35.528  32.573  1.00  0.00    -0.246 OA
BRANCH   7   9
ATOM      9  C   UNL A   1      33.931  34.840  32.302  1.00  0.00     0.060 A 
ATOM     10  C   UNL A   1      33.912  33.490  32.646  1.00  0.00     0.016 A 
ATOM     11  C   UNL A   1      35.177  35.477  32.198  1.00  0.00     0.016 A 
ATOM     12  C   UNL A   1      35.076  32.804  32.968  1.00  0.00     0.010 A 
ATOM     13  C   UNL A   1      36.359  34.786  32.467  1.00  0.00     0.010 A 
ATOM     14  C   UNL A   1      36.305  33.450  32.875  1.00  0.00    -0.014 A 
BRANCH  14  15
ATOM     15  C   UNL A   1      37.516  32.701  33.255  1.00  0.00     0.031 A 
ATOM     16  C   UNL A   1      38.073  32.919  34.620  1.00  0.00     0.074 A 
ATOM     17  C   UNL A   1      38.057  31.840  32.372  1.00  0.00     0.049 A 
ATOM     18  N   UNL A   1      39.149  32.410  35.147  1.00  0.00    -0.248 NA
ATOM     19  C   UNL A   1      37.364  33.873  35.494  1.00  0.00     0.031 C 
ATOM     20  C   UNL A   1      37.583  31.676  31.002  1.00  0.00     0.029 A 
ATOM     21  N   UNL A   1      39.099  30.952  32.464  1.00  0.00    -0.354 N 
ATOM     22  C   UNL A   1      39.301  33.051  36.366  1.00  0.00     0.074 A 
ATOM     23  C   UNL A   1      38.184  33.949  36.532  1.00  0.00     0.031 C 
ATOM     24  C   UNL A   1      38.296  30.713  30.397  1.00  0.00     0.029 A 
ATOM     25  C   UNL A   1      39.301  30.203  31.319  1.00  0.00     0.049 A 
ATOM     26  H   UNL A   1      39.653  30.858  33.271  1.00  0.00     0.167 HD
ATOM     27  C   UNL A   1      40.330  32.915  37.227  1.00  0.00     0.037 A 
ATOM     28  C   UNL A   1      40.210  29.233  31.071  1.00  0.00     0.037 A 
ATOM     29  C   UNL A   1      41.401  31.981  37.022  1.00  0.00     0.049 A 
ATOM     30  C   UNL A   1      41.233  29.000  32.165  1.00  0.00     0.074 A 
ATOM     31  C   UNL A   1      42.503  31.747  37.820  1.00  0.00     0.029 A 
ATOM     32  N   UNL A   1      41.492  31.122  35.934  1.00  0.00    -0.354 N 
ATOM     33  N   UNL A   1      41.294  29.525  33.368  1.00  0.00    -0.248 NA
ATOM     34  C   UNL A   1      42.337  28.078  31.864  1.00  0.00     0.031 C 
ATOM     35  C   UNL A   1      43.286  30.778  37.192  1.00  0.00     0.029 A 
ATOM     36  C   UNL A   1      42.647  30.373  36.030  1.00  0.00     0.049 A 
ATOM     37  H   UNL A   1      40.832  31.058  35.206  1.00  0.00     0.167 HD
ATOM     38  C   UNL A   1      42.450  29.021  33.942  1.00  0.00     0.074 A 
ATOM     39  C   UNL A   1      42.984  28.046  33.017  1.00  0.00     0.031 C 
ATOM     40  C   UNL A   1      43.083  29.385  35.082  1.00  0.00     0.037 A 
BRANCH  27  41
ATOM     41  C   UNL A   1      40.392  33.820  38.416  1.00  0.00     0.064 A 
ATOM     42  C   UNL A   1      39.642  33.511  39.562  1.00  0.00     0.173 A 
ATOM     43  C   UNL A   1      41.106  35.023  38.399  1.00  0.00     0.173 A 
ATOM     44  F   UNL A   1      38.955  32.361  39.631  1.00  0.00    -0.203 F 
ATOM     45  C   UNL A   1      39.572  34.397  40.632  1.00  0.00     0.198 A 
ATOM     46  C   UNL A   1      41.054  35.897  39.482  1.00  0.00     0.198 A 
ATOM     47  F   UNL A   1      41.862  35.346  37.339  1.00  0.00    -0.203 F 
ATOM     48  F   UNL A   1      38.813  34.102  41.696  1.00  0.00    -0.200 F 
ATOM     49  C   UNL A   1      40.274  35.592  40.589  1.00  0.00     0.200 A 
ATOM     50  F   UNL A   1      41.755  37.039  39.453  1.00  0.00    -0.200 F 
ATOM     51  F   UNL A   1      40.200  36.449  41.616  1.00  0.00    -0.200 F 
ENDBRANCH  27  41
BRANCH  28  52
ATOM     52  C   UNL A   1      40.257  28.429  29.801  1.00  0.00     0.064 A 
ATOM     53  C   UNL A   1      39.559  27.224  29.622  1.00  0.00     0.173 A 
ATOM     54  C   UNL A   1      40.986  28.891  28.684  1.00  0.00     0.173 A 
ATOM     55  F   UNL A   1      38.801  26.725  30.610  1.00  0.00    -0.203 F 
ATOM     56  C   UNL A   1      39.620  26.505  28.424  1.00  0.00     0.198 A 
ATOM     57  C   UNL A   1      40.964  28.226  27.452  1.00  0.00     0.198 A 
ATOM     58  F   UNL A   1      41.723  30.010  28.780  1.00  0.00    -0.203 F 
ATOM     59  F   UNL A   1      39.013  25.314  28.333  1.00  0.00    -0.200 F 
ATOM     60  C   UNL A   1      40.302  27.016  27.331  1.00  0.00     0.200 A 
ATOM     61  F   UNL A   1      41.634  28.735  26.408  1.00  0.00    -0.200 F 
ATOM     62  F   UNL A   1      40.347  26.332  26.180  1.00  0.00    -0.200 F 
ENDBRANCH  28  52
BRANCH  40  63
ATOM     63  C   UNL A   1      44.416  28.755  35.334  1.00  0.00     0.064 A 
ATOM     64  C   UNL A   1      44.531  27.606  36.124  1.00  0.00     0.173 A 
ATOM     65  C   UNL A   1      45.588  29.362  34.860  1.00  0.00     0.173 A 
ATOM     66  F   UNL A   1      43.433  27.001  36.603  1.00  0.00    -0.203 F 
ATOM     67  C   UNL A   1      45.782  27.096  36.452  1.00  0.00     0.198 A 
ATOM     68  C   UNL A   1      46.835  28.829  35.160  1.00  0.00     0.198 A 
ATOM     69  F   UNL A   1      45.520  30.456  34.086  1.00  0.00    -0.203 F 
ATOM     70  F   UNL A   1      45.877  26.022  37.247  1.00  0.00    -0.200 F 
ATOM     71  C   UNL A   1      46.931  27.705  35.967  1.00  0.00     0.200 A 
ATOM     72  F   UNL A   1      47.942  29.402  34.668  1.00  0.00    -0.200 F 
ATOM     73  F   UNL A   1      48.135  27.210  36.281  1.00  0.00    -0.200 F 
ENDBRANCH  40  63
ENDBRANCH  14  15
ENDBRANCH   7   9
ENDBRANCH   6   7
ENDBRANCH   5   6
ENDBRANCH   4   5
ENDBRANCH   3   4
ENDBRANCH   2   3
ENDBRANCH   1   2
BRANCH   1  74
ATOM     74  O   UNL A   1      33.906  31.433  27.455  1.00  0.00    -0.376 OA
BRANCH  74  75
ATOM     75  C   UNL A   1      33.889  30.125  26.898  1.00  0.00     0.202 C 
BRANCH  75  76
ATOM     76  C   UNL A   1      32.863  29.814  25.799  1.00  0.00     0.261 C 
BRANCH  76  77
ATOM     77  O   UNL A   1      31.909  28.810  26.152  1.00  0.00    -0.463 OA
BRANCH  77  78
ATOM     78  C   UNL A   1      31.226  28.266  25.105  1.00  0.00     0.312 C 
ATOM     79  O   UNL A   1      31.085  28.791  24.010  1.00  0.00    -0.252 OA
BRANCH  78  80
ATOM     80  C   UNL A   1      30.692  26.888  25.500  1.00  0.00     0.123 C 
ATOM     81  C   UNL A   1      31.741  26.112  26.249  1.00  0.00    -0.015 C 
ATOM     82  C   UNL A   1      30.549  26.014  24.256  1.00  0.00     0.043 C 
ATOM     83  C   UNL A   1      32.470  25.383  25.395  1.00  0.00    -0.011 C 
ATOM     84  C   UNL A   1      31.993  25.600  23.992  1.00  0.00     0.093 C 
BRANCH  84  85
ATOM     85  N   UNL A   1      32.066  24.379  23.234  1.00  0.00    -0.204 NA
ATOM     86  H   UNL A   1      31.309  24.399  22.550  1.00  0.00     0.142 HD
BRANCH  85  87
ATOM     87  S   UNL A   1      33.476  24.080  22.410  1.00  0.00     0.244 S 
ATOM     88  O   UNL A   1      33.182  23.368  21.186  1.00  0.00    -0.207 OA
ATOM     89  O   UNL A   1      34.140  25.354  22.383  1.00  0.00    -0.207 OA
BRANCH  87  90
ATOM     90  C   UNL A   1      34.479  23.029  23.386  1.00  0.00     0.121 A 
ATOM     91  C   UNL A   1      35.829  23.396  23.500  1.00  0.00     0.028 A 
ATOM     92  C   UNL A   1      34.007  21.880  24.003  1.00  0.00     0.181 A 
ATOM     93  C   UNL A   1      36.713  22.588  24.209  1.00  0.00     0.044 A 
ATOM     94  C   UNL A   1      34.894  21.078  24.712  1.00  0.00     0.195 A 
ATOM     95  F   UNL A   1      32.723  21.505  23.931  1.00  0.00    -0.202 F 
ATOM     96  C   UNL A   1      36.238  21.426  24.806  1.00  0.00     0.161 A 
ATOM     97  F   UNL A   1      34.454  19.953  25.296  1.00  0.00    -0.200 F 
ATOM     98  F   UNL A   1      37.094  20.636  25.467  1.00  0.00    -0.204 F 
ENDBRANCH  87  90
ENDBRANCH  85  87
ENDBRANCH  84  85
ENDBRANCH  78  80
ENDBRANCH  77  78
ENDBRANCH  76  77
ENDBRANCH  75  76
ENDBRANCH  74  75
ENDBRANCH   1  74
TORSDOF 20
ENDMDL
