MODEL 1
REMARK VINA RESULT:     -11.2      0.000      0.000
REMARK SMILES Cc1c(Cl)cc2c(c1C)O[C@H](C(F)(F)F)C(C(=O)OCCOCCOCCOC(=O)c1ccc(-c3c4nc(c(-c5c(F)c(F)c(F)c(F)c5F)c5ccc([nH]5)c(-c5c(F)c(F)c(F)c(F)c5F)c5nc(c(-c6c(F)c(F)c(F)c(F)c6F)c6ccc3[nH]6)C=C5)C=C4)cc1)=C2
REMARK SMILES IDX 24 1 23 2 22 3 21 4 20 5 19 6 17 7 18 8 16 9 1 10 2 11 3 12
REMARK SMILES IDX 8 13 4 14 5 15 7 16 9 17 6 18 10 19 94 20 11 21 12 22 13 23
REMARK SMILES IDX 14 24 15 25 25 26 26 27 27 28 28 29 29 30 30 31 31 32 32 33
REMARK SMILES IDX 93 34 33 35 92 36 34 37 35 38 36 39 86 40 37 41 91 42 85 43
REMARK SMILES IDX 87 44 38 45 90 46 84 47 83 48 39 50 71 51 51 52 70 53 52 54
REMARK SMILES IDX 55 55 69 56 88 57 53 58 54 59 68 61 89 62 56 63 40 64 41 65
REMARK SMILES IDX 49 66 42 67 43 68 47 69 50 70 44 71 45 72 48 73 46 74 72 75
REMARK SMILES IDX 73 76 81 77 74 78 75 79 79 80 82 81 76 82 77 83 80 84 78 85
REMARK SMILES IDX 57 86 58 87 66 88 59 89 60 90 64 91 67 92 61 93 62 94 65 95
REMARK SMILES IDX 63 96
REMARK H PARENT 87 49 55 60
REMARK Flexibility Score: inf
ROOT
ATOM      1  C   UNL A   1      38.517  23.278  26.414  1.00  0.00     0.188 C 
ENDROOT
BRANCH   1   2
ATOM      2  C   UNL A   1      37.208  23.074  25.623  1.00  0.00     0.188 C 
BRANCH   2   3
ATOM      3  O   UNL A   1      37.127  23.442  24.262  1.00  0.00    -0.376 OA
BRANCH   3   4
ATOM      4  C   UNL A   1      36.202  22.813  23.391  1.00  0.00     0.202 C 
BRANCH   4   5
ATOM      5  C   UNL A   1      34.708  22.660  23.719  1.00  0.00     0.261 C 
BRANCH   5   6
ATOM      6  O   UNL A   1      33.945  23.873  23.733  1.00  0.00    -0.460 OA
BRANCH   6   7
ATOM      7  C   UNL A   1      33.546  24.290  24.958  1.00  0.00     0.338 C 
ATOM      8  O   UNL A   1      33.662  23.684  26.010  1.00  0.00    -0.246 OA
BRANCH   7   9
ATOM      9  C   UNL A   1      33.080  25.688  24.878  1.00  0.00     0.087 C 
ATOM     10  C   UNL A   1      31.256  31.753  26.327  1.00  0.00     0.046 C 
ATOM     11  C   UNL A   1      31.958  30.446  26.055  1.00  0.00    -0.026 A 
ATOM     12  C   UNL A   1      33.110  30.094  26.786  1.00  0.00     0.045 A 
ATOM     13  C   UNL A   1      31.495  29.556  25.052  1.00  0.00    -0.004 A 
ATOM     14  Cl  UNL A   1      33.845  31.167  27.927  1.00  0.00    -0.084 Cl
ATOM     15  C   UNL A   1      33.706  28.841  26.630  1.00  0.00     0.032 A 
ATOM     16  C   UNL A   1      32.104  28.289  24.914  1.00  0.00     0.131 A 
ATOM     17  C   UNL A   1      30.330  29.882  24.149  1.00  0.00     0.049 C 
ATOM     18  C   UNL A   1      33.173  27.918  25.732  1.00  0.00     0.019 A 
ATOM     19  O   UNL A   1      31.592  27.459  23.953  1.00  0.00    -0.475 OA
ATOM     20  C   UNL A   1      33.676  26.558  25.704  1.00  0.00     0.027 C 
ATOM     21  C   UNL A   1      31.996  26.064  23.909  1.00  0.00     0.316 C 
BRANCH  21  22
ATOM     22  C   UNL A   1      30.743  25.193  24.065  1.00  0.00     0.430 C 
ATOM     23  F   UNL A   1      30.632  24.713  25.327  1.00  0.00    -0.167 F 
ATOM     24  F   UNL A   1      29.612  25.892  23.814  1.00  0.00    -0.167 F 
ATOM     25  F   UNL A   1      30.759  24.132  23.226  1.00  0.00    -0.167 F 
ENDBRANCH  21  22
ENDBRANCH   7   9
ENDBRANCH   6   7
ENDBRANCH   5   6
ENDBRANCH   4   5
ENDBRANCH   3   4
ENDBRANCH   2   3
ENDBRANCH   1   2
BRANCH   1  26
ATOM     26  O   UNL A   1      39.500  22.275  26.363  1.00  0.00    -0.376 OA
BRANCH  26  27
ATOM     27  C   UNL A   1      39.244  21.055  25.685  1.00  0.00     0.202 C 
BRANCH  27  28
ATOM     28  C   UNL A   1      39.850  19.680  26.032  1.00  0.00     0.261 C 
BRANCH  28  29
ATOM     29  O   UNL A   1      41.025  19.260  25.331  1.00  0.00    -0.460 OA
BRANCH  29  30
ATOM     30  C   UNL A   1      42.146  19.138  26.087  1.00  0.00     0.338 C 
ATOM     31  O   UNL A   1      42.749  18.118  26.361  1.00  0.00    -0.246 OA
BRANCH  30  32
ATOM     32  C   UNL A   1      42.663  20.489  26.382  1.00  0.00     0.060 A 
ATOM     33  C   UNL A   1      42.592  20.968  27.698  1.00  0.00     0.016 A 
ATOM     34  C   UNL A   1      43.191  21.284  25.364  1.00  0.00     0.016 A 
ATOM     35  C   UNL A   1      43.047  22.250  28.000  1.00  0.00     0.010 A 
ATOM     36  C   UNL A   1      43.617  22.581  25.663  1.00  0.00     0.010 A 
ATOM     37  C   UNL A   1      43.525  23.078  26.976  1.00  0.00    -0.014 A 
BRANCH  37  38
ATOM     38  C   UNL A   1      43.760  24.519  27.242  1.00  0.00     0.031 A 
ATOM     39  C   UNL A   1      45.152  25.058  27.070  1.00  0.00     0.074 A 
ATOM     40  C   UNL A   1      42.757  25.335  27.610  1.00  0.00     0.049 A 
ATOM     41  N   UNL A   1      45.614  26.259  27.309  1.00  0.00    -0.248 NA
ATOM     42  C   UNL A   1      46.161  24.117  26.556  1.00  0.00     0.031 C 
ATOM     43  C   UNL A   1      41.357  24.944  27.756  1.00  0.00     0.029 A 
ATOM     44  N   UNL A   1      42.770  26.670  27.936  1.00  0.00    -0.354 N 
ATOM     45  C   UNL A   1      46.960  26.216  26.976  1.00  0.00     0.074 A 
ATOM     46  C   UNL A   1      47.253  24.868  26.547  1.00  0.00     0.031 C 
ATOM     47  C   UNL A   1      40.646  26.013  28.153  1.00  0.00     0.029 A 
ATOM     48  C   UNL A   1      41.546  27.154  28.326  1.00  0.00     0.049 A 
ATOM     49  H   UNL A   1      43.581  27.227  27.894  1.00  0.00     0.167 HD
ATOM     50  C   UNL A   1      47.869  27.219  27.014  1.00  0.00     0.037 A 
ATOM     51  C   UNL A   1      41.200  28.372  28.792  1.00  0.00     0.037 A 
ATOM     52  C   UNL A   1      47.575  28.561  27.442  1.00  0.00     0.049 A 
ATOM     53  C   UNL A   1      42.255  29.444  28.917  1.00  0.00     0.074 A 
ATOM     54  C   UNL A   1      48.432  29.645  27.515  1.00  0.00     0.029 A 
ATOM     55  N   UNL A   1      46.333  29.002  27.869  1.00  0.00    -0.354 N 
ATOM     56  N   UNL A   1      43.524  29.401  28.593  1.00  0.00    -0.248 NA
ATOM     57  C   UNL A   1      41.827  30.739  29.472  1.00  0.00     0.031 C 
ATOM     58  C   UNL A   1      47.723  30.727  28.041  1.00  0.00     0.029 A 
ATOM     59  C   UNL A   1      46.408  30.337  28.232  1.00  0.00     0.049 A 
ATOM     60  H   UNL A   1      45.519  28.448  27.910  1.00  0.00     0.167 HD
ATOM     61  C   UNL A   1      44.036  30.664  28.870  1.00  0.00     0.074 A 
ATOM     62  C   UNL A   1      42.937  31.457  29.378  1.00  0.00     0.031 C 
ATOM     63  C   UNL A   1      45.302  31.123  28.716  1.00  0.00     0.037 A 
BRANCH  50  64
ATOM     64  C   UNL A   1      49.274  26.914  26.589  1.00  0.00     0.064 A 
ATOM     65  C   UNL A   1      50.230  26.449  27.504  1.00  0.00     0.173 A 
ATOM     66  C   UNL A   1      49.641  26.998  25.238  1.00  0.00     0.173 A 
ATOM     67  F   UNL A   1      49.933  26.367  28.809  1.00  0.00    -0.203 F 
ATOM     68  C   UNL A   1      51.503  26.077  27.079  1.00  0.00     0.198 A 
ATOM     69  C   UNL A   1      50.905  26.599  24.813  1.00  0.00     0.198 A 
ATOM     70  F   UNL A   1      48.761  27.436  24.324  1.00  0.00    -0.203 F 
ATOM     71  F   UNL A   1      52.408  25.655  27.972  1.00  0.00    -0.200 F 
ATOM     72  C   UNL A   1      51.834  26.139  25.733  1.00  0.00     0.200 A 
ATOM     73  F   UNL A   1      51.217  26.643  23.511  1.00  0.00    -0.200 F 
ATOM     74  F   UNL A   1      53.050  25.754  25.323  1.00  0.00    -0.200 F 
ENDBRANCH  50  64
BRANCH  51  75
ATOM     75  C   UNL A   1      39.792  28.648  29.186  1.00  0.00     0.064 A 
ATOM     76  C   UNL A   1      38.867  29.150  28.260  1.00  0.00     0.173 A 
ATOM     77  C   UNL A   1      39.346  28.441  30.501  1.00  0.00     0.173 A 
ATOM     78  F   UNL A   1      39.252  29.396  26.998  1.00  0.00    -0.203 F 
ATOM     79  C   UNL A   1      37.558  29.449  28.634  1.00  0.00     0.198 A 
ATOM     80  C   UNL A   1      38.028  28.708  30.866  1.00  0.00     0.198 A 
ATOM     81  F   UNL A   1      40.190  27.970  31.431  1.00  0.00    -0.203 F 
ATOM     82  F   UNL A   1      36.712  29.976  27.739  1.00  0.00    -0.200 F 
ATOM     83  C   UNL A   1      37.138  29.220  29.935  1.00  0.00     0.200 A 
ATOM     84  F   UNL A   1      37.623  28.476  32.122  1.00  0.00    -0.200 F 
ATOM     85  F   UNL A   1      35.878  29.503  30.294  1.00  0.00    -0.200 F 
ENDBRANCH  51  75
BRANCH  63  86
ATOM     86  C   UNL A   1      45.578  32.561  29.056  1.00  0.00     0.064 A 
ATOM     87  C   UNL A   1      45.395  33.588  28.120  1.00  0.00     0.173 A 
ATOM     88  C   UNL A   1      45.944  32.922  30.363  1.00  0.00     0.173 A 
ATOM     89  F   UNL A   1      45.053  33.296  26.856  1.00  0.00    -0.203 F 
ATOM     90  C   UNL A   1      45.584  34.922  28.474  1.00  0.00     0.198 A 
ATOM     91  C   UNL A   1      46.099  34.258  30.722  1.00  0.00     0.198 A 
ATOM     92  F   UNL A   1      46.120  31.980  31.301  1.00  0.00    -0.203 F 
ATOM     93  F   UNL A   1      45.438  35.884  27.553  1.00  0.00    -0.200 F 
ATOM     94  C   UNL A   1      45.923  35.256  29.777  1.00  0.00     0.200 A 
ATOM     95  F   UNL A   1      46.406  34.579  31.987  1.00  0.00    -0.200 F 
ATOM     96  F   UNL A   1      46.082  36.542  30.120  1.00  0.00    -0.200 F 
ENDBRANCH  63  86
ENDBRANCH  37  38
ENDBRANCH  30  32
ENDBRANCH  29  30
ENDBRANCH  28  29
ENDBRANCH  27  28
ENDBRANCH  26  27
ENDBRANCH   1  26
TORSDOF 18
ENDMDL
MODEL 2
REMARK VINA RESULT:     -11.2      5.339     11.006
REMARK SMILES Cc1c(Cl)cc2c(c1C)O[C@H](C(F)(F)F)C(C(=O)OCCOCCOCCOC(=O)c1ccc(-c3c4nc(c(-c5c(F)c(F)c(F)c(F)c5F)c5ccc([nH]5)c(-c5c(F)c(F)c(F)c(F)c5F)c5nc(c(-c6c(F)c(F)c(F)c(F)c6F)c6ccc3[nH]6)C=C5)C=C4)cc1)=C2
REMARK SMILES IDX 24 1 23 2 22 3 21 4 20 5 19 6 17 7 18 8 16 9 1 10 2 11 3 12
REMARK SMILES IDX 8 13 4 14 5 15 7 16 9 17 6 18 10 19 94 20 11 21 12 22 13 23
REMARK SMILES IDX 14 24 15 25 25 26 26 27 27 28 28 29 29 30 30 31 31 32 32 33
REMARK SMILES IDX 93 34 33 35 92 36 34 37 35 38 36 39 86 40 37 41 91 42 85 43
REMARK SMILES IDX 87 44 38 45 90 46 84 47 83 48 39 50 71 51 51 52 70 53 52 54
REMARK SMILES IDX 55 55 69 56 88 57 53 58 54 59 68 61 89 62 56 63 40 64 41 65
REMARK SMILES IDX 49 66 42 67 43 68 47 69 50 70 44 71 45 72 48 73 46 74 72 75
REMARK SMILES IDX 73 76 81 77 74 78 75 79 79 80 82 81 76 82 77 83 80 84 78 85
REMARK SMILES IDX 57 86 58 87 66 88 59 89 60 90 64 91 67 92 61 93 62 94 65 95
REMARK SMILES IDX 63 96
REMARK H PARENT 87 49 55 60
REMARK Flexibility Score: inf
ROOT
ATOM      1  C   UNL A   1      33.009  29.393  26.576  1.00  0.00     0.188 C 
ENDROOT
BRANCH   1   2
ATOM      2  C   UNL A   1      32.912  29.684  25.063  1.00  0.00     0.188 C 
BRANCH   2   3
ATOM      3  O   UNL A   1      31.830  29.187  24.304  1.00  0.00    -0.376 OA
BRANCH   3   4
ATOM      4  C   UNL A   1      30.943  28.222  24.845  1.00  0.00     0.202 C 
BRANCH   4   5
ATOM      5  C   UNL A   1      31.119  26.709  24.641  1.00  0.00     0.261 C 
BRANCH   5   6
ATOM      6  O   UNL A   1      32.336  26.149  25.152  1.00  0.00    -0.460 OA
BRANCH   6   7
ATOM      7  C   UNL A   1      33.262  25.833  24.216  1.00  0.00     0.338 C 
ATOM      8  O   UNL A   1      33.689  26.559  23.334  1.00  0.00    -0.246 OA
BRANCH   7   9
ATOM      9  C   UNL A   1      33.826  24.500  24.509  1.00  0.00     0.087 C 
ATOM     10  C   UNL A   1      37.772  19.362  25.003  1.00  0.00     0.046 C 
ATOM     11  C   UNL A   1      37.031  20.672  25.106  1.00  0.00    -0.026 A 
ATOM     12  C   UNL A   1      37.722  21.854  25.440  1.00  0.00     0.045 A 
ATOM     13  C   UNL A   1      35.631  20.745  24.893  1.00  0.00    -0.004 A 
ATOM     14  Cl  UNL A   1      39.400  21.855  25.863  1.00  0.00    -0.084 Cl
ATOM     15  C   UNL A   1      37.078  23.092  25.428  1.00  0.00     0.032 A 
ATOM     16  C   UNL A   1      34.996  22.007  24.876  1.00  0.00     0.131 A 
ATOM     17  C   UNL A   1      34.783  19.524  24.627  1.00  0.00     0.049 C 
ATOM     18  C   UNL A   1      35.727  23.176  25.095  1.00  0.00     0.019 A 
ATOM     19  O   UNL A   1      33.649  22.018  24.630  1.00  0.00    -0.475 OA
ATOM     20  C   UNL A   1      35.106  24.473  24.903  1.00  0.00     0.027 C 
ATOM     21  C   UNL A   1      32.972  23.274  24.357  1.00  0.00     0.316 C 
BRANCH  21  22
ATOM     22  C   UNL A   1      32.322  23.181  22.971  1.00  0.00     0.430 C 
ATOM     23  F   UNL A   1      32.257  21.897  22.544  1.00  0.00    -0.167 F 
ATOM     24  F   UNL A   1      31.053  23.652  22.978  1.00  0.00    -0.167 F 
ATOM     25  F   UNL A   1      33.010  23.884  22.043  1.00  0.00    -0.167 F 
ENDBRANCH  21  22
ENDBRANCH   7   9
ENDBRANCH   6   7
ENDBRANCH   5   6
ENDBRANCH   4   5
ENDBRANCH   3   4
ENDBRANCH   2   3
ENDBRANCH   1   2
BRANCH   1  26
ATOM     26  O   UNL A   1      33.112  30.476  27.466  1.00  0.00    -0.376 OA
BRANCH  26  27
ATOM     27  C   UNL A   1      32.420  31.687  27.203  1.00  0.00     0.202 C 
BRANCH  27  28
ATOM     28  C   UNL A   1      32.993  33.111  27.361  1.00  0.00     0.261 C 
BRANCH  28  29
ATOM     29  O   UNL A   1      32.206  34.086  28.052  1.00  0.00    -0.460 OA
BRANCH  29  30
ATOM     30  C   UNL A   1      32.901  35.105  28.620  1.00  0.00     0.338 C 
ATOM     31  O   UNL A   1      32.592  36.280  28.665  1.00  0.00    -0.246 OA
BRANCH  30  32
ATOM     32  C   UNL A   1      34.036  34.536  29.373  1.00  0.00     0.060 A 
ATOM     33  C   UNL A   1      35.319  34.593  28.809  1.00  0.00     0.016 A 
ATOM     34  C   UNL A   1      33.833  33.933  30.614  1.00  0.00     0.016 A 
ATOM     35  C   UNL A   1      36.405  34.040  29.484  1.00  0.00     0.010 A 
ATOM     36  C   UNL A   1      34.917  33.350  31.276  1.00  0.00     0.010 A 
ATOM     37  C   UNL A   1      36.203  33.380  30.704  1.00  0.00    -0.014 A 
BRANCH  37  38
ATOM     38  C   UNL A   1      37.295  32.568  31.293  1.00  0.00     0.031 A 
ATOM     39  C   UNL A   1      37.792  32.928  32.665  1.00  0.00     0.074 A 
ATOM     40  C   UNL A   1      37.824  31.522  30.633  1.00  0.00     0.049 A 
ATOM     41  N   UNL A   1      38.778  32.413  33.354  1.00  0.00    -0.248 NA
ATOM     42  C   UNL A   1      37.078  34.015  33.356  1.00  0.00     0.031 C 
ATOM     43  C   UNL A   1      37.391  31.041  29.324  1.00  0.00     0.029 A 
ATOM     44  N   UNL A   1      38.852  30.680  30.979  1.00  0.00    -0.354 N 
ATOM     45  C   UNL A   1      38.801  33.110  34.554  1.00  0.00     0.074 A 
ATOM     46  C   UNL A   1      37.755  34.105  34.492  1.00  0.00     0.031 C 
ATOM     47  C   UNL A   1      38.156  29.994  28.971  1.00  0.00     0.029 A 
ATOM     48  C   UNL A   1      39.156  29.754  30.012  1.00  0.00     0.049 A 
ATOM     49  H   UNL A   1      39.326  30.733  31.840  1.00  0.00     0.167 HD
ATOM     50  C   UNL A   1      39.618  32.926  35.617  1.00  0.00     0.037 A 
ATOM     51  C   UNL A   1      40.144  28.837  29.964  1.00  0.00     0.037 A 
ATOM     52  C   UNL A   1      40.660  31.936  35.677  1.00  0.00     0.049 A 
ATOM     53  C   UNL A   1      41.102  28.720  31.124  1.00  0.00     0.074 A 
ATOM     54  C   UNL A   1      41.540  31.676  36.713  1.00  0.00     0.029 A 
ATOM     55  N   UNL A   1      40.964  31.044  34.660  1.00  0.00    -0.354 N 
ATOM     56  N   UNL A   1      41.116  29.376  32.259  1.00  0.00    -0.248 NA
ATOM     57  C   UNL A   1      42.185  27.731  30.997  1.00  0.00     0.031 C 
ATOM     58  C   UNL A   1      42.413  30.667  36.302  1.00  0.00     0.029 A 
ATOM     59  C   UNL A   1      42.035  30.250  35.035  1.00  0.00     0.049 A 
ATOM     60  H   UNL A   1      40.490  30.986  33.798  1.00  0.00     0.167 HD
ATOM     61  C   UNL A   1      42.178  28.858  32.991  1.00  0.00     0.074 A 
ATOM     62  C   UNL A   1      42.781  27.824  32.177  1.00  0.00     0.031 C 
ATOM     63  C   UNL A   1      42.614  29.209  34.226  1.00  0.00     0.037 A 
BRANCH  50  64
ATOM     64  C   UNL A   1      39.433  33.815  36.811  1.00  0.00     0.064 A 
ATOM     65  C   UNL A   1      38.660  33.412  37.909  1.00  0.00     0.173 A 
ATOM     66  C   UNL A   1      40.112  35.040  36.896  1.00  0.00     0.173 A 
ATOM     67  F   UNL A   1      37.978  32.258  37.870  1.00  0.00    -0.203 F 
ATOM     68  C   UNL A   1      38.575  34.205  39.051  1.00  0.00     0.198 A 
ATOM     69  C   UNL A   1      40.047  35.815  38.050  1.00  0.00     0.198 A 
ATOM     70  F   UNL A   1      40.865  35.467  35.872  1.00  0.00    -0.203 F 
ATOM     71  F   UNL A   1      37.814  33.812  40.081  1.00  0.00    -0.200 F 
ATOM     72  C   UNL A   1      39.279  35.398  39.126  1.00  0.00     0.200 A 
ATOM     73  F   UNL A   1      40.742  36.958  38.126  1.00  0.00    -0.200 F 
ATOM     74  F   UNL A   1      39.219  36.145  40.237  1.00  0.00    -0.200 F 
ENDBRANCH  50  64
BRANCH  51  75
ATOM     75  C   UNL A   1      40.288  27.956  28.773  1.00  0.00     0.064 A 
ATOM     76  C   UNL A   1      41.041  28.359  27.662  1.00  0.00     0.173 A 
ATOM     77  C   UNL A   1      39.656  26.704  28.709  1.00  0.00     0.173 A 
ATOM     78  F   UNL A   1      41.640  29.560  27.661  1.00  0.00    -0.203 F 
ATOM     79  C   UNL A   1      41.145  27.555  26.528  1.00  0.00     0.198 A 
ATOM     80  C   UNL A   1      39.787  25.886  27.588  1.00  0.00     0.198 A 
ATOM     81  F   UNL A   1      38.914  26.271  29.739  1.00  0.00    -0.203 F 
ATOM     82  F   UNL A   1      41.830  27.990  25.462  1.00  0.00    -0.200 F 
ATOM     83  C   UNL A   1      40.524  26.316  26.496  1.00  0.00     0.200 A 
ATOM     84  F   UNL A   1      39.193  24.685  27.565  1.00  0.00    -0.200 F 
ATOM     85  F   UNL A   1      40.628  25.541  25.407  1.00  0.00    -0.200 F 
ENDBRANCH  51  75
BRANCH  63  86
ATOM     86  C   UNL A   1      43.773  28.449  34.808  1.00  0.00     0.064 A 
ATOM     87  C   UNL A   1      45.098  28.864  34.615  1.00  0.00     0.173 A 
ATOM     88  C   UNL A   1      43.547  27.344  35.644  1.00  0.00     0.173 A 
ATOM     89  F   UNL A   1      45.369  29.909  33.818  1.00  0.00    -0.203 F 
ATOM     90  C   UNL A   1      46.155  28.190  35.223  1.00  0.00     0.198 A 
ATOM     91  C   UNL A   1      44.602  26.695  36.278  1.00  0.00     0.198 A 
ATOM     92  F   UNL A   1      42.297  26.914  35.873  1.00  0.00    -0.203 F 
ATOM     93  F   UNL A   1      47.416  28.583  34.995  1.00  0.00    -0.200 F 
ATOM     94  C   UNL A   1      45.905  27.115  36.063  1.00  0.00     0.200 A 
ATOM     95  F   UNL A   1      44.356  25.669  37.105  1.00  0.00    -0.200 F 
ATOM     96  F   UNL A   1      46.922  26.483  36.665  1.00  0.00    -0.200 F 
ENDBRANCH  63  86
ENDBRANCH  37  38
ENDBRANCH  30  32
ENDBRANCH  29  30
ENDBRANCH  28  29
ENDBRANCH  27  28
ENDBRANCH  26  27
ENDBRANCH   1  26
TORSDOF 18
ENDMDL
MODEL 3
REMARK VINA RESULT:     -11.2      5.018     10.641
REMARK SMILES Cc1c(Cl)cc2c(c1C)O[C@H](C(F)(F)F)C(C(=O)OCCOCCOCCOC(=O)c1ccc(-c3c4nc(c(-c5c(F)c(F)c(F)c(F)c5F)c5ccc([nH]5)c(-c5c(F)c(F)c(F)c(F)c5F)c5nc(c(-c6c(F)c(F)c(F)c(F)c6F)c6ccc3[nH]6)C=C5)C=C4)cc1)=C2
REMARK SMILES IDX 24 1 23 2 22 3 21 4 20 5 19 6 17 7 18 8 16 9 1 10 2 11 3 12
REMARK SMILES IDX 8 13 4 14 5 15 7 16 9 17 6 18 10 19 94 20 11 21 12 22 13 23
REMARK SMILES IDX 14 24 15 25 25 26 26 27 27 28 28 29 29 30 30 31 31 32 32 33
REMARK SMILES IDX 93 34 33 35 92 36 34 37 35 38 36 39 86 40 37 41 91 42 85 43
REMARK SMILES IDX 87 44 38 45 90 46 84 47 83 48 39 50 71 51 51 52 70 53 52 54
REMARK SMILES IDX 55 55 69 56 88 57 53 58 54 59 68 61 89 62 56 63 40 64 41 65
REMARK SMILES IDX 49 66 42 67 43 68 47 69 50 70 44 71 45 72 48 73 46 74 72 75
REMARK SMILES IDX 73 76 81 77 74 78 75 79 79 80 82 81 76 82 77 83 80 84 78 85
REMARK SMILES IDX 57 86 58 87 66 88 59 89 60 90 64 91 67 92 61 93 62 94 65 95
REMARK SMILES IDX 63 96
REMARK H PARENT 87 49 55 60
REMARK Flexibility Score: inf
ROOT
ATOM      1  C   UNL A   1      33.390  30.605  27.246  1.00  0.00     0.188 C 
ENDROOT
BRANCH   1   2
ATOM      2  C   UNL A   1      33.927  29.173  27.041  1.00  0.00     0.188 C 
BRANCH   2   3
ATOM      3  O   UNL A   1      34.250  28.706  25.748  1.00  0.00    -0.376 OA
BRANCH   3   4
ATOM      4  C   UNL A   1      33.616  29.244  24.599  1.00  0.00     0.202 C 
BRANCH   4   5
ATOM      5  C   UNL A   1      32.277  28.720  24.054  1.00  0.00     0.261 C 
BRANCH   5   6
ATOM      6  O   UNL A   1      32.170  27.297  23.924  1.00  0.00    -0.460 OA
BRANCH   6   7
ATOM      7  C   UNL A   1      31.653  26.657  25.000  1.00  0.00     0.338 C 
ATOM      8  O   UNL A   1      30.721  27.026  25.693  1.00  0.00    -0.246 OA
BRANCH   7   9
ATOM      9  C   UNL A   1      32.283  25.329  25.135  1.00  0.00     0.087 C 
ATOM     10  C   UNL A   1      36.473  20.364  25.000  1.00  0.00     0.046 C 
ATOM     11  C   UNL A   1      35.674  21.618  25.259  1.00  0.00    -0.026 A 
ATOM     12  C   UNL A   1      36.316  22.788  25.712  1.00  0.00     0.045 A 
ATOM     13  C   UNL A   1      34.268  21.646  25.075  1.00  0.00    -0.004 A 
ATOM     14  Cl  UNL A   1      38.000  22.824  26.108  1.00  0.00    -0.084 Cl
ATOM     15  C   UNL A   1      35.614  23.987  25.846  1.00  0.00     0.032 A 
ATOM     16  C   UNL A   1      33.575  22.870  25.206  1.00  0.00     0.131 A 
ATOM     17  C   UNL A   1      33.473  20.423  24.687  1.00  0.00     0.049 C 
ATOM     18  C   UNL A   1      34.256  24.042  25.543  1.00  0.00     0.019 A 
ATOM     19  O   UNL A   1      32.225  22.843  24.983  1.00  0.00    -0.475 OA
ATOM     20  C   UNL A   1      33.571  25.320  25.505  1.00  0.00     0.027 C 
ATOM     21  C   UNL A   1      31.484  24.087  24.860  1.00  0.00     0.316 C 
BRANCH  21  22
ATOM     22  C   UNL A   1      30.813  24.115  23.482  1.00  0.00     0.430 C 
ATOM     23  F   UNL A   1      29.725  24.923  23.481  1.00  0.00    -0.167 F 
ATOM     24  F   UNL A   1      31.647  24.586  22.526  1.00  0.00    -0.167 F 
ATOM     25  F   UNL A   1      30.406  22.885  23.094  1.00  0.00    -0.167 F 
ENDBRANCH  21  22
ENDBRANCH   7   9
ENDBRANCH   6   7
ENDBRANCH   5   6
ENDBRANCH   4   5
ENDBRANCH   3   4
ENDBRANCH   2   3
ENDBRANCH   1   2
BRANCH   1  26
ATOM     26  O   UNL A   1      32.028  30.855  27.005  1.00  0.00    -0.376 OA
BRANCH  26  27
ATOM     27  C   UNL A   1      31.561  32.187  26.853  1.00  0.00     0.202 C 
BRANCH  27  28
ATOM     28  C   UNL A   1      32.399  33.468  27.041  1.00  0.00     0.261 C 
BRANCH  28  29
ATOM     29  O   UNL A   1      32.410  34.089  28.330  1.00  0.00    -0.460 OA
BRANCH  29  30
ATOM     30  C   UNL A   1      33.511  34.832  28.613  1.00  0.00     0.338 C 
ATOM     31  O   UNL A   1      33.586  36.042  28.704  1.00  0.00    -0.246 OA
BRANCH  30  32
ATOM     32  C   UNL A   1      34.605  33.920  29.002  1.00  0.00     0.060 A 
ATOM     33  C   UNL A   1      34.301  32.786  29.768  1.00  0.00     0.016 A 
ATOM     34  C   UNL A   1      35.922  34.196  28.633  1.00  0.00     0.016 A 
ATOM     35  C   UNL A   1      35.318  31.923  30.173  1.00  0.00     0.010 A 
ATOM     36  C   UNL A   1      36.944  33.347  29.067  1.00  0.00     0.010 A 
ATOM     37  C   UNL A   1      36.650  32.221  29.858  1.00  0.00    -0.014 A 
BRANCH  37  38
ATOM     38  C   UNL A   1      37.748  31.460  30.502  1.00  0.00     0.031 A 
ATOM     39  C   UNL A   1      38.074  31.756  31.939  1.00  0.00     0.074 A 
ATOM     40  C   UNL A   1      38.431  30.514  29.833  1.00  0.00     0.049 A 
ATOM     41  N   UNL A   1      39.031  31.274  32.691  1.00  0.00    -0.248 NA
ATOM     42  C   UNL A   1      37.201  32.725  32.623  1.00  0.00     0.031 C 
ATOM     43  C   UNL A   1      38.173  30.098  28.457  1.00  0.00     0.029 A 
ATOM     44  N   UNL A   1      39.492  29.736  30.227  1.00  0.00    -0.354 N 
ATOM     45  C   UNL A   1      38.874  31.879  33.930  1.00  0.00     0.074 A 
ATOM     46  C   UNL A   1      37.754  32.786  33.826  1.00  0.00     0.031 C 
ATOM     47  C   UNL A   1      39.060  29.147  28.116  1.00  0.00     0.029 A 
ATOM     48  C   UNL A   1      39.971  28.914  29.237  1.00  0.00     0.049 A 
ATOM     49  H   UNL A   1      39.874  29.765  31.134  1.00  0.00     0.167 HD
ATOM     50  C   UNL A   1      39.597  31.685  35.058  1.00  0.00     0.037 A 
ATOM     51  C   UNL A   1      41.038  28.089  29.232  1.00  0.00     0.037 A 
ATOM     52  C   UNL A   1      40.713  30.782  35.159  1.00  0.00     0.049 A 
ATOM     53  C   UNL A   1      41.885  27.965  30.474  1.00  0.00     0.074 A 
ATOM     54  C   UNL A   1      41.507  30.520  36.262  1.00  0.00     0.029 A 
ATOM     55  N   UNL A   1      41.193  29.998  34.123  1.00  0.00    -0.354 N 
ATOM     56  N   UNL A   1      41.729  28.533  31.645  1.00  0.00    -0.248 NA
ATOM     57  C   UNL A   1      43.060  27.082  30.395  1.00  0.00     0.031 C 
ATOM     58  C   UNL A   1      42.503  29.620  35.877  1.00  0.00     0.029 A 
ATOM     59  C   UNL A   1      42.290  29.270  34.554  1.00  0.00     0.049 A 
ATOM     60  H   UNL A   1      40.813  29.965  33.215  1.00  0.00     0.167 HD
ATOM     61  C   UNL A   1      42.757  28.051  32.447  1.00  0.00     0.074 A 
ATOM     62  C   UNL A   1      43.527  27.135  31.634  1.00  0.00     0.031 C 
ATOM     63  C   UNL A   1      43.037  28.344  33.741  1.00  0.00     0.037 A 
BRANCH  50  64
ATOM     64  C   UNL A   1      39.216  32.463  36.282  1.00  0.00     0.064 A 
ATOM     65  C   UNL A   1      38.318  31.947  37.227  1.00  0.00     0.173 A 
ATOM     66  C   UNL A   1      39.829  33.694  36.560  1.00  0.00     0.173 A 
ATOM     67  F   UNL A   1      37.693  30.782  37.000  1.00  0.00    -0.203 F 
ATOM     68  C   UNL A   1      38.048  32.637  38.406  1.00  0.00     0.198 A 
ATOM     69  C   UNL A   1      39.578  34.366  37.751  1.00  0.00     0.198 A 
ATOM     70  F   UNL A   1      40.697  34.228  35.687  1.00  0.00    -0.203 F 
ATOM     71  F   UNL A   1      37.170  32.136  39.286  1.00  0.00    -0.200 F 
ATOM     72  C   UNL A   1      38.688  33.838  38.674  1.00  0.00     0.200 A 
ATOM     73  F   UNL A   1      40.211  35.518  38.015  1.00  0.00    -0.200 F 
ATOM     74  F   UNL A   1      38.449  34.486  39.822  1.00  0.00    -0.200 F 
ENDBRANCH  50  64
BRANCH  51  75
ATOM     75  C   UNL A   1      41.376  27.314  28.006  1.00  0.00     0.064 A 
ATOM     76  C   UNL A   1      40.883  26.017  27.812  1.00  0.00     0.173 A 
ATOM     77  C   UNL A   1      42.219  27.843  27.016  1.00  0.00     0.173 A 
ATOM     78  F   UNL A   1      40.099  25.453  28.743  1.00  0.00    -0.203 F 
ATOM     79  C   UNL A   1      41.230  25.272  26.686  1.00  0.00     0.198 A 
ATOM     80  C   UNL A   1      42.539  27.112  25.875  1.00  0.00     0.198 A 
ATOM     81  F   UNL A   1      42.726  29.077  27.154  1.00  0.00    -0.203 F 
ATOM     82  F   UNL A   1      40.785  24.016  26.552  1.00  0.00    -0.200 F 
ATOM     83  C   UNL A   1      42.052  25.824  25.714  1.00  0.00     0.200 A 
ATOM     84  F   UNL A   1      43.325  27.652  24.933  1.00  0.00    -0.200 F 
ATOM     85  F   UNL A   1      42.382  25.109  24.629  1.00  0.00    -0.200 F 
ENDBRANCH  51  75
BRANCH  63  86
ATOM     86  C   UNL A   1      44.197  27.642  34.389  1.00  0.00     0.064 A 
ATOM     87  C   UNL A   1      44.055  26.384  34.991  1.00  0.00     0.173 A 
ATOM     88  C   UNL A   1      45.485  28.197  34.327  1.00  0.00     0.173 A 
ATOM     89  F   UNL A   1      42.844  25.813  35.085  1.00  0.00    -0.203 F 
ATOM     90  C   UNL A   1      45.156  25.715  35.521  1.00  0.00     0.198 A 
ATOM     91  C   UNL A   1      46.588  27.510  34.826  1.00  0.00     0.198 A 
ATOM     92  F   UNL A   1      45.679  29.392  33.750  1.00  0.00    -0.203 F 
ATOM     93  F   UNL A   1      44.990  24.529  36.123  1.00  0.00    -0.200 F 
ATOM     94  C   UNL A   1      46.422  26.273  35.427  1.00  0.00     0.200 A 
ATOM     95  F   UNL A   1      47.814  28.042  34.715  1.00  0.00    -0.200 F 
ATOM     96  F   UNL A   1      47.483  25.616  35.918  1.00  0.00    -0.200 F 
ENDBRANCH  63  86
ENDBRANCH  37  38
ENDBRANCH  30  32
ENDBRANCH  29  30
ENDBRANCH  28  29
ENDBRANCH  27  28
ENDBRANCH  26  27
ENDBRANCH   1  26
TORSDOF 18
ENDMDL
