MODEL 1
REMARK VINA RESULT:     -11.4      0.000      0.000
REMARK SMILES CCC[C@H]([NH2+]Cc1c(O)ccc2c(-c3ccccc3)cc(=O)oc12)C(=O)OCCOCCOCCOC(=O)c1ccc(-c2c3nc(c(-c4c(F)c(F)c(F)c(F)c4F)c4ccc([nH]4)c(-c4c(F)c(F)c(F)c(F)c4F)c4nc(c(-c5c(F)c(F)c(F)c(F)c5F)c5ccc2[nH]5)C=C4)C=C3)cc1
REMARK SMILES IDX 31 1 30 2 29 3 28 4 27 5 25 6 26 7 4 8 3 9 2 10 1 11 5 12
REMARK SMILES IDX 6 15 7 16 8 17 24 18 10 19 12 20 23 21 11 22 13 23 21 24
REMARK SMILES IDX 20 25 22 26 9 27 14 29 15 30 19 31 16 32 18 33 17 34 32 35
REMARK SMILES IDX 33 36 34 37 35 38 36 39 37 40 38 41 39 42 40 43 101 44 41 45
REMARK SMILES IDX 100 46 42 47 43 48 44 49 94 50 45 51 99 52 93 53 95 54 46 55
REMARK SMILES IDX 98 56 92 57 91 58 47 60 79 61 59 62 78 63 60 64 63 65 77 66
REMARK SMILES IDX 96 67 61 68 62 69 76 71 97 72 64 73 48 74 49 75 57 76 50 77
REMARK SMILES IDX 51 78 55 79 58 80 52 81 53 82 56 83 54 84 80 85 81 86 89 87
REMARK SMILES IDX 82 88 83 89 87 90 90 91 84 92 85 93 88 94 86 95 65 96 66 97
REMARK SMILES IDX 74 98 67 99 68 100 72 101 75 102 69 103 70 104 73 105 71 106
REMARK H PARENT 5 13 5 14 9 28 95 59 63 70
REMARK Flexibility Score: inf
ROOT
ATOM      1  C   UNL A   1      39.810  20.756  26.050  1.00  0.00     0.188 C 
ENDROOT
BRANCH   1   2
ATOM      2  O   UNL A   1      38.870  21.825  26.070  1.00  0.00    -0.376 OA
BRANCH   2   3
ATOM      3  C   UNL A   1      37.708  21.722  25.266  1.00  0.00     0.202 C 
BRANCH   3   4
ATOM      4  C   UNL A   1      36.485  22.465  25.829  1.00  0.00     0.261 C 
BRANCH   4   5
ATOM      5  O   UNL A   1      35.231  22.220  25.161  1.00  0.00    -0.459 OA
BRANCH   5   6
ATOM      6  C   UNL A   1      34.393  21.389  25.823  1.00  0.00     0.364 C 
ATOM      7  O   UNL A   1      34.336  21.336  27.054  1.00  0.00    -0.245 OA
BRANCH   6   8
ATOM      8  C   UNL A   1      33.478  20.482  24.984  1.00  0.00     0.293 C 
BRANCH   8   9
ATOM      9  C   UNL A   1      34.386  19.280  24.586  1.00  0.00     0.077 C 
BRANCH   9  10
ATOM     10  C   UNL A   1      33.689  17.921  24.546  1.00  0.00     0.003 C 
ATOM     11  C   UNL A   1      33.524  17.360  23.147  1.00  0.00     0.004 C 
ENDBRANCH   9  10
ENDBRANCH   8   9
BRANCH   8  12
ATOM     12  N   UNL A   1      32.793  20.888  23.736  1.00  0.00    -0.331 N 
ATOM     13  H   UNL A   1      32.327  20.044  23.404  1.00  0.00     0.347 HD
ATOM     14  H   UNL A   1      33.577  21.323  23.249  1.00  0.00     0.347 HD
BRANCH  12  15
ATOM     15  C   UNL A   1      31.804  21.947  23.592  1.00  0.00     0.306 C 
BRANCH  15  16
ATOM     16  C   UNL A   1      31.740  23.038  24.674  1.00  0.00     0.091 A 
ATOM     17  C   UNL A   1      31.044  22.938  25.885  1.00  0.00     0.128 A 
ATOM     18  C   UNL A   1      32.308  24.315  24.401  1.00  0.00     0.151 A 
ATOM     19  C   UNL A   1      30.928  24.028  26.760  1.00  0.00     0.047 A 
ATOM     20  C   UNL A   1      32.243  25.421  25.277  1.00  0.00     0.026 A 
ATOM     21  O   UNL A   1      32.914  24.478  23.132  1.00  0.00    -0.422 OA
ATOM     22  C   UNL A   1      31.522  25.259  26.458  1.00  0.00     0.016 A 
ATOM     23  C   UNL A   1      32.912  26.699  24.925  1.00  0.00    -0.000 A 
ATOM     24  C   UNL A   1      33.509  25.662  22.752  1.00  0.00     0.336 A 
ATOM     25  C   UNL A   1      33.550  26.736  23.743  1.00  0.00     0.103 A 
ATOM     26  O   UNL A   1      33.996  25.835  21.640  1.00  0.00    -0.246 OA
BRANCH  17  27
ATOM     27  O   UNL A   1      30.438  21.760  26.232  1.00  0.00    -0.507 OA
ATOM     28  H   UNL A   1      29.802  21.374  25.662  1.00  0.00     0.293 HD
ENDBRANCH  17  27
BRANCH  23  29
ATOM     29  C   UNL A   1      32.965  27.973  25.699  1.00  0.00    -0.017 A 
ATOM     30  C   UNL A   1      31.903  28.893  25.588  1.00  0.00     0.009 A 
ATOM     31  C   UNL A   1      34.044  28.311  26.527  1.00  0.00     0.009 A 
ATOM     32  C   UNL A   1      31.918  30.110  26.272  1.00  0.00     0.001 A 
ATOM     33  C   UNL A   1      34.047  29.523  27.234  1.00  0.00     0.001 A 
ATOM     34  C   UNL A   1      32.988  30.422  27.103  1.00  0.00     0.000 A 
ENDBRANCH  23  29
ENDBRANCH  15  16
ENDBRANCH  12  15
ENDBRANCH   8  12
ENDBRANCH   6   8
ENDBRANCH   5   6
ENDBRANCH   4   5
ENDBRANCH   3   4
ENDBRANCH   2   3
ENDBRANCH   1   2
BRANCH   1  35
ATOM     35  C   UNL A   1      41.291  21.046  26.299  1.00  0.00     0.188 C 
BRANCH  35  36
ATOM     36  O   UNL A   1      42.013  20.309  27.271  1.00  0.00    -0.376 OA
BRANCH  36  37
ATOM     37  C   UNL A   1      42.505  19.010  26.972  1.00  0.00     0.202 C 
BRANCH  37  38
ATOM     38  C   UNL A   1      43.086  18.752  25.584  1.00  0.00     0.261 C 
BRANCH  38  39
ATOM     39  O   UNL A   1      44.516  18.713  25.607  1.00  0.00    -0.460 OA
BRANCH  39  40
ATOM     40  C   UNL A   1      45.139  19.317  24.566  1.00  0.00     0.338 C 
ATOM     41  O   UNL A   1      45.570  18.813  23.542  1.00  0.00    -0.246 OA
BRANCH  40  42
ATOM     42  C   UNL A   1      45.033  20.765  24.796  1.00  0.00     0.060 A 
ATOM     43  C   UNL A   1      44.624  21.612  23.752  1.00  0.00     0.016 A 
ATOM     44  C   UNL A   1      45.305  21.263  26.066  1.00  0.00     0.016 A 
ATOM     45  C   UNL A   1      44.480  22.978  23.985  1.00  0.00     0.010 A 
ATOM     46  C   UNL A   1      45.188  22.627  26.289  1.00  0.00     0.010 A 
ATOM     47  C   UNL A   1      44.795  23.488  25.248  1.00  0.00    -0.014 A 
BRANCH  47  48
ATOM     48  C   UNL A   1      44.926  24.938  25.498  1.00  0.00     0.031 A 
ATOM     49  C   UNL A   1      46.298  25.528  25.382  1.00  0.00     0.074 A 
ATOM     50  C   UNL A   1      43.891  25.657  25.956  1.00  0.00     0.049 A 
ATOM     51  N   UNL A   1      46.763  26.652  25.856  1.00  0.00    -0.248 NA
ATOM     52  C   UNL A   1      47.291  24.714  24.660  1.00  0.00     0.031 C 
ATOM     53  C   UNL A   1      42.511  25.191  26.060  1.00  0.00     0.029 A 
ATOM     54  N   UNL A   1      43.862  26.928  26.472  1.00  0.00    -0.354 N 
ATOM     55  C   UNL A   1      48.109  26.667  25.515  1.00  0.00     0.074 A 
ATOM     56  C   UNL A   1      48.392  25.432  24.821  1.00  0.00     0.031 C 
ATOM     57  C   UNL A   1      41.772  26.151  26.645  1.00  0.00     0.029 A 
ATOM     58  C   UNL A   1      42.643  27.269  27.006  1.00  0.00     0.049 A 
ATOM     59  H   UNL A   1      44.637  27.535  26.461  1.00  0.00     0.167 HD
ATOM     60  C   UNL A   1      49.022  27.632  25.768  1.00  0.00     0.037 A 
ATOM     61  C   UNL A   1      42.297  28.341  27.744  1.00  0.00     0.037 A 
ATOM     62  C   UNL A   1      48.720  28.847  26.475  1.00  0.00     0.049 A 
ATOM     63  C   UNL A   1      43.354  29.364  28.088  1.00  0.00     0.074 A 
ATOM     64  C   UNL A   1      49.565  29.894  26.794  1.00  0.00     0.029 A 
ATOM     65  N   UNL A   1      47.467  29.171  26.977  1.00  0.00    -0.354 N 
ATOM     66  N   UNL A   1      44.627  29.385  27.768  1.00  0.00    -0.248 NA
ATOM     67  C   UNL A   1      42.927  30.511  28.901  1.00  0.00     0.031 C 
ATOM     68  C   UNL A   1      48.834  30.830  27.532  1.00  0.00     0.029 A 
ATOM     69  C   UNL A   1      47.519  30.400  27.611  1.00  0.00     0.049 A 
ATOM     70  H   UNL A   1      46.662  28.611  26.893  1.00  0.00     0.167 HD
ATOM     71  C   UNL A   1      45.135  30.568  28.290  1.00  0.00     0.074 A 
ATOM     72  C   UNL A   1      44.036  31.236  28.954  1.00  0.00     0.031 C 
ATOM     73  C   UNL A   1      46.396  31.063  28.223  1.00  0.00     0.037 A 
BRANCH  60  74
ATOM     74  C   UNL A   1      50.427  27.400  25.297  1.00  0.00     0.064 A 
ATOM     75  C   UNL A   1      50.819  27.686  23.980  1.00  0.00     0.173 A 
ATOM     76  C   UNL A   1      51.403  26.909  26.178  1.00  0.00     0.173 A 
ATOM     77  F   UNL A   1      49.920  28.139  23.092  1.00  0.00    -0.203 F 
ATOM     78  C   UNL A   1      52.127  27.466  23.556  1.00  0.00     0.198 A 
ATOM     79  C   UNL A   1      52.718  26.724  25.760  1.00  0.00     0.198 A 
ATOM     80  F   UNL A   1      51.083  26.615  27.447  1.00  0.00    -0.203 F 
ATOM     81  F   UNL A   1      52.463  27.696  22.280  1.00  0.00    -0.200 F 
ATOM     82  C   UNL A   1      53.076  26.994  24.449  1.00  0.00     0.200 A 
ATOM     83  F   UNL A   1      53.638  26.279  26.627  1.00  0.00    -0.200 F 
ATOM     84  F   UNL A   1      54.337  26.792  24.043  1.00  0.00    -0.200 F 
ENDBRANCH  60  74
BRANCH  61  85
ATOM     85  C   UNL A   1      40.899  28.508  28.225  1.00  0.00     0.064 A 
ATOM     86  C   UNL A   1      40.530  28.073  29.507  1.00  0.00     0.173 A 
ATOM     87  C   UNL A   1      39.898  29.058  27.412  1.00  0.00     0.173 A 
ATOM     88  F   UNL A   1      41.447  27.517  30.313  1.00  0.00    -0.203 F 
ATOM     89  C   UNL A   1      39.210  28.151  29.943  1.00  0.00     0.198 A 
ATOM     90  C   UNL A   1      38.582  29.168  27.863  1.00  0.00     0.198 A 
ATOM     91  F   UNL A   1      40.193  29.488  26.177  1.00  0.00    -0.203 F 
ATOM     92  F   UNL A   1      38.875  27.665  31.146  1.00  0.00    -0.200 F 
ATOM     93  C   UNL A   1      38.237  28.702  29.123  1.00  0.00     0.200 A 
ATOM     94  F   UNL A   1      37.648  29.710  27.072  1.00  0.00    -0.200 F 
ATOM     95  F   UNL A   1      36.966  28.769  29.540  1.00  0.00    -0.200 F 
ENDBRANCH  61  85
BRANCH  73  96
ATOM     96  C   UNL A   1      46.640  32.433  28.788  1.00  0.00     0.064 A 
ATOM     97  C   UNL A   1      46.483  33.596  28.023  1.00  0.00     0.173 A 
ATOM     98  C   UNL A   1      46.959  32.578  30.148  1.00  0.00     0.173 A 
ATOM     99  F   UNL A   1      46.190  33.511  26.716  1.00  0.00    -0.203 F 
ATOM    100  C   UNL A   1      46.653  34.855  28.594  1.00  0.00     0.198 A 
ATOM    101  C   UNL A   1      47.093  33.838  30.723  1.00  0.00     0.198 A 
ATOM    102  F   UNL A   1      47.110  31.495  30.927  1.00  0.00    -0.203 F 
ATOM    103  F   UNL A   1      46.536  35.954  27.836  1.00  0.00    -0.200 F 
ATOM    104  C   UNL A   1      46.945  34.974  29.945  1.00  0.00     0.200 A 
ATOM    105  F   UNL A   1      47.356  33.950  32.033  1.00  0.00    -0.200 F 
ATOM    106  F   UNL A   1      47.086  36.187  30.497  1.00  0.00    -0.200 F 
ENDBRANCH  73  96
ENDBRANCH  47  48
ENDBRANCH  40  42
ENDBRANCH  39  40
ENDBRANCH  38  39
ENDBRANCH  37  38
ENDBRANCH  36  37
ENDBRANCH  35  36
ENDBRANCH   1  35
TORSDOF 24
ENDMDL
MODEL 2
REMARK VINA RESULT:     -11.3      1.039      2.451
REMARK SMILES CCC[C@H]([NH2+]Cc1c(O)ccc2c(-c3ccccc3)cc(=O)oc12)C(=O)OCCOCCOCCOC(=O)c1ccc(-c2c3nc(c(-c4c(F)c(F)c(F)c(F)c4F)c4ccc([nH]4)c(-c4c(F)c(F)c(F)c(F)c4F)c4nc(c(-c5c(F)c(F)c(F)c(F)c5F)c5ccc2[nH]5)C=C4)C=C3)cc1
REMARK SMILES IDX 31 1 30 2 29 3 28 4 27 5 25 6 26 7 4 8 3 9 2 10 1 11 5 12
REMARK SMILES IDX 6 15 7 16 8 17 24 18 10 19 12 20 23 21 11 22 13 23 21 24
REMARK SMILES IDX 20 25 22 26 9 27 14 29 15 30 19 31 16 32 18 33 17 34 32 35
REMARK SMILES IDX 33 36 34 37 35 38 36 39 37 40 38 41 39 42 40 43 101 44 41 45
REMARK SMILES IDX 100 46 42 47 43 48 44 49 94 50 45 51 99 52 93 53 95 54 46 55
REMARK SMILES IDX 98 56 92 57 91 58 47 60 79 61 59 62 78 63 60 64 63 65 77 66
REMARK SMILES IDX 96 67 61 68 62 69 76 71 97 72 64 73 48 74 49 75 57 76 50 77
REMARK SMILES IDX 51 78 55 79 58 80 52 81 53 82 56 83 54 84 80 85 81 86 89 87
REMARK SMILES IDX 82 88 83 89 87 90 90 91 84 92 85 93 88 94 86 95 65 96 66 97
REMARK SMILES IDX 74 98 67 99 68 100 72 101 75 102 69 103 70 104 73 105 71 106
REMARK H PARENT 5 13 5 14 9 28 95 59 63 70
REMARK Flexibility Score: inf
ROOT
ATOM      1  C   UNL A   1      39.825  21.775  26.470  1.00  0.00     0.188 C 
ENDROOT
BRANCH   1   2
ATOM      2  O   UNL A   1      39.592  23.173  26.329  1.00  0.00    -0.376 OA
BRANCH   2   3
ATOM      3  C   UNL A   1      38.254  23.631  26.233  1.00  0.00     0.202 C 
BRANCH   3   4
ATOM      4  C   UNL A   1      37.443  22.976  25.102  1.00  0.00     0.261 C 
BRANCH   4   5
ATOM      5  O   UNL A   1      36.109  23.485  24.903  1.00  0.00    -0.459 OA
BRANCH   5   6
ATOM      6  C   UNL A   1      35.516  23.075  23.757  1.00  0.00     0.364 C 
ATOM      7  O   UNL A   1      36.118  22.991  22.683  1.00  0.00    -0.245 OA
BRANCH   6   8
ATOM      8  C   UNL A   1      34.027  22.697  23.821  1.00  0.00     0.293 C 
BRANCH   8   9
ATOM      9  C   UNL A   1      34.028  21.192  24.222  1.00  0.00     0.077 C 
BRANCH   9  10
ATOM     10  C   UNL A   1      34.097  20.916  25.723  1.00  0.00     0.003 C 
ATOM     11  C   UNL A   1      33.264  21.869  26.559  1.00  0.00     0.004 C 
ENDBRANCH   9  10
ENDBRANCH   8   9
BRANCH   8  12
ATOM     12  N   UNL A   1      33.075  22.803  22.693  1.00  0.00    -0.331 N 
ATOM     13  H   UNL A   1      32.537  21.938  22.720  1.00  0.00     0.347 HD
ATOM     14  H   UNL A   1      33.728  23.035  21.945  1.00  0.00     0.347 HD
BRANCH  12  15
ATOM     15  C   UNL A   1      32.089  23.855  22.484  1.00  0.00     0.306 C 
BRANCH  15  16
ATOM     16  C   UNL A   1      32.507  25.311  22.750  1.00  0.00     0.091 A 
ATOM     17  C   UNL A   1      33.114  26.163  21.819  1.00  0.00     0.128 A 
ATOM     18  C   UNL A   1      32.411  25.825  24.075  1.00  0.00     0.151 A 
ATOM     19  C   UNL A   1      33.582  27.435  22.180  1.00  0.00     0.047 A 
ATOM     20  C   UNL A   1      32.838  27.114  24.464  1.00  0.00     0.026 A 
ATOM     21  O   UNL A   1      31.912  24.939  25.060  1.00  0.00    -0.422 OA
ATOM     22  C   UNL A   1      33.446  27.905  23.491  1.00  0.00     0.016 A 
ATOM     23  C   UNL A   1      32.648  27.579  25.860  1.00  0.00    -0.000 A 
ATOM     24  C   UNL A   1      31.760  25.321  26.376  1.00  0.00     0.336 A 
ATOM     25  C   UNL A   1      32.074  26.709  26.710  1.00  0.00     0.103 A 
ATOM     26  O   UNL A   1      31.374  24.553  27.251  1.00  0.00    -0.246 OA
BRANCH  17  27
ATOM     27  O   UNL A   1      33.278  25.755  20.522  1.00  0.00    -0.507 OA
ATOM     28  H   UNL A   1      32.873  26.234  19.825  1.00  0.00     0.293 HD
ENDBRANCH  17  27
BRANCH  23  29
ATOM     29  C   UNL A   1      33.021  28.887  26.471  1.00  0.00    -0.017 A 
ATOM     30  C   UNL A   1      34.314  29.055  27.009  1.00  0.00     0.009 A 
ATOM     31  C   UNL A   1      32.131  29.967  26.555  1.00  0.00     0.009 A 
ATOM     32  C   UNL A   1      34.703  30.250  27.615  1.00  0.00     0.001 A 
ATOM     33  C   UNL A   1      32.531  31.177  27.140  1.00  0.00     0.001 A 
ATOM     34  C   UNL A   1      33.813  31.317  27.673  1.00  0.00     0.000 A 
ENDBRANCH  23  29
ENDBRANCH  15  16
ENDBRANCH  12  15
ENDBRANCH   8  12
ENDBRANCH   6   8
ENDBRANCH   5   6
ENDBRANCH   4   5
ENDBRANCH   3   4
ENDBRANCH   2   3
ENDBRANCH   1   2
BRANCH   1  35
ATOM     35  C   UNL A   1      41.260  21.247  26.492  1.00  0.00     0.188 C 
BRANCH  35  36
ATOM     36  O   UNL A   1      41.607  20.147  27.316  1.00  0.00    -0.376 OA
BRANCH  36  37
ATOM     37  C   UNL A   1      42.351  19.057  26.788  1.00  0.00     0.202 C 
BRANCH  37  38
ATOM     38  C   UNL A   1      42.927  19.182  25.379  1.00  0.00     0.261 C 
BRANCH  38  39
ATOM     39  O   UNL A   1      44.263  18.673  25.306  1.00  0.00    -0.460 OA
BRANCH  39  40
ATOM     40  C   UNL A   1      45.076  19.280  24.409  1.00  0.00     0.338 C 
ATOM     41  O   UNL A   1      45.657  18.788  23.455  1.00  0.00    -0.246 OA
BRANCH  40  42
ATOM     42  C   UNL A   1      44.986  20.724  24.668  1.00  0.00     0.060 A 
ATOM     43  C   UNL A   1      44.481  21.584  23.679  1.00  0.00     0.016 A 
ATOM     44  C   UNL A   1      45.370  21.205  25.917  1.00  0.00     0.016 A 
ATOM     45  C   UNL A   1      44.353  22.946  23.945  1.00  0.00     0.010 A 
ATOM     46  C   UNL A   1      45.269  22.564  26.170  1.00  0.00     0.010 A 
ATOM     47  C   UNL A   1      44.779  23.439  25.182  1.00  0.00    -0.014 A 
BRANCH  47  48
ATOM     48  C   UNL A   1      44.927  24.885  25.441  1.00  0.00     0.031 A 
ATOM     49  C   UNL A   1      46.305  25.462  25.321  1.00  0.00     0.074 A 
ATOM     50  C   UNL A   1      43.902  25.612  25.909  1.00  0.00     0.049 A 
ATOM     51  N   UNL A   1      46.784  26.577  25.800  1.00  0.00    -0.248 NA
ATOM     52  C   UNL A   1      47.285  24.643  24.589  1.00  0.00     0.031 C 
ATOM     53  C   UNL A   1      42.518  25.160  26.018  1.00  0.00     0.029 A 
ATOM     54  N   UNL A   1      43.889  26.880  26.434  1.00  0.00    -0.354 N 
ATOM     55  C   UNL A   1      48.128  26.581  25.452  1.00  0.00     0.074 A 
ATOM     56  C   UNL A   1      48.395  25.347  24.748  1.00  0.00     0.031 C 
ATOM     57  C   UNL A   1      41.793  26.124  26.613  1.00  0.00     0.029 A 
ATOM     58  C   UNL A   1      42.677  27.230  26.976  1.00  0.00     0.049 A 
ATOM     59  H   UNL A   1      44.671  27.479  26.422  1.00  0.00     0.167 HD
ATOM     60  C   UNL A   1      49.053  27.535  25.706  1.00  0.00     0.037 A 
ATOM     61  C   UNL A   1      42.346  28.301  27.723  1.00  0.00     0.037 A 
ATOM     62  C   UNL A   1      48.767  28.748  26.423  1.00  0.00     0.049 A 
ATOM     63  C   UNL A   1      43.416  29.310  28.068  1.00  0.00     0.074 A 
ATOM     64  C   UNL A   1      49.625  29.784  26.744  1.00  0.00     0.029 A 
ATOM     65  N   UNL A   1      47.520  29.082  26.933  1.00  0.00    -0.354 N 
ATOM     66  N   UNL A   1      44.687  29.320  27.742  1.00  0.00    -0.248 NA
ATOM     67  C   UNL A   1      43.006  30.456  28.892  1.00  0.00     0.031 C 
ATOM     68  C   UNL A   1      48.908  30.723  27.492  1.00  0.00     0.029 A 
ATOM     69  C   UNL A   1      47.588  30.306  27.576  1.00  0.00     0.049 A 
ATOM     70  H   UNL A   1      46.709  28.530  26.850  1.00  0.00     0.167 HD
ATOM     71  C   UNL A   1      45.210  30.495  28.269  1.00  0.00     0.074 A 
ATOM     72  C   UNL A   1      44.122  31.169  28.943  1.00  0.00     0.031 C 
ATOM     73  C   UNL A   1      46.476  30.977  28.198  1.00  0.00     0.037 A 
BRANCH  60  74
ATOM     74  C   UNL A   1      50.453  27.291  25.226  1.00  0.00     0.064 A 
ATOM     75  C   UNL A   1      51.444  26.777  26.076  1.00  0.00     0.173 A 
ATOM     76  C   UNL A   1      50.804  27.548  23.892  1.00  0.00     0.173 A 
ATOM     77  F   UNL A   1      51.166  26.533  27.366  1.00  0.00    -0.203 F 
ATOM     78  C   UNL A   1      52.739  26.555  25.617  1.00  0.00     0.198 A 
ATOM     79  C   UNL A   1      52.091  27.291  23.427  1.00  0.00     0.198 A 
ATOM     80  F   UNL A   1      49.897  28.042  23.036  1.00  0.00    -0.203 F 
ATOM     81  F   UNL A   1      53.682  26.116  26.462  1.00  0.00    -0.200 F 
ATOM     82  C   UNL A   1      53.059  26.804  24.291  1.00  0.00     0.200 A 
ATOM     83  F   UNL A   1      52.395  27.521  22.142  1.00  0.00    -0.200 F 
ATOM     84  F   UNL A   1      54.303  26.580  23.847  1.00  0.00    -0.200 F 
ENDBRANCH  60  74
BRANCH  61  85
ATOM     85  C   UNL A   1      40.953  28.479  28.213  1.00  0.00     0.064 A 
ATOM     86  C   UNL A   1      40.605  28.109  29.521  1.00  0.00     0.173 A 
ATOM     87  C   UNL A   1      39.936  28.976  27.386  1.00  0.00     0.173 A 
ATOM     88  F   UNL A   1      41.537  27.604  30.343  1.00  0.00    -0.203 F 
ATOM     89  C   UNL A   1      39.289  28.197  29.970  1.00  0.00     0.198 A 
ATOM     90  C   UNL A   1      38.625  29.097  27.848  1.00  0.00     0.198 A 
ATOM     91  F   UNL A   1      40.211  29.344  26.126  1.00  0.00    -0.203 F 
ATOM     92  F   UNL A   1      38.975  27.771  31.201  1.00  0.00    -0.200 F 
ATOM     93  C   UNL A   1      38.300  28.694  29.135  1.00  0.00     0.200 A 
ATOM     94  F   UNL A   1      37.675  29.587  27.042  1.00  0.00    -0.200 F 
ATOM     95  F   UNL A   1      37.034  28.770  29.565  1.00  0.00    -0.200 F 
ENDBRANCH  61  85
BRANCH  73  96
ATOM     96  C   UNL A   1      46.738  32.340  28.771  1.00  0.00     0.064 A 
ATOM     97  C   UNL A   1      47.216  32.523  30.075  1.00  0.00     0.173 A 
ATOM     98  C   UNL A   1      46.584  33.477  27.961  1.00  0.00     0.173 A 
ATOM     99  F   UNL A   1      47.369  31.470  30.893  1.00  0.00    -0.203 F 
ATOM    100  C   UNL A   1      47.511  33.797  30.555  1.00  0.00     0.198 A 
ATOM    101  C   UNL A   1      46.914  34.744  28.432  1.00  0.00     0.198 A 
ATOM    102  F   UNL A   1      46.140  33.354  26.700  1.00  0.00    -0.203 F 
ATOM    103  F   UNL A   1      47.930  33.954  31.819  1.00  0.00    -0.200 F 
ATOM    104  C   UNL A   1      47.372  34.903  29.729  1.00  0.00     0.200 A 
ATOM    105  F   UNL A   1      46.797  35.808  27.625  1.00  0.00    -0.200 F 
ATOM    106  F   UNL A   1      47.679  36.125  30.187  1.00  0.00    -0.200 F 
ENDBRANCH  73  96
ENDBRANCH  47  48
ENDBRANCH  40  42
ENDBRANCH  39  40
ENDBRANCH  38  39
ENDBRANCH  37  38
ENDBRANCH  36  37
ENDBRANCH  35  36
ENDBRANCH   1  35
TORSDOF 24
ENDMDL
MODEL 3
REMARK VINA RESULT:     -11.1      3.619      9.856
REMARK SMILES CCC[C@H]([NH2+]Cc1c(O)ccc2c(-c3ccccc3)cc(=O)oc12)C(=O)OCCOCCOCCOC(=O)c1ccc(-c2c3nc(c(-c4c(F)c(F)c(F)c(F)c4F)c4ccc([nH]4)c(-c4c(F)c(F)c(F)c(F)c4F)c4nc(c(-c5c(F)c(F)c(F)c(F)c5F)c5ccc2[nH]5)C=C4)C=C3)cc1
REMARK SMILES IDX 31 1 30 2 29 3 28 4 27 5 25 6 26 7 4 8 3 9 2 10 1 11 5 12
REMARK SMILES IDX 6 15 7 16 8 17 24 18 10 19 12 20 23 21 11 22 13 23 21 24
REMARK SMILES IDX 20 25 22 26 9 27 14 29 15 30 19 31 16 32 18 33 17 34 32 35
REMARK SMILES IDX 33 36 34 37 35 38 36 39 37 40 38 41 39 42 40 43 101 44 41 45
REMARK SMILES IDX 100 46 42 47 43 48 44 49 94 50 45 51 99 52 93 53 95 54 46 55
REMARK SMILES IDX 98 56 92 57 91 58 47 60 79 61 59 62 78 63 60 64 63 65 77 66
REMARK SMILES IDX 96 67 61 68 62 69 76 71 97 72 64 73 48 74 49 75 57 76 50 77
REMARK SMILES IDX 51 78 55 79 58 80 52 81 53 82 56 83 54 84 80 85 81 86 89 87
REMARK SMILES IDX 82 88 83 89 87 90 90 91 84 92 85 93 88 94 86 95 65 96 66 97
REMARK SMILES IDX 74 98 67 99 68 100 72 101 75 102 69 103 70 104 73 105 71 106
REMARK H PARENT 5 13 5 14 9 28 95 59 63 70
REMARK Flexibility Score: inf
ROOT
ATOM      1  C   UNL A   1      34.739  32.666  29.456  1.00  0.00     0.188 C 
ENDROOT
BRANCH   1   2
ATOM      2  O   UNL A   1      34.032  32.048  28.387  1.00  0.00    -0.376 OA
BRANCH   2   3
ATOM      3  C   UNL A   1      34.595  30.900  27.774  1.00  0.00     0.202 C 
BRANCH   3   4
ATOM      4  C   UNL A   1      33.620  30.127  26.870  1.00  0.00     0.261 C 
BRANCH   4   5
ATOM      5  O   UNL A   1      32.337  29.809  27.446  1.00  0.00    -0.459 OA
BRANCH   5   6
ATOM      6  C   UNL A   1      31.907  28.550  27.202  1.00  0.00     0.364 C 
ATOM      7  O   UNL A   1      31.222  27.908  28.004  1.00  0.00    -0.245 OA
BRANCH   6   8
ATOM      8  C   UNL A   1      32.298  27.911  25.860  1.00  0.00     0.293 C 
BRANCH   8   9
ATOM      9  C   UNL A   1      30.954  27.799  25.080  1.00  0.00     0.077 C 
BRANCH   9  10
ATOM     10  C   UNL A   1      30.330  26.405  25.050  1.00  0.00     0.003 C 
ATOM     11  C   UNL A   1      30.224  25.813  23.657  1.00  0.00     0.004 C 
ENDBRANCH   9  10
ENDBRANCH   8   9
BRANCH   8  12
ATOM     12  N   UNL A   1      32.952  26.592  25.705  1.00  0.00    -0.331 N 
ATOM     13  H   UNL A   1      32.197  25.947  25.477  1.00  0.00     0.347 HD
ATOM     14  H   UNL A   1      33.472  26.560  26.582  1.00  0.00     0.347 HD
BRANCH  12  15
ATOM     15  C   UNL A   1      34.026  26.258  24.779  1.00  0.00     0.306 C 
BRANCH  15  16
ATOM     16  C   UNL A   1      33.889  24.982  23.932  1.00  0.00     0.091 A 
ATOM     17  C   UNL A   1      33.646  24.948  22.553  1.00  0.00     0.128 A 
ATOM     18  C   UNL A   1      33.866  23.718  24.587  1.00  0.00     0.151 A 
ATOM     19  C   UNL A   1      33.405  23.742  21.879  1.00  0.00     0.047 A 
ATOM     20  C   UNL A   1      33.665  22.483  23.933  1.00  0.00     0.026 A 
ATOM     21  O   UNL A   1      33.990  23.737  25.998  1.00  0.00    -0.422 OA
ATOM     22  C   UNL A   1      33.414  22.520  22.563  1.00  0.00     0.016 A 
ATOM     23  C   UNL A   1      33.710  21.211  24.697  1.00  0.00    -0.000 A 
ATOM     24  C   UNL A   1      33.994  22.579  26.746  1.00  0.00     0.336 A 
ATOM     25  C   UNL A   1      33.932  21.313  26.018  1.00  0.00     0.103 A 
ATOM     26  O   UNL A   1      34.054  22.579  27.971  1.00  0.00    -0.246 OA
BRANCH  17  27
ATOM     27  O   UNL A   1      33.621  26.111  21.832  1.00  0.00    -0.507 OA
ATOM     28  H   UNL A   1      32.915  26.279  21.238  1.00  0.00     0.293 HD
ENDBRANCH  17  27
BRANCH  23  29
ATOM     29  C   UNL A   1      33.526  19.815  24.204  1.00  0.00    -0.017 A 
ATOM     30  C   UNL A   1      34.408  18.807  24.641  1.00  0.00     0.009 A 
ATOM     31  C   UNL A   1      32.516  19.457  23.301  1.00  0.00     0.009 A 
ATOM     32  C   UNL A   1      34.294  17.491  24.190  1.00  0.00     0.001 A 
ATOM     33  C   UNL A   1      32.386  18.130  22.866  1.00  0.00     0.001 A 
ATOM     34  C   UNL A   1      33.276  17.150  23.307  1.00  0.00     0.000 A 
ENDBRANCH  23  29
ENDBRANCH  15  16
ENDBRANCH  12  15
ENDBRANCH   8  12
ENDBRANCH   6   8
ENDBRANCH   5   6
ENDBRANCH   4   5
ENDBRANCH   3   4
ENDBRANCH   2   3
ENDBRANCH   1   2
BRANCH   1  35
ATOM     35  C   UNL A   1      34.224  33.981  30.044  1.00  0.00     0.188 C 
BRANCH  35  36
ATOM     36  O   UNL A   1      34.498  34.320  31.392  1.00  0.00    -0.376 OA
BRANCH  36  37
ATOM     37  C   UNL A   1      34.288  33.374  32.431  1.00  0.00     0.202 C 
BRANCH  37  38
ATOM     38  C   UNL A   1      35.423  33.110  33.418  1.00  0.00     0.261 C 
BRANCH  38  39
ATOM     39  O   UNL A   1      36.055  31.850  33.173  1.00  0.00    -0.460 OA
BRANCH  39  40
ATOM     40  C   UNL A   1      37.233  31.647  33.812  1.00  0.00     0.338 C 
ATOM     41  O   UNL A   1      37.458  31.654  35.012  1.00  0.00    -0.246 OA
BRANCH  40  42
ATOM     42  C   UNL A   1      38.195  31.209  32.792  1.00  0.00     0.060 A 
ATOM     43  C   UNL A   1      39.414  30.629  33.182  1.00  0.00     0.016 A 
ATOM     44  C   UNL A   1      37.856  31.345  31.449  1.00  0.00     0.016 A 
ATOM     45  C   UNL A   1      40.305  30.172  32.212  1.00  0.00     0.010 A 
ATOM     46  C   UNL A   1      38.756  30.916  30.485  1.00  0.00     0.010 A 
ATOM     47  C   UNL A   1      39.987  30.347  30.862  1.00  0.00    -0.014 A 
BRANCH  47  48
ATOM     48  C   UNL A   1      40.980  30.139  29.789  1.00  0.00     0.031 A 
ATOM     49  C   UNL A   1      41.054  28.771  29.183  1.00  0.00     0.074 A 
ATOM     50  C   UNL A   1      41.875  31.090  29.483  1.00  0.00     0.049 A 
ATOM     51  N   UNL A   1      42.014  28.217  28.494  1.00  0.00    -0.248 NA
ATOM     52  C   UNL A   1      39.894  27.896  29.424  1.00  0.00     0.031 C 
ATOM     53  C   UNL A   1      41.862  32.464  29.979  1.00  0.00     0.029 A 
ATOM     54  N   UNL A   1      43.009  31.017  28.712  1.00  0.00    -0.354 N 
ATOM     55  C   UNL A   1      41.588  26.921  28.242  1.00  0.00     0.074 A 
ATOM     56  C   UNL A   1      40.298  26.761  28.875  1.00  0.00     0.031 C 
ATOM     57  C   UNL A   1      42.960  33.097  29.531  1.00  0.00     0.029 A 
ATOM     58  C   UNL A   1      43.777  32.154  28.769  1.00  0.00     0.049 A 
ATOM     59  H   UNL A   1      43.246  30.229  28.173  1.00  0.00     0.167 HD
ATOM     60  C   UNL A   1      42.225  25.953  27.546  1.00  0.00     0.037 A 
ATOM     61  C   UNL A   1      45.019  32.376  28.299  1.00  0.00     0.037 A 
ATOM     62  C   UNL A   1      43.516  26.130  26.938  1.00  0.00     0.049 A 
ATOM     63  C   UNL A   1      45.748  31.253  27.600  1.00  0.00     0.074 A 
ATOM     64  C   UNL A   1      44.262  25.221  26.212  1.00  0.00     0.029 A 
ATOM     65  N   UNL A   1      44.253  27.306  26.992  1.00  0.00    -0.354 N 
ATOM     66  N   UNL A   1      45.350  30.026  27.358  1.00  0.00    -0.248 NA
ATOM     67  C   UNL A   1      47.103  31.545  27.111  1.00  0.00     0.031 C 
ATOM     68  C   UNL A   1      45.473  25.829  25.869  1.00  0.00     0.029 A 
ATOM     69  C   UNL A   1      45.451  27.140  26.320  1.00  0.00     0.049 A 
ATOM     70  H   UNL A   1      43.966  28.133  27.442  1.00  0.00     0.167 HD
ATOM     71  C   UNL A   1      46.378  29.422  26.643  1.00  0.00     0.074 A 
ATOM     72  C   UNL A   1      47.421  30.414  26.497  1.00  0.00     0.031 C 
ATOM     73  C   UNL A   1      46.452  28.162  26.148  1.00  0.00     0.037 A 
BRANCH  60  74
ATOM     74  C   UNL A   1      41.547  24.620  27.426  1.00  0.00     0.064 A 
ATOM     75  C   UNL A   1      40.424  24.437  26.604  1.00  0.00     0.173 A 
ATOM     76  C   UNL A   1      42.039  23.505  28.121  1.00  0.00     0.173 A 
ATOM     77  F   UNL A   1      39.902  25.476  25.934  1.00  0.00    -0.203 F 
ATOM     78  C   UNL A   1      39.805  23.195  26.502  1.00  0.00     0.198 A 
ATOM     79  C   UNL A   1      41.438  22.256  27.989  1.00  0.00     0.198 A 
ATOM     80  F   UNL A   1      43.108  23.624  28.923  1.00  0.00    -0.203 F 
ATOM     81  F   UNL A   1      38.702  23.058  25.754  1.00  0.00    -0.200 F 
ATOM     82  C   UNL A   1      40.317  22.104  27.188  1.00  0.00     0.200 A 
ATOM     83  F   UNL A   1      41.942  21.200  28.642  1.00  0.00    -0.200 F 
ATOM     84  F   UNL A   1      39.726  20.906  27.080  1.00  0.00    -0.200 F 
ENDBRANCH  60  74
BRANCH  61  85
ATOM     85  C   UNL A   1      45.669  33.702  28.478  1.00  0.00     0.064 A 
ATOM     86  C   UNL A   1      46.526  33.935  29.564  1.00  0.00     0.173 A 
ATOM     87  C   UNL A   1      45.420  34.773  27.606  1.00  0.00     0.173 A 
ATOM     88  F   UNL A   1      46.776  32.951  30.440  1.00  0.00    -0.203 F 
ATOM     89  C   UNL A   1      47.081  35.192  29.790  1.00  0.00     0.198 A 
ATOM     90  C   UNL A   1      46.004  36.022  27.814  1.00  0.00     0.198 A 
ATOM     91  F   UNL A   1      44.607  34.608  26.553  1.00  0.00    -0.203 F 
ATOM     92  F   UNL A   1      47.841  35.402  30.873  1.00  0.00    -0.200 F 
ATOM     93  C   UNL A   1      46.823  36.235  28.913  1.00  0.00     0.200 A 
ATOM     94  F   UNL A   1      45.760  37.023  26.959  1.00  0.00    -0.200 F 
ATOM     95  F   UNL A   1      47.350  37.446  29.135  1.00  0.00    -0.200 F 
ENDBRANCH  61  85
BRANCH  73  96
ATOM     96  C   UNL A   1      47.649  27.808  25.312  1.00  0.00     0.064 A 
ATOM     97  C   UNL A   1      48.852  27.368  25.879  1.00  0.00     0.173 A 
ATOM     98  C   UNL A   1      47.552  27.834  23.911  1.00  0.00     0.173 A 
ATOM     99  F   UNL A   1      48.999  27.336  27.213  1.00  0.00    -0.203 F 
ATOM    100  C   UNL A   1      49.922  26.985  25.075  1.00  0.00     0.198 A 
ATOM    101  C   UNL A   1      48.611  27.418  23.111  1.00  0.00     0.198 A 
ATOM    102  F   UNL A   1      46.417  28.238  23.319  1.00  0.00    -0.203 F 
ATOM    103  F   UNL A   1      51.078  26.604  25.637  1.00  0.00    -0.200 F 
ATOM    104  C   UNL A   1      49.796  26.998  23.693  1.00  0.00     0.200 A 
ATOM    105  F   UNL A   1      48.479  27.413  21.777  1.00  0.00    -0.200 F 
ATOM    106  F   UNL A   1      50.820  26.607  22.921  1.00  0.00    -0.200 F 
ENDBRANCH  73  96
ENDBRANCH  47  48
ENDBRANCH  40  42
ENDBRANCH  39  40
ENDBRANCH  38  39
ENDBRANCH  37  38
ENDBRANCH  36  37
ENDBRANCH  35  36
ENDBRANCH   1  35
TORSDOF 24
ENDMDL
