MODEL 1
REMARK VINA RESULT:     -11.8      0.000      0.000
REMARK SMILES O=C(C[C@H]1C[C@H]2CC[C@@H](C1)N2C(=O)c1c[nH]c(=O)[nH]1)OCCOCCOCCOC(=O)c1ccc(-c2c3nc(c(-c4c(F)c(F)c(F)c(F)c4F)c4ccc([nH]4)c(-c4c(F)c(F)c(F)c(F)c4F)c4nc(c(-c5c(F)c(F)c(F)c(F)c5F)c5ccc2[nH]5)C=C4)C=C3)cc1
REMARK SMILES IDX 24 1 23 2 22 3 21 4 20 5 2 6 1 7 3 8 4 9 5 10 10 11 6 12
REMARK SMILES IDX 9 13 7 14 11 15 8 16 12 17 13 18 14 19 15 20 19 21 16 22
REMARK SMILES IDX 17 23 18 26 25 27 26 28 27 29 28 30 29 31 30 32 31 33 32 34
REMARK SMILES IDX 33 35 94 36 34 37 93 38 35 39 36 40 37 41 87 42 38 43 92 44
REMARK SMILES IDX 86 45 88 46 39 47 91 48 85 49 84 50 40 52 72 53 52 54 71 55
REMARK SMILES IDX 53 56 56 57 70 58 89 59 54 60 55 61 69 63 90 64 57 65 41 66
REMARK SMILES IDX 42 67 50 68 43 69 44 70 48 71 51 72 45 73 46 74 49 75 47 76
REMARK SMILES IDX 73 77 74 78 82 79 75 80 76 81 80 82 83 83 77 84 78 85 81 86
REMARK SMILES IDX 79 87 58 88 59 89 67 90 60 91 61 92 65 93 68 94 62 95 63 96
REMARK SMILES IDX 66 97 64 98
REMARK H PARENT 19 24 16 25 88 51 56 62
REMARK Flexibility Score: inf
ROOT
ATOM      1  C   UNL A   1      29.330  27.718  23.197  1.00  0.00     0.188 C 
ENDROOT
BRANCH   1   2
ATOM      2  O   UNL A   1      29.004  26.540  23.910  1.00  0.00    -0.376 OA
BRANCH   2   3
ATOM      3  C   UNL A   1      30.110  25.802  24.391  1.00  0.00     0.202 C 
BRANCH   3   4
ATOM      4  C   UNL A   1      30.386  25.966  25.882  1.00  0.00     0.261 C 
BRANCH   4   5
ATOM      5  O   UNL A   1      30.108  24.813  26.754  1.00  0.00    -0.463 OA
BRANCH   5   6
ATOM      6  C   UNL A   1      30.200  23.478  26.873  1.00  0.00     0.306 C 
ATOM      7  O   UNL A   1      29.533  22.923  27.750  1.00  0.00    -0.252 OA
BRANCH   6   8
ATOM      8  C   UNL A   1      31.119  22.639  26.028  1.00  0.00     0.126 C 
BRANCH   8   9
ATOM      9  C   UNL A   1      32.628  22.890  26.039  1.00  0.00     0.004 C 
ATOM     10  C   UNL A   1      33.600  21.714  26.340  1.00  0.00     0.029 C 
ATOM     11  C   UNL A   1      33.069  23.642  24.801  1.00  0.00     0.029 C 
ATOM     12  C   UNL A   1      34.317  21.116  25.094  1.00  0.00     0.086 C 
ATOM     13  C   UNL A   1      33.541  22.749  23.641  1.00  0.00     0.086 C 
ATOM     14  C   UNL A   1      33.261  20.391  24.253  1.00  0.00     0.027 C 
ATOM     15  N   UNL A   1      34.747  22.195  24.196  1.00  0.00    -0.331 N 
ATOM     16  C   UNL A   1      32.893  21.430  23.190  1.00  0.00     0.027 C 
BRANCH  15  17
ATOM     17  C   UNL A   1      36.020  22.531  23.797  1.00  0.00     0.272 C 
ATOM     18  O   UNL A   1      36.299  22.959  22.685  1.00  0.00    -0.267 OA
BRANCH  17  19
ATOM     19  C   UNL A   1      37.056  22.421  24.872  1.00  0.00     0.125 A 
ATOM     20  C   UNL A   1      37.464  23.364  25.739  1.00  0.00     0.119 A 
ATOM     21  N   UNL A   1      37.904  21.341  24.977  1.00  0.00    -0.302 N 
ATOM     22  N   UNL A   1      38.586  22.908  26.387  1.00  0.00    -0.312 N 
ATOM     23  C   UNL A   1      38.890  21.622  25.924  1.00  0.00     0.323 A 
ATOM     24  H   UNL A   1      37.827  20.504  24.465  1.00  0.00     0.172 HD
ATOM     25  H   UNL A   1      39.094  23.405  27.068  1.00  0.00     0.171 HD
ATOM     26  O   UNL A   1      39.836  20.924  26.256  1.00  0.00    -0.248 OA
ENDBRANCH  17  19
ENDBRANCH  15  17
ENDBRANCH   8   9
ENDBRANCH   6   8
ENDBRANCH   5   6
ENDBRANCH   4   5
ENDBRANCH   3   4
ENDBRANCH   2   3
ENDBRANCH   1   2
BRANCH   1  27
ATOM     27  C   UNL A   1      30.824  27.886  22.826  1.00  0.00     0.188 C 
BRANCH  27  28
ATOM     28  O   UNL A   1      31.543  29.028  23.261  1.00  0.00    -0.376 OA
BRANCH  28  29
ATOM     29  C   UNL A   1      31.402  29.461  24.603  1.00  0.00     0.202 C 
BRANCH  29  30
ATOM     30  C   UNL A   1      32.650  29.888  25.402  1.00  0.00     0.261 C 
BRANCH  30  31
ATOM     31  O   UNL A   1      32.439  30.283  26.775  1.00  0.00    -0.460 OA
BRANCH  31  32
ATOM     32  C   UNL A   1      33.007  31.453  27.177  1.00  0.00     0.338 C 
ATOM     33  O   UNL A   1      32.460  32.539  27.249  1.00  0.00    -0.246 OA
BRANCH  32  34
ATOM     34  C   UNL A   1      34.359  31.192  27.755  1.00  0.00     0.060 A 
ATOM     35  C   UNL A   1      34.745  29.863  28.023  1.00  0.00     0.016 A 
ATOM     36  C   UNL A   1      35.260  32.228  27.996  1.00  0.00     0.016 A 
ATOM     37  C   UNL A   1      36.011  29.573  28.546  1.00  0.00     0.010 A 
ATOM     38  C   UNL A   1      36.511  31.940  28.562  1.00  0.00     0.010 A 
ATOM     39  C   UNL A   1      36.886  30.616  28.866  1.00  0.00    -0.014 A 
BRANCH  39  40
ATOM     40  C   UNL A   1      38.091  30.369  29.708  1.00  0.00     0.031 A 
ATOM     41  C   UNL A   1      39.142  29.430  29.175  1.00  0.00     0.074 A 
ATOM     42  C   UNL A   1      38.250  30.921  30.925  1.00  0.00     0.049 A 
ATOM     43  N   UNL A   1      40.180  28.910  29.777  1.00  0.00    -0.248 NA
ATOM     44  C   UNL A   1      38.992  29.017  27.769  1.00  0.00     0.031 C 
ATOM     45  C   UNL A   1      37.353  31.896  31.540  1.00  0.00     0.029 A 
ATOM     46  N   UNL A   1      39.220  30.708  31.880  1.00  0.00    -0.354 N 
ATOM     47  C   UNL A   1      40.787  28.085  28.837  1.00  0.00     0.074 A 
ATOM     48  C   UNL A   1      40.002  28.171  27.625  1.00  0.00     0.031 C 
ATOM     49  C   UNL A   1      37.789  32.165  32.785  1.00  0.00     0.029 A 
ATOM     50  C   UNL A   1      38.968  31.345  33.073  1.00  0.00     0.049 A 
ATOM     51  H   UNL A   1      40.018  30.154  31.724  1.00  0.00     0.167 HD
ATOM     52  C   UNL A   1      41.893  27.319  28.977  1.00  0.00     0.037 A 
ATOM     53  C   UNL A   1      39.583  31.237  34.270  1.00  0.00     0.037 A 
ATOM     54  C   UNL A   1      42.688  27.248  30.174  1.00  0.00     0.049 A 
ATOM     55  C   UNL A   1      40.768  30.309  34.421  1.00  0.00     0.074 A 
ATOM     56  C   UNL A   1      43.860  26.542  30.386  1.00  0.00     0.029 A 
ATOM     57  N   UNL A   1      42.386  27.892  31.362  1.00  0.00    -0.354 N 
ATOM     58  N   UNL A   1      41.359  29.563  33.519  1.00  0.00    -0.248 NA
ATOM     59  C   UNL A   1      41.367  30.201  35.762  1.00  0.00     0.031 C 
ATOM     60  C   UNL A   1      44.225  26.697  31.725  1.00  0.00     0.029 A 
ATOM     61  C   UNL A   1      43.323  27.557  32.327  1.00  0.00     0.049 A 
ATOM     62  H   UNL A   1      41.623  28.498  31.500  1.00  0.00     0.167 HD
ATOM     63  C   UNL A   1      42.406  28.924  34.174  1.00  0.00     0.074 A 
ATOM     64  C   UNL A   1      42.388  29.384  35.544  1.00  0.00     0.031 C 
ATOM     65  C   UNL A   1      43.301  28.030  33.686  1.00  0.00     0.037 A 
BRANCH  52  66
ATOM     66  C   UNL A   1      42.305  26.451  27.824  1.00  0.00     0.064 A 
ATOM     67  C   UNL A   1      43.222  26.884  26.857  1.00  0.00     0.173 A 
ATOM     68  C   UNL A   1      41.839  25.129  27.745  1.00  0.00     0.173 A 
ATOM     69  F   UNL A   1      43.686  28.142  26.882  1.00  0.00    -0.203 F 
ATOM     70  C   UNL A   1      43.655  26.026  25.849  1.00  0.00     0.198 A 
ATOM     71  C   UNL A   1      42.296  24.265  26.755  1.00  0.00     0.198 A 
ATOM     72  F   UNL A   1      40.963  24.666  28.650  1.00  0.00    -0.203 F 
ATOM     73  F   UNL A   1      44.513  26.467  24.919  1.00  0.00    -0.200 F 
ATOM     74  C   UNL A   1      43.202  24.715  25.806  1.00  0.00     0.200 A 
ATOM     75  F   UNL A   1      41.871  22.995  26.727  1.00  0.00    -0.200 F 
ATOM     76  F   UNL A   1      43.641  23.884  24.851  1.00  0.00    -0.200 F 
ENDBRANCH  52  66
BRANCH  53  77
ATOM     77  C   UNL A   1      39.059  31.968  35.460  1.00  0.00     0.064 A 
ATOM     78  C   UNL A   1      39.442  33.289  35.735  1.00  0.00     0.173 A 
ATOM     79  C   UNL A   1      38.227  31.330  36.395  1.00  0.00     0.173 A 
ATOM     80  F   UNL A   1      40.264  33.935  34.893  1.00  0.00    -0.203 F 
ATOM     81  C   UNL A   1      39.045  33.929  36.908  1.00  0.00     0.198 A 
ATOM     82  C   UNL A   1      37.798  31.985  37.548  1.00  0.00     0.198 A 
ATOM     83  F   UNL A   1      37.832  30.065  36.191  1.00  0.00    -0.203 F 
ATOM     84  F   UNL A   1      39.490  35.164  37.179  1.00  0.00    -0.200 F 
ATOM     85  C   UNL A   1      38.220  33.278  37.812  1.00  0.00     0.200 A 
ATOM     86  F   UNL A   1      36.989  31.355  38.411  1.00  0.00    -0.200 F 
ATOM     87  F   UNL A   1      37.844  33.889  38.943  1.00  0.00    -0.200 F 
ENDBRANCH  53  77
BRANCH  65  88
ATOM     88  C   UNL A   1      44.355  27.506  34.622  1.00  0.00     0.064 A 
ATOM     89  C   UNL A   1      45.521  28.235  34.900  1.00  0.00     0.173 A 
ATOM     90  C   UNL A   1      44.164  26.292  35.301  1.00  0.00     0.173 A 
ATOM     91  F   UNL A   1      45.759  29.394  34.270  1.00  0.00    -0.203 F 
ATOM     92  C   UNL A   1      46.466  27.758  35.806  1.00  0.00     0.198 A 
ATOM     93  C   UNL A   1      45.093  25.835  36.231  1.00  0.00     0.198 A 
ATOM     94  F   UNL A   1      43.062  25.560  35.080  1.00  0.00    -0.203 F 
ATOM     95  F   UNL A   1      47.592  28.451  36.023  1.00  0.00    -0.200 F 
ATOM     96  C   UNL A   1      46.246  26.564  36.478  1.00  0.00     0.200 A 
ATOM     97  F   UNL A   1      44.870  24.692  36.894  1.00  0.00    -0.200 F 
ATOM     98  F   UNL A   1      47.149  26.115  37.362  1.00  0.00    -0.200 F 
ENDBRANCH  65  88
ENDBRANCH  39  40
ENDBRANCH  32  34
ENDBRANCH  31  32
ENDBRANCH  30  31
ENDBRANCH  29  30
ENDBRANCH  28  29
ENDBRANCH  27  28
ENDBRANCH   1  27
TORSDOF 20
ENDMDL
MODEL 2
REMARK VINA RESULT:     -11.2      1.658      2.799
REMARK SMILES O=C(C[C@H]1C[C@H]2CC[C@@H](C1)N2C(=O)c1c[nH]c(=O)[nH]1)OCCOCCOCCOC(=O)c1ccc(-c2c3nc(c(-c4c(F)c(F)c(F)c(F)c4F)c4ccc([nH]4)c(-c4c(F)c(F)c(F)c(F)c4F)c4nc(c(-c5c(F)c(F)c(F)c(F)c5F)c5ccc2[nH]5)C=C4)C=C3)cc1
REMARK SMILES IDX 24 1 23 2 22 3 21 4 20 5 2 6 1 7 3 8 4 9 5 10 10 11 6 12
REMARK SMILES IDX 9 13 7 14 11 15 8 16 12 17 13 18 14 19 15 20 19 21 16 22
REMARK SMILES IDX 17 23 18 26 25 27 26 28 27 29 28 30 29 31 30 32 31 33 32 34
REMARK SMILES IDX 33 35 94 36 34 37 93 38 35 39 36 40 37 41 87 42 38 43 92 44
REMARK SMILES IDX 86 45 88 46 39 47 91 48 85 49 84 50 40 52 72 53 52 54 71 55
REMARK SMILES IDX 53 56 56 57 70 58 89 59 54 60 55 61 69 63 90 64 57 65 41 66
REMARK SMILES IDX 42 67 50 68 43 69 44 70 48 71 51 72 45 73 46 74 49 75 47 76
REMARK SMILES IDX 73 77 74 78 82 79 75 80 76 81 80 82 83 83 77 84 78 85 81 86
REMARK SMILES IDX 79 87 58 88 59 89 67 90 60 91 61 92 65 93 68 94 62 95 63 96
REMARK SMILES IDX 66 97 64 98
REMARK H PARENT 19 24 16 25 88 51 56 62
REMARK Flexibility Score: inf
ROOT
ATOM      1  C   UNL A   1      29.993  27.103  23.768  1.00  0.00     0.188 C 
ENDROOT
BRANCH   1   2
ATOM      2  O   UNL A   1      30.571  25.890  24.209  1.00  0.00    -0.376 OA
BRANCH   2   3
ATOM      3  C   UNL A   1      31.923  25.978  24.613  1.00  0.00     0.202 C 
BRANCH   3   4
ATOM      4  C   UNL A   1      32.208  25.441  26.011  1.00  0.00     0.261 C 
BRANCH   4   5
ATOM      5  O   UNL A   1      33.505  24.780  26.233  1.00  0.00    -0.463 OA
BRANCH   5   6
ATOM      6  C   UNL A   1      34.577  24.234  25.634  1.00  0.00     0.306 C 
ATOM      7  O   UNL A   1      35.567  23.986  26.326  1.00  0.00    -0.252 OA
BRANCH   6   8
ATOM      8  C   UNL A   1      34.645  23.966  24.156  1.00  0.00     0.126 C 
BRANCH   8   9
ATOM      9  C   UNL A   1      34.696  22.529  23.631  1.00  0.00     0.004 C 
ATOM     10  C   UNL A   1      35.157  21.383  24.575  1.00  0.00     0.029 C 
ATOM     11  C   UNL A   1      33.410  22.155  22.926  1.00  0.00     0.029 C 
ATOM     12  C   UNL A   1      34.011  20.494  25.141  1.00  0.00     0.086 C 
ATOM     13  C   UNL A   1      32.368  21.460  23.819  1.00  0.00     0.086 C 
ATOM     14  C   UNL A   1      33.201  21.349  26.122  1.00  0.00     0.027 C 
ATOM     15  N   UNL A   1      33.029  20.210  24.087  1.00  0.00    -0.331 N 
ATOM     16  C   UNL A   1      32.024  21.831  25.270  1.00  0.00     0.027 C 
BRANCH  15  17
ATOM     17  C   UNL A   1      32.654  18.996  23.560  1.00  0.00     0.272 C 
ATOM     18  O   UNL A   1      32.108  18.859  22.473  1.00  0.00    -0.267 OA
BRANCH  17  19
ATOM     19  C   UNL A   1      33.050  17.813  24.387  1.00  0.00     0.125 A 
ATOM     20  C   UNL A   1      32.556  17.420  25.574  1.00  0.00     0.119 A 
ATOM     21  N   UNL A   1      34.166  17.055  24.112  1.00  0.00    -0.302 N 
ATOM     22  N   UNL A   1      33.362  16.427  26.078  1.00  0.00    -0.312 N 
ATOM     23  C   UNL A   1      34.395  16.173  25.169  1.00  0.00     0.323 A 
ATOM     24  H   UNL A   1      34.716  17.125  23.298  1.00  0.00     0.172 HD
ATOM     25  H   UNL A   1      33.233  15.969  26.940  1.00  0.00     0.171 HD
ATOM     26  O   UNL A   1      35.313  15.377  25.301  1.00  0.00    -0.248 OA
ENDBRANCH  17  19
ENDBRANCH  15  17
ENDBRANCH   8   9
ENDBRANCH   6   8
ENDBRANCH   5   6
ENDBRANCH   4   5
ENDBRANCH   3   4
ENDBRANCH   2   3
ENDBRANCH   1   2
BRANCH   1  27
ATOM     27  C   UNL A   1      30.947  28.067  23.019  1.00  0.00     0.188 C 
BRANCH  27  28
ATOM     28  O   UNL A   1      31.529  29.166  23.700  1.00  0.00    -0.376 OA
BRANCH  28  29
ATOM     29  C   UNL A   1      31.284  29.326  25.086  1.00  0.00     0.202 C 
BRANCH  29  30
ATOM     30  C   UNL A   1      31.638  30.659  25.775  1.00  0.00     0.261 C 
BRANCH  30  31
ATOM     31  O   UNL A   1      32.557  30.592  26.887  1.00  0.00    -0.460 OA
BRANCH  31  32
ATOM     32  C   UNL A   1      33.185  31.746  27.244  1.00  0.00     0.338 C 
ATOM     33  O   UNL A   1      32.690  32.859  27.287  1.00  0.00    -0.246 OA
BRANCH  32  34
ATOM     34  C   UNL A   1      34.531  31.440  27.813  1.00  0.00     0.060 A 
ATOM     35  C   UNL A   1      34.851  30.106  28.137  1.00  0.00     0.016 A 
ATOM     36  C   UNL A   1      35.489  32.437  27.993  1.00  0.00     0.016 A 
ATOM     37  C   UNL A   1      36.110  29.774  28.654  1.00  0.00     0.010 A 
ATOM     38  C   UNL A   1      36.733  32.109  28.554  1.00  0.00     0.010 A 
ATOM     39  C   UNL A   1      37.043  30.782  28.913  1.00  0.00    -0.014 A 
BRANCH  39  40
ATOM     40  C   UNL A   1      38.248  30.510  29.747  1.00  0.00     0.031 A 
ATOM     41  C   UNL A   1      39.266  29.533  29.217  1.00  0.00     0.074 A 
ATOM     42  C   UNL A   1      38.434  31.071  30.956  1.00  0.00     0.049 A 
ATOM     43  N   UNL A   1      40.294  28.990  29.817  1.00  0.00    -0.248 NA
ATOM     44  C   UNL A   1      39.091  29.108  27.818  1.00  0.00     0.031 C 
ATOM     45  C   UNL A   1      37.571  32.080  31.566  1.00  0.00     0.029 A 
ATOM     46  N   UNL A   1      39.405  30.842  31.905  1.00  0.00    -0.354 N 
ATOM     47  C   UNL A   1      40.867  28.136  28.882  1.00  0.00     0.074 A 
ATOM     48  C   UNL A   1      40.075  28.231  27.676  1.00  0.00     0.031 C 
ATOM     49  C   UNL A   1      38.026  32.351  32.804  1.00  0.00     0.029 A 
ATOM     50  C   UNL A   1      39.182  31.500  33.092  1.00  0.00     0.049 A 
ATOM     51  H   UNL A   1      40.185  30.263  31.749  1.00  0.00     0.167 HD
ATOM     52  C   UNL A   1      41.952  27.340  29.022  1.00  0.00     0.037 A 
ATOM     53  C   UNL A   1      39.805  31.389  34.285  1.00  0.00     0.037 A 
ATOM     54  C   UNL A   1      42.754  27.260  30.213  1.00  0.00     0.049 A 
ATOM     55  C   UNL A   1      40.964  30.428  34.437  1.00  0.00     0.074 A 
ATOM     56  C   UNL A   1      43.907  26.523  30.424  1.00  0.00     0.029 A 
ATOM     57  N   UNL A   1      42.483  27.927  31.396  1.00  0.00    -0.354 N 
ATOM     58  N   UNL A   1      41.524  29.654  33.540  1.00  0.00    -0.248 NA
ATOM     59  C   UNL A   1      41.571  30.319  35.775  1.00  0.00     0.031 C 
ATOM     60  C   UNL A   1      44.289  26.683  31.757  1.00  0.00     0.029 A 
ATOM     61  C   UNL A   1      43.417  27.577  32.357  1.00  0.00     0.049 A 
ATOM     62  H   UNL A   1      41.738  28.557  31.533  1.00  0.00     0.167 HD
ATOM     63  C   UNL A   1      42.558  28.993  34.194  1.00  0.00     0.074 A 
ATOM     64  C   UNL A   1      42.565  29.470  35.558  1.00  0.00     0.031 C 
ATOM     65  C   UNL A   1      43.422  28.066  33.710  1.00  0.00     0.037 A 
BRANCH  52  66
ATOM     66  C   UNL A   1      42.327  26.446  27.877  1.00  0.00     0.064 A 
ATOM     67  C   UNL A   1      41.705  25.209  27.663  1.00  0.00     0.173 A 
ATOM     68  C   UNL A   1      43.262  26.887  26.926  1.00  0.00     0.173 A 
ATOM     69  F   UNL A   1      40.815  24.739  28.550  1.00  0.00    -0.203 F 
ATOM     70  C   UNL A   1      42.009  24.441  26.542  1.00  0.00     0.198 A 
ATOM     71  C   UNL A   1      43.541  26.131  25.791  1.00  0.00     0.198 A 
ATOM     72  F   UNL A   1      43.882  28.066  27.083  1.00  0.00    -0.203 F 
ATOM     73  F   UNL A   1      41.421  23.249  26.369  1.00  0.00    -0.200 F 
ATOM     74  C   UNL A   1      42.916  24.908  25.601  1.00  0.00     0.200 A 
ATOM     75  F   UNL A   1      44.405  26.593  24.876  1.00  0.00    -0.200 F 
ATOM     76  F   UNL A   1      43.186  24.180  24.509  1.00  0.00    -0.200 F 
ENDBRANCH  52  66
BRANCH  53  77
ATOM     77  C   UNL A   1      39.313  32.149  35.471  1.00  0.00     0.064 A 
ATOM     78  C   UNL A   1      39.773  33.445  35.751  1.00  0.00     0.173 A 
ATOM     79  C   UNL A   1      38.433  31.563  36.395  1.00  0.00     0.173 A 
ATOM     80  F   UNL A   1      40.642  34.040  34.919  1.00  0.00    -0.203 F 
ATOM     81  C   UNL A   1      39.403  34.107  36.921  1.00  0.00     0.198 A 
ATOM     82  C   UNL A   1      38.032  32.241  37.545  1.00  0.00     0.198 A 
ATOM     83  F   UNL A   1      37.965  30.324  36.186  1.00  0.00    -0.203 F 
ATOM     84  F   UNL A   1      39.919  35.312  37.198  1.00  0.00    -0.200 F 
ATOM     85  C   UNL A   1      38.529  33.506  37.815  1.00  0.00     0.200 A 
ATOM     86  F   UNL A   1      37.177  31.662  38.397  1.00  0.00    -0.200 F 
ATOM     87  F   UNL A   1      38.179  34.139  38.943  1.00  0.00    -0.200 F 
ENDBRANCH  53  77
BRANCH  65  88
ATOM     88  C   UNL A   1      44.468  27.523  34.643  1.00  0.00     0.064 A 
ATOM     89  C   UNL A   1      44.264  26.341  35.370  1.00  0.00     0.173 A 
ATOM     90  C   UNL A   1      45.715  28.158  34.761  1.00  0.00     0.173 A 
ATOM     91  F   UNL A   1      43.087  25.703  35.304  1.00  0.00    -0.203 F 
ATOM     92  C   UNL A   1      45.261  25.825  36.195  1.00  0.00     0.198 A 
ATOM     93  C   UNL A   1      46.722  27.621  35.559  1.00  0.00     0.198 A 
ATOM     94  F   UNL A   1      45.967  29.286  34.081  1.00  0.00    -0.203 F 
ATOM     95  F   UNL A   1      45.028  24.717  36.912  1.00  0.00    -0.200 F 
ATOM     96  C   UNL A   1      46.493  26.459  36.280  1.00  0.00     0.200 A 
ATOM     97  F   UNL A   1      47.916  28.224  35.625  1.00  0.00    -0.200 F 
ATOM     98  F   UNL A   1      47.457  25.952  37.061  1.00  0.00    -0.200 F 
ENDBRANCH  65  88
ENDBRANCH  39  40
ENDBRANCH  32  34
ENDBRANCH  31  32
ENDBRANCH  30  31
ENDBRANCH  29  30
ENDBRANCH  28  29
ENDBRANCH  27  28
ENDBRANCH   1  27
TORSDOF 20
ENDMDL
MODEL 3
REMARK VINA RESULT:     -11.1      2.815      8.606
REMARK SMILES O=C(C[C@H]1C[C@H]2CC[C@@H](C1)N2C(=O)c1c[nH]c(=O)[nH]1)OCCOCCOCCOC(=O)c1ccc(-c2c3nc(c(-c4c(F)c(F)c(F)c(F)c4F)c4ccc([nH]4)c(-c4c(F)c(F)c(F)c(F)c4F)c4nc(c(-c5c(F)c(F)c(F)c(F)c5F)c5ccc2[nH]5)C=C4)C=C3)cc1
REMARK SMILES IDX 24 1 23 2 22 3 21 4 20 5 2 6 1 7 3 8 4 9 5 10 10 11 6 12
REMARK SMILES IDX 9 13 7 14 11 15 8 16 12 17 13 18 14 19 15 20 19 21 16 22
REMARK SMILES IDX 17 23 18 26 25 27 26 28 27 29 28 30 29 31 30 32 31 33 32 34
REMARK SMILES IDX 33 35 94 36 34 37 93 38 35 39 36 40 37 41 87 42 38 43 92 44
REMARK SMILES IDX 86 45 88 46 39 47 91 48 85 49 84 50 40 52 72 53 52 54 71 55
REMARK SMILES IDX 53 56 56 57 70 58 89 59 54 60 55 61 69 63 90 64 57 65 41 66
REMARK SMILES IDX 42 67 50 68 43 69 44 70 48 71 51 72 45 73 46 74 49 75 47 76
REMARK SMILES IDX 73 77 74 78 82 79 75 80 76 81 80 82 83 83 77 84 78 85 81 86
REMARK SMILES IDX 79 87 58 88 59 89 67 90 60 91 61 92 65 93 68 94 62 95 63 96
REMARK SMILES IDX 66 97 64 98
REMARK H PARENT 19 24 16 25 88 51 56 62
REMARK Flexibility Score: inf
ROOT
ATOM      1  C   UNL A   1      35.608  32.269  28.001  1.00  0.00     0.188 C 
ENDROOT
BRANCH   1   2
ATOM      2  O   UNL A   1      34.581  31.343  27.701  1.00  0.00    -0.376 OA
BRANCH   2   3
ATOM      3  C   UNL A   1      34.949  29.981  27.806  1.00  0.00     0.202 C 
BRANCH   3   4
ATOM      4  C   UNL A   1      34.459  29.099  26.663  1.00  0.00     0.261 C 
BRANCH   4   5
ATOM      5  O   UNL A   1      33.408  29.643  25.787  1.00  0.00    -0.463 OA
BRANCH   5   6
ATOM      6  C   UNL A   1      32.084  29.824  25.641  1.00  0.00     0.306 C 
ATOM      7  O   UNL A   1      31.454  30.305  26.585  1.00  0.00    -0.252 OA
BRANCH   6   8
ATOM      8  C   UNL A   1      31.330  29.414  24.406  1.00  0.00     0.126 C 
BRANCH   8   9
ATOM      9  C   UNL A   1      30.752  28.003  24.283  1.00  0.00     0.004 C 
ATOM     10  C   UNL A   1      30.576  27.366  22.874  1.00  0.00     0.029 C 
ATOM     11  C   UNL A   1      31.448  27.039  25.220  1.00  0.00     0.029 C 
ATOM     12  C   UNL A   1      31.651  26.308  22.490  1.00  0.00     0.086 C 
ATOM     13  C   UNL A   1      32.627  26.274  24.594  1.00  0.00     0.086 C 
ATOM     14  C   UNL A   1      32.981  27.045  22.294  1.00  0.00     0.027 C 
ATOM     15  N   UNL A   1      31.939  25.444  23.642  1.00  0.00    -0.331 N 
ATOM     16  C   UNL A   1      33.683  26.856  23.641  1.00  0.00     0.027 C 
BRANCH  15  17
ATOM     17  C   UNL A   1      31.770  24.084  23.765  1.00  0.00     0.272 C 
ATOM     18  O   UNL A   1      31.904  23.290  22.844  1.00  0.00    -0.267 OA
BRANCH  17  19
ATOM     19  C   UNL A   1      31.491  23.619  25.161  1.00  0.00     0.125 A 
ATOM     20  C   UNL A   1      32.256  22.845  25.951  1.00  0.00     0.119 A 
ATOM     21  N   UNL A   1      30.262  23.770  25.762  1.00  0.00    -0.302 N 
ATOM     22  N   UNL A   1      31.517  22.476  27.050  1.00  0.00    -0.312 N 
ATOM     23  C   UNL A   1      30.244  23.050  26.958  1.00  0.00     0.323 A 
ATOM     24  H   UNL A   1      29.514  24.300  25.404  1.00  0.00     0.172 HD
ATOM     25  H   UNL A   1      31.833  21.901  27.784  1.00  0.00     0.171 HD
ATOM     26  O   UNL A   1      29.316  22.913  27.740  1.00  0.00    -0.248 OA
ENDBRANCH  17  19
ENDBRANCH  15  17
ENDBRANCH   8   9
ENDBRANCH   6   8
ENDBRANCH   5   6
ENDBRANCH   4   5
ENDBRANCH   3   4
ENDBRANCH   2   3
ENDBRANCH   1   2
BRANCH   1  27
ATOM     27  C   UNL A   1      35.296  33.270  29.142  1.00  0.00     0.188 C 
BRANCH  27  28
ATOM     28  O   UNL A   1      34.022  33.887  29.219  1.00  0.00    -0.376 OA
BRANCH  28  29
ATOM     29  C   UNL A   1      33.891  35.247  28.844  1.00  0.00     0.202 C 
BRANCH  29  30
ATOM     30  C   UNL A   1      32.859  36.141  29.562  1.00  0.00     0.261 C 
BRANCH  30  31
ATOM     31  O   UNL A   1      33.179  36.549  30.909  1.00  0.00    -0.460 OA
BRANCH  31  32
ATOM     32  C   UNL A   1      32.741  35.749  31.920  1.00  0.00     0.338 C 
ATOM     33  O   UNL A   1      31.582  35.527  32.221  1.00  0.00    -0.246 OA
BRANCH  32  34
ATOM     34  C   UNL A   1      33.884  34.974  32.488  1.00  0.00     0.060 A 
ATOM     35  C   UNL A   1      35.183  35.514  32.415  1.00  0.00     0.016 A 
ATOM     36  C   UNL A   1      33.688  33.748  33.123  1.00  0.00     0.016 A 
ATOM     37  C   UNL A   1      36.279  34.828  32.953  1.00  0.00     0.010 A 
ATOM     38  C   UNL A   1      34.793  33.041  33.621  1.00  0.00     0.010 A 
ATOM     39  C   UNL A   1      36.098  33.561  33.516  1.00  0.00    -0.014 A 
BRANCH  39  40
ATOM     40  C   UNL A   1      37.265  32.679  33.802  1.00  0.00     0.031 A 
ATOM     41  C   UNL A   1      38.051  32.938  35.062  1.00  0.00     0.074 A 
ATOM     42  C   UNL A   1      37.655  31.700  32.965  1.00  0.00     0.049 A 
ATOM     43  N   UNL A   1      39.199  32.442  35.445  1.00  0.00    -0.248 NA
ATOM     44  C   UNL A   1      37.459  33.893  36.013  1.00  0.00     0.031 C 
ATOM     45  C   UNL A   1      36.955  31.293  31.749  1.00  0.00     0.029 A 
ATOM     46  N   UNL A   1      38.765  30.885  33.003  1.00  0.00    -0.354 N 
ATOM     47  C   UNL A   1      39.483  33.049  36.663  1.00  0.00     0.074 A 
ATOM     48  C   UNL A   1      38.389  33.949  36.956  1.00  0.00     0.031 C 
ATOM     49  C   UNL A   1      37.675  30.336  31.133  1.00  0.00     0.029 A 
ATOM     50  C   UNL A   1      38.908  30.098  31.884  1.00  0.00     0.049 A 
ATOM     51  H   UNL A   1      39.395  30.868  33.758  1.00  0.00     0.167 HD
ATOM     52  C   UNL A   1      40.562  32.876  37.460  1.00  0.00     0.037 A 
ATOM     53  C   UNL A   1      39.937  29.318  31.488  1.00  0.00     0.037 A 
ATOM     54  C   UNL A   1      41.641  31.966  37.183  1.00  0.00     0.049 A 
ATOM     55  C   UNL A   1      41.170  29.208  32.360  1.00  0.00     0.074 A 
ATOM     56  C   UNL A   1      42.748  31.683  37.964  1.00  0.00     0.029 A 
ATOM     57  N   UNL A   1      41.756  31.204  36.032  1.00  0.00    -0.354 N 
ATOM     58  N   UNL A   1      41.414  29.753  33.526  1.00  0.00    -0.248 NA
ATOM     59  C   UNL A   1      42.276  28.379  31.851  1.00  0.00     0.031 C 
ATOM     60  C   UNL A   1      43.572  30.808  37.252  1.00  0.00     0.029 A 
ATOM     61  C   UNL A   1      42.944  30.490  36.060  1.00  0.00     0.049 A 
ATOM     62  H   UNL A   1      41.094  31.173  35.305  1.00  0.00     0.167 HD
ATOM     63  C   UNL A   1      42.679  29.313  33.900  1.00  0.00     0.074 A 
ATOM     64  C   UNL A   1      43.147  28.439  32.848  1.00  0.00     0.031 C 
ATOM     65  C   UNL A   1      43.395  29.613  35.012  1.00  0.00     0.037 A 
BRANCH  52  66
ATOM     66  C   UNL A   1      40.670  33.715  38.700  1.00  0.00     0.064 A 
ATOM     67  C   UNL A   1      40.061  33.342  39.906  1.00  0.00     0.173 A 
ATOM     68  C   UNL A   1      41.478  34.863  38.697  1.00  0.00     0.173 A 
ATOM     69  F   UNL A   1      39.270  32.260  39.956  1.00  0.00    -0.203 F 
ATOM     70  C   UNL A   1      40.252  34.092  41.063  1.00  0.00     0.198 A 
ATOM     71  C   UNL A   1      41.691  35.593  39.862  1.00  0.00     0.198 A 
ATOM     72  F   UNL A   1      42.086  35.259  37.568  1.00  0.00    -0.203 F 
ATOM     73  F   UNL A   1      39.641  33.733  42.201  1.00  0.00    -0.200 F 
ATOM     74  C   UNL A   1      41.077  35.209  41.044  1.00  0.00     0.200 A 
ATOM     75  F   UNL A   1      42.501  36.661  39.843  1.00  0.00    -0.200 F 
ATOM     76  F   UNL A   1      41.280  35.913  42.165  1.00  0.00    -0.200 F 
ENDBRANCH  52  66
BRANCH  53  77
ATOM     77  C   UNL A   1      39.900  28.626  30.168  1.00  0.00     0.064 A 
ATOM     78  C   UNL A   1      39.362  27.337  30.033  1.00  0.00     0.173 A 
ATOM     79  C   UNL A   1      40.477  29.207  29.027  1.00  0.00     0.173 A 
ATOM     80  F   UNL A   1      38.828  26.721  31.099  1.00  0.00    -0.203 F 
ATOM     81  C   UNL A   1      39.435  26.646  28.824  1.00  0.00     0.198 A 
ATOM     82  C   UNL A   1      40.514  28.530  27.809  1.00  0.00     0.198 A 
ATOM     83  F   UNL A   1      41.015  30.434  29.096  1.00  0.00    -0.203 F 
ATOM     84  F   UNL A   1      38.981  25.387  28.747  1.00  0.00    -0.200 F 
ATOM     85  C   UNL A   1      40.007  27.245  27.712  1.00  0.00     0.200 A 
ATOM     86  F   UNL A   1      41.055  29.119  26.735  1.00  0.00    -0.200 F 
ATOM     87  F   UNL A   1      40.084  26.578  26.553  1.00  0.00    -0.200 F 
ENDBRANCH  53  77
BRANCH  65  88
ATOM     88  C   UNL A   1      44.746  28.974  35.173  1.00  0.00     0.064 A 
ATOM     89  C   UNL A   1      45.919  29.613  34.745  1.00  0.00     0.173 A 
ATOM     90  C   UNL A   1      44.875  27.736  35.823  1.00  0.00     0.173 A 
ATOM     91  F   UNL A   1      45.851  30.790  34.106  1.00  0.00    -0.203 F 
ATOM     92  C   UNL A   1      47.168  29.029  34.944  1.00  0.00     0.198 A 
ATOM     93  C   UNL A   1      46.127  27.171  36.052  1.00  0.00     0.198 A 
ATOM     94  F   UNL A   1      43.787  27.085  36.262  1.00  0.00    -0.203 F 
ATOM     95  F   UNL A   1      48.271  29.639  34.489  1.00  0.00    -0.200 F 
ATOM     96  C   UNL A   1      47.272  27.814  35.607  1.00  0.00     0.200 A 
ATOM     97  F   UNL A   1      46.226  26.008  36.709  1.00  0.00    -0.200 F 
ATOM     98  F   UNL A   1      48.476  27.262  35.812  1.00  0.00    -0.200 F 
ENDBRANCH  65  88
ENDBRANCH  39  40
ENDBRANCH  32  34
ENDBRANCH  31  32
ENDBRANCH  30  31
ENDBRANCH  29  30
ENDBRANCH  28  29
ENDBRANCH  27  28
ENDBRANCH   1  27
TORSDOF 20
ENDMDL
