MODEL 1
REMARK VINA RESULT:     -11.6      0.000      0.000
REMARK SMILES O=C(OCCOCCOCCOC(=O)[C@@]1(Cc2cn3ccccc3n2)CCC[NH2+]C1)c1ccc(-c2c3nc(c(-c4c(F)c(F)c(F)c(F)c4F)c4ccc([nH]4)c(-c4c(F)c(F)c(F)c(F)c4F)c4nc(c(-c5c(F)c(F)c(F)c(F)c5F)c5ccc2[nH]5)C=C4)C=C3)cc1
REMARK SMILES IDX 7 1 6 2 5 3 4 4 3 5 2 6 1 7 31 8 32 9 93 10 33 11 92 12
REMARK SMILES IDX 34 13 35 14 36 15 86 16 37 17 91 18 85 19 87 20 38 21 90 22
REMARK SMILES IDX 84 23 83 24 39 26 71 27 51 28 70 29 52 30 55 31 69 32 88 33
REMARK SMILES IDX 53 34 54 35 68 37 89 38 56 39 40 40 41 41 49 42 42 43 43 44
REMARK SMILES IDX 47 45 50 46 44 47 45 48 48 49 46 50 72 51 73 52 81 53 74 54
REMARK SMILES IDX 75 55 79 56 82 57 76 58 77 59 80 60 78 61 57 62 58 63 66 64
REMARK SMILES IDX 59 65 60 66 64 67 67 68 61 69 62 70 65 71 63 72 8 73 9 74
REMARK SMILES IDX 10 75 11 76 12 77 13 78 14 79 15 80 26 81 30 82 27 83 29 84
REMARK SMILES IDX 28 85 16 88 17 89 18 90 25 91 19 92 24 93 20 94 23 95 21 96
REMARK SMILES IDX 22 97
REMARK H PARENT 87 25 55 36 29 86 29 87
REMARK Flexibility Score: inf
ROOT
ATOM      1  C   UNL A   1      41.383  21.490  26.227  1.00  0.00     0.188 C 
ENDROOT
BRANCH   1   2
ATOM      2  O   UNL A   1      41.809  20.260  26.814  1.00  0.00    -0.376 OA
BRANCH   2   3
ATOM      3  C   UNL A   1      41.947  19.185  25.873  1.00  0.00     0.202 C 
BRANCH   3   4
ATOM      4  C   UNL A   1      43.244  18.357  25.983  1.00  0.00     0.261 C 
BRANCH   4   5
ATOM      5  O   UNL A   1      44.069  18.402  24.806  1.00  0.00    -0.460 OA
BRANCH   5   6
ATOM      6  C   UNL A   1      45.026  19.311  24.493  1.00  0.00     0.338 C 
ATOM      7  O   UNL A   1      46.051  18.929  23.932  1.00  0.00    -0.246 OA
BRANCH   6   8
ATOM      8  C   UNL A   1      44.888  20.768  24.787  1.00  0.00     0.060 A 
ATOM      9  C   UNL A   1      44.458  21.734  23.877  1.00  0.00     0.016 A 
ATOM     10  C   UNL A   1      45.162  21.184  26.090  1.00  0.00     0.016 A 
ATOM     11  C   UNL A   1      44.419  23.088  24.181  1.00  0.00     0.010 A 
ATOM     12  C   UNL A   1      45.049  22.535  26.427  1.00  0.00     0.010 A 
ATOM     13  C   UNL A   1      44.705  23.511  25.464  1.00  0.00    -0.014 A 
BRANCH  13  14
ATOM     14  C   UNL A   1      44.810  24.958  25.784  1.00  0.00     0.031 A 
ATOM     15  C   UNL A   1      46.197  25.525  25.768  1.00  0.00     0.074 A 
ATOM     16  C   UNL A   1      43.743  25.735  26.077  1.00  0.00     0.049 A 
ATOM     17  N   UNL A   1      46.659  26.626  26.288  1.00  0.00    -0.248 NA
ATOM     18  C   UNL A   1      47.221  24.704  25.088  1.00  0.00     0.031 C 
ATOM     19  C   UNL A   1      42.337  25.348  25.972  1.00  0.00     0.029 A 
ATOM     20  N   UNL A   1      43.677  27.004  26.605  1.00  0.00    -0.354 N 
ATOM     21  C   UNL A   1      48.012  26.628  25.981  1.00  0.00     0.074 A 
ATOM     22  C   UNL A   1      48.331  25.350  25.392  1.00  0.00     0.031 C 
ATOM     23  C   UNL A   1      41.559  26.287  26.537  1.00  0.00     0.029 A 
ATOM     24  C   UNL A   1      42.411  27.347  27.044  1.00  0.00     0.049 A 
ATOM     25  H   UNL A   1      44.453  27.608  26.662  1.00  0.00     0.167 HD
ATOM     26  C   UNL A   1      48.885  27.652  26.088  1.00  0.00     0.037 A 
ATOM     27  C   UNL A   1      42.013  28.368  27.829  1.00  0.00     0.037 A 
ATOM     28  C   UNL A   1      48.508  28.922  26.636  1.00  0.00     0.049 A 
ATOM     29  C   UNL A   1      43.059  29.363  28.223  1.00  0.00     0.074 A 
ATOM     30  C   UNL A   1      49.254  30.076  26.758  1.00  0.00     0.029 A 
ATOM     31  N   UNL A   1      47.247  29.194  27.160  1.00  0.00    -0.354 N 
ATOM     32  N   UNL A   1      44.344  29.358  27.960  1.00  0.00    -0.248 NA
ATOM     33  C   UNL A   1      42.591  30.537  28.964  1.00  0.00     0.031 C 
ATOM     34  C   UNL A   1      48.460  31.029  27.407  1.00  0.00     0.029 A 
ATOM     35  C   UNL A   1      47.202  30.488  27.637  1.00  0.00     0.049 A 
ATOM     36  H   UNL A   1      46.497  28.555  27.186  1.00  0.00     0.167 HD
ATOM     37  C   UNL A   1      44.824  30.574  28.410  1.00  0.00     0.074 A 
ATOM     38  C   UNL A   1      43.706  31.250  29.043  1.00  0.00     0.031 C 
ATOM     39  C   UNL A   1      46.057  31.113  28.250  1.00  0.00     0.037 A 
BRANCH  26  40
ATOM     40  C   UNL A   1      50.277  27.413  25.576  1.00  0.00     0.064 A 
ATOM     41  C   UNL A   1      50.577  27.475  24.201  1.00  0.00     0.173 A 
ATOM     42  C   UNL A   1      51.304  27.035  26.449  1.00  0.00     0.173 A 
ATOM     43  F   UNL A   1      49.625  27.806  23.314  1.00  0.00    -0.203 F 
ATOM     44  C   UNL A   1      51.829  27.102  23.720  1.00  0.00     0.198 A 
ATOM     45  C   UNL A   1      52.569  26.703  25.967  1.00  0.00     0.198 A 
ATOM     46  F   UNL A   1      51.076  26.955  27.768  1.00  0.00    -0.203 F 
ATOM     47  F   UNL A   1      52.056  27.071  22.399  1.00  0.00    -0.200 F 
ATOM     48  C   UNL A   1      52.825  26.717  24.603  1.00  0.00     0.200 A 
ATOM     49  F   UNL A   1      53.533  26.336  26.822  1.00  0.00    -0.200 F 
ATOM     50  F   UNL A   1      54.024  26.340  24.139  1.00  0.00    -0.200 F 
ENDBRANCH  26  40
BRANCH  27  51
ATOM     51  C   UNL A   1      40.609  28.500  28.316  1.00  0.00     0.064 A 
ATOM     52  C   UNL A   1      40.197  28.002  29.556  1.00  0.00     0.173 A 
ATOM     53  C   UNL A   1      39.623  29.092  27.513  1.00  0.00     0.173 A 
ATOM     54  F   UNL A   1      41.059  27.317  30.320  1.00  0.00    -0.203 F 
ATOM     55  C   UNL A   1      38.877  28.155  29.996  1.00  0.00     0.198 A 
ATOM     56  C   UNL A   1      38.324  29.305  27.974  1.00  0.00     0.198 A 
ATOM     57  F   UNL A   1      39.889  29.377  26.233  1.00  0.00    -0.203 F 
ATOM     58  F   UNL A   1      38.495  27.615  31.162  1.00  0.00    -0.200 F 
ATOM     59  C   UNL A   1      37.952  28.838  29.221  1.00  0.00     0.200 A 
ATOM     60  F   UNL A   1      37.429  29.926  27.192  1.00  0.00    -0.200 F 
ATOM     61  F   UNL A   1      36.692  28.999  29.652  1.00  0.00    -0.200 F 
ENDBRANCH  27  51
BRANCH  39  62
ATOM     62  C   UNL A   1      46.201  32.545  28.651  1.00  0.00     0.064 A 
ATOM     63  C   UNL A   1      45.895  33.598  27.783  1.00  0.00     0.173 A 
ATOM     64  C   UNL A   1      46.642  32.852  29.948  1.00  0.00     0.173 A 
ATOM     65  F   UNL A   1      45.503  33.346  26.526  1.00  0.00    -0.203 F 
ATOM     66  C   UNL A   1      46.048  34.918  28.194  1.00  0.00     0.198 A 
ATOM     67  C   UNL A   1      46.755  34.169  30.367  1.00  0.00     0.198 A 
ATOM     68  F   UNL A   1      46.949  31.869  30.808  1.00  0.00    -0.203 F 
ATOM     69  F   UNL A   1      45.809  35.917  27.334  1.00  0.00    -0.200 F 
ATOM     70  C   UNL A   1      46.467  35.202  29.488  1.00  0.00     0.200 A 
ATOM     71  F   UNL A   1      47.146  34.440  31.620  1.00  0.00    -0.200 F 
ATOM     72  F   UNL A   1      46.602  36.474  29.884  1.00  0.00    -0.200 F 
ENDBRANCH  39  62
ENDBRANCH  13  14
ENDBRANCH   6   8
ENDBRANCH   5   6
ENDBRANCH   4   5
ENDBRANCH   3   4
ENDBRANCH   2   3
ENDBRANCH   1   2
BRANCH   1  73
ATOM     73  C   UNL A   1      39.918  21.835  26.491  1.00  0.00     0.188 C 
BRANCH  73  74
ATOM     74  O   UNL A   1      39.648  23.108  27.059  1.00  0.00    -0.376 OA
BRANCH  74  75
ATOM     75  C   UNL A   1      38.582  23.855  26.479  1.00  0.00     0.202 C 
BRANCH  75  76
ATOM     76  C   UNL A   1      37.629  23.130  25.510  1.00  0.00     0.261 C 
BRANCH  76  77
ATOM     77  O   UNL A   1      36.413  23.834  25.161  1.00  0.00    -0.463 OA
BRANCH  77  78
ATOM     78  C   UNL A   1      35.836  23.464  23.970  1.00  0.00     0.318 C 
ATOM     79  O   UNL A   1      36.467  22.980  23.045  1.00  0.00    -0.251 OA
BRANCH  78  80
ATOM     80  C   UNL A   1      34.302  23.682  23.934  1.00  0.00     0.122 C 
ATOM     81  C   UNL A   1      34.044  25.207  24.093  1.00  0.00     0.031 C 
ATOM     82  C   UNL A   1      33.796  23.225  22.554  1.00  0.00     0.279 C 
ATOM     83  C   UNL A   1      32.659  25.671  23.637  1.00  0.00     0.063 C 
ATOM     84  N   UNL A   1      32.410  23.600  22.274  1.00  0.00    -0.345 N 
ATOM     85  C   UNL A   1      32.229  25.050  22.313  1.00  0.00     0.260 C 
ATOM     86  H   UNL A   1      32.154  23.259  21.348  1.00  0.00     0.346 HD
ATOM     87  H   UNL A   1      31.815  23.184  22.992  1.00  0.00     0.346 HD
BRANCH  80  88
ATOM     88  C   UNL A   1      33.681  22.869  25.083  1.00  0.00     0.082 C 
BRANCH  88  89
ATOM     89  C   UNL A   1      33.549  21.392  24.915  1.00  0.00     0.061 A 
ATOM     90  C   UNL A   1      32.442  20.652  24.550  1.00  0.00     0.116 A 
ATOM     91  N   UNL A   1      34.654  20.572  25.018  1.00  0.00    -0.234 NA
ATOM     92  N   UNL A   1      32.925  19.426  24.182  1.00  0.00    -0.307 N 
ATOM     93  C   UNL A   1      34.239  19.386  24.619  1.00  0.00     0.136 A 
ATOM     94  C   UNL A   1      32.334  18.410  23.430  1.00  0.00     0.093 A 
ATOM     95  C   UNL A   1      34.924  18.157  24.452  1.00  0.00     0.048 A 
ATOM     96  C   UNL A   1      33.062  17.326  23.107  1.00  0.00     0.018 A 
ATOM     97  C   UNL A   1      34.388  17.188  23.685  1.00  0.00     0.005 A 
ENDBRANCH  88  89
ENDBRANCH  80  88
ENDBRANCH  78  80
ENDBRANCH  77  78
ENDBRANCH  76  77
ENDBRANCH  75  76
ENDBRANCH  74  75
ENDBRANCH  73  74
ENDBRANCH   1  73
TORSDOF 19
ENDMDL
MODEL 2
REMARK VINA RESULT:     -11.2      7.014     12.754
REMARK SMILES O=C(OCCOCCOCCOC(=O)[C@@]1(Cc2cn3ccccc3n2)CCC[NH2+]C1)c1ccc(-c2c3nc(c(-c4c(F)c(F)c(F)c(F)c4F)c4ccc([nH]4)c(-c4c(F)c(F)c(F)c(F)c4F)c4nc(c(-c5c(F)c(F)c(F)c(F)c5F)c5ccc2[nH]5)C=C4)C=C3)cc1
REMARK SMILES IDX 7 1 6 2 5 3 4 4 3 5 2 6 1 7 31 8 32 9 93 10 33 11 92 12
REMARK SMILES IDX 34 13 35 14 36 15 86 16 37 17 91 18 85 19 87 20 38 21 90 22
REMARK SMILES IDX 84 23 83 24 39 26 71 27 51 28 70 29 52 30 55 31 69 32 88 33
REMARK SMILES IDX 53 34 54 35 68 37 89 38 56 39 40 40 41 41 49 42 42 43 43 44
REMARK SMILES IDX 47 45 50 46 44 47 45 48 48 49 46 50 72 51 73 52 81 53 74 54
REMARK SMILES IDX 75 55 79 56 82 57 76 58 77 59 80 60 78 61 57 62 58 63 66 64
REMARK SMILES IDX 59 65 60 66 64 67 67 68 61 69 62 70 65 71 63 72 8 73 9 74
REMARK SMILES IDX 10 75 11 76 12 77 13 78 14 79 15 80 26 81 30 82 27 83 29 84
REMARK SMILES IDX 28 85 16 88 17 89 18 90 25 91 19 92 24 93 20 94 23 95 21 96
REMARK SMILES IDX 22 97
REMARK H PARENT 87 25 55 36 29 86 29 87
REMARK Flexibility Score: inf
ROOT
ATOM      1  C   UNL A   1      35.239  33.734  28.831  1.00  0.00     0.188 C 
ENDROOT
BRANCH   1   2
ATOM      2  O   UNL A   1      34.636  34.983  28.488  1.00  0.00    -0.376 OA
BRANCH   2   3
ATOM      3  C   UNL A   1      33.291  35.128  28.964  1.00  0.00     0.202 C 
BRANCH   3   4
ATOM      4  C   UNL A   1      32.934  36.503  29.565  1.00  0.00     0.261 C 
BRANCH   4   5
ATOM      5  O   UNL A   1      32.282  36.432  30.845  1.00  0.00    -0.460 OA
BRANCH   5   6
ATOM      6  C   UNL A   1      32.845  36.194  32.055  1.00  0.00     0.338 C 
ATOM      7  O   UNL A   1      32.458  36.837  33.030  1.00  0.00    -0.246 OA
BRANCH   6   8
ATOM      8  C   UNL A   1      33.910  35.172  32.268  1.00  0.00     0.060 A 
ATOM      9  C   UNL A   1      33.687  33.828  32.565  1.00  0.00     0.016 A 
ATOM     10  C   UNL A   1      35.233  35.585  32.105  1.00  0.00     0.016 A 
ATOM     11  C   UNL A   1      34.716  32.933  32.826  1.00  0.00     0.010 A 
ATOM     12  C   UNL A   1      36.276  34.674  32.289  1.00  0.00     0.010 A 
ATOM     13  C   UNL A   1      36.029  33.339  32.684  1.00  0.00    -0.014 A 
BRANCH  13  14
ATOM     14  C   UNL A   1      37.149  32.453  33.092  1.00  0.00     0.031 A 
ATOM     15  C   UNL A   1      37.870  32.855  34.342  1.00  0.00     0.074 A 
ATOM     16  C   UNL A   1      37.518  31.353  32.398  1.00  0.00     0.049 A 
ATOM     17  N   UNL A   1      39.043  32.501  34.784  1.00  0.00    -0.248 NA
ATOM     18  C   UNL A   1      37.170  33.831  35.204  1.00  0.00     0.031 C 
ATOM     19  C   UNL A   1      36.805  30.766  31.264  1.00  0.00     0.029 A 
ATOM     20  N   UNL A   1      38.642  30.565  32.499  1.00  0.00    -0.354 N 
ATOM     21  C   UNL A   1      39.202  33.197  35.974  1.00  0.00     0.074 A 
ATOM     22  C   UNL A   1      38.100  34.120  36.095  1.00  0.00     0.031 C 
ATOM     23  C   UNL A   1      37.559  29.811  30.693  1.00  0.00     0.029 A 
ATOM     24  C   UNL A   1      38.810  29.713  31.421  1.00  0.00     0.049 A 
ATOM     25  H   UNL A   1      39.264  30.603  33.261  1.00  0.00     0.167 HD
ATOM     26  C   UNL A   1      40.136  33.003  36.930  1.00  0.00     0.037 A 
ATOM     27  C   UNL A   1      39.887  28.998  31.042  1.00  0.00     0.037 A 
ATOM     28  C   UNL A   1      41.186  32.038  36.785  1.00  0.00     0.049 A 
ATOM     29  C   UNL A   1      41.071  29.024  31.958  1.00  0.00     0.074 A 
ATOM     30  C   UNL A   1      42.170  31.678  37.683  1.00  0.00     0.029 A 
ATOM     31  N   UNL A   1      41.377  31.270  35.641  1.00  0.00    -0.354 N 
ATOM     32  N   UNL A   1      41.240  29.700  33.069  1.00  0.00    -0.248 NA
ATOM     33  C   UNL A   1      42.185  28.141  31.604  1.00  0.00     0.031 C 
ATOM     34  C   UNL A   1      42.991  30.732  37.057  1.00  0.00     0.029 A 
ATOM     35  C   UNL A   1      42.484  30.459  35.794  1.00  0.00     0.049 A 
ATOM     36  H   UNL A   1      40.806  31.301  34.838  1.00  0.00     0.167 HD
ATOM     37  C   UNL A   1      42.432  29.250  33.605  1.00  0.00     0.074 A 
ATOM     38  C   UNL A   1      42.984  28.307  32.648  1.00  0.00     0.031 C 
ATOM     39  C   UNL A   1      42.984  29.532  34.810  1.00  0.00     0.037 A 
BRANCH  26  40
ATOM     40  C   UNL A   1      40.010  33.829  38.178  1.00  0.00     0.064 A 
ATOM     41  C   UNL A   1      39.125  33.470  39.213  1.00  0.00     0.173 A 
ATOM     42  C   UNL A   1      40.712  35.033  38.311  1.00  0.00     0.173 A 
ATOM     43  F   UNL A   1      38.406  32.340  39.128  1.00  0.00    -0.203 F 
ATOM     44  C   UNL A   1      38.900  34.318  40.295  1.00  0.00     0.198 A 
ATOM     45  C   UNL A   1      40.514  35.859  39.417  1.00  0.00     0.198 A 
ATOM     46  F   UNL A   1      41.565  35.428  37.356  1.00  0.00    -0.203 F 
ATOM     47  F   UNL A   1      37.975  34.000  41.213  1.00  0.00    -0.200 F 
ATOM     48  C   UNL A   1      39.595  35.512  40.396  1.00  0.00     0.200 A 
ATOM     49  F   UNL A   1      41.192  37.012  39.517  1.00  0.00    -0.200 F 
ATOM     50  F   UNL A   1      39.365  36.337  41.427  1.00  0.00    -0.200 F 
ENDBRANCH  26  40
BRANCH  27  51
ATOM     51  C   UNL A   1      39.927  28.234  29.761  1.00  0.00     0.064 A 
ATOM     52  C   UNL A   1      40.453  28.775  28.584  1.00  0.00     0.173 A 
ATOM     53  C   UNL A   1      39.383  26.944  29.676  1.00  0.00     0.173 A 
ATOM     54  F   UNL A   1      40.878  30.046  28.564  1.00  0.00    -0.203 F 
ATOM     55  C   UNL A   1      40.495  28.031  27.399  1.00  0.00     0.198 A 
ATOM     56  C   UNL A   1      39.482  26.175  28.517  1.00  0.00     0.198 A 
ATOM     57  F   UNL A   1      38.660  26.459  30.692  1.00  0.00    -0.203 F 
ATOM     58  F   UNL A   1      40.950  28.595  26.271  1.00  0.00    -0.200 F 
ATOM     59  C   UNL A   1      40.043  26.719  27.377  1.00  0.00     0.200 A 
ATOM     60  F   UNL A   1      38.996  24.925  28.499  1.00  0.00    -0.200 F 
ATOM     61  F   UNL A   1      40.100  26.002  26.245  1.00  0.00    -0.200 F 
ENDBRANCH  27  51
BRANCH  39  62
ATOM     62  C   UNL A   1      44.167  28.707  35.196  1.00  0.00     0.064 A 
ATOM     63  C   UNL A   1      45.480  29.121  34.950  1.00  0.00     0.173 A 
ATOM     64  C   UNL A   1      43.962  27.478  35.846  1.00  0.00     0.173 A 
ATOM     65  F   UNL A   1      45.715  30.272  34.303  1.00  0.00    -0.203 F 
ATOM     66  C   UNL A   1      46.553  28.319  35.322  1.00  0.00     0.198 A 
ATOM     67  C   UNL A   1      45.036  26.700  36.250  1.00  0.00     0.198 A 
ATOM     68  F   UNL A   1      42.717  27.045  36.096  1.00  0.00    -0.203 F 
ATOM     69  F   UNL A   1      47.804  28.700  35.027  1.00  0.00    -0.200 F 
ATOM     70  C   UNL A   1      46.332  27.117  35.980  1.00  0.00     0.200 A 
ATOM     71  F   UNL A   1      44.820  25.548  36.898  1.00  0.00    -0.200 F 
ATOM     72  F   UNL A   1      47.369  26.352  36.348  1.00  0.00    -0.200 F 
ENDBRANCH  39  62
ENDBRANCH  13  14
ENDBRANCH   6   8
ENDBRANCH   5   6
ENDBRANCH   4   5
ENDBRANCH   3   4
ENDBRANCH   2   3
ENDBRANCH   1   2
BRANCH   1  73
ATOM     73  C   UNL A   1      34.880  32.587  27.888  1.00  0.00     0.188 C 
BRANCH  73  74
ATOM     74  O   UNL A   1      34.088  31.536  28.423  1.00  0.00    -0.376 OA
BRANCH  74  75
ATOM     75  C   UNL A   1      33.484  30.650  27.486  1.00  0.00     0.202 C 
BRANCH  75  76
ATOM     76  C   UNL A   1      33.881  29.162  27.531  1.00  0.00     0.261 C 
BRANCH  76  77
ATOM     77  O   UNL A   1      33.365  28.328  26.467  1.00  0.00    -0.463 OA
BRANCH  77  78
ATOM     78  C   UNL A   1      32.274  27.558  26.794  1.00  0.00     0.318 C 
ATOM     79  O   UNL A   1      31.615  27.731  27.805  1.00  0.00    -0.251 OA
BRANCH  78  80
ATOM     80  C   UNL A   1      31.942  26.478  25.733  1.00  0.00     0.122 C 
ATOM     81  C   UNL A   1      32.866  25.258  26.003  1.00  0.00     0.031 C 
ATOM     82  C   UNL A   1      30.475  26.056  25.936  1.00  0.00     0.279 C 
ATOM     83  C   UNL A   1      32.393  23.946  25.373  1.00  0.00     0.063 C 
ATOM     84  N   UNL A   1      30.087  24.869  25.177  1.00  0.00    -0.345 N 
ATOM     85  C   UNL A   1      30.897  23.709  25.544  1.00  0.00     0.260 C 
ATOM     86  H   UNL A   1      29.106  24.660  25.365  1.00  0.00     0.346 HD
ATOM     87  H   UNL A   1      30.234  25.061  24.185  1.00  0.00     0.346 HD
BRANCH  80  88
ATOM     88  C   UNL A   1      32.187  27.089  24.342  1.00  0.00     0.082 C 
BRANCH  88  89
ATOM     89  C   UNL A   1      31.167  28.031  23.793  1.00  0.00     0.061 A 
ATOM     90  C   UNL A   1      30.128  27.778  22.921  1.00  0.00     0.116 A 
ATOM     91  N   UNL A   1      31.108  29.337  24.234  1.00  0.00    -0.234 NA
ATOM     92  N   UNL A   1      29.287  28.852  23.028  1.00  0.00    -0.307 N 
ATOM     93  C   UNL A   1      29.995  29.822  23.721  1.00  0.00     0.136 A 
ATOM     94  C   UNL A   1      27.952  28.998  22.652  1.00  0.00     0.093 A 
ATOM     95  C   UNL A   1      29.368  31.086  23.858  1.00  0.00     0.048 A 
ATOM     96  C   UNL A   1      27.303  30.133  22.965  1.00  0.00     0.018 A 
ATOM     97  C   UNL A   1      28.064  31.225  23.548  1.00  0.00     0.005 A 
ENDBRANCH  88  89
ENDBRANCH  80  88
ENDBRANCH  78  80
ENDBRANCH  77  78
ENDBRANCH  76  77
ENDBRANCH  75  76
ENDBRANCH  74  75
ENDBRANCH  73  74
ENDBRANCH   1  73
TORSDOF 19
ENDMDL
MODEL 3
REMARK VINA RESULT:     -11.2      5.670     11.028
REMARK SMILES O=C(OCCOCCOCCOC(=O)[C@@]1(Cc2cn3ccccc3n2)CCC[NH2+]C1)c1ccc(-c2c3nc(c(-c4c(F)c(F)c(F)c(F)c4F)c4ccc([nH]4)c(-c4c(F)c(F)c(F)c(F)c4F)c4nc(c(-c5c(F)c(F)c(F)c(F)c5F)c5ccc2[nH]5)C=C4)C=C3)cc1
REMARK SMILES IDX 7 1 6 2 5 3 4 4 3 5 2 6 1 7 31 8 32 9 93 10 33 11 92 12
REMARK SMILES IDX 34 13 35 14 36 15 86 16 37 17 91 18 85 19 87 20 38 21 90 22
REMARK SMILES IDX 84 23 83 24 39 26 71 27 51 28 70 29 52 30 55 31 69 32 88 33
REMARK SMILES IDX 53 34 54 35 68 37 89 38 56 39 40 40 41 41 49 42 42 43 43 44
REMARK SMILES IDX 47 45 50 46 44 47 45 48 48 49 46 50 72 51 73 52 81 53 74 54
REMARK SMILES IDX 75 55 79 56 82 57 76 58 77 59 80 60 78 61 57 62 58 63 66 64
REMARK SMILES IDX 59 65 60 66 64 67 67 68 61 69 62 70 65 71 63 72 8 73 9 74
REMARK SMILES IDX 10 75 11 76 12 77 13 78 14 79 15 80 26 81 30 82 27 83 29 84
REMARK SMILES IDX 28 85 16 88 17 89 18 90 25 91 19 92 24 93 20 94 23 95 21 96
REMARK SMILES IDX 22 97
REMARK H PARENT 87 25 55 36 29 86 29 87
REMARK Flexibility Score: inf
ROOT
ATOM      1  C   UNL A   1      31.791  29.435  26.045  1.00  0.00     0.188 C 
ENDROOT
BRANCH   1   2
ATOM      2  O   UNL A   1      31.761  30.830  25.740  1.00  0.00    -0.376 OA
BRANCH   2   3
ATOM      3  C   UNL A   1      31.487  31.665  26.874  1.00  0.00     0.202 C 
BRANCH   3   4
ATOM      4  C   UNL A   1      31.898  33.146  26.735  1.00  0.00     0.261 C 
BRANCH   4   5
ATOM      5  O   UNL A   1      32.658  33.650  27.846  1.00  0.00    -0.460 OA
BRANCH   5   6
ATOM      6  C   UNL A   1      33.982  33.941  27.886  1.00  0.00     0.338 C 
ATOM      7  O   UNL A   1      34.366  35.037  27.482  1.00  0.00    -0.246 OA
BRANCH   6   8
ATOM      8  C   UNL A   1      35.005  32.993  28.417  1.00  0.00     0.060 A 
ATOM      9  C   UNL A   1      34.777  31.651  28.719  1.00  0.00     0.016 A 
ATOM     10  C   UNL A   1      36.304  33.477  28.571  1.00  0.00     0.016 A 
ATOM     11  C   UNL A   1      35.746  30.830  29.281  1.00  0.00     0.010 A 
ATOM     12  C   UNL A   1      37.307  32.638  29.062  1.00  0.00     0.010 A 
ATOM     13  C   UNL A   1      37.031  31.308  29.454  1.00  0.00    -0.014 A 
BRANCH  13  14
ATOM     14  C   UNL A   1      38.051  30.507  30.179  1.00  0.00     0.031 A 
ATOM     15  C   UNL A   1      38.354  30.957  31.575  1.00  0.00     0.074 A 
ATOM     16  C   UNL A   1      38.681  29.440  29.639  1.00  0.00     0.049 A 
ATOM     17  N   UNL A   1      39.374  30.692  32.339  1.00  0.00    -0.248 NA
ATOM     18  C   UNL A   1      37.368  31.875  32.185  1.00  0.00     0.031 C 
ATOM     19  C   UNL A   1      38.366  28.805  28.359  1.00  0.00     0.029 A 
ATOM     20  N   UNL A   1      39.785  28.739  30.069  1.00  0.00    -0.354 N 
ATOM     21  C   UNL A   1      39.137  31.393  33.512  1.00  0.00     0.074 A 
ATOM     22  C   UNL A   1      37.982  32.230  33.298  1.00  0.00     0.031 C 
ATOM     23  C   UNL A   1      39.319  27.912  28.044  1.00  0.00     0.029 A 
ATOM     24  C   UNL A   1      40.314  27.906  29.099  1.00  0.00     0.049 A 
ATOM     25  H   UNL A   1      40.158  28.821  30.976  1.00  0.00     0.167 HD
ATOM     26  C   UNL A   1      39.771  31.266  34.698  1.00  0.00     0.037 A 
ATOM     27  C   UNL A   1      41.505  27.275  29.055  1.00  0.00     0.037 A 
ATOM     28  C   UNL A   1      40.887  30.383  34.875  1.00  0.00     0.049 A 
ATOM     29  C   UNL A   1      42.373  27.387  30.269  1.00  0.00     0.074 A 
ATOM     30  C   UNL A   1      41.598  30.096  36.022  1.00  0.00     0.029 A 
ATOM     31  N   UNL A   1      41.452  29.636  33.846  1.00  0.00    -0.354 N 
ATOM     32  N   UNL A   1      42.169  28.070  31.370  1.00  0.00    -0.248 NA
ATOM     33  C   UNL A   1      43.603  26.592  30.262  1.00  0.00     0.031 C 
ATOM     34  C   UNL A   1      42.629  29.216  35.672  1.00  0.00     0.029 A 
ATOM     35  C   UNL A   1      42.526  28.910  34.323  1.00  0.00     0.049 A 
ATOM     36  H   UNL A   1      41.132  29.627  32.914  1.00  0.00     0.167 HD
ATOM     37  C   UNL A   1      43.188  27.709  32.230  1.00  0.00     0.074 A 
ATOM     38  C   UNL A   1      44.057  26.814  31.487  1.00  0.00     0.031 C 
ATOM     39  C   UNL A   1      43.351  28.027  33.538  1.00  0.00     0.037 A 
BRANCH  26  40
ATOM     40  C   UNL A   1      39.235  32.075  35.844  1.00  0.00     0.064 A 
ATOM     41  C   UNL A   1      39.716  33.370  36.120  1.00  0.00     0.173 A 
ATOM     42  C   UNL A   1      38.296  31.528  36.727  1.00  0.00     0.173 A 
ATOM     43  F   UNL A   1      40.636  33.935  35.323  1.00  0.00    -0.203 F 
ATOM     44  C   UNL A   1      39.327  34.052  37.271  1.00  0.00     0.198 A 
ATOM     45  C   UNL A   1      37.878  32.232  37.856  1.00  0.00     0.198 A 
ATOM     46  F   UNL A   1      37.805  30.299  36.517  1.00  0.00    -0.203 F 
ATOM     47  F   UNL A   1      39.879  35.238  37.563  1.00  0.00    -0.200 F 
ATOM     48  C   UNL A   1      38.408  33.483  38.137  1.00  0.00     0.200 A 
ATOM     49  F   UNL A   1      36.984  31.683  38.690  1.00  0.00    -0.200 F 
ATOM     50  F   UNL A   1      38.049  34.130  39.254  1.00  0.00    -0.200 F 
ENDBRANCH  26  40
BRANCH  27  51
ATOM     51  C   UNL A   1      41.964  26.521  27.852  1.00  0.00     0.064 A 
ATOM     52  C   UNL A   1      42.618  27.144  26.785  1.00  0.00     0.173 A 
ATOM     53  C   UNL A   1      41.706  25.149  27.722  1.00  0.00     0.173 A 
ATOM     54  F   UNL A   1      42.788  28.473  26.788  1.00  0.00    -0.203 F 
ATOM     55  C   UNL A   1      43.055  26.410  25.675  1.00  0.00     0.198 A 
ATOM     56  C   UNL A   1      42.196  24.402  26.651  1.00  0.00     0.198 A 
ATOM     57  F   UNL A   1      40.886  24.541  28.588  1.00  0.00    -0.203 F 
ATOM     58  F   UNL A   1      43.626  27.041  24.640  1.00  0.00    -0.200 F 
ATOM     59  C   UNL A   1      42.875  25.035  25.627  1.00  0.00     0.200 A 
ATOM     60  F   UNL A   1      41.972  23.082  26.597  1.00  0.00    -0.200 F 
ATOM     61  F   UNL A   1      43.309  24.331  24.571  1.00  0.00    -0.200 F 
ENDBRANCH  27  51
BRANCH  39  62
ATOM     62  C   UNL A   1      44.433  27.292  34.260  1.00  0.00     0.064 A 
ATOM     63  C   UNL A   1      45.725  27.808  34.397  1.00  0.00     0.173 A 
ATOM     64  C   UNL A   1      44.144  26.045  34.838  1.00  0.00     0.173 A 
ATOM     65  F   UNL A   1      46.048  28.980  33.830  1.00  0.00    -0.203 F 
ATOM     66  C   UNL A   1      46.704  27.088  35.072  1.00  0.00     0.198 A 
ATOM     67  C   UNL A   1      45.112  25.349  35.545  1.00  0.00     0.198 A 
ATOM     68  F   UNL A   1      42.917  25.514  34.724  1.00  0.00    -0.203 F 
ATOM     69  F   UNL A   1      47.953  27.568  35.145  1.00  0.00    -0.200 F 
ATOM     70  C   UNL A   1      46.395  25.866  35.655  1.00  0.00     0.200 A 
ATOM     71  F   UNL A   1      44.807  24.176  36.118  1.00  0.00    -0.200 F 
ATOM     72  F   UNL A   1      47.337  25.180  36.315  1.00  0.00    -0.200 F 
ENDBRANCH  39  62
ENDBRANCH  13  14
ENDBRANCH   6   8
ENDBRANCH   5   6
ENDBRANCH   4   5
ENDBRANCH   3   4
ENDBRANCH   2   3
ENDBRANCH   1   2
BRANCH   1  73
ATOM     73  C   UNL A   1      31.733  28.526  24.817  1.00  0.00     0.188 C 
BRANCH  73  74
ATOM     74  O   UNL A   1      30.601  27.677  24.698  1.00  0.00    -0.376 OA
BRANCH  74  75
ATOM     75  C   UNL A   1      30.858  26.282  24.567  1.00  0.00     0.202 C 
BRANCH  75  76
ATOM     76  C   UNL A   1      30.760  25.403  25.829  1.00  0.00     0.261 C 
BRANCH  76  77
ATOM     77  O   UNL A   1      32.010  25.090  26.490  1.00  0.00    -0.463 OA
BRANCH  77  78
ATOM     78  C   UNL A   1      32.250  23.753  26.698  1.00  0.00     0.318 C 
ATOM     79  O   UNL A   1      31.518  23.039  27.363  1.00  0.00    -0.251 OA
BRANCH  78  80
ATOM     80  C   UNL A   1      33.518  23.234  25.973  1.00  0.00     0.122 C 
ATOM     81  C   UNL A   1      34.275  24.471  25.413  1.00  0.00     0.031 C 
ATOM     82  C   UNL A   1      34.402  22.532  27.019  1.00  0.00     0.279 C 
ATOM     83  C   UNL A   1      35.744  24.220  25.070  1.00  0.00     0.063 C 
ATOM     84  N   UNL A   1      35.747  22.209  26.542  1.00  0.00    -0.345 N 
ATOM     85  C   UNL A   1      36.474  23.411  26.136  1.00  0.00     0.260 C 
ATOM     86  H   UNL A   1      36.263  21.747  27.291  1.00  0.00     0.346 HD
ATOM     87  H   UNL A   1      35.660  21.598  25.729  1.00  0.00     0.346 HD
BRANCH  80  88
ATOM     88  C   UNL A   1      33.066  22.279  24.854  1.00  0.00     0.082 C 
BRANCH  88  89
ATOM     89  C   UNL A   1      33.296  20.815  25.036  1.00  0.00     0.061 A 
ATOM     90  C   UNL A   1      32.449  19.859  25.558  1.00  0.00     0.116 A 
ATOM     91  N   UNL A   1      34.444  20.220  24.556  1.00  0.00    -0.234 NA
ATOM     92  N   UNL A   1      32.967  18.655  25.166  1.00  0.00    -0.307 N 
ATOM     93  C   UNL A   1      34.241  18.925  24.691  1.00  0.00     0.136 A 
ATOM     94  C   UNL A   1      32.380  17.391  25.113  1.00  0.00     0.093 A 
ATOM     95  C   UNL A   1      35.032  17.806  24.329  1.00  0.00     0.048 A 
ATOM     96  C   UNL A   1      33.073  16.368  24.581  1.00  0.00     0.018 A 
ATOM     97  C   UNL A   1      34.463  16.589  24.223  1.00  0.00     0.005 A 
ENDBRANCH  88  89
ENDBRANCH  80  88
ENDBRANCH  78  80
ENDBRANCH  77  78
ENDBRANCH  76  77
ENDBRANCH  75  76
ENDBRANCH  74  75
ENDBRANCH  73  74
ENDBRANCH   1  73
TORSDOF 19
ENDMDL
