MODEL 1
REMARK VINA RESULT:     -10.7      0.000      0.000
REMARK SMILES Cc1cc(=O)n(Cc2cc(C(=O)OCCOCCOCCOC(=O)c3ccc(-c4c5nc(c(-c6c(F)c(F)c(F)c(F)c6F)c6ccc([nH]6)c(-c6c(F)c(F)c(F)c(F)c6F)c6nc(c(-c7c(F)c(F)c(F)c(F)c7F)c7ccc4[nH]7)C=C6)C=C5)cc3)oc2C)cc1[N+](=O)[O-]
REMARK SMILES IDX 17 1 16 2 15 3 14 4 13 5 11 6 12 7 10 8 8 9 9 10 89 11 88 12
REMARK SMILES IDX 90 13 7 14 6 15 1 16 2 17 3 18 92 19 4 20 91 21 5 22 93 23
REMARK SMILES IDX 94 24 95 25 18 26 19 27 20 28 21 29 22 30 23 31 24 32 25 33
REMARK SMILES IDX 26 34 87 35 27 36 86 37 28 38 29 39 30 40 80 41 31 42 85 43
REMARK SMILES IDX 79 44 81 45 32 46 84 47 78 48 77 49 33 51 65 52 45 53 64 54
REMARK SMILES IDX 46 55 49 56 63 57 82 58 47 59 48 60 62 62 83 63 50 64 34 65
REMARK SMILES IDX 35 66 43 67 36 68 37 69 41 70 44 71 38 72 39 73 42 74 40 75
REMARK SMILES IDX 66 76 67 77 75 78 68 79 69 80 73 81 76 82 70 83 71 84 74 85
REMARK SMILES IDX 72 86 51 87 52 88 60 89 53 90 54 91 58 92 61 93 55 94 56 95
REMARK SMILES IDX 59 96 57 97
REMARK H PARENT 81 50 49 61
REMARK Flexibility Score: inf
ROOT
ATOM      1  C   UNL A   1      36.010  32.208  28.194  1.00  0.00     0.188 C 
ENDROOT
BRANCH   1   2
ATOM      2  O   UNL A   1      35.096  31.140  28.385  1.00  0.00    -0.376 OA
BRANCH   2   3
ATOM      3  C   UNL A   1      35.465  29.818  28.018  1.00  0.00     0.202 C 
BRANCH   3   4
ATOM      4  C   UNL A   1      34.434  29.011  27.236  1.00  0.00     0.261 C 
BRANCH   4   5
ATOM      5  O   UNL A   1      33.764  29.827  26.264  1.00  0.00    -0.457 OA
BRANCH   5   6
ATOM      6  C   UNL A   1      32.420  29.973  26.434  1.00  0.00     0.374 C 
ATOM      7  O   UNL A   1      31.878  30.934  26.964  1.00  0.00    -0.242 OA
BRANCH   6   8
ATOM      8  C   UNL A   1      31.738  28.871  25.800  1.00  0.00     0.212 A 
ATOM      9  C   UNL A   1      30.711  26.962  25.151  1.00  0.00     0.014 A 
ATOM     10  C   UNL A   1      31.439  27.588  26.210  1.00  0.00     0.064 A 
ATOM     11  C   UNL A   1      30.713  27.881  24.117  1.00  0.00     0.107 A 
ATOM     12  O   UNL A   1      31.308  29.037  24.513  1.00  0.00    -0.454 OA
ATOM     13  C   UNL A   1      30.209  27.882  22.728  1.00  0.00     0.088 C 
BRANCH   9  14
ATOM     14  C   UNL A   1      30.056  25.614  25.204  1.00  0.00     0.164 C 
BRANCH  14  15
ATOM     15  N   UNL A   1      31.127  24.615  25.173  1.00  0.00    -0.304 N 
ATOM     16  C   UNL A   1      33.573  21.127  24.609  1.00  0.00     0.052 C 
ATOM     17  C   UNL A   1      32.821  22.404  24.857  1.00  0.00     0.034 A 
ATOM     18  C   UNL A   1      32.080  22.524  25.977  1.00  0.00     0.082 A 
ATOM     19  C   UNL A   1      32.808  23.502  23.892  1.00  0.00     0.288 A 
ATOM     20  C   UNL A   1      31.194  23.694  26.214  1.00  0.00     0.251 A 
ATOM     21  C   UNL A   1      31.959  24.534  24.061  1.00  0.00     0.175 A 
ATOM     22  O   UNL A   1      30.536  23.746  27.247  1.00  0.00    -0.269 OA
BRANCH  19  23
ATOM     23  N   UNL A   1      33.675  23.575  22.700  1.00  0.00     0.064 N 
ATOM     24  O   UNL A   1      33.233  23.124  21.632  1.00  0.00    -0.258 OA
ATOM     25  O   UNL A   1      34.792  24.091  22.818  1.00  0.00    -0.258 OA
ENDBRANCH  19  23
ENDBRANCH  14  15
ENDBRANCH   9  14
ENDBRANCH   6   8
ENDBRANCH   5   6
ENDBRANCH   4   5
ENDBRANCH   3   4
ENDBRANCH   2   3
ENDBRANCH   1   2
BRANCH   1  26
ATOM     26  C   UNL A   1      35.656  33.643  28.636  1.00  0.00     0.188 C 
BRANCH  26  27
ATOM     27  O   UNL A   1      34.307  34.084  28.655  1.00  0.00    -0.376 OA
BRANCH  27  28
ATOM     28  C   UNL A   1      34.016  35.457  28.435  1.00  0.00     0.202 C 
BRANCH  28  29
ATOM     29  C   UNL A   1      32.903  36.068  29.282  1.00  0.00     0.261 C 
BRANCH  29  30
ATOM     30  O   UNL A   1      32.513  35.181  30.342  1.00  0.00    -0.460 OA
BRANCH  30  31
ATOM     31  C   UNL A   1      32.671  35.665  31.596  1.00  0.00     0.338 C 
ATOM     32  O   UNL A   1      31.937  36.431  32.196  1.00  0.00    -0.246 OA
BRANCH  31  33
ATOM     33  C   UNL A   1      33.814  34.985  32.231  1.00  0.00     0.060 A 
ATOM     34  C   UNL A   1      33.666  33.748  32.863  1.00  0.00     0.016 A 
ATOM     35  C   UNL A   1      35.067  35.604  32.158  1.00  0.00     0.016 A 
ATOM     36  C   UNL A   1      34.791  33.107  33.386  1.00  0.00     0.010 A 
ATOM     37  C   UNL A   1      36.188  34.969  32.692  1.00  0.00     0.010 A 
ATOM     38  C   UNL A   1      36.060  33.705  33.285  1.00  0.00    -0.014 A 
BRANCH  38  39
ATOM     39  C   UNL A   1      37.269  32.939  33.661  1.00  0.00     0.031 A 
ATOM     40  C   UNL A   1      37.834  31.878  32.770  1.00  0.00     0.074 A 
ATOM     41  C   UNL A   1      37.845  33.209  34.848  1.00  0.00     0.049 A 
ATOM     42  N   UNL A   1      38.932  31.182  32.924  1.00  0.00    -0.248 NA
ATOM     43  C   UNL A   1      37.072  31.548  31.559  1.00  0.00     0.031 C 
ATOM     44  C   UNL A   1      37.350  34.191  35.814  1.00  0.00     0.029 A 
ATOM     45  N   UNL A   1      38.963  32.686  35.443  1.00  0.00    -0.354 N 
ATOM     46  C   UNL A   1      39.010  30.351  31.816  1.00  0.00     0.074 A 
ATOM     47  C   UNL A   1      37.824  30.595  31.021  1.00  0.00     0.031 C 
ATOM     48  C   UNL A   1      38.167  34.206  36.879  1.00  0.00     0.029 A 
ATOM     49  C   UNL A   1      39.235  33.233  36.673  1.00  0.00     0.049 A 
ATOM     50  H   UNL A   1      39.518  31.986  35.029  1.00  0.00     0.167 HD
ATOM     51  C   UNL A   1      39.996  29.480  31.493  1.00  0.00     0.037 A 
ATOM     52  C   UNL A   1      40.240  32.984  37.532  1.00  0.00     0.037 A 
ATOM     53  C   UNL A   1      41.168  29.237  32.295  1.00  0.00     0.049 A 
ATOM     54  C   UNL A   1      41.305  31.994  37.156  1.00  0.00     0.074 A 
ATOM     55  C   UNL A   1      42.252  28.423  32.011  1.00  0.00     0.029 A 
ATOM     56  N   UNL A   1      41.403  29.794  33.543  1.00  0.00    -0.354 N 
ATOM     57  N   UNL A   1      41.423  31.290  36.057  1.00  0.00    -0.248 NA
ATOM     58  C   UNL A   1      42.382  31.775  38.131  1.00  0.00     0.031 C 
ATOM     59  C   UNL A   1      43.121  28.451  33.106  1.00  0.00     0.029 A 
ATOM     60  C   UNL A   1      42.600  29.315  34.056  1.00  0.00     0.049 A 
ATOM     61  H   UNL A   1      40.809  30.434  33.998  1.00  0.00     0.167 HD
ATOM     62  C   UNL A   1      42.594  30.559  36.199  1.00  0.00     0.074 A 
ATOM     63  C   UNL A   1      43.159  30.916  37.483  1.00  0.00     0.031 C 
ATOM     64  C   UNL A   1      43.148  29.671  35.339  1.00  0.00     0.037 A 
BRANCH  51  65
ATOM     65  C   UNL A   1      39.878  28.730  30.201  1.00  0.00     0.064 A 
ATOM     66  C   UNL A   1      40.450  29.227  29.022  1.00  0.00     0.173 A 
ATOM     67  C   UNL A   1      39.298  27.453  30.166  1.00  0.00     0.173 A 
ATOM     68  F   UNL A   1      41.017  30.442  29.007  1.00  0.00    -0.203 F 
ATOM     69  C   UNL A   1      40.448  28.471  27.852  1.00  0.00     0.198 A 
ATOM     70  C   UNL A   1      39.314  26.693  29.000  1.00  0.00     0.198 A 
ATOM     71  F   UNL A   1      38.747  26.930  31.272  1.00  0.00    -0.203 F 
ATOM     72  F   UNL A   1      40.999  28.966  26.735  1.00  0.00    -0.200 F 
ATOM     73  C   UNL A   1      39.890  27.201  27.845  1.00  0.00     0.200 A 
ATOM     74  F   UNL A   1      38.790  25.459  28.998  1.00  0.00    -0.200 F 
ATOM     75  F   UNL A   1      39.915  26.464  26.726  1.00  0.00    -0.200 F 
ENDBRANCH  51  65
BRANCH  52  76
ATOM     76  C   UNL A   1      40.300  33.721  38.818  1.00  0.00     0.064 A 
ATOM     77  C   UNL A   1      41.077  34.879  38.947  1.00  0.00     0.173 A 
ATOM     78  C   UNL A   1      39.565  33.295  39.935  1.00  0.00     0.173 A 
ATOM     79  F   UNL A   1      41.809  35.312  37.910  1.00  0.00    -0.203 F 
ATOM     80  C   UNL A   1      41.127  35.579  40.150  1.00  0.00     0.198 A 
ATOM     81  C   UNL A   1      39.598  34.009  41.130  1.00  0.00     0.198 A 
ATOM     82  F   UNL A   1      38.802  32.195  39.856  1.00  0.00    -0.203 F 
ATOM     83  F   UNL A   1      41.903  36.666  40.259  1.00  0.00    -0.200 F 
ATOM     84  C   UNL A   1      40.382  35.147  41.238  1.00  0.00     0.200 A 
ATOM     85  F   UNL A   1      38.869  33.595  42.175  1.00  0.00    -0.200 F 
ATOM     86  F   UNL A   1      40.426  35.825  42.394  1.00  0.00    -0.200 F 
ENDBRANCH  52  76
BRANCH  64  87
ATOM     87  C   UNL A   1      44.434  29.021  35.753  1.00  0.00     0.064 A 
ATOM     88  C   UNL A   1      44.443  27.803  36.446  1.00  0.00     0.173 A 
ATOM     89  C   UNL A   1      45.668  29.590  35.404  1.00  0.00     0.173 A 
ATOM     90  F   UNL A   1      43.288  27.228  36.816  1.00  0.00    -0.203 F 
ATOM     91  C   UNL A   1      45.642  27.184  36.788  1.00  0.00     0.198 A 
ATOM     92  C   UNL A   1      46.864  28.956  35.725  1.00  0.00     0.198 A 
ATOM     93  F   UNL A   1      45.711  30.753  34.736  1.00  0.00    -0.203 F 
ATOM     94  F   UNL A   1      45.629  26.037  37.480  1.00  0.00    -0.200 F 
ATOM     95  C   UNL A   1      46.851  27.756  36.420  1.00  0.00     0.200 A 
ATOM     96  F   UNL A   1      48.031  29.505  35.360  1.00  0.00    -0.200 F 
ATOM     97  F   UNL A   1      48.004  27.153  36.740  1.00  0.00    -0.200 F 
ENDBRANCH  64  87
ENDBRANCH  38  39
ENDBRANCH  31  33
ENDBRANCH  30  31
ENDBRANCH  29  30
ENDBRANCH  28  29
ENDBRANCH  27  28
ENDBRANCH  26  27
ENDBRANCH   1  26
TORSDOF 20
ENDMDL
MODEL 2
REMARK VINA RESULT:     -10.6      0.642      7.084
REMARK SMILES Cc1cc(=O)n(Cc2cc(C(=O)OCCOCCOCCOC(=O)c3ccc(-c4c5nc(c(-c6c(F)c(F)c(F)c(F)c6F)c6ccc([nH]6)c(-c6c(F)c(F)c(F)c(F)c6F)c6nc(c(-c7c(F)c(F)c(F)c(F)c7F)c7ccc4[nH]7)C=C6)C=C5)cc3)oc2C)cc1[N+](=O)[O-]
REMARK SMILES IDX 17 1 16 2 15 3 14 4 13 5 11 6 12 7 10 8 8 9 9 10 89 11 88 12
REMARK SMILES IDX 90 13 7 14 6 15 1 16 2 17 3 18 92 19 4 20 91 21 5 22 93 23
REMARK SMILES IDX 94 24 95 25 18 26 19 27 20 28 21 29 22 30 23 31 24 32 25 33
REMARK SMILES IDX 26 34 87 35 27 36 86 37 28 38 29 39 30 40 80 41 31 42 85 43
REMARK SMILES IDX 79 44 81 45 32 46 84 47 78 48 77 49 33 51 65 52 45 53 64 54
REMARK SMILES IDX 46 55 49 56 63 57 82 58 47 59 48 60 62 62 83 63 50 64 34 65
REMARK SMILES IDX 35 66 43 67 36 68 37 69 41 70 44 71 38 72 39 73 42 74 40 75
REMARK SMILES IDX 66 76 67 77 75 78 68 79 69 80 73 81 76 82 70 83 71 84 74 85
REMARK SMILES IDX 72 86 51 87 52 88 60 89 53 90 54 91 58 92 61 93 55 94 56 95
REMARK SMILES IDX 59 96 57 97
REMARK H PARENT 81 50 49 61
REMARK Flexibility Score: inf
ROOT
ATOM      1  C   UNL A   1      35.745  32.623  28.606  1.00  0.00     0.188 C 
ENDROOT
BRANCH   1   2
ATOM      2  O   UNL A   1      35.438  31.644  27.625  1.00  0.00    -0.376 OA
BRANCH   2   3
ATOM      3  C   UNL A   1      35.608  30.266  27.923  1.00  0.00     0.202 C 
BRANCH   3   4
ATOM      4  C   UNL A   1      34.783  29.280  27.102  1.00  0.00     0.261 C 
BRANCH   4   5
ATOM      5  O   UNL A   1      33.454  29.152  27.627  1.00  0.00    -0.457 OA
BRANCH   5   6
ATOM      6  C   UNL A   1      32.464  29.726  26.887  1.00  0.00     0.374 C 
ATOM      7  O   UNL A   1      32.253  30.930  26.809  1.00  0.00    -0.242 OA
BRANCH   6   8
ATOM      8  C   UNL A   1      31.778  28.705  26.135  1.00  0.00     0.212 A 
ATOM      9  C   UNL A   1      30.759  26.878  25.270  1.00  0.00     0.014 A 
ATOM     10  C   UNL A   1      31.513  27.373  26.380  1.00  0.00     0.064 A 
ATOM     11  C   UNL A   1      30.710  27.927  24.369  1.00  0.00     0.107 A 
ATOM     12  O   UNL A   1      31.300  29.032  24.897  1.00  0.00    -0.454 OA
ATOM     13  C   UNL A   1      30.158  28.102  23.010  1.00  0.00     0.088 C 
BRANCH   9  14
ATOM     14  C   UNL A   1      30.128  25.522  25.165  1.00  0.00     0.164 C 
BRANCH  14  15
ATOM     15  N   UNL A   1      31.216  24.541  25.165  1.00  0.00    -0.304 N 
ATOM     16  C   UNL A   1      33.726  21.084  24.695  1.00  0.00     0.052 C 
ATOM     17  C   UNL A   1      32.950  22.353  24.910  1.00  0.00     0.034 A 
ATOM     18  C   UNL A   1      32.196  22.484  26.021  1.00  0.00     0.082 A 
ATOM     19  C   UNL A   1      32.927  23.431  23.921  1.00  0.00     0.288 A 
ATOM     20  C   UNL A   1      31.289  23.643  26.225  1.00  0.00     0.251 A 
ATOM     21  C   UNL A   1      32.059  24.451  24.061  1.00  0.00     0.175 A 
ATOM     22  O   UNL A   1      30.621  23.707  27.251  1.00  0.00    -0.269 OA
BRANCH  19  23
ATOM     23  N   UNL A   1      33.802  23.493  22.736  1.00  0.00     0.064 N 
ATOM     24  O   UNL A   1      33.284  23.327  21.621  1.00  0.00    -0.258 OA
ATOM     25  O   UNL A   1      35.006  23.718  22.907  1.00  0.00    -0.258 OA
ENDBRANCH  19  23
ENDBRANCH  14  15
ENDBRANCH   9  14
ENDBRANCH   6   8
ENDBRANCH   5   6
ENDBRANCH   4   5
ENDBRANCH   3   4
ENDBRANCH   2   3
ENDBRANCH   1   2
BRANCH   1  26
ATOM     26  C   UNL A   1      34.682  33.083  29.625  1.00  0.00     0.188 C 
BRANCH  26  27
ATOM     27  O   UNL A   1      33.551  33.831  29.206  1.00  0.00    -0.376 OA
BRANCH  27  28
ATOM     28  C   UNL A   1      33.652  35.243  29.080  1.00  0.00     0.202 C 
BRANCH  28  29
ATOM     29  C   UNL A   1      32.669  36.077  29.896  1.00  0.00     0.261 C 
BRANCH  29  30
ATOM     30  O   UNL A   1      33.194  36.366  31.201  1.00  0.00    -0.460 OA
BRANCH  30  31
ATOM     31  C   UNL A   1      32.849  35.493  32.175  1.00  0.00     0.338 C 
ATOM     32  O   UNL A   1      31.727  35.137  32.493  1.00  0.00    -0.246 OA
BRANCH  31  33
ATOM     33  C   UNL A   1      34.072  34.876  32.719  1.00  0.00     0.060 A 
ATOM     34  C   UNL A   1      34.030  33.661  33.408  1.00  0.00     0.016 A 
ATOM     35  C   UNL A   1      35.290  35.530  32.499  1.00  0.00     0.016 A 
ATOM     36  C   UNL A   1      35.222  33.078  33.842  1.00  0.00     0.010 A 
ATOM     37  C   UNL A   1      36.479  34.953  32.943  1.00  0.00     0.010 A 
ATOM     38  C   UNL A   1      36.454  33.711  33.593  1.00  0.00    -0.014 A 
BRANCH  38  39
ATOM     39  C   UNL A   1      37.720  32.999  33.876  1.00  0.00     0.031 A 
ATOM     40  C   UNL A   1      38.539  33.307  35.089  1.00  0.00     0.074 A 
ATOM     41  C   UNL A   1      38.134  32.070  32.993  1.00  0.00     0.049 A 
ATOM     42  N   UNL A   1      39.625  32.711  35.515  1.00  0.00    -0.248 NA
ATOM     43  C   UNL A   1      38.093  34.426  35.929  1.00  0.00     0.031 C 
ATOM     44  C   UNL A   1      37.436  31.723  31.754  1.00  0.00     0.029 A 
ATOM     45  N   UNL A   1      39.233  31.252  32.999  1.00  0.00    -0.354 N 
ATOM     46  C   UNL A   1      39.978  33.363  36.687  1.00  0.00     0.074 A 
ATOM     47  C   UNL A   1      39.018  34.431  36.882  1.00  0.00     0.031 C 
ATOM     48  C   UNL A   1      38.121  30.757  31.123  1.00  0.00     0.029 A 
ATOM     49  C   UNL A   1      39.305  30.422  31.908  1.00  0.00     0.049 A 
ATOM     50  H   UNL A   1      39.907  31.259  33.718  1.00  0.00     0.167 HD
ATOM     51  C   UNL A   1      41.001  33.076  37.527  1.00  0.00     0.037 A 
ATOM     52  C   UNL A   1      40.217  29.489  31.583  1.00  0.00     0.037 A 
ATOM     53  C   UNL A   1      41.957  32.017  37.320  1.00  0.00     0.049 A 
ATOM     54  C   UNL A   1      41.355  29.211  32.523  1.00  0.00     0.074 A 
ATOM     55  C   UNL A   1      42.985  31.611  38.154  1.00  0.00     0.029 A 
ATOM     56  N   UNL A   1      42.011  31.208  36.195  1.00  0.00    -0.354 N 
ATOM     57  N   UNL A   1      41.620  29.763  33.682  1.00  0.00    -0.248 NA
ATOM     58  C   UNL A   1      42.312  28.171  32.118  1.00  0.00     0.031 C 
ATOM     59  C   UNL A   1      43.691  30.587  37.514  1.00  0.00     0.029 A 
ATOM     60  C   UNL A   1      43.077  30.326  36.299  1.00  0.00     0.049 A 
ATOM     61  H   UNL A   1      41.387  31.253  35.436  1.00  0.00     0.167 HD
ATOM     62  C   UNL A   1      42.761  29.129  34.153  1.00  0.00     0.074 A 
ATOM     63  C   UNL A   1      43.129  28.138  33.163  1.00  0.00     0.031 C 
ATOM     64  C   UNL A   1      43.439  29.351  35.304  1.00  0.00     0.037 A 
BRANCH  51  65
ATOM     65  C   UNL A   1      41.143  33.898  38.771  1.00  0.00     0.064 A 
ATOM     66  C   UNL A   1      41.950  35.045  38.792  1.00  0.00     0.173 A 
ATOM     67  C   UNL A   1      40.376  33.611  39.910  1.00  0.00     0.173 A 
ATOM     68  F   UNL A   1      42.701  35.361  37.727  1.00  0.00    -0.203 F 
ATOM     69  C   UNL A   1      41.983  35.876  39.909  1.00  0.00     0.198 A 
ATOM     70  C   UNL A   1      40.397  34.454  41.017  1.00  0.00     0.198 A 
ATOM     71  F   UNL A   1      39.580  32.531  39.933  1.00  0.00    -0.203 F 
ATOM     72  F   UNL A   1      42.763  36.966  39.909  1.00  0.00    -0.200 F 
ATOM     73  C   UNL A   1      41.199  35.586  41.015  1.00  0.00     0.200 A 
ATOM     74  F   UNL A   1      39.626  34.183  42.080  1.00  0.00    -0.200 F 
ATOM     75  F   UNL A   1      41.209  36.403  42.078  1.00  0.00    -0.200 F 
ENDBRANCH  51  65
BRANCH  52  76
ATOM     76  C   UNL A   1      40.061  28.723  30.322  1.00  0.00     0.064 A 
ATOM     77  C   UNL A   1      40.598  29.200  29.120  1.00  0.00     0.173 A 
ATOM     78  C   UNL A   1      39.393  27.489  30.300  1.00  0.00     0.173 A 
ATOM     79  F   UNL A   1      41.230  30.383  29.093  1.00  0.00    -0.203 F 
ATOM     80  C   UNL A   1      40.463  28.478  27.937  1.00  0.00     0.198 A 
ATOM     81  C   UNL A   1      39.278  26.757  29.121  1.00  0.00     0.198 A 
ATOM     82  F   UNL A   1      38.868  26.990  31.428  1.00  0.00    -0.203 F 
ATOM     83  F   UNL A   1      40.957  28.970  26.793  1.00  0.00    -0.200 F 
ATOM     84  C   UNL A   1      39.809  27.254  27.940  1.00  0.00     0.200 A 
ATOM     85  F   UNL A   1      38.656  25.571  29.129  1.00  0.00    -0.200 F 
ATOM     86  F   UNL A   1      39.685  26.557  26.802  1.00  0.00    -0.200 F 
ENDBRANCH  52  76
BRANCH  64  87
ATOM     87  C   UNL A   1      44.651  28.507  35.563  1.00  0.00     0.064 A 
ATOM     88  C   UNL A   1      45.923  28.908  35.130  1.00  0.00     0.173 A 
ATOM     89  C   UNL A   1      44.550  27.317  36.300  1.00  0.00     0.173 A 
ATOM     90  F   UNL A   1      46.067  30.030  34.408  1.00  0.00    -0.203 F 
ATOM     91  C   UNL A   1      47.049  28.141  35.413  1.00  0.00     0.198 A 
ATOM     92  C   UNL A   1      45.682  26.565  36.602  1.00  0.00     0.198 A 
ATOM     93  F   UNL A   1      43.356  26.893  36.740  1.00  0.00    -0.203 F 
ATOM     94  F   UNL A   1      48.250  28.525  34.961  1.00  0.00    -0.200 F 
ATOM     95  C   UNL A   1      46.929  26.976  36.156  1.00  0.00     0.200 A 
ATOM     96  F   UNL A   1      45.566  25.445  37.329  1.00  0.00    -0.200 F 
ATOM     97  F   UNL A   1      48.017  26.244  36.437  1.00  0.00    -0.200 F 
ENDBRANCH  64  87
ENDBRANCH  38  39
ENDBRANCH  31  33
ENDBRANCH  30  31
ENDBRANCH  29  30
ENDBRANCH  28  29
ENDBRANCH  27  28
ENDBRANCH  26  27
ENDBRANCH   1  26
TORSDOF 20
ENDMDL
MODEL 3
REMARK VINA RESULT:     -10.3      1.836      7.734
REMARK SMILES Cc1cc(=O)n(Cc2cc(C(=O)OCCOCCOCCOC(=O)c3ccc(-c4c5nc(c(-c6c(F)c(F)c(F)c(F)c6F)c6ccc([nH]6)c(-c6c(F)c(F)c(F)c(F)c6F)c6nc(c(-c7c(F)c(F)c(F)c(F)c7F)c7ccc4[nH]7)C=C6)C=C5)cc3)oc2C)cc1[N+](=O)[O-]
REMARK SMILES IDX 17 1 16 2 15 3 14 4 13 5 11 6 12 7 10 8 8 9 9 10 89 11 88 12
REMARK SMILES IDX 90 13 7 14 6 15 1 16 2 17 3 18 92 19 4 20 91 21 5 22 93 23
REMARK SMILES IDX 94 24 95 25 18 26 19 27 20 28 21 29 22 30 23 31 24 32 25 33
REMARK SMILES IDX 26 34 87 35 27 36 86 37 28 38 29 39 30 40 80 41 31 42 85 43
REMARK SMILES IDX 79 44 81 45 32 46 84 47 78 48 77 49 33 51 65 52 45 53 64 54
REMARK SMILES IDX 46 55 49 56 63 57 82 58 47 59 48 60 62 62 83 63 50 64 34 65
REMARK SMILES IDX 35 66 43 67 36 68 37 69 41 70 44 71 38 72 39 73 42 74 40 75
REMARK SMILES IDX 66 76 67 77 75 78 68 79 69 80 73 81 76 82 70 83 71 84 74 85
REMARK SMILES IDX 72 86 51 87 52 88 60 89 53 90 54 91 58 92 61 93 55 94 56 95
REMARK SMILES IDX 59 96 57 97
REMARK H PARENT 81 50 49 61
REMARK Flexibility Score: inf
ROOT
ATOM      1  C   UNL A   1      32.103  28.642  26.738  1.00  0.00     0.188 C 
ENDROOT
BRANCH   1   2
ATOM      2  O   UNL A   1      31.654  28.577  25.393  1.00  0.00    -0.376 OA
BRANCH   2   3
ATOM      3  C   UNL A   1      32.505  29.012  24.342  1.00  0.00     0.202 C 
BRANCH   3   4
ATOM      4  C   UNL A   1      33.371  27.947  23.677  1.00  0.00     0.261 C 
BRANCH   4   5
ATOM      5  O   UNL A   1      32.807  27.525  22.427  1.00  0.00    -0.457 OA
BRANCH   5   6
ATOM      6  C   UNL A   1      31.506  27.122  22.467  1.00  0.00     0.374 C 
ATOM      7  O   UNL A   1      30.554  27.777  22.061  1.00  0.00    -0.242 OA
BRANCH   6   8
ATOM      8  C   UNL A   1      31.441  25.770  22.964  1.00  0.00     0.212 A 
ATOM      9  C   UNL A   1      31.454  23.545  23.381  1.00  0.00     0.014 A 
ATOM     10  C   UNL A   1      31.606  24.538  22.364  1.00  0.00     0.064 A 
ATOM     11  C   UNL A   1      31.096  24.245  24.520  1.00  0.00     0.107 A 
ATOM     12  O   UNL A   1      31.112  25.582  24.277  1.00  0.00    -0.454 OA
ATOM     13  C   UNL A   1      30.729  23.865  25.899  1.00  0.00     0.088 C 
BRANCH   9  14
ATOM     14  C   UNL A   1      31.690  22.073  23.223  1.00  0.00     0.164 C 
BRANCH  14  15
ATOM     15  N   UNL A   1      32.946  21.764  23.911  1.00  0.00    -0.304 N 
ATOM     16  C   UNL A   1      36.832  20.350  25.082  1.00  0.00     0.052 C 
ATOM     17  C   UNL A   1      35.469  20.909  24.784  1.00  0.00     0.034 A 
ATOM     18  C   UNL A   1      34.378  20.168  25.064  1.00  0.00     0.082 A 
ATOM     19  C   UNL A   1      35.283  22.206  24.135  1.00  0.00     0.288 A 
ATOM     20  C   UNL A   1      33.012  20.593  24.659  1.00  0.00     0.251 A 
ATOM     21  C   UNL A   1      34.061  22.570  23.702  1.00  0.00     0.175 A 
ATOM     22  O   UNL A   1      32.056  19.875  24.933  1.00  0.00    -0.269 OA
BRANCH  19  23
ATOM     23  N   UNL A   1      36.363  23.183  23.899  1.00  0.00     0.064 N 
ATOM     24  O   UNL A   1      36.714  23.901  24.848  1.00  0.00    -0.258 OA
ATOM     25  O   UNL A   1      36.872  23.235  22.774  1.00  0.00    -0.258 OA
ENDBRANCH  19  23
ENDBRANCH  14  15
ENDBRANCH   9  14
ENDBRANCH   6   8
ENDBRANCH   5   6
ENDBRANCH   4   5
ENDBRANCH   3   4
ENDBRANCH   2   3
ENDBRANCH   1   2
BRANCH   1  26
ATOM     26  C   UNL A   1      33.295  29.537  27.134  1.00  0.00     0.188 C 
BRANCH  26  27
ATOM     27  O   UNL A   1      33.108  30.918  27.403  1.00  0.00    -0.376 OA
BRANCH  27  28
ATOM     28  C   UNL A   1      31.957  31.580  26.897  1.00  0.00     0.202 C 
BRANCH  28  29
ATOM     29  C   UNL A   1      31.843  33.075  27.184  1.00  0.00     0.261 C 
BRANCH  29  30
ATOM     30  O   UNL A   1      33.139  33.671  27.348  1.00  0.00    -0.460 OA
BRANCH  30  31
ATOM     31  C   UNL A   1      33.292  34.443  28.448  1.00  0.00     0.338 C 
ATOM     32  O   UNL A   1      32.570  35.348  28.829  1.00  0.00    -0.246 OA
BRANCH  31  33
ATOM     33  C   UNL A   1      34.409  33.915  29.252  1.00  0.00     0.060 A 
ATOM     34  C   UNL A   1      34.214  32.898  30.190  1.00  0.00     0.016 A 
ATOM     35  C   UNL A   1      35.686  34.443  29.026  1.00  0.00     0.016 A 
ATOM     36  C   UNL A   1      35.315  32.379  30.875  1.00  0.00     0.010 A 
ATOM     37  C   UNL A   1      36.782  33.933  29.720  1.00  0.00     0.010 A 
ATOM     38  C   UNL A   1      36.606  32.880  30.628  1.00  0.00    -0.014 A 
BRANCH  38  39
ATOM     39  C   UNL A   1      37.785  32.197  31.205  1.00  0.00     0.031 A 
ATOM     40  C   UNL A   1      38.308  32.546  32.563  1.00  0.00     0.074 A 
ATOM     41  C   UNL A   1      38.397  31.255  30.462  1.00  0.00     0.049 A 
ATOM     42  N   UNL A   1      39.278  31.980  33.236  1.00  0.00    -0.248 NA
ATOM     43  C   UNL A   1      37.671  33.676  33.253  1.00  0.00     0.031 C 
ATOM     44  C   UNL A   1      37.999  30.869  29.108  1.00  0.00     0.029 A 
ATOM     45  N   UNL A   1      39.477  30.458  30.735  1.00  0.00    -0.354 N 
ATOM     46  C   UNL A   1      39.351  32.664  34.440  1.00  0.00     0.074 A 
ATOM     47  C   UNL A   1      38.359  33.718  34.388  1.00  0.00     0.031 C 
ATOM     48  C   UNL A   1      38.820  29.901  28.671  1.00  0.00     0.029 A 
ATOM     49  C   UNL A   1      39.802  29.605  29.709  1.00  0.00     0.049 A 
ATOM     50  H   UNL A   1      39.973  30.492  31.586  1.00  0.00     0.167 HD
ATOM     51  C   UNL A   1      40.164  32.414  35.495  1.00  0.00     0.037 A 
ATOM     52  C   UNL A   1      40.775  28.680  29.621  1.00  0.00     0.037 A 
ATOM     53  C   UNL A   1      41.154  31.368  35.534  1.00  0.00     0.049 A 
ATOM     54  C   UNL A   1      41.677  28.444  30.798  1.00  0.00     0.074 A 
ATOM     55  C   UNL A   1      41.975  30.998  36.587  1.00  0.00     0.029 A 
ATOM     56  N   UNL A   1      41.469  30.535  34.472  1.00  0.00    -0.354 N 
ATOM     57  N   UNL A   1      41.669  29.027  31.972  1.00  0.00    -0.248 NA
ATOM     58  C   UNL A   1      42.713  27.413  30.645  1.00  0.00     0.031 C 
ATOM     59  C   UNL A   1      42.818  29.973  36.148  1.00  0.00     0.029 A 
ATOM     60  C   UNL A   1      42.495  29.673  34.834  1.00  0.00     0.049 A 
ATOM     61  H   UNL A   1      41.030  30.551  33.591  1.00  0.00     0.167 HD
ATOM     62  C   UNL A   1      42.682  28.423  32.703  1.00  0.00     0.074 A 
ATOM     63  C   UNL A   1      43.275  27.417  31.846  1.00  0.00     0.031 C 
ATOM     64  C   UNL A   1      43.083  28.683  33.970  1.00  0.00     0.037 A 
BRANCH  51  65
ATOM     65  C   UNL A   1      40.013  33.266  36.718  1.00  0.00     0.064 A 
ATOM     66  C   UNL A   1      39.119  32.913  37.739  1.00  0.00     0.173 A 
ATOM     67  C   UNL A   1      40.852  34.371  36.928  1.00  0.00     0.173 A 
ATOM     68  F   UNL A   1      38.299  31.864  37.584  1.00  0.00    -0.203 F 
ATOM     69  C   UNL A   1      39.071  33.636  38.928  1.00  0.00     0.198 A 
ATOM     70  C   UNL A   1      40.814  35.079  38.125  1.00  0.00     0.198 A 
ATOM     71  F   UNL A   1      41.732  34.740  35.985  1.00  0.00    -0.203 F 
ATOM     72  F   UNL A   1      38.207  33.283  39.890  1.00  0.00    -0.200 F 
ATOM     73  C   UNL A   1      39.925  34.710  39.125  1.00  0.00     0.200 A 
ATOM     74  F   UNL A   1      41.652  36.107  38.322  1.00  0.00    -0.200 F 
ATOM     75  F   UNL A   1      39.897  35.386  40.282  1.00  0.00    -0.200 F 
ENDBRANCH  51  65
BRANCH  52  76
ATOM     76  C   UNL A   1      40.915  27.884  28.378  1.00  0.00     0.064 A 
ATOM     77  C   UNL A   1      40.266  26.650  28.238  1.00  0.00     0.173 A 
ATOM     78  C   UNL A   1      41.680  28.350  27.298  1.00  0.00     0.173 A 
ATOM     79  F   UNL A   1      39.539  26.158  29.251  1.00  0.00    -0.203 F 
ATOM     80  C   UNL A   1      40.387  25.905  27.068  1.00  0.00     0.198 A 
ATOM     81  C   UNL A   1      41.781  27.615  26.120  1.00  0.00     0.198 A 
ATOM     82  F   UNL A   1      42.314  29.528  27.385  1.00  0.00    -0.203 F 
ATOM     83  F   UNL A   1      39.783  24.712  26.969  1.00  0.00    -0.200 F 
ATOM     84  C   UNL A   1      41.139  26.391  26.007  1.00  0.00     0.200 A 
ATOM     85  F   UNL A   1      42.499  28.092  25.094  1.00  0.00    -0.200 F 
ATOM     86  F   UNL A   1      41.249  25.675  24.879  1.00  0.00    -0.200 F 
ENDBRANCH  52  76
BRANCH  64  87
ATOM     87  C   UNL A   1      44.216  27.867  34.516  1.00  0.00     0.064 A 
ATOM     88  C   UNL A   1      43.991  26.626  35.127  1.00  0.00     0.173 A 
ATOM     89  C   UNL A   1      45.543  28.302  34.375  1.00  0.00     0.173 A 
ATOM     90  F   UNL A   1      42.739  26.175  35.299  1.00  0.00    -0.203 F 
ATOM     91  C   UNL A   1      45.053  25.855  35.591  1.00  0.00     0.198 A 
ATOM     92  C   UNL A   1      46.604  27.517  34.817  1.00  0.00     0.198 A 
ATOM     93  F   UNL A   1      45.810  29.481  33.792  1.00  0.00    -0.203 F 
ATOM     94  F   UNL A   1      44.814  24.687  36.203  1.00  0.00    -0.200 F 
ATOM     95  C   UNL A   1      46.358  26.296  35.428  1.00  0.00     0.200 A 
ATOM     96  F   UNL A   1      47.864  27.940  34.650  1.00  0.00    -0.200 F 
ATOM     97  F   UNL A   1      47.380  25.547  35.865  1.00  0.00    -0.200 F 
ENDBRANCH  64  87
ENDBRANCH  38  39
ENDBRANCH  31  33
ENDBRANCH  30  31
ENDBRANCH  29  30
ENDBRANCH  28  29
ENDBRANCH  27  28
ENDBRANCH  26  27
ENDBRANCH   1  26
TORSDOF 20
ENDMDL
