MODEL 1
REMARK VINA RESULT:     -12.7      0.000      0.000
REMARK SMILES O=C(OCCOCCOCCOC(=O)[C@H]1[C@H]2CC[C@H](C2)[C@@H]1C(=O)Nc1sc2c(c1C(=O)NC1CCCCC1)CCCC2)c1ccc(-c2c3nc(c(-c4c(F)c(F)c(F)c(F)c4F)c4ccc([nH]4)c(-c4c(F)c(F)c(F)c(F)c4F)c4nc(c(-c5c(F)c(F)c(F)c(F)c5F)c5ccc2[nH]5)C=C4)C=C3)cc1
REMARK SMILES IDX 8 1 7 2 6 3 5 4 4 5 3 6 2 7 1 8 43 9 44 10 105 11 45 12
REMARK SMILES IDX 104 13 46 14 47 15 48 16 98 17 49 18 103 19 97 20 99 21
REMARK SMILES IDX 50 22 102 23 96 24 95 25 51 27 83 28 63 29 82 30 64 31 67 32
REMARK SMILES IDX 81 33 100 34 65 35 66 36 80 38 101 39 68 40 52 41 53 42
REMARK SMILES IDX 61 43 54 44 55 45 59 46 62 47 56 48 57 49 60 50 58 51 84 52
REMARK SMILES IDX 85 53 93 54 86 55 87 56 91 57 94 58 88 59 89 60 92 61 90 62
REMARK SMILES IDX 69 63 70 64 78 65 71 66 72 67 76 68 79 69 73 70 74 71 77 72
REMARK SMILES IDX 75 73 9 74 10 75 11 76 12 77 13 78 14 79 15 80 16 81 21 82
REMARK SMILES IDX 17 83 20 84 19 85 18 86 22 87 23 88 24 89 25 91 26 92 29 93
REMARK SMILES IDX 27 94 28 95 42 96 39 97 41 98 40 99 30 100 31 101 32 102
REMARK SMILES IDX 33 104 34 105 38 106 35 107 37 108 36 109
REMARK H PARENT 99 26 67 37 24 90 32 103
REMARK Flexibility Score: inf
ROOT
ATOM      1  C   UNL A   1      40.054  21.727  26.075  1.00  0.00     0.188 C 
ENDROOT
BRANCH   1   2
ATOM      2  C   UNL A   1      40.659  20.440  26.645  1.00  0.00     0.188 C 
BRANCH   2   3
ATOM      3  O   UNL A   1      42.063  20.565  26.910  1.00  0.00    -0.376 OA
BRANCH   3   4
ATOM      4  C   UNL A   1      42.892  20.033  25.873  1.00  0.00     0.202 C 
BRANCH   4   5
ATOM      5  C   UNL A   1      43.963  20.997  25.341  1.00  0.00     0.261 C 
BRANCH   5   6
ATOM      6  O   UNL A   1      43.426  22.263  24.931  1.00  0.00    -0.460 OA
BRANCH   6   7
ATOM      7  C   UNL A   1      43.916  23.505  25.180  1.00  0.00     0.338 C 
ATOM      8  O   UNL A   1      44.638  24.019  24.327  1.00  0.00    -0.246 OA
BRANCH   7   9
ATOM      9  C   UNL A   1      43.584  24.303  26.409  1.00  0.00     0.060 A 
ATOM     10  C   UNL A   1      42.576  24.006  27.327  1.00  0.00     0.016 A 
ATOM     11  C   UNL A   1      44.398  25.410  26.696  1.00  0.00     0.016 A 
ATOM     12  C   UNL A   1      42.270  24.850  28.398  1.00  0.00     0.010 A 
ATOM     13  C   UNL A   1      44.168  26.199  27.835  1.00  0.00     0.010 A 
ATOM     14  C   UNL A   1      43.045  25.973  28.658  1.00  0.00    -0.014 A 
BRANCH  14  15
ATOM     15  C   UNL A   1      42.589  27.034  29.599  1.00  0.00     0.031 A 
ATOM     16  C   UNL A   1      43.111  26.964  31.011  1.00  0.00     0.074 A 
ATOM     17  C   UNL A   1      41.889  28.142  29.270  1.00  0.00     0.049 A 
ATOM     18  N   UNL A   1      42.731  27.614  32.079  1.00  0.00    -0.248 NA
ATOM     19  C   UNL A   1      44.271  26.079  31.227  1.00  0.00     0.031 C 
ATOM     20  C   UNL A   1      41.598  28.641  27.928  1.00  0.00     0.029 A 
ATOM     21  N   UNL A   1      41.257  29.058  30.095  1.00  0.00    -0.354 N 
ATOM     22  C   UNL A   1      43.642  27.264  33.064  1.00  0.00     0.074 A 
ATOM     23  C   UNL A   1      44.497  26.236  32.520  1.00  0.00     0.031 C 
ATOM     24  C   UNL A   1      40.795  29.716  28.033  1.00  0.00     0.029 A 
ATOM     25  C   UNL A   1      40.358  29.847  29.409  1.00  0.00     0.049 A 
ATOM     26  H   UNL A   1      41.428  29.135  31.062  1.00  0.00     0.167 HD
ATOM     27  C   UNL A   1      43.817  27.827  34.281  1.00  0.00     0.037 A 
ATOM     28  C   UNL A   1      39.230  30.434  29.863  1.00  0.00     0.037 A 
ATOM     29  C   UNL A   1      42.992  28.875  34.806  1.00  0.00     0.049 A 
ATOM     30  C   UNL A   1      39.069  30.594  31.343  1.00  0.00     0.074 A 
ATOM     31  C   UNL A   1      43.129  29.596  35.979  1.00  0.00     0.029 A 
ATOM     32  N   UNL A   1      41.845  29.337  34.185  1.00  0.00    -0.354 N 
ATOM     33  N   UNL A   1      39.868  30.215  32.301  1.00  0.00    -0.248 NA
ATOM     34  C   UNL A   1      37.893  31.356  31.792  1.00  0.00     0.031 C 
ATOM     35  C   UNL A   1      42.024  30.452  36.096  1.00  0.00     0.029 A 
ATOM     36  C   UNL A   1      41.228  30.289  34.978  1.00  0.00     0.049 A 
ATOM     37  H   UNL A   1      41.516  29.033  33.308  1.00  0.00     0.167 HD
ATOM     38  C   UNL A   1      39.377  30.818  33.443  1.00  0.00     0.074 A 
ATOM     39  C   UNL A   1      38.137  31.470  33.086  1.00  0.00     0.031 C 
ATOM     40  C   UNL A   1      39.986  30.925  34.644  1.00  0.00     0.037 A 
BRANCH  27  41
ATOM     41  C   UNL A   1      44.962  27.316  35.095  1.00  0.00     0.064 A 
ATOM     42  C   UNL A   1      44.786  26.319  36.068  1.00  0.00     0.173 A 
ATOM     43  C   UNL A   1      46.240  27.862  34.931  1.00  0.00     0.173 A 
ATOM     44  F   UNL A   1      43.572  25.785  36.278  1.00  0.00    -0.203 F 
ATOM     45  C   UNL A   1      45.842  25.921  36.880  1.00  0.00     0.198 A 
ATOM     46  C   UNL A   1      47.300  27.439  35.725  1.00  0.00     0.198 A 
ATOM     47  F   UNL A   1      46.454  28.821  34.017  1.00  0.00    -0.203 F 
ATOM     48  F   UNL A   1      45.635  25.020  37.852  1.00  0.00    -0.200 F 
ATOM     49  C   UNL A   1      47.098  26.479  36.706  1.00  0.00     0.200 A 
ATOM     50  F   UNL A   1      48.517  27.976  35.555  1.00  0.00    -0.200 F 
ATOM     51  F   UNL A   1      48.114  26.102  37.495  1.00  0.00    -0.200 F 
ENDBRANCH  27  41
BRANCH  28  52
ATOM     52  C   UNL A   1      38.061  30.841  29.035  1.00  0.00     0.064 A 
ATOM     53  C   UNL A   1      37.693  32.177  28.845  1.00  0.00     0.173 A 
ATOM     54  C   UNL A   1      37.126  29.852  28.666  1.00  0.00     0.173 A 
ATOM     55  F   UNL A   1      38.521  33.159  29.221  1.00  0.00    -0.203 F 
ATOM     56  C   UNL A   1      36.437  32.506  28.324  1.00  0.00     0.198 A 
ATOM     57  C   UNL A   1      35.877  30.181  28.141  1.00  0.00     0.198 A 
ATOM     58  F   UNL A   1      37.403  28.556  28.876  1.00  0.00    -0.203 F 
ATOM     59  F   UNL A   1      36.090  33.792  28.178  1.00  0.00    -0.200 F 
ATOM     60  C   UNL A   1      35.529  31.510  27.981  1.00  0.00     0.200 A 
ATOM     61  F   UNL A   1      35.013  29.212  27.809  1.00  0.00    -0.200 F 
ATOM     62  F   UNL A   1      34.321  31.831  27.498  1.00  0.00    -0.200 F 
ENDBRANCH  28  52
BRANCH  40  63
ATOM     63  C   UNL A   1      39.393  31.934  35.570  1.00  0.00     0.064 A 
ATOM     64  C   UNL A   1      39.821  33.266  35.603  1.00  0.00     0.173 A 
ATOM     65  C   UNL A   1      38.476  31.503  36.542  1.00  0.00     0.173 A 
ATOM     66  F   UNL A   1      40.748  33.698  34.735  1.00  0.00    -0.203 F 
ATOM     67  C   UNL A   1      39.385  34.123  36.609  1.00  0.00     0.198 A 
ATOM     68  C   UNL A   1      38.015  32.372  37.523  1.00  0.00     0.198 A 
ATOM     69  F   UNL A   1      38.064  30.227  36.568  1.00  0.00    -0.203 F 
ATOM     70  F   UNL A   1      39.885  35.364  36.690  1.00  0.00    -0.200 F 
ATOM     71  C   UNL A   1      38.483  33.677  37.565  1.00  0.00     0.200 A 
ATOM     72  F   UNL A   1      37.153  31.936  38.450  1.00  0.00    -0.200 F 
ATOM     73  F   UNL A   1      38.089  34.496  38.549  1.00  0.00    -0.200 F 
ENDBRANCH  40  63
ENDBRANCH  14  15
ENDBRANCH   7   9
ENDBRANCH   6   7
ENDBRANCH   5   6
ENDBRANCH   4   5
ENDBRANCH   3   4
ENDBRANCH   2   3
ENDBRANCH   1   2
BRANCH   1  74
ATOM     74  O   UNL A   1      39.158  22.457  26.910  1.00  0.00    -0.376 OA
BRANCH  74  75
ATOM     75  C   UNL A   1      38.651  23.679  26.393  1.00  0.00     0.202 C 
BRANCH  75  76
ATOM     76  C   UNL A   1      37.406  23.644  25.482  1.00  0.00     0.261 C 
BRANCH  76  77
ATOM     77  O   UNL A   1      36.288  22.841  25.932  1.00  0.00    -0.463 OA
BRANCH  77  78
ATOM     78  C   UNL A   1      36.035  21.761  25.155  1.00  0.00     0.310 C 
ATOM     79  O   UNL A   1      36.773  20.777  25.118  1.00  0.00    -0.252 OA
BRANCH  78  80
ATOM     80  C   UNL A   1      34.833  21.869  24.213  1.00  0.00     0.115 C 
ATOM     81  C   UNL A   1      33.882  20.708  24.666  1.00  0.00     0.004 C 
ATOM     82  C   UNL A   1      33.840  23.060  24.184  1.00  0.00     0.096 C 
ATOM     83  C   UNL A   1      33.317  20.941  26.087  1.00  0.00     0.005 C 
ATOM     84  C   UNL A   1      32.661  20.985  23.835  1.00  0.00     0.009 C 
ATOM     85  C   UNL A   1      32.468  22.395  24.401  1.00  0.00     0.003 C 
ATOM     86  C   UNL A   1      32.318  22.086  25.894  1.00  0.00     0.005 C 
BRANCH  82  87
ATOM     87  C   UNL A   1      33.870  24.030  22.993  1.00  0.00     0.229 C 
ATOM     88  O   UNL A   1      34.135  23.523  21.895  1.00  0.00    -0.274 OA
ATOM     89  N   UNL A   1      33.593  25.362  22.968  1.00  0.00    -0.317 N 
ATOM     90  H   UNL A   1      33.537  25.746  22.063  1.00  0.00     0.170 HD
BRANCH  89  91
ATOM     91  C   UNL A   1      33.376  26.267  23.979  1.00  0.00     0.108 A 
ATOM     92  S   UNL A   1      33.767  25.836  25.582  1.00  0.00    -0.122 S 
ATOM     93  C   UNL A   1      33.141  27.630  23.878  1.00  0.00     0.078 A 
ATOM     94  C   UNL A   1      32.987  27.238  26.144  1.00  0.00     0.011 A 
ATOM     95  C   UNL A   1      32.945  28.223  25.175  1.00  0.00    -0.019 A 
ATOM     96  C   UNL A   1      32.393  27.363  27.506  1.00  0.00     0.047 C 
ATOM     97  C   UNL A   1      32.564  29.635  25.512  1.00  0.00     0.037 C 
ATOM     98  C   UNL A   1      31.358  28.502  27.473  1.00  0.00     0.006 C 
ATOM     99  C   UNL A   1      32.001  29.789  26.938  1.00  0.00     0.005 C 
BRANCH  93 100
ATOM    100  C   UNL A   1      33.083  28.231  22.571  1.00  0.00     0.254 C 
ATOM    101  O   UNL A   1      34.079  28.279  21.867  1.00  0.00    -0.269 OA
ATOM    102  N   UNL A   1      31.886  28.616  22.029  1.00  0.00    -0.349 N 
ATOM    103  H   UNL A   1      31.920  28.630  21.046  1.00  0.00     0.164 HD
BRANCH 102 104
ATOM    104  C   UNL A   1      30.576  29.010  22.525  1.00  0.00     0.082 C 
ATOM    105  C   UNL A   1      29.949  30.091  21.627  1.00  0.00     0.025 C 
ATOM    106  C   UNL A   1      29.522  27.928  22.716  1.00  0.00     0.025 C 
ATOM    107  C   UNL A   1      28.748  30.743  22.299  1.00  0.00     0.002 C 
ATOM    108  C   UNL A   1      28.343  28.532  23.485  1.00  0.00     0.002 C 
ATOM    109  C   UNL A   1      27.718  29.719  22.749  1.00  0.00     0.000 C 
ENDBRANCH 102 104
ENDBRANCH  93 100
ENDBRANCH  89  91
ENDBRANCH  82  87
ENDBRANCH  78  80
ENDBRANCH  77  78
ENDBRANCH  76  77
ENDBRANCH  75  76
ENDBRANCH  74  75
ENDBRANCH   1  74
TORSDOF 21
ENDMDL
MODEL 2
REMARK VINA RESULT:     -11.9      4.368      8.220
REMARK SMILES O=C(OCCOCCOCCOC(=O)[C@H]1[C@H]2CC[C@H](C2)[C@@H]1C(=O)Nc1sc2c(c1C(=O)NC1CCCCC1)CCCC2)c1ccc(-c2c3nc(c(-c4c(F)c(F)c(F)c(F)c4F)c4ccc([nH]4)c(-c4c(F)c(F)c(F)c(F)c4F)c4nc(c(-c5c(F)c(F)c(F)c(F)c5F)c5ccc2[nH]5)C=C4)C=C3)cc1
REMARK SMILES IDX 8 1 7 2 6 3 5 4 4 5 3 6 2 7 1 8 43 9 44 10 105 11 45 12
REMARK SMILES IDX 104 13 46 14 47 15 48 16 98 17 49 18 103 19 97 20 99 21
REMARK SMILES IDX 50 22 102 23 96 24 95 25 51 27 83 28 63 29 82 30 64 31 67 32
REMARK SMILES IDX 81 33 100 34 65 35 66 36 80 38 101 39 68 40 52 41 53 42
REMARK SMILES IDX 61 43 54 44 55 45 59 46 62 47 56 48 57 49 60 50 58 51 84 52
REMARK SMILES IDX 85 53 93 54 86 55 87 56 91 57 94 58 88 59 89 60 92 61 90 62
REMARK SMILES IDX 69 63 70 64 78 65 71 66 72 67 76 68 79 69 73 70 74 71 77 72
REMARK SMILES IDX 75 73 9 74 10 75 11 76 12 77 13 78 14 79 15 80 16 81 21 82
REMARK SMILES IDX 17 83 20 84 19 85 18 86 22 87 23 88 24 89 25 91 26 92 29 93
REMARK SMILES IDX 27 94 28 95 42 96 39 97 41 98 40 99 30 100 31 101 32 102
REMARK SMILES IDX 33 104 34 105 38 106 35 107 37 108 36 109
REMARK H PARENT 99 26 67 37 24 90 32 103
REMARK Flexibility Score: inf
ROOT
ATOM      1  C   UNL A   1      39.713  21.244  26.265  1.00  0.00     0.188 C 
ENDROOT
BRANCH   1   2
ATOM      2  C   UNL A   1      40.740  21.145  27.397  1.00  0.00     0.188 C 
BRANCH   2   3
ATOM      3  O   UNL A   1      41.407  19.876  27.422  1.00  0.00    -0.376 OA
BRANCH   3   4
ATOM      4  C   UNL A   1      41.555  19.281  26.130  1.00  0.00     0.202 C 
BRANCH   4   5
ATOM      5  C   UNL A   1      42.663  18.222  26.027  1.00  0.00     0.261 C 
BRANCH   5   6
ATOM      6  O   UNL A   1      43.938  18.775  25.672  1.00  0.00    -0.460 OA
BRANCH   6   7
ATOM      7  C   UNL A   1      44.201  19.823  24.848  1.00  0.00     0.338 C 
ATOM      8  O   UNL A   1      44.438  19.578  23.666  1.00  0.00    -0.246 OA
BRANCH   7   9
ATOM      9  C   UNL A   1      44.166  21.259  25.287  1.00  0.00     0.060 A 
ATOM     10  C   UNL A   1      44.012  22.364  24.449  1.00  0.00     0.016 A 
ATOM     11  C   UNL A   1      44.230  21.511  26.666  1.00  0.00     0.016 A 
ATOM     12  C   UNL A   1      44.080  23.676  24.924  1.00  0.00     0.010 A 
ATOM     13  C   UNL A   1      44.185  22.825  27.161  1.00  0.00     0.010 A 
ATOM     14  C   UNL A   1      44.192  23.930  26.285  1.00  0.00    -0.014 A 
BRANCH  14  15
ATOM     15  C   UNL A   1      44.549  25.283  26.800  1.00  0.00     0.031 A 
ATOM     16  C   UNL A   1      43.409  26.193  27.176  1.00  0.00     0.074 A 
ATOM     17  C   UNL A   1      45.791  25.710  27.116  1.00  0.00     0.049 A 
ATOM     18  N   UNL A   1      43.411  27.471  27.448  1.00  0.00    -0.248 NA
ATOM     19  C   UNL A   1      42.092  25.548  27.330  1.00  0.00     0.031 C 
ATOM     20  C   UNL A   1      47.007  24.906  27.214  1.00  0.00     0.029 A 
ATOM     21  N   UNL A   1      46.233  26.993  27.398  1.00  0.00    -0.354 N 
ATOM     22  C   UNL A   1      42.120  27.760  27.862  1.00  0.00     0.074 A 
ATOM     23  C   UNL A   1      41.325  26.571  27.664  1.00  0.00     0.031 C 
ATOM     24  C   UNL A   1      48.048  25.726  27.459  1.00  0.00     0.029 A 
ATOM     25  C   UNL A   1      47.606  27.100  27.328  1.00  0.00     0.049 A 
ATOM     26  H   UNL A   1      45.635  27.742  27.621  1.00  0.00     0.167 HD
ATOM     27  C   UNL A   1      41.663  28.885  28.455  1.00  0.00     0.037 A 
ATOM     28  C   UNL A   1      48.354  28.179  27.013  1.00  0.00     0.037 A 
ATOM     29  C   UNL A   1      42.463  30.052  28.687  1.00  0.00     0.049 A 
ATOM     30  C   UNL A   1      47.710  29.528  27.097  1.00  0.00     0.074 A 
ATOM     31  C   UNL A   1      42.144  31.213  29.368  1.00  0.00     0.029 A 
ATOM     32  N   UNL A   1      43.753  30.208  28.213  1.00  0.00    -0.354 N 
ATOM     33  N   UNL A   1      46.482  29.834  27.412  1.00  0.00    -0.248 NA
ATOM     34  C   UNL A   1      48.591  30.687  26.876  1.00  0.00     0.031 C 
ATOM     35  C   UNL A   1      43.225  32.099  29.248  1.00  0.00     0.029 A 
ATOM     36  C   UNL A   1      44.225  31.470  28.530  1.00  0.00     0.049 A 
ATOM     37  H   UNL A   1      44.261  29.522  27.721  1.00  0.00     0.167 HD
ATOM     38  C   UNL A   1      46.480  31.205  27.578  1.00  0.00     0.074 A 
ATOM     39  C   UNL A   1      47.788  31.687  27.192  1.00  0.00     0.031 C 
ATOM     40  C   UNL A   1      45.511  31.966  28.132  1.00  0.00     0.037 A 
BRANCH  27  41
ATOM     41  C   UNL A   1      40.236  28.872  28.903  1.00  0.00     0.064 A 
ATOM     42  C   UNL A   1      39.193  29.256  28.045  1.00  0.00     0.173 A 
ATOM     43  C   UNL A   1      39.915  28.515  30.218  1.00  0.00     0.173 A 
ATOM     44  F   UNL A   1      39.457  29.631  26.783  1.00  0.00    -0.203 F 
ATOM     45  C   UNL A   1      37.882  29.327  28.504  1.00  0.00     0.198 A 
ATOM     46  C   UNL A   1      38.599  28.559  30.663  1.00  0.00     0.198 A 
ATOM     47  F   UNL A   1      40.880  28.148  31.073  1.00  0.00    -0.203 F 
ATOM     48  F   UNL A   1      36.911  29.767  27.690  1.00  0.00    -0.200 F 
ATOM     49  C   UNL A   1      37.587  28.976  29.812  1.00  0.00     0.200 A 
ATOM     50  F   UNL A   1      38.311  28.216  31.927  1.00  0.00    -0.200 F 
ATOM     51  F   UNL A   1      36.325  29.054  30.256  1.00  0.00    -0.200 F 
ENDBRANCH  27  41
BRANCH  28  52
ATOM     52  C   UNL A   1      49.742  28.155  26.473  1.00  0.00     0.064 A 
ATOM     53  C   UNL A   1      50.032  27.867  25.136  1.00  0.00     0.173 A 
ATOM     54  C   UNL A   1      50.815  28.138  27.388  1.00  0.00     0.173 A 
ATOM     55  F   UNL A   1      49.044  27.822  24.232  1.00  0.00    -0.203 F 
ATOM     56  C   UNL A   1      51.336  27.557  24.736  1.00  0.00     0.198 A 
ATOM     57  C   UNL A   1      52.116  27.836  26.987  1.00  0.00     0.198 A 
ATOM     58  F   UNL A   1      50.588  28.354  28.691  1.00  0.00    -0.203 F 
ATOM     59  F   UNL A   1      51.589  27.253  23.456  1.00  0.00    -0.200 F 
ATOM     60  C   UNL A   1      52.374  27.535  25.662  1.00  0.00     0.200 A 
ATOM     61  F   UNL A   1      53.109  27.822  27.887  1.00  0.00    -0.200 F 
ATOM     62  F   UNL A   1      53.618  27.221  25.277  1.00  0.00    -0.200 F 
ENDBRANCH  28  52
BRANCH  40  63
ATOM     63  C   UNL A   1      45.927  33.347  28.515  1.00  0.00     0.064 A 
ATOM     64  C   UNL A   1      46.417  33.659  29.787  1.00  0.00     0.173 A 
ATOM     65  C   UNL A   1      45.685  34.399  27.616  1.00  0.00     0.173 A 
ATOM     66  F   UNL A   1      46.597  32.689  30.697  1.00  0.00    -0.203 F 
ATOM     67  C   UNL A   1      46.607  34.985  30.165  1.00  0.00     0.198 A 
ATOM     68  C   UNL A   1      45.911  35.718  27.985  1.00  0.00     0.198 A 
ATOM     69  F   UNL A   1      45.184  34.148  26.397  1.00  0.00    -0.203 F 
ATOM     70  F   UNL A   1      46.976  35.272  31.422  1.00  0.00    -0.200 F 
ATOM     71  C   UNL A   1      46.357  36.011  29.266  1.00  0.00     0.200 A 
ATOM     72  F   UNL A   1      45.658  36.708  27.118  1.00  0.00    -0.200 F 
ATOM     73  F   UNL A   1      46.513  37.286  29.643  1.00  0.00    -0.200 F 
ENDBRANCH  40  63
ENDBRANCH  14  15
ENDBRANCH   7   9
ENDBRANCH   6   7
ENDBRANCH   5   6
ENDBRANCH   4   5
ENDBRANCH   3   4
ENDBRANCH   2   3
ENDBRANCH   1   2
BRANCH   1  74
ATOM     74  O   UNL A   1      39.069  22.501  26.070  1.00  0.00    -0.376 OA
BRANCH  74  75
ATOM     75  C   UNL A   1      37.685  22.471  25.748  1.00  0.00     0.202 C 
BRANCH  75  76
ATOM     76  C   UNL A   1      37.050  23.703  25.068  1.00  0.00     0.261 C 
BRANCH  76  77
ATOM     77  O   UNL A   1      35.674  23.575  24.637  1.00  0.00    -0.463 OA
BRANCH  77  78
ATOM     78  C   UNL A   1      35.531  23.242  23.333  1.00  0.00     0.310 C 
ATOM     79  O   UNL A   1      36.484  22.954  22.609  1.00  0.00    -0.252 OA
BRANCH  78  80
ATOM     80  C   UNL A   1      34.119  23.359  22.752  1.00  0.00     0.115 C 
ATOM     81  C   UNL A   1      33.317  22.211  23.456  1.00  0.00     0.004 C 
ATOM     82  C   UNL A   1      33.167  24.561  22.985  1.00  0.00     0.096 C 
ATOM     83  C   UNL A   1      33.161  22.457  24.976  1.00  0.00     0.005 C 
ATOM     84  C   UNL A   1      31.918  22.498  22.987  1.00  0.00     0.009 C 
ATOM     85  C   UNL A   1      31.900  23.912  23.572  1.00  0.00     0.003 C 
ATOM     86  C   UNL A   1      32.159  23.612  25.052  1.00  0.00     0.005 C 
BRANCH  82  87
ATOM     87  C   UNL A   1      32.882  25.524  21.823  1.00  0.00     0.229 C 
ATOM     88  O   UNL A   1      32.902  25.021  20.692  1.00  0.00    -0.274 OA
ATOM     89  N   UNL A   1      32.556  26.845  21.868  1.00  0.00    -0.317 N 
ATOM     90  H   UNL A   1      32.275  27.221  21.002  1.00  0.00     0.170 HD
BRANCH  89  91
ATOM     91  C   UNL A   1      32.547  27.746  22.904  1.00  0.00     0.108 A 
ATOM     92  S   UNL A   1      33.947  28.667  23.222  1.00  0.00    -0.122 S 
ATOM     93  C   UNL A   1      31.456  28.255  23.593  1.00  0.00     0.078 A 
ATOM     94  C   UNL A   1      33.250  29.218  24.672  1.00  0.00     0.011 A 
ATOM     95  C   UNL A   1      31.870  29.167  24.627  1.00  0.00    -0.019 A 
ATOM     96  C   UNL A   1      34.045  29.665  25.852  1.00  0.00     0.047 C 
ATOM     97  C   UNL A   1      31.029  29.852  25.664  1.00  0.00     0.037 C 
ATOM     98  C   UNL A   1      33.141  29.581  27.095  1.00  0.00     0.006 C 
ATOM     99  C   UNL A   1      31.845  30.371  26.864  1.00  0.00     0.005 C 
BRANCH  93 100
ATOM    100  C   UNL A   1      30.136  27.802  23.237  1.00  0.00     0.254 C 
ATOM    101  O   UNL A   1      29.849  26.617  23.305  1.00  0.00    -0.269 OA
ATOM    102  N   UNL A   1      29.136  28.698  22.969  1.00  0.00    -0.349 N 
ATOM    103  H   UNL A   1      28.247  28.309  23.131  1.00  0.00     0.164 HD
BRANCH 102 104
ATOM    104  C   UNL A   1      29.042  30.074  22.507  1.00  0.00     0.082 C 
ATOM    105  C   UNL A   1      28.052  30.196  21.335  1.00  0.00     0.025 C 
ATOM    106  C   UNL A   1      28.664  31.149  23.517  1.00  0.00     0.025 C 
ATOM    107  C   UNL A   1      28.184  31.542  20.634  1.00  0.00     0.002 C 
ATOM    108  C   UNL A   1      28.889  32.520  22.870  1.00  0.00     0.002 C 
ATOM    109  C   UNL A   1      28.055  32.706  21.602  1.00  0.00     0.000 C 
ENDBRANCH 102 104
ENDBRANCH  93 100
ENDBRANCH  89  91
ENDBRANCH  82  87
ENDBRANCH  78  80
ENDBRANCH  77  78
ENDBRANCH  76  77
ENDBRANCH  75  76
ENDBRANCH  74  75
ENDBRANCH   1  74
TORSDOF 21
ENDMDL
MODEL 3
REMARK VINA RESULT:     -11.7      4.469      6.294
REMARK SMILES O=C(OCCOCCOCCOC(=O)[C@H]1[C@H]2CC[C@H](C2)[C@@H]1C(=O)Nc1sc2c(c1C(=O)NC1CCCCC1)CCCC2)c1ccc(-c2c3nc(c(-c4c(F)c(F)c(F)c(F)c4F)c4ccc([nH]4)c(-c4c(F)c(F)c(F)c(F)c4F)c4nc(c(-c5c(F)c(F)c(F)c(F)c5F)c5ccc2[nH]5)C=C4)C=C3)cc1
REMARK SMILES IDX 8 1 7 2 6 3 5 4 4 5 3 6 2 7 1 8 43 9 44 10 105 11 45 12
REMARK SMILES IDX 104 13 46 14 47 15 48 16 98 17 49 18 103 19 97 20 99 21
REMARK SMILES IDX 50 22 102 23 96 24 95 25 51 27 83 28 63 29 82 30 64 31 67 32
REMARK SMILES IDX 81 33 100 34 65 35 66 36 80 38 101 39 68 40 52 41 53 42
REMARK SMILES IDX 61 43 54 44 55 45 59 46 62 47 56 48 57 49 60 50 58 51 84 52
REMARK SMILES IDX 85 53 93 54 86 55 87 56 91 57 94 58 88 59 89 60 92 61 90 62
REMARK SMILES IDX 69 63 70 64 78 65 71 66 72 67 76 68 79 69 73 70 74 71 77 72
REMARK SMILES IDX 75 73 9 74 10 75 11 76 12 77 13 78 14 79 15 80 16 81 21 82
REMARK SMILES IDX 17 83 20 84 19 85 18 86 22 87 23 88 24 89 25 91 26 92 29 93
REMARK SMILES IDX 27 94 28 95 42 96 39 97 41 98 40 99 30 100 31 101 32 102
REMARK SMILES IDX 33 104 34 105 38 106 35 107 37 108 36 109
REMARK H PARENT 99 26 67 37 24 90 32 103
REMARK Flexibility Score: inf
ROOT
ATOM      1  C   UNL A   1      38.220  23.338  25.804  1.00  0.00     0.188 C 
ENDROOT
BRANCH   1   2
ATOM      2  C   UNL A   1      38.508  21.834  25.758  1.00  0.00     0.188 C 
BRANCH   2   3
ATOM      3  O   UNL A   1      39.886  21.532  26.015  1.00  0.00    -0.376 OA
BRANCH   3   4
ATOM      4  C   UNL A   1      40.092  20.238  26.588  1.00  0.00     0.202 C 
BRANCH   4   5
ATOM      5  C   UNL A   1      40.491  19.142  25.588  1.00  0.00     0.261 C 
BRANCH   5   6
ATOM      6  O   UNL A   1      41.799  18.605  25.835  1.00  0.00    -0.460 OA
BRANCH   6   7
ATOM      7  C   UNL A   1      43.004  19.182  25.590  1.00  0.00     0.338 C 
ATOM      8  O   UNL A   1      43.835  18.529  24.960  1.00  0.00    -0.246 OA
BRANCH   7   9
ATOM      9  C   UNL A   1      43.358  20.583  25.998  1.00  0.00     0.060 A 
ATOM     10  C   UNL A   1      43.190  21.130  27.272  1.00  0.00     0.016 A 
ATOM     11  C   UNL A   1      43.969  21.399  25.033  1.00  0.00     0.016 A 
ATOM     12  C   UNL A   1      43.459  22.472  27.549  1.00  0.00     0.010 A 
ATOM     13  C   UNL A   1      44.347  22.717  25.338  1.00  0.00     0.010 A 
ATOM     14  C   UNL A   1      44.020  23.296  26.582  1.00  0.00    -0.014 A 
BRANCH  14  15
ATOM     15  C   UNL A   1      44.057  24.777  26.744  1.00  0.00     0.031 A 
ATOM     16  C   UNL A   1      45.416  25.425  26.788  1.00  0.00     0.074 A 
ATOM     17  C   UNL A   1      42.994  25.609  26.689  1.00  0.00     0.049 A 
ATOM     18  N   UNL A   1      45.755  26.642  27.122  1.00  0.00    -0.248 NA
ATOM     19  C   UNL A   1      46.543  24.594  26.322  1.00  0.00     0.031 C 
ATOM     20  C   UNL A   1      41.633  25.282  26.273  1.00  0.00     0.029 A 
ATOM     21  N   UNL A   1      42.911  26.949  27.030  1.00  0.00    -0.354 N 
ATOM     22  C   UNL A   1      47.110  26.734  26.847  1.00  0.00     0.074 A 
ATOM     23  C   UNL A   1      47.567  25.419  26.464  1.00  0.00     0.031 C 
ATOM     24  C   UNL A   1      40.854  26.366  26.454  1.00  0.00     0.029 A 
ATOM     25  C   UNL A   1      41.606  27.371  27.179  1.00  0.00     0.049 A 
ATOM     26  H   UNL A   1      43.693  27.534  27.152  1.00  0.00     0.167 HD
ATOM     27  C   UNL A   1      47.885  27.842  26.814  1.00  0.00     0.037 A 
ATOM     28  C   UNL A   1      41.121  28.353  27.968  1.00  0.00     0.037 A 
ATOM     29  C   UNL A   1      47.423  29.155  27.156  1.00  0.00     0.049 A 
ATOM     30  C   UNL A   1      42.082  29.378  28.485  1.00  0.00     0.074 A 
ATOM     31  C   UNL A   1      48.080  30.368  27.064  1.00  0.00     0.029 A 
ATOM     32  N   UNL A   1      46.171  29.417  27.685  1.00  0.00    -0.354 N 
ATOM     33  N   UNL A   1      43.371  29.458  28.307  1.00  0.00    -0.248 NA
ATOM     34  C   UNL A   1      41.497  30.505  29.229  1.00  0.00     0.031 C 
ATOM     35  C   UNL A   1      47.244  31.358  27.602  1.00  0.00     0.029 A 
ATOM     36  C   UNL A   1      46.057  30.763  27.986  1.00  0.00     0.049 A 
ATOM     37  H   UNL A   1      45.466  28.744  27.828  1.00  0.00     0.167 HD
ATOM     38  C   UNL A   1      43.727  30.706  28.778  1.00  0.00     0.074 A 
ATOM     39  C   UNL A   1      42.548  31.292  29.376  1.00  0.00     0.031 C 
ATOM     40  C   UNL A   1      44.901  31.350  28.600  1.00  0.00     0.037 A 
BRANCH  27  41
ATOM     41  C   UNL A   1      49.300  27.654  26.368  1.00  0.00     0.064 A 
ATOM     42  C   UNL A   1      49.641  27.599  25.007  1.00  0.00     0.173 A 
ATOM     43  C   UNL A   1      50.318  27.482  27.313  1.00  0.00     0.173 A 
ATOM     44  F   UNL A   1      48.693  27.732  24.065  1.00  0.00    -0.203 F 
ATOM     45  C   UNL A   1      50.946  27.331  24.609  1.00  0.00     0.198 A 
ATOM     46  C   UNL A   1      51.628  27.245  26.910  1.00  0.00     0.198 A 
ATOM     47  F   UNL A   1      50.038  27.521  28.624  1.00  0.00    -0.203 F 
ATOM     48  F   UNL A   1      51.236  27.210  23.306  1.00  0.00    -0.200 F 
ATOM     49  C   UNL A   1      51.938  27.157  25.561  1.00  0.00     0.200 A 
ATOM     50  F   UNL A   1      52.588  27.080  27.830  1.00  0.00    -0.200 F 
ATOM     51  F   UNL A   1      53.194  26.890  25.178  1.00  0.00    -0.200 F 
ENDBRANCH  27  41
BRANCH  28  52
ATOM     52  C   UNL A   1      39.725  28.457  28.477  1.00  0.00     0.064 A 
ATOM     53  C   UNL A   1      38.737  29.211  27.838  1.00  0.00     0.173 A 
ATOM     54  C   UNL A   1      39.460  28.022  29.793  1.00  0.00     0.173 A 
ATOM     55  F   UNL A   1      38.954  29.691  26.606  1.00  0.00    -0.203 F 
ATOM     56  C   UNL A   1      37.543  29.530  28.494  1.00  0.00     0.198 A 
ATOM     57  C   UNL A   1      38.266  28.335  30.442  1.00  0.00     0.198 A 
ATOM     58  F   UNL A   1      40.393  27.342  30.475  1.00  0.00    -0.203 F 
ATOM     59  F   UNL A   1      36.620  30.280  27.875  1.00  0.00    -0.200 F 
ATOM     60  C   UNL A   1      37.312  29.099  29.795  1.00  0.00     0.200 A 
ATOM     61  F   UNL A   1      38.054  27.909  31.696  1.00  0.00    -0.200 F 
ATOM     62  F   UNL A   1      36.174  29.421  30.424  1.00  0.00    -0.200 F 
ENDBRANCH  28  52
BRANCH  40  63
ATOM     63  C   UNL A   1      44.876  32.813  28.895  1.00  0.00     0.064 A 
ATOM     64  C   UNL A   1      44.467  33.762  27.952  1.00  0.00     0.173 A 
ATOM     65  C   UNL A   1      45.417  33.267  30.109  1.00  0.00     0.173 A 
ATOM     66  F   UNL A   1      44.010  33.368  26.753  1.00  0.00    -0.203 F 
ATOM     67  C   UNL A   1      44.644  35.121  28.195  1.00  0.00     0.198 A 
ATOM     68  C   UNL A   1      45.557  34.625  30.362  1.00  0.00     0.198 A 
ATOM     69  F   UNL A   1      45.852  32.392  31.027  1.00  0.00    -0.203 F 
ATOM     70  F   UNL A   1      44.346  36.013  27.240  1.00  0.00    -0.200 F 
ATOM     71  C   UNL A   1      45.186  35.551  29.399  1.00  0.00     0.200 A 
ATOM     72  F   UNL A   1      46.091  35.037  31.520  1.00  0.00    -0.200 F 
ATOM     73  F   UNL A   1      45.381  36.857  29.617  1.00  0.00    -0.200 F 
ENDBRANCH  40  63
ENDBRANCH  14  15
ENDBRANCH   7   9
ENDBRANCH   6   7
ENDBRANCH   5   6
ENDBRANCH   4   5
ENDBRANCH   3   4
ENDBRANCH   2   3
ENDBRANCH   1   2
BRANCH   1  74
ATOM     74  O   UNL A   1      37.217  23.787  26.712  1.00  0.00    -0.376 OA
BRANCH  74  75
ATOM     75  C   UNL A   1      35.890  23.339  26.477  1.00  0.00     0.202 C 
BRANCH  75  76
ATOM     76  C   UNL A   1      34.925  24.246  25.685  1.00  0.00     0.261 C 
BRANCH  76  77
ATOM     77  O   UNL A   1      35.259  24.504  24.299  1.00  0.00    -0.463 OA
BRANCH  77  78
ATOM     78  C   UNL A   1      35.080  23.441  23.480  1.00  0.00     0.310 C 
ATOM     79  O   UNL A   1      35.933  22.567  23.324  1.00  0.00    -0.252 OA
BRANCH  78  80
ATOM     80  C   UNL A   1      33.798  23.436  22.644  1.00  0.00     0.115 C 
ATOM     81  C   UNL A   1      33.063  22.120  23.075  1.00  0.00     0.004 C 
ATOM     82  C   UNL A   1      32.649  24.467  22.786  1.00  0.00     0.096 C 
ATOM     83  C   UNL A   1      32.596  22.170  24.549  1.00  0.00     0.005 C 
ATOM     84  C   UNL A   1      31.747  22.271  22.365  1.00  0.00     0.009 C 
ATOM     85  C   UNL A   1      31.408  23.595  23.053  1.00  0.00     0.003 C 
ATOM     86  C   UNL A   1      31.434  23.168  24.524  1.00  0.00     0.005 C 
BRANCH  82  87
ATOM     87  C   UNL A   1      32.439  25.510  21.677  1.00  0.00     0.229 C 
ATOM     88  O   UNL A   1      32.369  25.060  20.525  1.00  0.00    -0.274 OA
ATOM     89  N   UNL A   1      32.264  26.854  21.790  1.00  0.00    -0.317 N 
ATOM     90  H   UNL A   1      32.001  27.299  20.951  1.00  0.00     0.170 HD
BRANCH  89  91
ATOM     91  C   UNL A   1      32.385  27.702  22.864  1.00  0.00     0.108 A 
ATOM     92  S   UNL A   1      33.847  28.551  23.095  1.00  0.00    -0.122 S 
ATOM     93  C   UNL A   1      31.382  28.218  23.671  1.00  0.00     0.078 A 
ATOM     94  C   UNL A   1      33.305  29.055  24.627  1.00  0.00     0.011 A 
ATOM     95  C   UNL A   1      31.925  29.060  24.705  1.00  0.00    -0.019 A 
ATOM     96  C   UNL A   1      34.220  29.410  25.749  1.00  0.00     0.047 C 
ATOM     97  C   UNL A   1      31.210  29.724  25.845  1.00  0.00     0.037 C 
ATOM     98  C   UNL A   1      33.427  29.299  27.064  1.00  0.00     0.006 C 
ATOM     99  C   UNL A   1      32.151  30.149  26.989  1.00  0.00     0.005 C 
BRANCH  93 100
ATOM    100  C   UNL A   1      30.018  27.835  23.415  1.00  0.00     0.254 C 
ATOM    101  O   UNL A   1      29.670  26.670  23.528  1.00  0.00    -0.269 OA
ATOM    102  N   UNL A   1      29.053  28.782  23.197  1.00  0.00    -0.349 N 
ATOM    103  H   UNL A   1      28.157  28.447  23.427  1.00  0.00     0.164 HD
BRANCH 102 104
ATOM    104  C   UNL A   1      29.005  30.153  22.713  1.00  0.00     0.082 C 
ATOM    105  C   UNL A   1      28.088  30.272  21.483  1.00  0.00     0.025 C 
ATOM    106  C   UNL A   1      28.582  31.246  23.685  1.00  0.00     0.025 C 
ATOM    107  C   UNL A   1      28.279  31.607  20.774  1.00  0.00     0.002 C 
ATOM    108  C   UNL A   1      28.863  32.605  23.037  1.00  0.00     0.002 C 
ATOM    109  C   UNL A   1      28.108  32.785  21.719  1.00  0.00     0.000 C 
ENDBRANCH 102 104
ENDBRANCH  93 100
ENDBRANCH  89  91
ENDBRANCH  82  87
ENDBRANCH  78  80
ENDBRANCH  77  78
ENDBRANCH  76  77
ENDBRANCH  75  76
ENDBRANCH  74  75
ENDBRANCH   1  74
TORSDOF 21
ENDMDL
