MODEL 1
REMARK VINA RESULT:     -10.3      0.000      0.000
REMARK SMILES C[N@H+]1CCO[C@H](CNC(=O)c2ccc(/C=C/C(=O)OCCOCCOCCOC(=O)c3ccc(-c4c5nc(c(-c6c(F)c(F)c(F)c(F)c6F)c6ccc([nH]6)c(-c6c(F)c(F)c(F)c(F)c6F)c6nc(c(-c7c(F)c(F)c(F)c(F)c7F)c7ccc4[nH]7)C=C6)C=C5)cc3)s2)C1
REMARK SMILES IDX 23 1 22 2 21 3 20 4 19 5 17 6 18 7 16 8 15 9 14 10 11 11
REMARK SMILES IDX 12 12 94 13 13 14 9 15 8 16 10 18 7 19 6 20 1 21 2 22 3 23
REMARK SMILES IDX 95 24 4 26 5 27 24 28 25 29 26 30 27 31 28 32 29 33 30 34
REMARK SMILES IDX 31 35 32 36 93 37 33 38 92 39 34 40 35 41 36 42 86 43 37 44
REMARK SMILES IDX 91 45 85 46 87 47 38 48 90 49 84 50 83 51 39 53 71 54 51 55
REMARK SMILES IDX 70 56 52 57 55 58 69 59 88 60 53 61 54 62 68 64 89 65 56 66
REMARK SMILES IDX 40 67 41 68 49 69 42 70 43 71 47 72 50 73 44 74 45 75 48 76
REMARK SMILES IDX 46 77 72 78 73 79 81 80 74 81 75 82 79 83 82 84 76 85 77 86
REMARK SMILES IDX 80 87 78 88 57 89 58 90 66 91 59 92 60 93 64 94 67 95 61 96
REMARK SMILES IDX 62 97 65 98 63 99
REMARK H PARENT 8 17 2 25 87 52 55 63
REMARK Flexibility Score: inf
ROOT
ATOM      1  C   UNL A   1      34.406  32.282  28.298  1.00  0.00     0.188 C 
ENDROOT
BRANCH   1   2
ATOM      2  O   UNL A   1      35.630  31.799  27.771  1.00  0.00    -0.376 OA
BRANCH   2   3
ATOM      3  C   UNL A   1      35.922  30.411  27.798  1.00  0.00     0.202 C 
BRANCH   3   4
ATOM      4  C   UNL A   1      34.958  29.364  27.216  1.00  0.00     0.261 C 
BRANCH   4   5
ATOM      5  O   UNL A   1      33.753  29.137  27.961  1.00  0.00    -0.460 OA
BRANCH   5   6
ATOM      6  C   UNL A   1      32.722  28.608  27.256  1.00  0.00     0.330 C 
ATOM      7  O   UNL A   1      31.549  28.943  27.327  1.00  0.00    -0.247 OA
BRANCH   6   8
ATOM      8  C   UNL A   1      33.177  27.632  26.244  1.00  0.00     0.095 C 
ATOM      9  C   UNL A   1      32.851  26.330  26.237  1.00  0.00     0.026 C 
BRANCH   9  10
ATOM     10  C   UNL A   1      33.301  25.411  25.236  1.00  0.00     0.028 A 
ATOM     11  C   UNL A   1      33.514  23.822  23.324  1.00  0.00     0.092 A 
ATOM     12  C   UNL A   1      34.661  23.878  24.088  1.00  0.00     0.026 A 
ATOM     13  S   UNL A   1      32.361  24.960  23.859  1.00  0.00    -0.131 S 
ATOM     14  C   UNL A   1      34.533  24.778  25.186  1.00  0.00     0.021 A 
BRANCH  11  15
ATOM     15  C   UNL A   1      33.211  22.984  22.179  1.00  0.00     0.261 C 
ATOM     16  N   UNL A   1      32.674  21.733  22.399  1.00  0.00    -0.348 N 
ATOM     17  H   UNL A   1      32.674  21.123  21.627  1.00  0.00     0.163 HD
ATOM     18  O   UNL A   1      33.425  23.318  21.013  1.00  0.00    -0.268 OA
BRANCH  16  19
ATOM     19  C   UNL A   1      32.103  21.200  23.632  1.00  0.00     0.154 C 
BRANCH  19  20
ATOM     20  C   UNL A   1      32.643  19.815  24.031  1.00  0.00     0.192 C 
ATOM     21  C   UNL A   1      33.976  17.161  23.131  1.00  0.00     0.332 C 
ATOM     22  N   UNL A   1      32.572  17.353  23.502  1.00  0.00    -0.333 N 
ATOM     23  C   UNL A   1      32.351  17.144  24.950  1.00  0.00     0.290 C 
ATOM     24  C   UNL A   1      32.065  18.694  23.144  1.00  0.00     0.296 C 
ATOM     25  H   UNL A   1      32.059  16.650  22.969  1.00  0.00     0.348 HD
ATOM     26  C   UNL A   1      32.874  18.295  25.833  1.00  0.00     0.222 C 
ATOM     27  O   UNL A   1      32.361  19.568  25.419  1.00  0.00    -0.365 OA
ENDBRANCH  19  20
ENDBRANCH  16  19
ENDBRANCH  11  15
ENDBRANCH   9  10
ENDBRANCH   6   8
ENDBRANCH   5   6
ENDBRANCH   4   5
ENDBRANCH   3   4
ENDBRANCH   2   3
ENDBRANCH   1   2
BRANCH   1  28
ATOM     28  C   UNL A   1      34.247  33.772  28.665  1.00  0.00     0.188 C 
BRANCH  28  29
ATOM     29  O   UNL A   1      32.956  34.312  28.542  1.00  0.00    -0.376 OA
BRANCH  29  30
ATOM     30  C   UNL A   1      32.668  35.608  29.045  1.00  0.00     0.202 C 
BRANCH  30  31
ATOM     31  C   UNL A   1      33.535  36.421  30.029  1.00  0.00     0.261 C 
BRANCH  31  32
ATOM     32  O   UNL A   1      33.003  36.735  31.316  1.00  0.00    -0.460 OA
BRANCH  32  33
ATOM     33  C   UNL A   1      32.603  35.680  32.071  1.00  0.00     0.338 C 
ATOM     34  O   UNL A   1      31.471  35.292  32.267  1.00  0.00    -0.246 OA
BRANCH  33  35
ATOM     35  C   UNL A   1      33.813  34.960  32.512  1.00  0.00     0.060 A 
ATOM     36  C   UNL A   1      35.075  35.492  32.210  1.00  0.00     0.016 A 
ATOM     37  C   UNL A   1      33.695  33.768  33.226  1.00  0.00     0.016 A 
ATOM     38  C   UNL A   1      36.228  34.836  32.641  1.00  0.00     0.010 A 
ATOM     39  C   UNL A   1      34.850  33.101  33.634  1.00  0.00     0.010 A 
ATOM     40  C   UNL A   1      36.122  33.625  33.339  1.00  0.00    -0.014 A 
BRANCH  40  41
ATOM     41  C   UNL A   1      37.329  32.830  33.664  1.00  0.00     0.031 A 
ATOM     42  C   UNL A   1      38.044  33.096  34.957  1.00  0.00     0.074 A 
ATOM     43  C   UNL A   1      37.803  31.911  32.807  1.00  0.00     0.049 A 
ATOM     44  N   UNL A   1      39.179  32.616  35.397  1.00  0.00    -0.248 NA
ATOM     45  C   UNL A   1      37.390  34.042  35.874  1.00  0.00     0.031 C 
ATOM     46  C   UNL A   1      37.170  31.523  31.548  1.00  0.00     0.029 A 
ATOM     47  N   UNL A   1      38.943  31.148  32.863  1.00  0.00    -0.354 N 
ATOM     48  C   UNL A   1      39.382  33.209  36.635  1.00  0.00     0.074 A 
ATOM     49  C   UNL A   1      38.268  34.106  36.862  1.00  0.00     0.031 C 
ATOM     50  C   UNL A   1      37.936  30.600  30.944  1.00  0.00     0.029 A 
ATOM     51  C   UNL A   1      39.134  30.367  31.751  1.00  0.00     0.049 A 
ATOM     52  H   UNL A   1      39.562  31.159  33.627  1.00  0.00     0.167 HD
ATOM     53  C   UNL A   1      40.405  33.020  37.503  1.00  0.00     0.037 A 
ATOM     54  C   UNL A   1      40.173  29.578  31.412  1.00  0.00     0.037 A 
ATOM     55  C   UNL A   1      41.517  32.136  37.262  1.00  0.00     0.049 A 
ATOM     56  C   UNL A   1      41.356  29.474  32.342  1.00  0.00     0.074 A 
ATOM     57  C   UNL A   1      42.589  31.854  38.088  1.00  0.00     0.029 A 
ATOM     58  N   UNL A   1      41.705  31.403  36.098  1.00  0.00    -0.354 N 
ATOM     59  N   UNL A   1      41.535  30.012  33.524  1.00  0.00    -0.248 NA
ATOM     60  C   UNL A   1      42.490  28.658  31.881  1.00  0.00     0.031 C 
ATOM     61  C   UNL A   1      43.463  31.009  37.396  1.00  0.00     0.029 A 
ATOM     62  C   UNL A   1      42.902  30.706  36.167  1.00  0.00     0.049 A 
ATOM     63  H   UNL A   1      41.081  31.383  35.337  1.00  0.00     0.167 HD
ATOM     64  C   UNL A   1      42.778  29.574  33.963  1.00  0.00     0.074 A 
ATOM     65  C   UNL A   1      43.309  28.719  32.921  1.00  0.00     0.031 C 
ATOM     66  C   UNL A   1      43.420  29.853  35.125  1.00  0.00     0.037 A 
BRANCH  53  67
ATOM     67  C   UNL A   1      40.391  33.830  38.768  1.00  0.00     0.064 A 
ATOM     68  C   UNL A   1      41.080  35.048  38.879  1.00  0.00     0.173 A 
ATOM     69  C   UNL A   1      39.679  33.378  39.890  1.00  0.00     0.173 A 
ATOM     70  F   UNL A   1      41.787  35.522  37.842  1.00  0.00    -0.203 F 
ATOM     71  C   UNL A   1      41.094  35.759  40.077  1.00  0.00     0.198 A 
ATOM     72  C   UNL A   1      39.664  34.109  41.074  1.00  0.00     0.198 A 
ATOM     73  F   UNL A   1      38.997  32.225  39.839  1.00  0.00    -0.203 F 
ATOM     74  F   UNL A   1      41.815  36.884  40.179  1.00  0.00    -0.200 F 
ATOM     75  C   UNL A   1      40.382  35.292  41.172  1.00  0.00     0.200 A 
ATOM     76  F   UNL A   1      38.962  33.664  42.125  1.00  0.00    -0.200 F 
ATOM     77  F   UNL A   1      40.397  35.975  42.324  1.00  0.00    -0.200 F 
ENDBRANCH  53  67
BRANCH  54  78
ATOM     78  C   UNL A   1      40.148  28.823  30.132  1.00  0.00     0.064 A 
ATOM     79  C   UNL A   1      39.537  27.563  30.057  1.00  0.00     0.173 A 
ATOM     80  C   UNL A   1      40.738  29.331  28.965  1.00  0.00     0.173 A 
ATOM     81  F   UNL A   1      38.988  27.020  31.153  1.00  0.00    -0.203 F 
ATOM     82  C   UNL A   1      39.528  26.836  28.869  1.00  0.00     0.198 A 
ATOM     83  C   UNL A   1      40.702  28.616  27.770  1.00  0.00     0.198 A 
ATOM     84  F   UNL A   1      41.345  30.527  28.985  1.00  0.00    -0.203 F 
ATOM     85  F   UNL A   1      38.977  25.615  28.838  1.00  0.00    -0.200 F 
ATOM     86  C   UNL A   1      40.103  27.368  27.724  1.00  0.00     0.200 A 
ATOM     87  F   UNL A   1      41.253  29.136  26.664  1.00  0.00    -0.200 F 
ATOM     88  F   UNL A   1      40.090  26.669  26.580  1.00  0.00    -0.200 F 
ENDBRANCH  54  78
BRANCH  66  89
ATOM     89  C   UNL A   1      44.753  29.199  35.360  1.00  0.00     0.064 A 
ATOM     90  C   UNL A   1      44.863  27.946  35.983  1.00  0.00     0.173 A 
ATOM     91  C   UNL A   1      45.933  29.809  34.903  1.00  0.00     0.173 A 
ATOM     92  F   UNL A   1      43.770  27.327  36.452  1.00  0.00    -0.203 F 
ATOM     93  C   UNL A   1      46.105  27.340  36.159  1.00  0.00     0.198 A 
ATOM     94  C   UNL A   1      47.168  29.184  35.051  1.00  0.00     0.198 A 
ATOM     95  F   UNL A   1      45.885  31.003  34.295  1.00  0.00    -0.203 F 
ATOM     96  F   UNL A   1      46.191  26.165  36.797  1.00  0.00    -0.200 F 
ATOM     97  C   UNL A   1      47.255  27.954  35.683  1.00  0.00     0.200 A 
ATOM     98  F   UNL A   1      48.275  29.771  34.574  1.00  0.00    -0.200 F 
ATOM     99  F   UNL A   1      48.447  27.361  35.839  1.00  0.00    -0.200 F 
ENDBRANCH  66  89
ENDBRANCH  40  41
ENDBRANCH  33  35
ENDBRANCH  32  33
ENDBRANCH  31  32
ENDBRANCH  30  31
ENDBRANCH  29  30
ENDBRANCH  28  29
ENDBRANCH   1  28
TORSDOF 21
ENDMDL
MODEL 2
REMARK VINA RESULT:     -10.2      4.398     10.492
REMARK SMILES C[N@H+]1CCO[C@H](CNC(=O)c2ccc(/C=C/C(=O)OCCOCCOCCOC(=O)c3ccc(-c4c5nc(c(-c6c(F)c(F)c(F)c(F)c6F)c6ccc([nH]6)c(-c6c(F)c(F)c(F)c(F)c6F)c6nc(c(-c7c(F)c(F)c(F)c(F)c7F)c7ccc4[nH]7)C=C6)C=C5)cc3)s2)C1
REMARK SMILES IDX 23 1 22 2 21 3 20 4 19 5 17 6 18 7 16 8 15 9 14 10 11 11
REMARK SMILES IDX 12 12 94 13 13 14 9 15 8 16 10 18 7 19 6 20 1 21 2 22 3 23
REMARK SMILES IDX 95 24 4 26 5 27 24 28 25 29 26 30 27 31 28 32 29 33 30 34
REMARK SMILES IDX 31 35 32 36 93 37 33 38 92 39 34 40 35 41 36 42 86 43 37 44
REMARK SMILES IDX 91 45 85 46 87 47 38 48 90 49 84 50 83 51 39 53 71 54 51 55
REMARK SMILES IDX 70 56 52 57 55 58 69 59 88 60 53 61 54 62 68 64 89 65 56 66
REMARK SMILES IDX 40 67 41 68 49 69 42 70 43 71 47 72 50 73 44 74 45 75 48 76
REMARK SMILES IDX 46 77 72 78 73 79 81 80 74 81 75 82 79 83 82 84 76 85 77 86
REMARK SMILES IDX 80 87 78 88 57 89 58 90 66 91 59 92 60 93 64 94 67 95 61 96
REMARK SMILES IDX 62 97 65 98 63 99
REMARK H PARENT 8 17 2 25 87 52 55 63
REMARK Flexibility Score: inf
ROOT
ATOM      1  C   UNL A   1      44.514  19.711  24.434  1.00  0.00     0.188 C 
ENDROOT
BRANCH   1   2
ATOM      2  O   UNL A   1      43.688  18.609  24.770  1.00  0.00    -0.376 OA
BRANCH   2   3
ATOM      3  C   UNL A   1      42.810  18.684  25.883  1.00  0.00     0.202 C 
BRANCH   3   4
ATOM      4  C   UNL A   1      42.333  20.030  26.454  1.00  0.00     0.261 C 
BRANCH   4   5
ATOM      5  O   UNL A   1      40.969  20.380  26.182  1.00  0.00    -0.460 OA
BRANCH   5   6
ATOM      6  C   UNL A   1      40.451  21.358  26.964  1.00  0.00     0.330 C 
ATOM      7  O   UNL A   1      41.010  21.909  27.901  1.00  0.00    -0.247 OA
BRANCH   6   8
ATOM      8  C   UNL A   1      39.132  21.822  26.484  1.00  0.00     0.095 C 
ATOM      9  C   UNL A   1      38.612  21.535  25.281  1.00  0.00     0.026 C 
BRANCH   9  10
ATOM     10  C   UNL A   1      37.326  21.993  24.849  1.00  0.00     0.028 A 
ATOM     11  C   UNL A   1      34.899  22.511  24.587  1.00  0.00     0.092 A 
ATOM     12  C   UNL A   1      35.633  22.862  23.472  1.00  0.00     0.026 A 
ATOM     13  S   UNL A   1      35.913  21.954  25.841  1.00  0.00    -0.131 S 
ATOM     14  C   UNL A   1      37.017  22.555  23.620  1.00  0.00     0.021 A 
BRANCH  11  15
ATOM     15  C   UNL A   1      33.467  22.585  24.807  1.00  0.00     0.261 C 
ATOM     16  N   UNL A   1      32.948  23.717  25.400  1.00  0.00    -0.348 N 
ATOM     17  H   UNL A   1      32.018  23.648  25.717  1.00  0.00     0.163 HD
ATOM     18  O   UNL A   1      32.684  21.682  24.512  1.00  0.00    -0.268 OA
BRANCH  16  19
ATOM     19  C   UNL A   1      33.600  25.004  25.614  1.00  0.00     0.154 C 
BRANCH  19  20
ATOM     20  C   UNL A   1      33.135  26.117  24.657  1.00  0.00     0.192 C 
ATOM     21  C   UNL A   1      31.326  26.936  22.273  1.00  0.00     0.332 C 
ATOM     22  N   UNL A   1      32.775  26.726  22.239  1.00  0.00    -0.333 N 
ATOM     23  C   UNL A   1      33.519  27.969  22.540  1.00  0.00     0.290 C 
ATOM     24  C   UNL A   1      33.222  25.679  23.180  1.00  0.00     0.296 C 
ATOM     25  H   UNL A   1      32.977  26.424  21.286  1.00  0.00     0.348 HD
ATOM     26  C   UNL A   1      33.483  28.373  24.027  1.00  0.00     0.222 C 
ATOM     27  O   UNL A   1      33.908  27.307  24.886  1.00  0.00    -0.365 OA
ENDBRANCH  19  20
ENDBRANCH  16  19
ENDBRANCH  11  15
ENDBRANCH   9  10
ENDBRANCH   6   8
ENDBRANCH   5   6
ENDBRANCH   4   5
ENDBRANCH   3   4
ENDBRANCH   2   3
ENDBRANCH   1   2
BRANCH   1  28
ATOM     28  C   UNL A   1      45.845  19.944  25.177  1.00  0.00     0.188 C 
BRANCH  28  29
ATOM     29  O   UNL A   1      46.194  21.282  25.431  1.00  0.00    -0.376 OA
BRANCH  29  30
ATOM     30  C   UNL A   1      45.969  22.282  24.451  1.00  0.00     0.202 C 
BRANCH  30  31
ATOM     31  C   UNL A   1      46.005  23.809  24.676  1.00  0.00     0.261 C 
BRANCH  31  32
ATOM     32  O   UNL A   1      45.325  24.353  25.808  1.00  0.00    -0.460 OA
BRANCH  32  33
ATOM     33  C   UNL A   1      44.088  24.860  25.575  1.00  0.00     0.338 C 
ATOM     34  O   UNL A   1      43.380  24.681  24.608  1.00  0.00    -0.246 OA
BRANCH  33  35
ATOM     35  C   UNL A   1      43.658  25.570  26.795  1.00  0.00     0.060 A 
ATOM     36  C   UNL A   1      42.733  24.959  27.654  1.00  0.00     0.016 A 
ATOM     37  C   UNL A   1      44.175  26.832  27.087  1.00  0.00     0.016 A 
ATOM     38  C   UNL A   1      42.336  25.607  28.824  1.00  0.00     0.010 A 
ATOM     39  C   UNL A   1      43.756  27.489  28.245  1.00  0.00     0.010 A 
ATOM     40  C   UNL A   1      42.830  26.886  29.115  1.00  0.00    -0.014 A 
BRANCH  40  41
ATOM     41  C   UNL A   1      42.301  27.659  30.263  1.00  0.00     0.031 A 
ATOM     42  C   UNL A   1      41.052  28.469  30.076  1.00  0.00     0.074 A 
ATOM     43  C   UNL A   1      42.942  27.668  31.444  1.00  0.00     0.049 A 
ATOM     44  N   UNL A   1      40.475  29.313  30.892  1.00  0.00    -0.248 NA
ATOM     45  C   UNL A   1      40.366  28.309  28.785  1.00  0.00     0.031 C 
ATOM     46  C   UNL A   1      44.131  26.882  31.767  1.00  0.00     0.029 A 
ATOM     47  N   UNL A   1      42.687  28.382  32.588  1.00  0.00    -0.354 N 
ATOM     48  C   UNL A   1      39.366  29.795  30.211  1.00  0.00     0.074 A 
ATOM     49  C   UNL A   1      39.368  29.170  28.904  1.00  0.00     0.031 C 
ATOM     50  C   UNL A   1      44.509  27.165  33.024  1.00  0.00     0.029 A 
ATOM     51  C   UNL A   1      43.617  28.184  33.577  1.00  0.00     0.049 A 
ATOM     52  H   UNL A   1      41.910  28.979  32.690  1.00  0.00     0.167 HD
ATOM     53  C   UNL A   1      38.430  30.676  30.639  1.00  0.00     0.037 A 
ATOM     54  C   UNL A   1      43.748  28.781  34.778  1.00  0.00     0.037 A 
ATOM     55  C   UNL A   1      38.444  31.303  31.936  1.00  0.00     0.049 A 
ATOM     56  C   UNL A   1      42.761  29.846  35.186  1.00  0.00     0.074 A 
ATOM     57  C   UNL A   1      37.529  32.188  32.476  1.00  0.00     0.029 A 
ATOM     58  N   UNL A   1      39.434  31.119  32.891  1.00  0.00    -0.354 N 
ATOM     59  N   UNL A   1      41.698  30.280  34.554  1.00  0.00    -0.248 NA
ATOM     60  C   UNL A   1      43.002  30.512  36.475  1.00  0.00     0.031 C 
ATOM     61  C   UNL A   1      38.003  32.598  33.727  1.00  0.00     0.029 A 
ATOM     62  C   UNL A   1      39.176  31.914  33.998  1.00  0.00     0.049 A 
ATOM     63  H   UNL A   1      40.205  30.516  32.796  1.00  0.00     0.167 HD
ATOM     64  C   UNL A   1      41.124  31.240  35.378  1.00  0.00     0.074 A 
ATOM     65  C   UNL A   1      41.955  31.321  36.562  1.00  0.00     0.031 C 
ATOM     66  C   UNL A   1      40.008  31.984  35.175  1.00  0.00     0.037 A 
BRANCH  53  67
ATOM     67  C   UNL A   1      37.347  31.054  29.669  1.00  0.00     0.064 A 
ATOM     68  C   UNL A   1      37.336  32.294  29.012  1.00  0.00     0.173 A 
ATOM     69  C   UNL A   1      36.300  30.160  29.395  1.00  0.00     0.173 A 
ATOM     70  F   UNL A   1      38.306  33.191  29.245  1.00  0.00    -0.203 F 
ATOM     71  C   UNL A   1      36.296  32.642  28.153  1.00  0.00     0.198 A 
ATOM     72  C   UNL A   1      35.282  30.496  28.508  1.00  0.00     0.198 A 
ATOM     73  F   UNL A   1      36.263  28.958  29.989  1.00  0.00    -0.203 F 
ATOM     74  F   UNL A   1      36.272  33.858  27.591  1.00  0.00    -0.200 F 
ATOM     75  C   UNL A   1      35.273  31.742  27.898  1.00  0.00     0.200 A 
ATOM     76  F   UNL A   1      34.302  29.618  28.251  1.00  0.00    -0.200 F 
ATOM     77  F   UNL A   1      34.271  32.078  27.074  1.00  0.00    -0.200 F 
ENDBRANCH  53  67
BRANCH  54  78
ATOM     78  C   UNL A   1      44.858  28.391  35.686  1.00  0.00     0.064 A 
ATOM     79  C   UNL A   1      46.111  29.014  35.590  1.00  0.00     0.173 A 
ATOM     80  C   UNL A   1      44.701  27.389  36.655  1.00  0.00     0.173 A 
ATOM     81  F   UNL A   1      46.321  29.955  34.659  1.00  0.00    -0.203 F 
ATOM     82  C   UNL A   1      47.166  28.641  36.420  1.00  0.00     0.198 A 
ATOM     83  C   UNL A   1      45.748  27.038  37.504  1.00  0.00     0.198 A 
ATOM     84  F   UNL A   1      43.526  26.755  36.781  1.00  0.00    -0.203 F 
ATOM     85  F   UNL A   1      48.366  29.220  36.276  1.00  0.00    -0.200 F 
ATOM     86  C   UNL A   1      46.981  27.659  37.382  1.00  0.00     0.200 A 
ATOM     87  F   UNL A   1      45.563  26.093  38.436  1.00  0.00    -0.200 F 
ATOM     88  F   UNL A   1      47.996  27.303  38.183  1.00  0.00    -0.200 F 
ENDBRANCH  54  78
BRANCH  66  89
ATOM     89  C   UNL A   1      39.590  32.927  36.268  1.00  0.00     0.064 A 
ATOM     90  C   UNL A   1      38.673  32.548  37.261  1.00  0.00     0.173 A 
ATOM     91  C   UNL A   1      40.157  34.209  36.356  1.00  0.00     0.173 A 
ATOM     92  F   UNL A   1      38.089  31.342  37.216  1.00  0.00    -0.203 F 
ATOM     93  C   UNL A   1      38.325  33.424  38.287  1.00  0.00     0.198 A 
ATOM     94  C   UNL A   1      39.832  35.068  37.403  1.00  0.00     0.198 A 
ATOM     95  F   UNL A   1      41.043  34.620  35.438  1.00  0.00    -0.203 F 
ATOM     96  F   UNL A   1      37.413  33.057  39.198  1.00  0.00    -0.200 F 
ATOM     97  C   UNL A   1      38.912  34.678  38.363  1.00  0.00     0.200 A 
ATOM     98  F   UNL A   1      40.414  36.272  37.484  1.00  0.00    -0.200 F 
ATOM     99  F   UNL A   1      38.587  35.513  39.361  1.00  0.00    -0.200 F 
ENDBRANCH  66  89
ENDBRANCH  40  41
ENDBRANCH  33  35
ENDBRANCH  32  33
ENDBRANCH  31  32
ENDBRANCH  30  31
ENDBRANCH  29  30
ENDBRANCH  28  29
ENDBRANCH   1  28
TORSDOF 21
ENDMDL
MODEL 3
REMARK VINA RESULT:      -9.8      6.340      9.706
REMARK SMILES C[N@H+]1CCO[C@H](CNC(=O)c2ccc(/C=C/C(=O)OCCOCCOCCOC(=O)c3ccc(-c4c5nc(c(-c6c(F)c(F)c(F)c(F)c6F)c6ccc([nH]6)c(-c6c(F)c(F)c(F)c(F)c6F)c6nc(c(-c7c(F)c(F)c(F)c(F)c7F)c7ccc4[nH]7)C=C6)C=C5)cc3)s2)C1
REMARK SMILES IDX 23 1 22 2 21 3 20 4 19 5 17 6 18 7 16 8 15 9 14 10 11 11
REMARK SMILES IDX 12 12 94 13 13 14 9 15 8 16 10 18 7 19 6 20 1 21 2 22 3 23
REMARK SMILES IDX 95 24 4 26 5 27 24 28 25 29 26 30 27 31 28 32 29 33 30 34
REMARK SMILES IDX 31 35 32 36 93 37 33 38 92 39 34 40 35 41 36 42 86 43 37 44
REMARK SMILES IDX 91 45 85 46 87 47 38 48 90 49 84 50 83 51 39 53 71 54 51 55
REMARK SMILES IDX 70 56 52 57 55 58 69 59 88 60 53 61 54 62 68 64 89 65 56 66
REMARK SMILES IDX 40 67 41 68 49 69 42 70 43 71 47 72 50 73 44 74 45 75 48 76
REMARK SMILES IDX 46 77 72 78 73 79 81 80 74 81 75 82 79 83 82 84 76 85 77 86
REMARK SMILES IDX 80 87 78 88 57 89 58 90 66 91 59 92 60 93 64 94 67 95 61 96
REMARK SMILES IDX 62 97 65 98 63 99
REMARK H PARENT 8 17 2 25 87 52 55 63
REMARK Flexibility Score: inf
ROOT
ATOM      1  C   UNL A   1      47.872  37.692  26.128  1.00  0.00     0.188 C 
ENDROOT
BRANCH   1   2
ATOM      2  O   UNL A   1      47.862  36.371  26.640  1.00  0.00    -0.376 OA
BRANCH   2   3
ATOM      3  C   UNL A   1      47.595  35.273  25.781  1.00  0.00     0.202 C 
BRANCH   3   4
ATOM      4  C   UNL A   1      46.165  34.902  25.353  1.00  0.00     0.261 C 
BRANCH   4   5
ATOM      5  O   UNL A   1      45.757  33.554  25.625  1.00  0.00    -0.460 OA
BRANCH   5   6
ATOM      6  C   UNL A   1      44.421  33.328  25.576  1.00  0.00     0.330 C 
ATOM      7  O   UNL A   1      43.603  33.958  24.922  1.00  0.00    -0.247 OA
BRANCH   6   8
ATOM      8  C   UNL A   1      44.031  32.108  26.313  1.00  0.00     0.095 C 
ATOM      9  C   UNL A   1      44.887  31.178  26.761  1.00  0.00     0.026 C 
BRANCH   9  10
ATOM     10  C   UNL A   1      44.478  30.011  27.481  1.00  0.00     0.028 A 
ATOM     11  C   UNL A   1      43.220  28.149  28.567  1.00  0.00     0.092 A 
ATOM     12  C   UNL A   1      44.550  28.165  28.933  1.00  0.00     0.026 A 
ATOM     13  S   UNL A   1      42.892  29.333  27.383  1.00  0.00    -0.131 S 
ATOM     14  C   UNL A   1      45.264  29.236  28.320  1.00  0.00     0.021 A 
BRANCH  11  15
ATOM     15  C   UNL A   1      42.150  27.280  29.022  1.00  0.00     0.261 C 
ATOM     16  N   UNL A   1      42.128  25.974  28.581  1.00  0.00    -0.348 N 
ATOM     17  H   UNL A   1      41.291  25.480  28.740  1.00  0.00     0.163 HD
ATOM     18  O   UNL A   1      41.243  27.648  29.768  1.00  0.00    -0.268 OA
BRANCH  16  19
ATOM     19  C   UNL A   1      43.189  25.229  27.910  1.00  0.00     0.154 C 
BRANCH  19  20
ATOM     20  C   UNL A   1      42.777  23.818  27.450  1.00  0.00     0.192 C 
ATOM     21  C   UNL A   1      43.256  21.455  25.496  1.00  0.00     0.332 C 
ATOM     22  N   UNL A   1      42.147  22.411  25.457  1.00  0.00    -0.333 N 
ATOM     23  C   UNL A   1      40.995  21.954  26.264  1.00  0.00     0.290 C 
ATOM     24  C   UNL A   1      42.537  23.757  25.928  1.00  0.00     0.296 C 
ATOM     25  H   UNL A   1      41.880  22.468  24.474  1.00  0.00     0.348 HD
ATOM     26  C   UNL A   1      41.213  22.072  27.785  1.00  0.00     0.222 C 
ATOM     27  O   UNL A   1      41.609  23.395  28.172  1.00  0.00    -0.365 OA
ENDBRANCH  19  20
ENDBRANCH  16  19
ENDBRANCH  11  15
ENDBRANCH   9  10
ENDBRANCH   6   8
ENDBRANCH   5   6
ENDBRANCH   4   5
ENDBRANCH   3   4
ENDBRANCH   2   3
ENDBRANCH   1   2
BRANCH   1  28
ATOM     28  C   UNL A   1      47.041  38.799  26.809  1.00  0.00     0.188 C 
BRANCH  28  29
ATOM     29  O   UNL A   1      45.746  39.008  26.306  1.00  0.00    -0.376 OA
BRANCH  29  30
ATOM     30  C   UNL A   1      45.394  40.252  25.720  1.00  0.00     0.202 C 
BRANCH  30  31
ATOM     31  C   UNL A   1      44.110  41.062  25.996  1.00  0.00     0.261 C 
BRANCH  31  32
ATOM     32  O   UNL A   1      43.364  40.785  27.183  1.00  0.00    -0.460 OA
BRANCH  32  33
ATOM     33  C   UNL A   1      42.237  40.045  27.021  1.00  0.00     0.338 C 
ATOM     34  O   UNL A   1      41.228  40.347  26.421  1.00  0.00    -0.246 OA
BRANCH  33  35
ATOM     35  C   UNL A   1      42.497  38.706  27.583  1.00  0.00     0.060 A 
ATOM     36  C   UNL A   1      42.232  37.572  26.803  1.00  0.00     0.016 A 
ATOM     37  C   UNL A   1      43.004  38.578  28.876  1.00  0.00     0.016 A 
ATOM     38  C   UNL A   1      42.496  36.300  27.311  1.00  0.00     0.010 A 
ATOM     39  C   UNL A   1      43.242  37.304  29.392  1.00  0.00     0.010 A 
ATOM     40  C   UNL A   1      42.983  36.158  28.617  1.00  0.00    -0.014 A 
BRANCH  40  41
ATOM     41  C   UNL A   1      43.116  34.818  29.234  1.00  0.00     0.031 A 
ATOM     42  C   UNL A   1      41.885  34.133  29.751  1.00  0.00     0.074 A 
ATOM     43  C   UNL A   1      44.319  34.234  29.365  1.00  0.00     0.049 A 
ATOM     44  N   UNL A   1      41.771  33.022  30.432  1.00  0.00    -0.248 NA
ATOM     45  C   UNL A   1      40.606  34.802  29.465  1.00  0.00     0.031 C 
ATOM     46  C   UNL A   1      45.579  34.770  28.857  1.00  0.00     0.029 A 
ATOM     47  N   UNL A   1      44.675  33.062  29.986  1.00  0.00    -0.354 N 
ATOM     48  C   UNL A   1      40.413  32.864  30.669  1.00  0.00     0.074 A 
ATOM     49  C   UNL A   1      39.746  34.008  30.082  1.00  0.00     0.031 C 
ATOM     50  C   UNL A   1      46.574  33.934  29.195  1.00  0.00     0.029 A 
ATOM     51  C   UNL A   1      46.027  32.829  29.981  1.00  0.00     0.049 A 
ATOM     52  H   UNL A   1      44.023  32.448  30.394  1.00  0.00     0.167 HD
ATOM     53  C   UNL A   1      39.780  31.854  31.314  1.00  0.00     0.037 A 
ATOM     54  C   UNL A   1      46.741  31.850  30.573  1.00  0.00     0.037 A 
ATOM     55  C   UNL A   1      40.454  30.727  31.906  1.00  0.00     0.049 A 
ATOM     56  C   UNL A   1      46.026  30.801  31.386  1.00  0.00     0.074 A 
ATOM     57  C   UNL A   1      39.903  29.638  32.558  1.00  0.00     0.029 A 
ATOM     58  N   UNL A   1      41.831  30.553  31.930  1.00  0.00    -0.354 N 
ATOM     59  N   UNL A   1      44.741  30.636  31.585  1.00  0.00    -0.248 NA
ATOM     60  C   UNL A   1      46.867  29.804  32.067  1.00  0.00     0.031 C 
ATOM     61  C   UNL A   1      40.949  28.844  33.042  1.00  0.00     0.029 A 
ATOM     62  C   UNL A   1      42.150  29.399  32.629  1.00  0.00     0.049 A 
ATOM     63  H   UNL A   1      42.484  31.161  31.514  1.00  0.00     0.167 HD
ATOM     64  C   UNL A   1      44.615  29.504  32.380  1.00  0.00     0.074 A 
ATOM     65  C   UNL A   1      45.958  29.016  32.622  1.00  0.00     0.031 C 
ATOM     66  C   UNL A   1      43.490  28.919  32.862  1.00  0.00     0.037 A 
BRANCH  53  67
ATOM     67  C   UNL A   1      38.289  31.959  31.459  1.00  0.00     0.064 A 
ATOM     68  C   UNL A   1      37.414  31.583  30.427  1.00  0.00     0.173 A 
ATOM     69  C   UNL A   1      37.726  32.445  32.648  1.00  0.00     0.173 A 
ATOM     70  F   UNL A   1      37.898  31.121  29.265  1.00  0.00    -0.203 F 
ATOM     71  C   UNL A   1      36.036  31.733  30.565  1.00  0.00     0.198 A 
ATOM     72  C   UNL A   1      36.347  32.560  32.796  1.00  0.00     0.198 A 
ATOM     73  F   UNL A   1      38.513  32.813  33.670  1.00  0.00    -0.203 F 
ATOM     74  F   UNL A   1      35.225  31.432  29.541  1.00  0.00    -0.200 F 
ATOM     75  C   UNL A   1      35.503  32.217  31.750  1.00  0.00     0.200 A 
ATOM     76  F   UNL A   1      35.833  33.012  33.949  1.00  0.00    -0.200 F 
ATOM     77  F   UNL A   1      34.178  32.363  31.881  1.00  0.00    -0.200 F 
ENDBRANCH  53  67
BRANCH  54  78
ATOM     78  C   UNL A   1      48.219  31.813  30.423  1.00  0.00     0.064 A 
ATOM     79  C   UNL A   1      49.050  32.411  31.382  1.00  0.00     0.173 A 
ATOM     80  C   UNL A   1      48.834  31.196  29.323  1.00  0.00     0.173 A 
ATOM     81  F   UNL A   1      48.510  33.041  32.435  1.00  0.00    -0.203 F 
ATOM     82  C   UNL A   1      50.436  32.403  31.240  1.00  0.00     0.198 A 
ATOM     83  C   UNL A   1      50.221  31.164  29.198  1.00  0.00     0.198 A 
ATOM     84  F   UNL A   1      48.085  30.619  28.372  1.00  0.00    -0.203 F 
ATOM     85  F   UNL A   1      51.203  33.022  32.148  1.00  0.00    -0.200 F 
ATOM     86  C   UNL A   1      51.021  31.772  30.152  1.00  0.00     0.200 A 
ATOM     87  F   UNL A   1      50.782  30.547  28.148  1.00  0.00    -0.200 F 
ATOM     88  F   UNL A   1      52.354  31.761  30.019  1.00  0.00    -0.200 F 
ENDBRANCH  54  78
BRANCH  66  89
ATOM     89  C   UNL A   1      43.649  27.661  33.670  1.00  0.00     0.064 A 
ATOM     90  C   UNL A   1      43.820  26.408  33.062  1.00  0.00     0.173 A 
ATOM     91  C   UNL A   1      43.688  27.719  35.073  1.00  0.00     0.173 A 
ATOM     92  F   UNL A   1      43.775  26.293  31.727  1.00  0.00    -0.203 F 
ATOM     93  C   UNL A   1      44.002  25.259  33.828  1.00  0.00     0.198 A 
ATOM     94  C   UNL A   1      43.905  26.573  35.833  1.00  0.00     0.198 A 
ATOM     95  F   UNL A   1      43.537  28.891  35.705  1.00  0.00    -0.203 F 
ATOM     96  F   UNL A   1      44.117  24.066  33.227  1.00  0.00    -0.200 F 
ATOM     97  C   UNL A   1      44.055  25.344  35.212  1.00  0.00     0.200 A 
ATOM     98  F   UNL A   1      43.974  26.660  37.169  1.00  0.00    -0.200 F 
ATOM     99  F   UNL A   1      44.246  24.238  35.946  1.00  0.00    -0.200 F 
ENDBRANCH  66  89
ENDBRANCH  40  41
ENDBRANCH  33  35
ENDBRANCH  32  33
ENDBRANCH  31  32
ENDBRANCH  30  31
ENDBRANCH  29  30
ENDBRANCH  28  29
ENDBRANCH   1  28
TORSDOF 21
ENDMDL
