MODEL 1
REMARK VINA RESULT:     -12.2      0.000      0.000
REMARK SMILES COc1ccc(-c2cnc(N)c(C(=O)OCCOCCOCCOC(=O)c3ccc(-c4c5nc(c(-c6c(F)c(F)c(F)c(F)c6F)c6ccc([nH]6)c(-c6c(F)c(F)c(F)c(F)c6F)c6nc(c(-c7c(F)c(F)c(F)c(F)c7F)c7ccc4[nH]7)C=C6)C=C5)cc3)c2)c(C)c1
REMARK SMILES IDX 19 1 18 2 17 3 16 4 15 5 13 6 14 7 12 8 7 9 8 10 90 11 9 12
REMARK SMILES IDX 10 13 6 14 3 15 4 16 93 17 5 18 91 19 92 20 2 21 1 22 11 23
REMARK SMILES IDX 20 26 21 27 22 28 23 29 24 30 25 31 26 32 27 33 28 34 89 35
REMARK SMILES IDX 29 36 88 37 30 38 31 39 32 40 82 41 33 42 87 43 81 44 83 45
REMARK SMILES IDX 34 46 86 47 80 48 79 49 35 51 67 52 47 53 66 54 48 55 51 56
REMARK SMILES IDX 65 57 84 58 49 59 50 60 64 62 85 63 52 64 36 65 37 66 45 67
REMARK SMILES IDX 38 68 39 69 43 70 46 71 40 72 41 73 44 74 42 75 68 76 69 77
REMARK SMILES IDX 77 78 70 79 71 80 75 81 78 82 72 83 73 84 76 85 74 86 53 87
REMARK SMILES IDX 54 88 62 89 55 90 56 91 60 92 63 93 57 94 58 95 61 96 59 97
REMARK H PARENT 11 24 11 25 83 50 51 61
REMARK Flexibility Score: inf
ROOT
ATOM      1  C   UNL A   1      35.274  22.631  24.034  1.00  0.00     0.188 C 
ENDROOT
BRANCH   1   2
ATOM      2  O   UNL A   1      34.098  21.801  24.212  1.00  0.00    -0.376 OA
BRANCH   2   3
ATOM      3  C   UNL A   1      33.921  20.792  25.227  1.00  0.00     0.202 C 
BRANCH   3   4
ATOM      4  C   UNL A   1      33.410  21.135  26.812  1.00  0.00     0.261 C 
BRANCH   4   5
ATOM      5  O   UNL A   1      32.568  22.484  27.404  1.00  0.00    -0.460 OA
BRANCH   5   6
ATOM      6  C   UNL A   1      31.839  23.586  26.851  1.00  0.00     0.342 C 
ATOM      7  O   UNL A   1      30.696  23.963  27.111  1.00  0.00    -0.246 OA
BRANCH   6   8
ATOM      8  C   UNL A   1      32.331  24.567  25.884  1.00  0.00     0.102 A 
ATOM      9  C   UNL A   1      32.733  26.994  25.536  1.00  0.00     0.001 A 
ATOM     10  C   UNL A   1      32.476  26.696  24.202  1.00  0.00     0.122 A 
ATOM     11  C   UNL A   1      32.639  25.885  26.375  1.00  0.00     0.030 A 
ATOM     12  N   UNL A   1      32.130  25.463  23.703  1.00  0.00    -0.238 NA
ATOM     13  C   UNL A   1      32.031  24.418  24.552  1.00  0.00     0.138 A 
BRANCH   9  14
ATOM     14  C   UNL A   1      33.076  28.372  25.995  1.00  0.00    -0.014 A 
ATOM     15  C   UNL A   1      33.579  30.911  27.233  1.00  0.00     0.119 A 
ATOM     16  C   UNL A   1      34.463  29.857  27.421  1.00  0.00     0.047 A 
ATOM     17  C   UNL A   1      32.496  30.721  26.379  1.00  0.00     0.050 A 
ATOM     18  C   UNL A   1      34.209  28.605  26.813  1.00  0.00     0.013 A 
ATOM     19  C   UNL A   1      32.253  29.489  25.728  1.00  0.00    -0.040 A 
ATOM     20  C   UNL A   1      31.041  29.441  24.843  1.00  0.00     0.045 C 
BRANCH  15  21
ATOM     21  O   UNL A   1      33.599  32.124  27.859  1.00  0.00    -0.497 OA
ATOM     22  C   UNL A   1      34.613  32.351  28.827  1.00  0.00     0.278 C 
ENDBRANCH  15  21
ENDBRANCH   9  14
BRANCH  13  23
ATOM     23  N   UNL A   1      31.432  23.274  24.062  1.00  0.00    -0.383 N 
ATOM     24  H   UNL A   1      30.523  23.318  23.687  1.00  0.00     0.158 HD
ATOM     25  H   UNL A   1      31.915  22.417  24.086  1.00  0.00     0.158 HD
ENDBRANCH  13  23
ENDBRANCH   6   8
ENDBRANCH   5   6
ENDBRANCH   4   5
ENDBRANCH   3   4
ENDBRANCH   2   3
ENDBRANCH   1   2
BRANCH   1  26
ATOM     26  C   UNL A   1      35.718  23.733  25.000  1.00  0.00     0.188 C 
BRANCH  26  27
ATOM     27  O   UNL A   1      36.490  23.175  26.045  1.00  0.00    -0.376 OA
BRANCH  27  28
ATOM     28  C   UNL A   1      37.148  21.955  25.740  1.00  0.00     0.202 C 
BRANCH  28  29
ATOM     29  C   UNL A   1      38.647  22.150  25.436  1.00  0.00     0.261 C 
BRANCH  29  30
ATOM     30  O   UNL A   1      39.401  22.299  26.664  1.00  0.00    -0.460 OA
BRANCH  30  31
ATOM     31  C   UNL A   1      40.471  23.160  26.656  1.00  0.00     0.338 C 
ATOM     32  O   UNL A   1      41.643  22.817  26.677  1.00  0.00    -0.246 OA
BRANCH  31  33
ATOM     33  C   UNL A   1      40.000  24.572  26.882  1.00  0.00     0.060 A 
ATOM     34  C   UNL A   1      40.515  25.737  26.286  1.00  0.00     0.016 A 
ATOM     35  C   UNL A   1      39.282  24.772  28.009  1.00  0.00     0.016 A 
ATOM     36  C   UNL A   1      40.438  27.047  26.942  1.00  0.00     0.010 A 
ATOM     37  C   UNL A   1      39.537  25.966  28.682  1.00  0.00     0.010 A 
ATOM     38  C   UNL A   1      40.012  27.219  28.264  1.00  0.00    -0.014 A 
BRANCH  38  39
ATOM     39  C   UNL A   1      40.292  28.505  29.251  1.00  0.00     0.031 A 
ATOM     40  C   UNL A   1      39.429  29.886  29.759  1.00  0.00     0.074 A 
ATOM     41  C   UNL A   1      41.528  28.483  29.811  1.00  0.00     0.049 A 
ATOM     42  N   UNL A   1      40.022  30.985  30.206  1.00  0.00    -0.248 NA
ATOM     43  C   UNL A   1      37.948  30.222  29.775  1.00  0.00     0.031 C 
ATOM     44  C   UNL A   1      42.014  29.254  30.953  1.00  0.00     0.029 A 
ATOM     45  N   UNL A   1      42.671  27.798  29.363  1.00  0.00    -0.354 N 
ATOM     46  C   UNL A   1      39.047  31.859  30.701  1.00  0.00     0.074 A 
ATOM     47  C   UNL A   1      37.823  31.484  30.136  1.00  0.00     0.031 C 
ATOM     48  C   UNL A   1      43.353  29.269  30.923  1.00  0.00     0.029 A 
ATOM     49  C   UNL A   1      43.764  28.615  29.699  1.00  0.00     0.049 A 
ATOM     50  H   UNL A   1      42.700  26.926  28.907  1.00  0.00     0.167 HD
ATOM     51  C   UNL A   1      39.235  32.740  31.717  1.00  0.00     0.037 A 
ATOM     52  C   UNL A   1      44.604  29.109  28.749  1.00  0.00     0.037 A 
ATOM     53  C   UNL A   1      40.631  33.025  31.864  1.00  0.00     0.049 A 
ATOM     54  C   UNL A   1      44.741  30.612  28.786  1.00  0.00     0.074 A 
ATOM     55  C   UNL A   1      41.591  32.706  32.797  1.00  0.00     0.029 A 
ATOM     56  N   UNL A   1      41.289  33.514  30.746  1.00  0.00    -0.354 N 
ATOM     57  N   UNL A   1      44.044  31.386  29.570  1.00  0.00    -0.248 NA
ATOM     58  C   UNL A   1      45.631  31.372  27.912  1.00  0.00     0.031 C 
ATOM     59  C   UNL A   1      42.854  32.863  32.157  1.00  0.00     0.029 A 
ATOM     60  C   UNL A   1      42.648  33.350  30.876  1.00  0.00     0.049 A 
ATOM     61  H   UNL A   1      40.845  33.922  29.968  1.00  0.00     0.167 HD
ATOM     62  C   UNL A   1      44.261  32.693  29.235  1.00  0.00     0.074 A 
ATOM     63  C   UNL A   1      45.311  32.637  28.239  1.00  0.00     0.031 C 
ATOM     64  C   UNL A   1      43.505  33.703  29.754  1.00  0.00     0.037 A 
BRANCH  51  65
ATOM     65  C   UNL A   1      38.110  33.248  32.620  1.00  0.00     0.064 A 
ATOM     66  C   UNL A   1      37.151  34.155  32.136  1.00  0.00     0.173 A 
ATOM     67  C   UNL A   1      37.992  32.966  34.010  1.00  0.00     0.173 A 
ATOM     68  F   UNL A   1      37.173  34.550  30.855  1.00  0.00    -0.203 F 
ATOM     69  C   UNL A   1      36.149  34.703  32.956  1.00  0.00     0.198 A 
ATOM     70  C   UNL A   1      36.947  33.448  34.807  1.00  0.00     0.198 A 
ATOM     71  F   UNL A   1      38.920  32.270  34.681  1.00  0.00    -0.203 F 
ATOM     72  F   UNL A   1      35.300  35.612  32.456  1.00  0.00    -0.200 F 
ATOM     73  C   UNL A   1      36.032  34.330  34.283  1.00  0.00     0.200 A 
ATOM     74  F   UNL A   1      36.862  33.076  36.094  1.00  0.00    -0.200 F 
ATOM     75  F   UNL A   1      35.067  34.842  35.059  1.00  0.00    -0.200 F 
ENDBRANCH  51  65
BRANCH  52  76
ATOM     76  C   UNL A   1      44.730  28.217  27.560  1.00  0.00     0.064 A 
ATOM     77  C   UNL A   1      45.419  26.996  27.737  1.00  0.00     0.173 A 
ATOM     78  C   UNL A   1      43.906  28.327  26.433  1.00  0.00     0.173 A 
ATOM     79  F   UNL A   1      46.211  26.824  28.808  1.00  0.00    -0.203 F 
ATOM     80  C   UNL A   1      45.202  25.903  26.900  1.00  0.00     0.198 A 
ATOM     81  C   UNL A   1      43.713  27.233  25.576  1.00  0.00     0.198 A 
ATOM     82  F   UNL A   1      43.179  29.434  26.231  1.00  0.00    -0.203 F 
ATOM     83  F   UNL A   1      45.764  24.720  27.188  1.00  0.00    -0.200 F 
ATOM     84  C   UNL A   1      44.333  26.016  25.832  1.00  0.00     0.200 A 
ATOM     85  F   UNL A   1      42.812  27.311  24.585  1.00  0.00    -0.200 F 
ATOM     86  F   UNL A   1      44.027  24.935  25.098  1.00  0.00    -0.200 F 
ENDBRANCH  52  76
BRANCH  64  87
ATOM     87  C   UNL A   1      43.463  35.115  29.225  1.00  0.00     0.064 A 
ATOM     88  C   UNL A   1      43.038  35.452  27.930  1.00  0.00     0.173 A 
ATOM     89  C   UNL A   1      43.683  36.203  30.103  1.00  0.00     0.173 A 
ATOM     90  F   UNL A   1      42.689  34.510  27.043  1.00  0.00    -0.203 F 
ATOM     91  C   UNL A   1      42.899  36.781  27.523  1.00  0.00     0.198 A 
ATOM     92  C   UNL A   1      43.482  37.525  29.712  1.00  0.00     0.198 A 
ATOM     93  F   UNL A   1      44.063  36.003  31.374  1.00  0.00    -0.203 F 
ATOM     94  F   UNL A   1      42.528  37.054  26.264  1.00  0.00    -0.200 F 
ATOM     95  C   UNL A   1      43.106  37.815  28.417  1.00  0.00     0.200 A 
ATOM     96  F   UNL A   1      43.632  38.515  30.604  1.00  0.00    -0.200 F 
ATOM     97  F   UNL A   1      42.923  39.086  28.035  1.00  0.00    -0.200 F 
ENDBRANCH  64  87
ENDBRANCH  38  39
ENDBRANCH  31  33
ENDBRANCH  30  31
ENDBRANCH  29  30
ENDBRANCH  28  29
ENDBRANCH  27  28
ENDBRANCH  26  27
ENDBRANCH   1  26
TORSDOF 20
ENDMDL
MODEL 2
REMARK VINA RESULT:     -12.0      3.589     10.412
REMARK SMILES COc1ccc(-c2cnc(N)c(C(=O)OCCOCCOCCOC(=O)c3ccc(-c4c5nc(c(-c6c(F)c(F)c(F)c(F)c6F)c6ccc([nH]6)c(-c6c(F)c(F)c(F)c(F)c6F)c6nc(c(-c7c(F)c(F)c(F)c(F)c7F)c7ccc4[nH]7)C=C6)C=C5)cc3)c2)c(C)c1
REMARK SMILES IDX 19 1 18 2 17 3 16 4 15 5 13 6 14 7 12 8 7 9 8 10 90 11 9 12
REMARK SMILES IDX 10 13 6 14 3 15 4 16 93 17 5 18 91 19 92 20 2 21 1 22 11 23
REMARK SMILES IDX 20 26 21 27 22 28 23 29 24 30 25 31 26 32 27 33 28 34 89 35
REMARK SMILES IDX 29 36 88 37 30 38 31 39 32 40 82 41 33 42 87 43 81 44 83 45
REMARK SMILES IDX 34 46 86 47 80 48 79 49 35 51 67 52 47 53 66 54 48 55 51 56
REMARK SMILES IDX 65 57 84 58 49 59 50 60 64 62 85 63 52 64 36 65 37 66 45 67
REMARK SMILES IDX 38 68 39 69 43 70 46 71 40 72 41 73 44 74 42 75 68 76 69 77
REMARK SMILES IDX 77 78 70 79 71 80 75 81 78 82 72 83 73 84 76 85 74 86 53 87
REMARK SMILES IDX 54 88 62 89 55 90 56 91 60 92 63 93 57 94 58 95 61 96 59 97
REMARK H PARENT 11 24 11 25 83 50 51 61
REMARK Flexibility Score: inf
ROOT
ATOM      1  C   UNL A   1      34.428  33.356  29.090  1.00  0.00     0.188 C 
ENDROOT
BRANCH   1   2
ATOM      2  O   UNL A   1      34.738  31.952  28.900  1.00  0.00    -0.376 OA
BRANCH   2   3
ATOM      3  C   UNL A   1      34.469  31.181  27.712  1.00  0.00     0.202 C 
BRANCH   3   4
ATOM      4  C   UNL A   1      34.800  29.518  27.576  1.00  0.00     0.261 C 
BRANCH   4   5
ATOM      5  O   UNL A   1      34.265  28.405  26.412  1.00  0.00    -0.460 OA
BRANCH   5   6
ATOM      6  C   UNL A   1      33.171  28.300  25.493  1.00  0.00     0.342 C 
ATOM      7  O   UNL A   1      32.136  28.963  25.448  1.00  0.00    -0.246 OA
BRANCH   6   8
ATOM      8  C   UNL A   1      33.078  27.406  24.338  1.00  0.00     0.102 A 
ATOM      9  C   UNL A   1      33.584  25.103  23.554  1.00  0.00     0.001 A 
ATOM     10  C   UNL A   1      33.733  25.715  22.315  1.00  0.00     0.122 A 
ATOM     11  C   UNL A   1      33.260  25.997  24.574  1.00  0.00     0.030 A 
ATOM     12  N   UNL A   1      33.617  27.061  22.060  1.00  0.00    -0.238 NA
ATOM     13  C   UNL A   1      33.321  27.896  23.079  1.00  0.00     0.138 A 
BRANCH   9  14
ATOM     14  C   UNL A   1      33.754  23.633  23.746  1.00  0.00    -0.014 A 
ATOM     15  C   UNL A   1      33.827  20.846  24.422  1.00  0.00     0.119 A 
ATOM     16  C   UNL A   1      32.795  21.347  23.641  1.00  0.00     0.047 A 
ATOM     17  C   UNL A   1      34.849  21.712  24.800  1.00  0.00     0.050 A 
ATOM     18  C   UNL A   1      32.759  22.722  23.314  1.00  0.00     0.013 A 
ATOM     19  C   UNL A   1      34.852  23.080  24.443  1.00  0.00    -0.040 A 
ATOM     20  C   UNL A   1      36.023  23.884  24.931  1.00  0.00     0.045 C 
BRANCH  15  21
ATOM     21  O   UNL A   1      33.930  19.589  24.944  1.00  0.00    -0.497 OA
ATOM     22  C   UNL A   1      32.802  19.063  25.629  1.00  0.00     0.278 C 
ENDBRANCH  15  21
ENDBRANCH   9  14
BRANCH  13  23
ATOM     23  N   UNL A   1      33.474  29.247  22.838  1.00  0.00    -0.383 N 
ATOM     24  H   UNL A   1      33.146  29.904  23.494  1.00  0.00     0.158 HD
ATOM     25  H   UNL A   1      33.910  29.553  22.010  1.00  0.00     0.158 HD
ENDBRANCH  13  23
ENDBRANCH   6   8
ENDBRANCH   5   6
ENDBRANCH   4   5
ENDBRANCH   3   4
ENDBRANCH   2   3
ENDBRANCH   1   2
BRANCH   1  26
ATOM     26  C   UNL A   1      34.825  34.476  28.124  1.00  0.00     0.188 C 
BRANCH  26  27
ATOM     27  O   UNL A   1      34.163  35.673  28.477  1.00  0.00    -0.376 OA
BRANCH  27  28
ATOM     28  C   UNL A   1      32.921  35.516  29.145  1.00  0.00     0.202 C 
BRANCH  28  29
ATOM     29  C   UNL A   1      32.764  36.481  30.338  1.00  0.00     0.261 C 
BRANCH  29  30
ATOM     30  O   UNL A   1      33.656  36.108  31.416  1.00  0.00    -0.460 OA
BRANCH  30  31
ATOM     31  C   UNL A   1      33.201  35.192  32.333  1.00  0.00     0.338 C 
ATOM     32  O   UNL A   1      32.062  35.153  32.775  1.00  0.00    -0.246 OA
BRANCH  31  33
ATOM     33  C   UNL A   1      34.356  34.417  32.907  1.00  0.00     0.060 A 
ATOM     34  C   UNL A   1      35.608  34.930  33.291  1.00  0.00     0.016 A 
ATOM     35  C   UNL A   1      34.323  33.082  32.698  1.00  0.00     0.016 A 
ATOM     36  C   UNL A   1      36.824  34.110  33.279  1.00  0.00     0.010 A 
ATOM     37  C   UNL A   1      35.550  32.486  32.415  1.00  0.00     0.010 A 
ATOM     38  C   UNL A   1      36.876  32.824  32.731  1.00  0.00    -0.014 A 
BRANCH  38  39
ATOM     39  C   UNL A   1      38.209  31.991  32.245  1.00  0.00     0.031 A 
ATOM     40  C   UNL A   1      38.522  30.548  31.390  1.00  0.00     0.074 A 
ATOM     41  C   UNL A   1      39.370  32.585  32.617  1.00  0.00     0.049 A 
ATOM     42  N   UNL A   1      39.657  29.871  31.506  1.00  0.00    -0.248 NA
ATOM     43  C   UNL A   1      37.680  29.713  30.441  1.00  0.00     0.031 C 
ATOM     44  C   UNL A   1      40.717  32.328  32.115  1.00  0.00     0.029 A 
ATOM     45  N   UNL A   1      39.575  33.514  33.653  1.00  0.00    -0.354 N 
ATOM     46  C   UNL A   1      39.674  28.844  30.555  1.00  0.00     0.074 A 
ATOM     47  C   UNL A   1      38.350  28.611  30.168  1.00  0.00     0.031 C 
ATOM     48  C   UNL A   1      41.605  32.790  33.005  1.00  0.00     0.029 A 
ATOM     49  C   UNL A   1      40.859  33.248  34.158  1.00  0.00     0.049 A 
ATOM     50  H   UNL A   1      38.948  34.207  33.962  1.00  0.00     0.167 HD
ATOM     51  C   UNL A   1      40.790  28.349  29.962  1.00  0.00     0.037 A 
ATOM     52  C   UNL A   1      41.055  32.886  35.456  1.00  0.00     0.037 A 
ATOM     53  C   UNL A   1      41.939  28.630  30.772  1.00  0.00     0.049 A 
ATOM     54  C   UNL A   1      41.805  31.586  35.613  1.00  0.00     0.074 A 
ATOM     55  C   UNL A   1      43.015  29.480  30.664  1.00  0.00     0.029 A 
ATOM     56  N   UNL A   1      41.907  28.168  32.079  1.00  0.00    -0.354 N 
ATOM     57  N   UNL A   1      42.141  30.815  34.617  1.00  0.00    -0.248 NA
ATOM     58  C   UNL A   1      42.193  31.019  36.903  1.00  0.00     0.031 C 
ATOM     59  C   UNL A   1      43.540  29.647  31.977  1.00  0.00     0.029 A 
ATOM     60  C   UNL A   1      42.830  28.837  32.849  1.00  0.00     0.049 A 
ATOM     61  H   UNL A   1      41.309  27.460  32.410  1.00  0.00     0.167 HD
ATOM     62  C   UNL A   1      42.637  29.635  35.097  1.00  0.00     0.074 A 
ATOM     63  C   UNL A   1      42.712  29.835  36.529  1.00  0.00     0.031 C 
ATOM     64  C   UNL A   1      42.872  28.569  34.279  1.00  0.00     0.037 A 
BRANCH  51  65
ATOM     65  C   UNL A   1      40.800  27.693  28.581  1.00  0.00     0.064 A 
ATOM     66  C   UNL A   1      40.210  26.432  28.379  1.00  0.00     0.173 A 
ATOM     67  C   UNL A   1      41.477  28.206  27.440  1.00  0.00     0.173 A 
ATOM     68  F   UNL A   1      39.582  25.805  29.384  1.00  0.00    -0.203 F 
ATOM     69  C   UNL A   1      40.266  25.763  27.144  1.00  0.00     0.198 A 
ATOM     70  C   UNL A   1      41.463  27.577  26.189  1.00  0.00     0.198 A 
ATOM     71  F   UNL A   1      42.245  29.303  27.496  1.00  0.00    -0.203 F 
ATOM     72  F   UNL A   1      39.742  24.534  27.027  1.00  0.00    -0.200 F 
ATOM     73  C   UNL A   1      40.868  26.346  26.044  1.00  0.00     0.200 A 
ATOM     74  F   UNL A   1      42.062  28.163  25.141  1.00  0.00    -0.200 F 
ATOM     75  F   UNL A   1      40.908  25.713  24.863  1.00  0.00    -0.200 F 
ENDBRANCH  51  65
BRANCH  52  76
ATOM     76  C   UNL A   1      40.039  33.464  36.382  1.00  0.00     0.064 A 
ATOM     77  C   UNL A   1      38.967  32.628  36.771  1.00  0.00     0.173 A 
ATOM     78  C   UNL A   1      40.279  34.599  37.167  1.00  0.00     0.173 A 
ATOM     79  F   UNL A   1      38.698  31.516  36.068  1.00  0.00    -0.203 F 
ATOM     80  C   UNL A   1      38.254  32.849  37.947  1.00  0.00     0.198 A 
ATOM     81  C   UNL A   1      39.539  34.833  38.335  1.00  0.00     0.198 A 
ATOM     82  F   UNL A   1      41.313  35.406  36.892  1.00  0.00    -0.203 F 
ATOM     83  F   UNL A   1      37.344  31.953  38.355  1.00  0.00    -0.200 F 
ATOM     84  C   UNL A   1      38.555  33.941  38.740  1.00  0.00     0.200 A 
ATOM     85  F   UNL A   1      39.877  35.845  39.149  1.00  0.00    -0.200 F 
ATOM     86  F   UNL A   1      37.956  34.090  39.931  1.00  0.00    -0.200 F 
ENDBRANCH  52  76
BRANCH  64  87
ATOM     87  C   UNL A   1      43.120  27.156  34.745  1.00  0.00     0.064 A 
ATOM     88  C   UNL A   1      42.101  26.216  34.965  1.00  0.00     0.173 A 
ATOM     89  C   UNL A   1      44.442  26.655  34.803  1.00  0.00     0.173 A 
ATOM     90  F   UNL A   1      40.808  26.542  34.825  1.00  0.00    -0.203 F 
ATOM     91  C   UNL A   1      42.383  24.884  35.278  1.00  0.00     0.198 A 
ATOM     92  C   UNL A   1      44.718  25.313  35.053  1.00  0.00     0.198 A 
ATOM     93  F   UNL A   1      45.497  27.454  34.581  1.00  0.00    -0.203 F 
ATOM     94  F   UNL A   1      41.377  24.031  35.519  1.00  0.00    -0.200 F 
ATOM     95  C   UNL A   1      43.688  24.430  35.307  1.00  0.00     0.200 A 
ATOM     96  F   UNL A   1      45.985  24.874  35.023  1.00  0.00    -0.200 F 
ATOM     97  F   UNL A   1      43.951  23.141  35.559  1.00  0.00    -0.200 F 
ENDBRANCH  64  87
ENDBRANCH  38  39
ENDBRANCH  31  33
ENDBRANCH  30  31
ENDBRANCH  29  30
ENDBRANCH  28  29
ENDBRANCH  27  28
ENDBRANCH  26  27
ENDBRANCH   1  26
TORSDOF 20
ENDMDL
MODEL 3
REMARK VINA RESULT:     -12.0      1.873      2.895
REMARK SMILES COc1ccc(-c2cnc(N)c(C(=O)OCCOCCOCCOC(=O)c3ccc(-c4c5nc(c(-c6c(F)c(F)c(F)c(F)c6F)c6ccc([nH]6)c(-c6c(F)c(F)c(F)c(F)c6F)c6nc(c(-c7c(F)c(F)c(F)c(F)c7F)c7ccc4[nH]7)C=C6)C=C5)cc3)c2)c(C)c1
REMARK SMILES IDX 19 1 18 2 17 3 16 4 15 5 13 6 14 7 12 8 7 9 8 10 90 11 9 12
REMARK SMILES IDX 10 13 6 14 3 15 4 16 93 17 5 18 91 19 92 20 2 21 1 22 11 23
REMARK SMILES IDX 20 26 21 27 22 28 23 29 24 30 25 31 26 32 27 33 28 34 89 35
REMARK SMILES IDX 29 36 88 37 30 38 31 39 32 40 82 41 33 42 87 43 81 44 83 45
REMARK SMILES IDX 34 46 86 47 80 48 79 49 35 51 67 52 47 53 66 54 48 55 51 56
REMARK SMILES IDX 65 57 84 58 49 59 50 60 64 62 85 63 52 64 36 65 37 66 45 67
REMARK SMILES IDX 38 68 39 69 43 70 46 71 40 72 41 73 44 74 42 75 68 76 69 77
REMARK SMILES IDX 77 78 70 79 71 80 75 81 78 82 72 83 73 84 76 85 74 86 53 87
REMARK SMILES IDX 54 88 62 89 55 90 56 91 60 92 63 93 57 94 58 95 61 96 59 97
REMARK H PARENT 11 24 11 25 83 50 51 61
REMARK Flexibility Score: inf
ROOT
ATOM      1  C   UNL A   1      35.029  23.305  23.020  1.00  0.00     0.188 C 
ENDROOT
BRANCH   1   2
ATOM      2  O   UNL A   1      33.599  23.270  23.260  1.00  0.00    -0.376 OA
BRANCH   2   3
ATOM      3  C   UNL A   1      32.749  22.113  23.132  1.00  0.00     0.202 C 
BRANCH   3   4
ATOM      4  C   UNL A   1      32.207  21.193  24.456  1.00  0.00     0.261 C 
BRANCH   4   5
ATOM      5  O   UNL A   1      31.272  21.672  25.788  1.00  0.00    -0.460 OA
BRANCH   5   6
ATOM      6  C   UNL A   1      31.065  22.872  26.543  1.00  0.00     0.342 C 
ATOM      7  O   UNL A   1      30.233  23.096  27.422  1.00  0.00    -0.246 OA
BRANCH   6   8
ATOM      8  C   UNL A   1      31.863  24.096  26.480  1.00  0.00     0.102 A 
ATOM      9  C   UNL A   1      32.077  26.279  25.311  1.00  0.00     0.001 A 
ATOM     10  C   UNL A   1      33.433  26.118  25.571  1.00  0.00     0.122 A 
ATOM     11  C   UNL A   1      31.299  25.220  25.778  1.00  0.00     0.030 A 
ATOM     12  N   UNL A   1      34.015  25.039  26.192  1.00  0.00    -0.238 NA
ATOM     13  C   UNL A   1      33.228  24.025  26.612  1.00  0.00     0.138 A 
BRANCH   9  14
ATOM     14  C   UNL A   1      31.534  27.475  24.604  1.00  0.00    -0.014 A 
ATOM     15  C   UNL A   1      30.158  29.720  23.466  1.00  0.00     0.119 A 
ATOM     16  C   UNL A   1      30.817  29.850  24.682  1.00  0.00     0.047 A 
ATOM     17  C   UNL A   1      30.247  28.506  22.793  1.00  0.00     0.050 A 
ATOM     18  C   UNL A   1      31.490  28.739  25.242  1.00  0.00     0.013 A 
ATOM     19  C   UNL A   1      30.953  27.399  23.318  1.00  0.00    -0.040 A 
ATOM     20  C   UNL A   1      30.952  26.158  22.474  1.00  0.00     0.045 C 
BRANCH  15  21
ATOM     21  O   UNL A   1      29.348  30.641  22.867  1.00  0.00    -0.497 OA
ATOM     22  C   UNL A   1      28.904  30.369  21.546  1.00  0.00     0.278 C 
ENDBRANCH  15  21
ENDBRANCH   9  14
BRANCH  13  23
ATOM     23  N   UNL A   1      33.866  22.858  26.986  1.00  0.00    -0.383 N 
ATOM     24  H   UNL A   1      33.337  22.070  27.244  1.00  0.00     0.158 HD
ATOM     25  H   UNL A   1      34.849  22.816  26.993  1.00  0.00     0.158 HD
ENDBRANCH  13  23
ENDBRANCH   6   8
ENDBRANCH   5   6
ENDBRANCH   4   5
ENDBRANCH   3   4
ENDBRANCH   2   3
ENDBRANCH   1   2
BRANCH   1  26
ATOM     26  C   UNL A   1      36.098  23.319  24.116  1.00  0.00     0.188 C 
BRANCH  26  27
ATOM     27  O   UNL A   1      35.864  22.269  25.031  1.00  0.00    -0.376 OA
BRANCH  27  28
ATOM     28  C   UNL A   1      36.434  21.015  24.689  1.00  0.00     0.202 C 
BRANCH  28  29
ATOM     29  C   UNL A   1      37.934  20.932  25.038  1.00  0.00     0.261 C 
BRANCH  29  30
ATOM     30  O   UNL A   1      38.220  21.689  26.240  1.00  0.00    -0.460 OA
BRANCH  30  31
ATOM     31  C   UNL A   1      39.537  21.845  26.597  1.00  0.00     0.338 C 
ATOM     32  O   UNL A   1      40.230  20.976  27.104  1.00  0.00    -0.246 OA
BRANCH  31  33
ATOM     33  C   UNL A   1      39.925  23.298  26.521  1.00  0.00     0.060 A 
ATOM     34  C   UNL A   1      41.189  23.847  26.796  1.00  0.00     0.016 A 
ATOM     35  C   UNL A   1      38.899  24.176  26.549  1.00  0.00     0.016 A 
ATOM     36  C   UNL A   1      41.354  25.228  27.263  1.00  0.00     0.010 A 
ATOM     37  C   UNL A   1      39.119  25.338  27.286  1.00  0.00     0.010 A 
ATOM     38  C   UNL A   1      40.281  26.045  27.635  1.00  0.00    -0.014 A 
BRANCH  38  39
ATOM     39  C   UNL A   1      40.323  27.396  28.573  1.00  0.00     0.031 A 
ATOM     40  C   UNL A   1      39.446  28.855  28.681  1.00  0.00     0.074 A 
ATOM     41  C   UNL A   1      41.309  27.362  29.505  1.00  0.00     0.049 A 
ATOM     42  N   UNL A   1      39.943  29.959  29.223  1.00  0.00    -0.248 NA
ATOM     43  C   UNL A   1      38.067  29.262  28.193  1.00  0.00     0.031 C 
ATOM     44  C   UNL A   1      41.459  28.204  30.690  1.00  0.00     0.029 A 
ATOM     45  N   UNL A   1      42.482  26.588  29.499  1.00  0.00    -0.354 N 
ATOM     46  C   UNL A   1      38.928  30.918  29.316  1.00  0.00     0.074 A 
ATOM     47  C   UNL A   1      37.926  30.555  28.410  1.00  0.00     0.031 C 
ATOM     48  C   UNL A   1      42.734  28.152  31.096  1.00  0.00     0.029 A 
ATOM     49  C   UNL A   1      43.467  27.377  30.118  1.00  0.00     0.049 A 
ATOM     50  H   UNL A   1      42.592  25.679  29.135  1.00  0.00     0.167 HD
ATOM     51  C   UNL A   1      38.844  31.872  30.277  1.00  0.00     0.037 A 
ATOM     52  C   UNL A   1      44.601  27.746  29.462  1.00  0.00     0.037 A 
ATOM     53  C   UNL A   1      40.137  32.101  30.852  1.00  0.00     0.049 A 
ATOM     54  C   UNL A   1      44.828  29.238  29.443  1.00  0.00     0.074 A 
ATOM     55  C   UNL A   1      40.720  31.818  32.065  1.00  0.00     0.029 A 
ATOM     56  N   UNL A   1      41.152  32.461  29.979  1.00  0.00    -0.354 N 
ATOM     57  N   UNL A   1      43.975  30.109  29.905  1.00  0.00    -0.248 NA
ATOM     58  C   UNL A   1      46.004  29.877  28.859  1.00  0.00     0.031 C 
ATOM     59  C   UNL A   1      42.130  31.858  31.862  1.00  0.00     0.029 A 
ATOM     60  C   UNL A   1      42.381  32.243  30.555  1.00  0.00     0.049 A 
ATOM     61  H   UNL A   1      41.012  32.821  29.074  1.00  0.00     0.167 HD
ATOM     62  C   UNL A   1      44.383  31.371  29.574  1.00  0.00     0.074 A 
ATOM     63  C   UNL A   1      45.690  31.180  28.979  1.00  0.00     0.031 C 
ATOM     64  C   UNL A   1      43.577  32.457  29.752  1.00  0.00     0.037 A 
BRANCH  51  65
ATOM     65  C   UNL A   1      37.530  32.509  30.731  1.00  0.00     0.064 A 
ATOM     66  C   UNL A   1      36.985  32.213  31.994  1.00  0.00     0.173 A 
ATOM     67  C   UNL A   1      36.698  33.329  29.919  1.00  0.00     0.173 A 
ATOM     68  F   UNL A   1      37.637  31.408  32.845  1.00  0.00    -0.203 F 
ATOM     69  C   UNL A   1      35.742  32.717  32.416  1.00  0.00     0.198 A 
ATOM     70  C   UNL A   1      35.501  33.896  30.370  1.00  0.00     0.198 A 
ATOM     71  F   UNL A   1      36.968  33.565  28.628  1.00  0.00    -0.203 F 
ATOM     72  F   UNL A   1      35.242  32.351  33.604  1.00  0.00    -0.200 F 
ATOM     73  C   UNL A   1      35.014  33.579  31.615  1.00  0.00     0.200 A 
ATOM     74  F   UNL A   1      34.810  34.722  29.568  1.00  0.00    -0.200 F 
ATOM     75  F   UNL A   1      33.836  34.070  32.025  1.00  0.00    -0.200 F 
ENDBRANCH  51  65
BRANCH  52  76
ATOM     76  C   UNL A   1      45.035  26.750  28.440  1.00  0.00     0.064 A 
ATOM     77  C   UNL A   1      44.698  27.015  27.094  1.00  0.00     0.173 A 
ATOM     78  C   UNL A   1      46.050  25.814  28.671  1.00  0.00     0.173 A 
ATOM     79  F   UNL A   1      43.744  27.916  26.809  1.00  0.00    -0.203 F 
ATOM     80  C   UNL A   1      45.418  26.465  26.036  1.00  0.00     0.198 A 
ATOM     81  C   UNL A   1      46.754  25.240  27.601  1.00  0.00     0.198 A 
ATOM     82  F   UNL A   1      46.462  25.554  29.919  1.00  0.00    -0.203 F 
ATOM     83  F   UNL A   1      45.160  26.855  24.779  1.00  0.00    -0.200 F 
ATOM     84  C   UNL A   1      46.459  25.593  26.291  1.00  0.00     0.200 A 
ATOM     85  F   UNL A   1      47.815  24.455  27.843  1.00  0.00    -0.200 F 
ATOM     86  F   UNL A   1      47.232  25.158  25.284  1.00  0.00    -0.200 F 
ENDBRANCH  52  76
BRANCH  64  87
ATOM     87  C   UNL A   1      43.810  33.819  29.147  1.00  0.00     0.064 A 
ATOM     88  C   UNL A   1      43.923  34.052  27.766  1.00  0.00     0.173 A 
ATOM     89  C   UNL A   1      43.738  34.974  29.961  1.00  0.00     0.173 A 
ATOM     90  F   UNL A   1      43.887  33.044  26.883  1.00  0.00    -0.203 F 
ATOM     91  C   UNL A   1      44.016  35.343  27.243  1.00  0.00     0.198 A 
ATOM     92  C   UNL A   1      43.767  36.261  29.430  1.00  0.00     0.198 A 
ATOM     93  F   UNL A   1      43.599  34.876  31.292  1.00  0.00    -0.203 F 
ATOM     94  F   UNL A   1      44.163  35.515  25.921  1.00  0.00    -0.200 F 
ATOM     95  C   UNL A   1      43.923  36.446  28.072  1.00  0.00     0.200 A 
ATOM     96  F   UNL A   1      43.619  37.321  30.238  1.00  0.00    -0.200 F 
ATOM     97  F   UNL A   1      43.964  37.683  27.559  1.00  0.00    -0.200 F 
ENDBRANCH  64  87
ENDBRANCH  38  39
ENDBRANCH  31  33
ENDBRANCH  30  31
ENDBRANCH  29  30
ENDBRANCH  28  29
ENDBRANCH  27  28
ENDBRANCH  26  27
ENDBRANCH   1  26
TORSDOF 20
ENDMDL
