MODEL 1
REMARK VINA RESULT:     -14.6      0.000      0.000
REMARK SMILES Cc1ccccc1-c1c(Cl)ccc2c1C=C(C(=O)OCCOCCOCCOC(=O)c1ccc(-c3c4nc(c(-c5c(F)c(F)c(F)c(F)c5F)c5ccc([nH]5)c(-c5c(F)c(F)c(F)c(F)c5F)c5nc(c(-c6c(F)c(F)c(F)c(F)c6F)c6ccc3[nH]6)C=C5)C=C4)cc1)[C@@H](C(F)(F)F)O2
REMARK SMILES IDX 24 1 23 2 22 3 21 4 20 5 19 6 17 7 18 8 16 9 8 10 9 11 14 12
REMARK SMILES IDX 10 13 11 14 13 15 15 16 12 17 99 18 94 19 7 20 1 21 2 22
REMARK SMILES IDX 3 23 4 24 6 25 5 26 95 27 96 28 97 29 98 30 25 31 26 32
REMARK SMILES IDX 27 33 28 34 29 35 30 36 31 37 32 38 93 39 33 40 92 41 34 42
REMARK SMILES IDX 35 43 36 44 86 45 37 46 91 47 85 48 87 49 38 50 90 51 84 52
REMARK SMILES IDX 83 53 39 55 71 56 51 57 70 58 52 59 55 60 69 61 88 62 53 63
REMARK SMILES IDX 54 64 68 66 89 67 56 68 40 69 41 70 49 71 42 72 43 73 47 74
REMARK SMILES IDX 50 75 44 76 45 77 48 78 46 79 72 80 73 81 81 82 74 83 75 84
REMARK SMILES IDX 79 85 82 86 76 87 77 88 80 89 78 90 57 91 58 92 66 93 59 94
REMARK SMILES IDX 60 95 64 96 67 97 61 98 62 99 65 100 63 101
REMARK H PARENT 87 54 55 65
REMARK Flexibility Score: inf
ROOT
ATOM      1  C   UNL A   1      43.932  20.258  25.519  1.00  0.00     0.188 C 
ENDROOT
BRANCH   1   2
ATOM      2  C   UNL A   1      42.687  19.426  25.763  1.00  0.00     0.188 C 
BRANCH   2   3
ATOM      3  O   UNL A   1      41.540  19.870  26.502  1.00  0.00    -0.376 OA
BRANCH   3   4
ATOM      4  C   UNL A   1      40.210  20.163  26.065  1.00  0.00     0.202 C 
BRANCH   4   5
ATOM      5  C   UNL A   1      39.214  21.589  26.018  1.00  0.00     0.261 C 
BRANCH   5   6
ATOM      6  O   UNL A   1      37.502  21.927  25.861  1.00  0.00    -0.460 OA
BRANCH   6   7
ATOM      7  C   UNL A   1      36.526  22.944  26.024  1.00  0.00     0.338 C 
ATOM      8  O   UNL A   1      36.721  24.155  25.977  1.00  0.00    -0.246 OA
BRANCH   7   9
ATOM      9  C   UNL A   1      35.085  22.587  26.330  1.00  0.00     0.087 C 
ATOM     10  C   UNL A   1      33.213  25.280  24.447  1.00  0.00     0.012 A 
ATOM     11  C   UNL A   1      32.861  25.525  23.093  1.00  0.00     0.049 A 
ATOM     12  C   UNL A   1      33.756  24.008  24.791  1.00  0.00     0.027 A 
ATOM     13  Cl  UNL A   1      32.336  27.084  22.537  1.00  0.00    -0.084 Cl
ATOM     14  C   UNL A   1      32.981  24.531  22.121  1.00  0.00     0.025 A 
ATOM     15  C   UNL A   1      33.882  23.030  23.786  1.00  0.00     0.128 A 
ATOM     16  C   UNL A   1      34.315  23.697  26.156  1.00  0.00     0.028 C 
ATOM     17  C   UNL A   1      33.490  23.284  22.469  1.00  0.00     0.049 A 
ATOM     18  O   UNL A   1      34.448  21.802  24.014  1.00  0.00    -0.475 OA
ATOM     19  C   UNL A   1      34.617  21.433  25.408  1.00  0.00     0.316 C 
BRANCH  10  20
ATOM     20  C   UNL A   1      33.061  26.336  25.466  1.00  0.00    -0.013 A 
ATOM     21  C   UNL A   1      30.698  25.587  26.051  1.00  0.00     0.045 C 
ATOM     22  C   UNL A   1      31.862  26.522  26.182  1.00  0.00    -0.043 A 
ATOM     23  C   UNL A   1      31.734  27.613  27.057  1.00  0.00     0.004 A 
ATOM     24  C   UNL A   1      32.801  28.480  27.275  1.00  0.00     0.000 A 
ATOM     25  C   UNL A   1      34.135  27.207  25.722  1.00  0.00     0.009 A 
ATOM     26  C   UNL A   1      34.010  28.263  26.625  1.00  0.00     0.001 A 
ENDBRANCH  10  20
BRANCH  19  27
ATOM     27  C   UNL A   1      33.319  20.767  25.908  1.00  0.00     0.430 C 
ATOM     28  F   UNL A   1      33.214  19.489  25.469  1.00  0.00    -0.167 F 
ATOM     29  F   UNL A   1      33.296  20.720  27.263  1.00  0.00    -0.167 F 
ATOM     30  F   UNL A   1      32.198  21.414  25.513  1.00  0.00    -0.167 F 
ENDBRANCH  19  27
ENDBRANCH   7   9
ENDBRANCH   6   7
ENDBRANCH   5   6
ENDBRANCH   4   5
ENDBRANCH   3   4
ENDBRANCH   2   3
ENDBRANCH   1   2
BRANCH   1  31
ATOM     31  O   UNL A   1      43.659  21.269  24.575  1.00  0.00    -0.376 OA
BRANCH  31  32
ATOM     32  C   UNL A   1      44.592  22.337  24.601  1.00  0.00     0.202 C 
BRANCH  32  33
ATOM     33  C   UNL A   1      43.921  23.706  24.806  1.00  0.00     0.261 C 
BRANCH  33  34
ATOM     34  O   UNL A   1      42.522  23.528  25.125  1.00  0.00    -0.460 OA
BRANCH  34  35
ATOM     35  C   UNL A   1      42.154  23.759  26.425  1.00  0.00     0.338 C 
ATOM     36  O   UNL A   1      42.393  23.014  27.365  1.00  0.00    -0.246 OA
BRANCH  35  37
ATOM     37  C   UNL A   1      41.185  24.898  26.472  1.00  0.00     0.060 A 
ATOM     38  C   UNL A   1      41.470  26.230  26.183  1.00  0.00     0.016 A 
ATOM     39  C   UNL A   1      40.028  24.701  27.136  1.00  0.00     0.016 A 
ATOM     40  C   UNL A   1      40.745  27.333  26.815  1.00  0.00     0.010 A 
ATOM     41  C   UNL A   1      39.500  25.794  27.847  1.00  0.00     0.010 A 
ATOM     42  C   UNL A   1      39.820  27.180  27.867  1.00  0.00    -0.014 A 
BRANCH  42  43
ATOM     43  C   UNL A   1      39.471  28.446  29.017  1.00  0.00     0.031 A 
ATOM     44  C   UNL A   1      38.203  29.601  29.251  1.00  0.00     0.074 A 
ATOM     45  C   UNL A   1      40.296  28.480  30.115  1.00  0.00     0.049 A 
ATOM     46  N   UNL A   1      38.139  30.449  30.262  1.00  0.00    -0.248 NA
ATOM     47  C   UNL A   1      36.965  29.946  28.469  1.00  0.00     0.031 C 
ATOM     48  C   UNL A   1      40.237  29.298  31.341  1.00  0.00     0.029 A 
ATOM     49  N   UNL A   1      41.481  27.755  30.332  1.00  0.00    -0.354 N 
ATOM     50  C   UNL A   1      37.041  31.279  30.115  1.00  0.00     0.074 A 
ATOM     51  C   UNL A   1      36.137  30.598  29.277  1.00  0.00     0.031 C 
ATOM     52  C   UNL A   1      41.436  29.330  31.933  1.00  0.00     0.029 A 
ATOM     53  C   UNL A   1      42.327  28.555  31.113  1.00  0.00     0.049 A 
ATOM     54  H   UNL A   1      41.680  26.851  29.997  1.00  0.00     0.167 HD
ATOM     55  C   UNL A   1      37.042  32.624  30.314  1.00  0.00     0.037 A 
ATOM     56  C   UNL A   1      43.524  28.966  30.627  1.00  0.00     0.037 A 
ATOM     57  C   UNL A   1      38.322  33.067  30.796  1.00  0.00     0.049 A 
ATOM     58  C   UNL A   1      43.510  30.455  30.415  1.00  0.00     0.074 A 
ATOM     59  C   UNL A   1      38.822  33.171  32.077  1.00  0.00     0.029 A 
ATOM     60  N   UNL A   1      39.412  33.101  29.923  1.00  0.00    -0.354 N 
ATOM     61  N   UNL A   1      42.434  31.164  30.193  1.00  0.00    -0.248 NA
ATOM     62  C   UNL A   1      44.720  31.258  30.511  1.00  0.00     0.031 C 
ATOM     63  C   UNL A   1      40.232  33.236  31.979  1.00  0.00     0.029 A 
ATOM     64  C   UNL A   1      40.586  33.247  30.638  1.00  0.00     0.049 A 
ATOM     65  H   UNL A   1      39.353  33.030  28.942  1.00  0.00     0.167 HD
ATOM     66  C   UNL A   1      42.782  32.488  30.140  1.00  0.00     0.074 A 
ATOM     67  C   UNL A   1      44.223  32.492  30.336  1.00  0.00     0.031 C 
ATOM     68  C   UNL A   1      41.877  33.503  30.014  1.00  0.00     0.037 A 
BRANCH  55  69
ATOM     69  C   UNL A   1      35.816  33.491  30.077  1.00  0.00     0.064 A 
ATOM     70  C   UNL A   1      35.553  34.001  28.795  1.00  0.00     0.173 A 
ATOM     71  C   UNL A   1      34.929  33.940  31.085  1.00  0.00     0.173 A 
ATOM     72  F   UNL A   1      36.307  33.631  27.751  1.00  0.00    -0.203 F 
ATOM     73  C   UNL A   1      34.545  34.950  28.563  1.00  0.00     0.198 A 
ATOM     74  C   UNL A   1      33.947  34.910  30.863  1.00  0.00     0.198 A 
ATOM     75  F   UNL A   1      35.016  33.491  32.343  1.00  0.00    -0.203 F 
ATOM     76  F   UNL A   1      34.356  35.434  27.327  1.00  0.00    -0.200 F 
ATOM     77  C   UNL A   1      33.764  35.427  29.602  1.00  0.00     0.200 A 
ATOM     78  F   UNL A   1      33.214  35.363  31.892  1.00  0.00    -0.200 F 
ATOM     79  F   UNL A   1      32.853  36.389  29.392  1.00  0.00    -0.200 F 
ENDBRANCH  55  69
BRANCH  56  80
ATOM     80  C   UNL A   1      44.203  27.930  29.802  1.00  0.00     0.064 A 
ATOM     81  C   UNL A   1      44.158  28.093  28.396  1.00  0.00     0.173 A 
ATOM     82  C   UNL A   1      45.137  27.022  30.310  1.00  0.00     0.173 A 
ATOM     83  F   UNL A   1      43.289  28.960  27.846  1.00  0.00    -0.203 F 
ATOM     84  C   UNL A   1      45.089  27.491  27.556  1.00  0.00     0.198 A 
ATOM     85  C   UNL A   1      46.053  26.392  29.457  1.00  0.00     0.198 A 
ATOM     86  F   UNL A   1      45.259  26.841  31.632  1.00  0.00    -0.203 F 
ATOM     87  F   UNL A   1      45.121  27.811  26.253  1.00  0.00    -0.200 F 
ATOM     88  C   UNL A   1      46.043  26.648  28.090  1.00  0.00     0.200 A 
ATOM     89  F   UNL A   1      47.035  25.638  29.972  1.00  0.00    -0.200 F 
ATOM     90  F   UNL A   1      47.012  26.156  27.303  1.00  0.00    -0.200 F 
ENDBRANCH  56  80
BRANCH  68  91
ATOM     91  C   UNL A   1      42.221  34.920  29.603  1.00  0.00     0.064 A 
ATOM     92  C   UNL A   1      41.669  35.566  28.483  1.00  0.00     0.173 A 
ATOM     93  C   UNL A   1      43.073  35.728  30.395  1.00  0.00     0.173 A 
ATOM     94  F   UNL A   1      40.693  35.003  27.758  1.00  0.00    -0.203 F 
ATOM     95  C   UNL A   1      42.061  36.849  28.095  1.00  0.00     0.198 A 
ATOM     96  C   UNL A   1      43.422  37.029  30.036  1.00  0.00     0.198 A 
ATOM     97  F   UNL A   1      43.574  35.300  31.564  1.00  0.00    -0.203 F 
ATOM     98  F   UNL A   1      41.562  37.377  26.969  1.00  0.00    -0.200 F 
ATOM     99  C   UNL A   1      42.943  37.577  28.865  1.00  0.00     0.200 A 
ATOM    100  F   UNL A   1      44.223  37.748  30.834  1.00  0.00    -0.200 F 
ATOM    101  F   UNL A   1      43.311  38.810  28.494  1.00  0.00    -0.200 F 
ENDBRANCH  68  91
ENDBRANCH  42  43
ENDBRANCH  35  37
ENDBRANCH  34  35
ENDBRANCH  33  34
ENDBRANCH  32  33
ENDBRANCH  31  32
ENDBRANCH   1  31
TORSDOF 19
ENDMDL
MODEL 2
REMARK VINA RESULT:     -14.3      4.159     10.500
REMARK SMILES Cc1ccccc1-c1c(Cl)ccc2c1C=C(C(=O)OCCOCCOCCOC(=O)c1ccc(-c3c4nc(c(-c5c(F)c(F)c(F)c(F)c5F)c5ccc([nH]5)c(-c5c(F)c(F)c(F)c(F)c5F)c5nc(c(-c6c(F)c(F)c(F)c(F)c6F)c6ccc3[nH]6)C=C5)C=C4)cc1)[C@@H](C(F)(F)F)O2
REMARK SMILES IDX 24 1 23 2 22 3 21 4 20 5 19 6 17 7 18 8 16 9 8 10 9 11 14 12
REMARK SMILES IDX 10 13 11 14 13 15 15 16 12 17 99 18 94 19 7 20 1 21 2 22
REMARK SMILES IDX 3 23 4 24 6 25 5 26 95 27 96 28 97 29 98 30 25 31 26 32
REMARK SMILES IDX 27 33 28 34 29 35 30 36 31 37 32 38 93 39 33 40 92 41 34 42
REMARK SMILES IDX 35 43 36 44 86 45 37 46 91 47 85 48 87 49 38 50 90 51 84 52
REMARK SMILES IDX 83 53 39 55 71 56 51 57 70 58 52 59 55 60 69 61 88 62 53 63
REMARK SMILES IDX 54 64 68 66 89 67 56 68 40 69 41 70 49 71 42 72 43 73 47 74
REMARK SMILES IDX 50 75 44 76 45 77 48 78 46 79 72 80 73 81 81 82 74 83 75 84
REMARK SMILES IDX 79 85 82 86 76 87 77 88 80 89 78 90 57 91 58 92 66 93 59 94
REMARK SMILES IDX 60 95 64 96 67 97 61 98 62 99 65 100 63 101
REMARK H PARENT 87 54 55 65
REMARK Flexibility Score: inf
ROOT
ATOM      1  C   UNL A   1      33.525  35.071  29.337  1.00  0.00     0.188 C 
ENDROOT
BRANCH   1   2
ATOM      2  C   UNL A   1      33.334  34.340  28.022  1.00  0.00     0.188 C 
BRANCH   2   3
ATOM      3  O   UNL A   1      32.085  33.808  27.557  1.00  0.00    -0.376 OA
BRANCH   3   4
ATOM      4  C   UNL A   1      31.788  32.573  26.900  1.00  0.00     0.202 C 
BRANCH   4   5
ATOM      5  C   UNL A   1      32.483  30.978  26.901  1.00  0.00     0.261 C 
BRANCH   5   6
ATOM      6  O   UNL A   1      32.902  29.783  25.690  1.00  0.00    -0.460 OA
BRANCH   6   7
ATOM      7  C   UNL A   1      33.292  28.430  25.517  1.00  0.00     0.338 C 
ATOM      8  O   UNL A   1      34.029  27.785  26.256  1.00  0.00    -0.246 OA
BRANCH   7   9
ATOM      9  C   UNL A   1      32.830  27.643  24.306  1.00  0.00     0.087 C 
ATOM     10  C   UNL A   1      33.293  24.080  25.487  1.00  0.00     0.012 A 
ATOM     11  C   UNL A   1      32.589  23.184  26.334  1.00  0.00     0.049 A 
ATOM     12  C   UNL A   1      32.664  25.304  25.116  1.00  0.00     0.027 A 
ATOM     13  Cl  UNL A   1      33.317  21.741  26.969  1.00  0.00    -0.084 Cl
ATOM     14  C   UNL A   1      31.285  23.453  26.752  1.00  0.00     0.025 A 
ATOM     15  C   UNL A   1      31.355  25.557  25.567  1.00  0.00     0.128 A 
ATOM     16  C   UNL A   1      33.378  26.397  24.362  1.00  0.00     0.028 C 
ATOM     17  C   UNL A   1      30.669  24.638  26.366  1.00  0.00     0.049 A 
ATOM     18  O   UNL A   1      30.697  26.732  25.309  1.00  0.00    -0.475 OA
ATOM     19  C   UNL A   1      31.282  27.571  24.279  1.00  0.00     0.316 C 
BRANCH  10  20
ATOM     20  C   UNL A   1      34.665  23.770  25.038  1.00  0.00    -0.013 A 
ATOM     21  C   UNL A   1      33.858  22.978  22.756  1.00  0.00     0.045 C 
ATOM     22  C   UNL A   1      34.932  23.199  23.779  1.00  0.00    -0.043 A 
ATOM     23  C   UNL A   1      36.243  22.819  23.448  1.00  0.00     0.004 A 
ATOM     24  C   UNL A   1      37.296  23.058  24.327  1.00  0.00     0.000 A 
ATOM     25  C   UNL A   1      35.747  24.028  25.899  1.00  0.00     0.009 A 
ATOM     26  C   UNL A   1      37.052  23.685  25.543  1.00  0.00     0.001 A 
ENDBRANCH  10  20
BRANCH  19  27
ATOM     27  C   UNL A   1      30.736  27.132  22.906  1.00  0.00     0.430 C 
ATOM     28  F   UNL A   1      30.203  25.887  22.958  1.00  0.00    -0.167 F 
ATOM     29  F   UNL A   1      29.750  27.964  22.492  1.00  0.00    -0.167 F 
ATOM     30  F   UNL A   1      31.679  27.117  21.934  1.00  0.00    -0.167 F 
ENDBRANCH  19  27
ENDBRANCH   7   9
ENDBRANCH   6   7
ENDBRANCH   5   6
ENDBRANCH   4   5
ENDBRANCH   3   4
ENDBRANCH   2   3
ENDBRANCH   1   2
BRANCH   1  31
ATOM     31  O   UNL A   1      33.692  34.144  30.385  1.00  0.00    -0.376 OA
BRANCH  31  32
ATOM     32  C   UNL A   1      34.608  34.570  31.380  1.00  0.00     0.202 C 
BRANCH  32  33
ATOM     33  C   UNL A   1      36.028  34.023  31.154  1.00  0.00     0.261 C 
BRANCH  33  34
ATOM     34  O   UNL A   1      35.963  32.643  30.730  1.00  0.00    -0.460 OA
BRANCH  34  35
ATOM     35  C   UNL A   1      35.932  31.696  31.720  1.00  0.00     0.338 C 
ATOM     36  O   UNL A   1      35.799  31.931  32.912  1.00  0.00    -0.246 OA
BRANCH  35  37
ATOM     37  C   UNL A   1      36.364  30.377  31.160  1.00  0.00     0.060 A 
ATOM     38  C   UNL A   1      37.024  29.367  31.855  1.00  0.00     0.016 A 
ATOM     39  C   UNL A   1      36.406  30.257  29.818  1.00  0.00     0.016 A 
ATOM     40  C   UNL A   1      37.943  28.441  31.191  1.00  0.00     0.010 A 
ATOM     41  C   UNL A   1      37.436  29.468  29.274  1.00  0.00     0.010 A 
ATOM     42  C   UNL A   1      38.370  28.564  29.854  1.00  0.00    -0.014 A 
BRANCH  42  43
ATOM     43  C   UNL A   1      39.883  27.913  29.276  1.00  0.00     0.031 A 
ATOM     44  C   UNL A   1      40.382  26.495  28.418  1.00  0.00     0.074 A 
ATOM     45  C   UNL A   1      40.956  28.768  29.362  1.00  0.00     0.049 A 
ATOM     46  N   UNL A   1      41.623  26.246  28.040  1.00  0.00    -0.248 NA
ATOM     47  C   UNL A   1      39.650  25.277  27.926  1.00  0.00     0.031 C 
ATOM     48  C   UNL A   1      42.338  28.633  28.866  1.00  0.00     0.029 A 
ATOM     49  N   UNL A   1      41.025  30.008  30.020  1.00  0.00    -0.354 N 
ATOM     50  C   UNL A   1      41.695  24.999  27.443  1.00  0.00     0.074 A 
ATOM     51  C   UNL A   1      40.395  24.700  26.990  1.00  0.00     0.031 C 
ATOM     52  C   UNL A   1      43.149  29.469  29.524  1.00  0.00     0.029 A 
ATOM     53  C   UNL A   1      42.338  30.165  30.486  1.00  0.00     0.049 A 
ATOM     54  H   UNL A   1      40.287  30.650  30.132  1.00  0.00     0.167 HD
ATOM     55  C   UNL A   1      42.662  24.072  27.676  1.00  0.00     0.037 A 
ATOM     56  C   UNL A   1      42.587  30.265  31.815  1.00  0.00     0.037 A 
ATOM     57  C   UNL A   1      43.666  24.594  28.562  1.00  0.00     0.049 A 
ATOM     58  C   UNL A   1      43.335  29.051  32.292  1.00  0.00     0.074 A 
ATOM     59  C   UNL A   1      44.820  25.306  28.307  1.00  0.00     0.029 A 
ATOM     60  N   UNL A   1      43.369  24.762  29.917  1.00  0.00    -0.354 N 
ATOM     61  N   UNL A   1      43.285  27.875  31.721  1.00  0.00    -0.248 NA
ATOM     62  C   UNL A   1      44.254  29.105  33.419  1.00  0.00     0.031 C 
ATOM     63  C   UNL A   1      45.206  25.937  29.512  1.00  0.00     0.029 A 
ATOM     64  C   UNL A   1      44.332  25.550  30.518  1.00  0.00     0.049 A 
ATOM     65  H   UNL A   1      42.587  24.376  30.375  1.00  0.00     0.167 HD
ATOM     66  C   UNL A   1      44.155  27.036  32.365  1.00  0.00     0.074 A 
ATOM     67  C   UNL A   1      44.730  27.851  33.422  1.00  0.00     0.031 C 
ATOM     68  C   UNL A   1      44.413  25.757  31.957  1.00  0.00     0.037 A 
BRANCH  55  69
ATOM     69  C   UNL A   1      42.652  22.695  27.032  1.00  0.00     0.064 A 
ATOM     70  C   UNL A   1      41.890  21.660  27.598  1.00  0.00     0.173 A 
ATOM     71  C   UNL A   1      43.450  22.306  25.929  1.00  0.00     0.173 A 
ATOM     72  F   UNL A   1      41.074  21.907  28.632  1.00  0.00    -0.203 F 
ATOM     73  C   UNL A   1      41.989  20.333  27.152  1.00  0.00     0.198 A 
ATOM     74  C   UNL A   1      43.577  20.980  25.506  1.00  0.00     0.198 A 
ATOM     75  F   UNL A   1      44.182  23.196  25.248  1.00  0.00    -0.203 F 
ATOM     76  F   UNL A   1      41.267  19.374  27.749  1.00  0.00    -0.200 F 
ATOM     77  C   UNL A   1      42.856  19.988  26.130  1.00  0.00     0.200 A 
ATOM     78  F   UNL A   1      44.435  20.674  24.520  1.00  0.00    -0.200 F 
ATOM     79  F   UNL A   1      43.006  18.708  25.757  1.00  0.00    -0.200 F 
ENDBRANCH  55  69
BRANCH  56  80
ATOM     80  C   UNL A   1      41.550  31.047  32.542  1.00  0.00     0.064 A 
ATOM     81  C   UNL A   1      40.604  30.315  33.301  1.00  0.00     0.173 A 
ATOM     82  C   UNL A   1      41.648  32.419  32.795  1.00  0.00     0.173 A 
ATOM     83  F   UNL A   1      40.471  28.990  33.113  1.00  0.00    -0.203 F 
ATOM     84  C   UNL A   1      39.896  30.894  34.349  1.00  0.00     0.198 A 
ATOM     85  C   UNL A   1      40.909  33.005  33.832  1.00  0.00     0.198 A 
ATOM     86  F   UNL A   1      42.544  33.169  32.140  1.00  0.00    -0.203 F 
ATOM     87  F   UNL A   1      39.144  30.127  35.153  1.00  0.00    -0.200 F 
ATOM     88  C   UNL A   1      40.057  32.238  34.620  1.00  0.00     0.200 A 
ATOM     89  F   UNL A   1      41.119  34.289  34.157  1.00  0.00    -0.200 F 
ATOM     90  F   UNL A   1      39.467  32.775  35.698  1.00  0.00    -0.200 F 
ENDBRANCH  56  80
BRANCH  68  91
ATOM     91  C   UNL A   1      45.077  24.697  32.812  1.00  0.00     0.064 A 
ATOM     92  C   UNL A   1      44.461  23.487  33.175  1.00  0.00     0.173 A 
ATOM     93  C   UNL A   1      46.424  24.827  33.229  1.00  0.00     0.173 A 
ATOM     94  F   UNL A   1      43.266  23.130  32.683  1.00  0.00    -0.203 F 
ATOM     95  C   UNL A   1      45.077  22.562  34.021  1.00  0.00     0.198 A 
ATOM     96  C   UNL A   1      47.058  23.877  34.029  1.00  0.00     0.198 A 
ATOM     97  F   UNL A   1      47.188  25.863  32.851  1.00  0.00    -0.203 F 
ATOM     98  F   UNL A   1      44.405  21.467  34.401  1.00  0.00    -0.200 F 
ATOM     99  C   UNL A   1      46.371  22.761  34.455  1.00  0.00     0.200 A 
ATOM    100  F   UNL A   1      48.339  24.052  34.381  1.00  0.00    -0.200 F 
ATOM    101  F   UNL A   1      46.962  21.868  35.259  1.00  0.00    -0.200 F 
ENDBRANCH  68  91
ENDBRANCH  42  43
ENDBRANCH  35  37
ENDBRANCH  34  35
ENDBRANCH  33  34
ENDBRANCH  32  33
ENDBRANCH  31  32
ENDBRANCH   1  31
TORSDOF 19
ENDMDL
MODEL 3
REMARK VINA RESULT:     -14.1      1.379      2.002
REMARK SMILES Cc1ccccc1-c1c(Cl)ccc2c1C=C(C(=O)OCCOCCOCCOC(=O)c1ccc(-c3c4nc(c(-c5c(F)c(F)c(F)c(F)c5F)c5ccc([nH]5)c(-c5c(F)c(F)c(F)c(F)c5F)c5nc(c(-c6c(F)c(F)c(F)c(F)c6F)c6ccc3[nH]6)C=C5)C=C4)cc1)[C@@H](C(F)(F)F)O2
REMARK SMILES IDX 24 1 23 2 22 3 21 4 20 5 19 6 17 7 18 8 16 9 8 10 9 11 14 12
REMARK SMILES IDX 10 13 11 14 13 15 15 16 12 17 99 18 94 19 7 20 1 21 2 22
REMARK SMILES IDX 3 23 4 24 6 25 5 26 95 27 96 28 97 29 98 30 25 31 26 32
REMARK SMILES IDX 27 33 28 34 29 35 30 36 31 37 32 38 93 39 33 40 92 41 34 42
REMARK SMILES IDX 35 43 36 44 86 45 37 46 91 47 85 48 87 49 38 50 90 51 84 52
REMARK SMILES IDX 83 53 39 55 71 56 51 57 70 58 52 59 55 60 69 61 88 62 53 63
REMARK SMILES IDX 54 64 68 66 89 67 56 68 40 69 41 70 49 71 42 72 43 73 47 74
REMARK SMILES IDX 50 75 44 76 45 77 48 78 46 79 72 80 73 81 81 82 74 83 75 84
REMARK SMILES IDX 79 85 82 86 76 87 77 88 80 89 78 90 57 91 58 92 66 93 59 94
REMARK SMILES IDX 60 95 64 96 67 97 61 98 62 99 65 100 63 101
REMARK H PARENT 87 54 55 65
REMARK Flexibility Score: inf
ROOT
ATOM      1  C   UNL A   1      42.139  20.195  27.130  1.00  0.00     0.188 C 
ENDROOT
BRANCH   1   2
ATOM      2  C   UNL A   1      40.696  20.395  26.708  1.00  0.00     0.188 C 
BRANCH   2   3
ATOM      3  O   UNL A   1      39.885  21.519  27.079  1.00  0.00    -0.376 OA
BRANCH   3   4
ATOM      4  C   UNL A   1      39.448  22.644  26.310  1.00  0.00     0.202 C 
BRANCH   4   5
ATOM      5  C   UNL A   1      38.046  23.674  26.319  1.00  0.00     0.261 C 
BRANCH   5   6
ATOM      6  O   UNL A   1      36.724  24.014  25.221  1.00  0.00    -0.460 OA
BRANCH   6   7
ATOM      7  C   UNL A   1      35.912  23.442  24.207  1.00  0.00     0.338 C 
ATOM      8  O   UNL A   1      36.253  23.198  23.054  1.00  0.00    -0.246 OA
BRANCH   7   9
ATOM      9  C   UNL A   1      34.460  23.105  24.480  1.00  0.00     0.087 C 
ATOM     10  C   UNL A   1      32.766  26.418  23.806  1.00  0.00     0.012 A 
ATOM     11  C   UNL A   1      32.376  27.152  22.654  1.00  0.00     0.049 A 
ATOM     12  C   UNL A   1      33.202  25.071  23.641  1.00  0.00     0.027 A 
ATOM     13  Cl  UNL A   1      31.976  28.841  22.721  1.00  0.00    -0.084 Cl
ATOM     14  C   UNL A   1      32.356  26.561  21.390  1.00  0.00     0.025 A 
ATOM     15  C   UNL A   1      33.187  24.507  22.351  1.00  0.00     0.128 A 
ATOM     16  C   UNL A   1      33.792  24.257  24.764  1.00  0.00     0.028 C 
ATOM     17  C   UNL A   1      32.759  25.239  21.241  1.00  0.00     0.049 A 
ATOM     18  O   UNL A   1      33.645  23.241  22.091  1.00  0.00    -0.475 OA
ATOM     19  C   UNL A   1      33.842  22.390  23.251  1.00  0.00     0.316 C 
BRANCH  10  20
ATOM     20  C   UNL A   1      32.763  27.052  25.139  1.00  0.00    -0.013 A 
ATOM     21  C   UNL A   1      30.429  26.181  25.670  1.00  0.00     0.045 C 
ATOM     22  C   UNL A   1      31.647  26.994  25.995  1.00  0.00    -0.043 A 
ATOM     23  C   UNL A   1      31.655  27.710  27.204  1.00  0.00     0.004 A 
ATOM     24  C   UNL A   1      32.780  28.430  27.596  1.00  0.00     0.000 A 
ATOM     25  C   UNL A   1      33.899  27.762  25.567  1.00  0.00     0.009 A 
ATOM     26  C   UNL A   1      33.912  28.437  26.789  1.00  0.00     0.001 A 
ENDBRANCH  10  20
BRANCH  19  27
ATOM     27  C   UNL A   1      32.512  21.685  23.586  1.00  0.00     0.430 C 
ATOM     28  F   UNL A   1      32.153  20.811  22.614  1.00  0.00    -0.167 F 
ATOM     29  F   UNL A   1      32.622  20.972  24.734  1.00  0.00    -0.167 F 
ATOM     30  F   UNL A   1      31.477  22.543  23.748  1.00  0.00    -0.167 F 
ENDBRANCH  19  27
ENDBRANCH   7   9
ENDBRANCH   6   7
ENDBRANCH   5   6
ENDBRANCH   4   5
ENDBRANCH   3   4
ENDBRANCH   2   3
ENDBRANCH   1   2
BRANCH   1  31
ATOM     31  O   UNL A   1      42.979  20.203  25.998  1.00  0.00    -0.376 OA
BRANCH  31  32
ATOM     32  C   UNL A   1      43.056  21.467  25.358  1.00  0.00     0.202 C 
BRANCH  32  33
ATOM     33  C   UNL A   1      43.815  22.511  26.195  1.00  0.00     0.261 C 
BRANCH  33  34
ATOM     34  O   UNL A   1      43.046  23.733  26.274  1.00  0.00    -0.460 OA
BRANCH  34  35
ATOM     35  C   UNL A   1      43.281  24.671  25.303  1.00  0.00     0.338 C 
ATOM     36  O   UNL A   1      44.268  24.702  24.581  1.00  0.00    -0.246 OA
BRANCH  35  37
ATOM     37  C   UNL A   1      42.304  25.795  25.451  1.00  0.00     0.060 A 
ATOM     38  C   UNL A   1      42.582  27.150  25.297  1.00  0.00     0.016 A 
ATOM     39  C   UNL A   1      41.142  25.526  26.079  1.00  0.00     0.016 A 
ATOM     40  C   UNL A   1      41.843  28.182  26.025  1.00  0.00     0.010 A 
ATOM     41  C   UNL A   1      40.599  26.541  26.888  1.00  0.00     0.010 A 
ATOM     42  C   UNL A   1      40.908  27.921  27.047  1.00  0.00    -0.014 A 
BRANCH  42  43
ATOM     43  C   UNL A   1      40.539  29.067  28.311  1.00  0.00     0.031 A 
ATOM     44  C   UNL A   1      39.183  30.053  28.740  1.00  0.00     0.074 A 
ATOM     45  C   UNL A   1      41.458  29.126  29.331  1.00  0.00     0.049 A 
ATOM     46  N   UNL A   1      39.127  30.826  29.810  1.00  0.00    -0.248 NA
ATOM     47  C   UNL A   1      37.846  30.303  28.098  1.00  0.00     0.031 C 
ATOM     48  C   UNL A   1      41.430  29.856  30.612  1.00  0.00     0.029 A 
ATOM     49  N   UNL A   1      42.730  28.528  29.388  1.00  0.00    -0.354 N 
ATOM     50  C   UNL A   1      37.938  31.534  29.821  1.00  0.00     0.074 A 
ATOM     51  C   UNL A   1      37.035  30.807  29.021  1.00  0.00     0.031 C 
ATOM     52  C   UNL A   1      42.671  29.986  31.096  1.00  0.00     0.029 A 
ATOM     53  C   UNL A   1      43.557  29.369  30.146  1.00  0.00     0.049 A 
ATOM     54  H   UNL A   1      42.990  27.674  28.974  1.00  0.00     0.167 HD
ATOM     55  C   UNL A   1      37.814  32.856  30.115  1.00  0.00     0.037 A 
ATOM     56  C   UNL A   1      44.649  29.942  29.586  1.00  0.00     0.037 A 
ATOM     57  C   UNL A   1      39.080  33.410  30.512  1.00  0.00     0.049 A 
ATOM     58  C   UNL A   1      44.456  31.430  29.483  1.00  0.00     0.074 A 
ATOM     59  C   UNL A   1      39.688  33.491  31.747  1.00  0.00     0.029 A 
ATOM     60  N   UNL A   1      40.070  33.621  29.550  1.00  0.00    -0.354 N 
ATOM     61  N   UNL A   1      43.294  32.025  29.410  1.00  0.00    -0.248 NA
ATOM     62  C   UNL A   1      45.577  32.358  29.527  1.00  0.00     0.031 C 
ATOM     63  C   UNL A   1      41.066  33.721  31.529  1.00  0.00     0.029 A 
ATOM     64  C   UNL A   1      41.285  33.854  30.165  1.00  0.00     0.049 A 
ATOM     65  H   UNL A   1      39.925  33.603  28.576  1.00  0.00     0.167 HD
ATOM     66  C   UNL A   1      43.492  33.380  29.420  1.00  0.00     0.074 A 
ATOM     67  C   UNL A   1      44.936  33.535  29.487  1.00  0.00     0.031 C 
ATOM     68  C   UNL A   1      42.475  34.292  29.449  1.00  0.00     0.037 A 
BRANCH  55  69
ATOM     69  C   UNL A   1      36.485  33.591  30.052  1.00  0.00     0.064 A 
ATOM     70  C   UNL A   1      35.822  33.946  31.238  1.00  0.00     0.173 A 
ATOM     71  C   UNL A   1      35.767  33.876  28.866  1.00  0.00     0.173 A 
ATOM     72  F   UNL A   1      36.409  33.750  32.427  1.00  0.00    -0.203 F 
ATOM     73  C   UNL A   1      34.515  34.458  31.236  1.00  0.00     0.198 A 
ATOM     74  C   UNL A   1      34.454  34.354  28.863  1.00  0.00     0.198 A 
ATOM     75  F   UNL A   1      36.298  33.652  27.657  1.00  0.00    -0.203 F 
ATOM     76  F   UNL A   1      33.911  34.748  32.397  1.00  0.00    -0.200 F 
ATOM     77  C   UNL A   1      33.820  34.631  30.052  1.00  0.00     0.200 A 
ATOM     78  F   UNL A   1      33.801  34.500  27.699  1.00  0.00    -0.200 F 
ATOM     79  F   UNL A   1      32.546  35.048  30.056  1.00  0.00    -0.200 F 
ENDBRANCH  55  69
BRANCH  56  80
ATOM     80  C   UNL A   1      45.352  29.041  28.632  1.00  0.00     0.064 A 
ATOM     81  C   UNL A   1      45.290  29.382  27.258  1.00  0.00     0.173 A 
ATOM     82  C   UNL A   1      46.319  28.106  29.015  1.00  0.00     0.173 A 
ATOM     83  F   UNL A   1      44.391  30.285  26.829  1.00  0.00    -0.203 F 
ATOM     84  C   UNL A   1      46.231  28.922  26.343  1.00  0.00     0.198 A 
ATOM     85  C   UNL A   1      47.246  27.620  28.083  1.00  0.00     0.198 A 
ATOM     86  F   UNL A   1      46.458  27.761  30.301  1.00  0.00    -0.203 F 
ATOM     87  F   UNL A   1      46.242  29.407  25.092  1.00  0.00    -0.200 F 
ATOM     88  C   UNL A   1      47.216  28.048  26.760  1.00  0.00     0.200 A 
ATOM     89  F   UNL A   1      48.255  26.838  28.492  1.00  0.00    -0.200 F 
ATOM     90  F   UNL A   1      48.192  27.692  25.912  1.00  0.00    -0.200 F 
ENDBRANCH  56  80
BRANCH  68  91
ATOM     91  C   UNL A   1      42.625  35.762  29.111  1.00  0.00     0.064 A 
ATOM     92  C   UNL A   1      41.995  36.382  28.018  1.00  0.00     0.173 A 
ATOM     93  C   UNL A   1      43.355  36.638  29.952  1.00  0.00     0.173 A 
ATOM     94  F   UNL A   1      41.108  35.728  27.255  1.00  0.00    -0.203 F 
ATOM     95  C   UNL A   1      42.209  37.723  27.697  1.00  0.00     0.198 A 
ATOM     96  C   UNL A   1      43.524  37.991  29.660  1.00  0.00     0.198 A 
ATOM     97  F   UNL A   1      43.904  36.225  31.103  1.00  0.00    -0.203 F 
ATOM     98  F   UNL A   1      41.648  38.234  26.593  1.00  0.00    -0.200 F 
ATOM     99  C   UNL A   1      42.980  38.526  28.512  1.00  0.00     0.200 A 
ATOM    100  F   UNL A   1      44.216  38.771  30.501  1.00  0.00    -0.200 F 
ATOM    101  F   UNL A   1      43.177  39.814  28.206  1.00  0.00    -0.200 F 
ENDBRANCH  68  91
ENDBRANCH  42  43
ENDBRANCH  35  37
ENDBRANCH  34  35
ENDBRANCH  33  34
ENDBRANCH  32  33
ENDBRANCH  31  32
ENDBRANCH   1  31
TORSDOF 19
ENDMDL
