MODEL 1
REMARK VINA RESULT:     -10.2      0.000      0.000
REMARK SMILES O=C(CCc1nnc(CSc2ccccc2)o1)OCCOCCOCCOC(=O)c1ccc(-c2c3nc(c(-c4c(F)c(F)c(F)c(F)c4F)c4ccc([nH]4)c(-c4c(F)c(F)c(F)c(F)c4F)c4nc(c(-c5c(F)c(F)c(F)c(F)c5F)c5ccc2[nH]5)C=C4)C=C3)cc1
REMARK SMILES IDX 21 1 20 2 19 3 18 4 2 5 1 6 3 7 4 8 5 9 6 10 17 11 7 12 8 13
REMARK SMILES IDX 9 14 10 15 11 16 12 17 16 18 13 19 15 20 14 21 22 22 23 23
REMARK SMILES IDX 24 24 25 25 26 26 27 27 28 28 29 29 30 30 31 31 92 32 32 33
REMARK SMILES IDX 91 34 33 35 34 36 35 37 85 38 36 39 90 40 84 41 86 42 37 43
REMARK SMILES IDX 89 44 83 45 82 46 38 48 70 49 50 50 69 51 51 52 54 53 68 54
REMARK SMILES IDX 87 55 52 56 53 57 67 59 88 60 55 61 39 62 40 63 48 64 41 65
REMARK SMILES IDX 42 66 46 67 49 68 43 69 44 70 47 71 45 72 71 73 72 74 80 75
REMARK SMILES IDX 73 76 74 77 78 78 81 79 75 80 76 81 79 82 77 83 56 84 57 85
REMARK SMILES IDX 65 86 58 87 59 88 63 89 66 90 60 91 61 92 64 93 62 94
REMARK H PARENT 86 47 54 58
REMARK Flexibility Score: inf
ROOT
ATOM      1  O   UNL A   1      31.123  27.161  27.247  1.00  0.00    -0.376 OA
ENDROOT
BRANCH   1   2
ATOM      2  C   UNL A   1      31.342  26.469  26.025  1.00  0.00     0.202 C 
BRANCH   2   3
ATOM      3  C   UNL A   1      30.450  26.750  24.819  1.00  0.00     0.261 C 
BRANCH   3   4
ATOM      4  O   UNL A   1      30.408  28.059  24.215  1.00  0.00    -0.463 OA
BRANCH   4   5
ATOM      5  C   UNL A   1      31.153  28.576  23.226  1.00  0.00     0.306 C 
ATOM      6  O   UNL A   1      30.685  28.689  22.094  1.00  0.00    -0.252 OA
BRANCH   5   7
ATOM      7  C   UNL A   1      32.569  28.982  23.498  1.00  0.00     0.132 C 
BRANCH   7   8
ATOM      8  C   UNL A   1      33.518  28.450  22.442  1.00  0.00     0.111 C 
BRANCH   8   9
ATOM      9  C   UNL A   1      33.679  26.980  22.519  1.00  0.00     0.217 A 
ATOM     10  N   UNL A   1      33.623  26.080  21.561  1.00  0.00    -0.113 NA
ATOM     11  O   UNL A   1      33.777  26.420  23.768  1.00  0.00    -0.424 OA
ATOM     12  N   UNL A   1      33.690  24.847  22.181  1.00  0.00    -0.112 NA
ATOM     13  C   UNL A   1      33.758  25.076  23.479  1.00  0.00     0.226 A 
BRANCH  13  14
ATOM     14  C   UNL A   1      33.806  24.128  24.620  1.00  0.00     0.174 C 
BRANCH  14  15
ATOM     15  S   UNL A   1      35.163  22.894  24.489  1.00  0.00    -0.116 SA
BRANCH  15  16
ATOM     16  C   UNL A   1      34.295  21.337  24.362  1.00  0.00     0.008 A 
ATOM     17  C   UNL A   1      34.922  20.179  24.840  1.00  0.00     0.015 A 
ATOM     18  C   UNL A   1      32.996  21.230  23.859  1.00  0.00     0.015 A 
ATOM     19  C   UNL A   1      34.318  18.926  24.706  1.00  0.00     0.001 A 
ATOM     20  C   UNL A   1      32.378  19.980  23.747  1.00  0.00     0.001 A 
ATOM     21  C   UNL A   1      33.048  18.825  24.148  1.00  0.00     0.000 A 
ENDBRANCH  15  16
ENDBRANCH  14  15
ENDBRANCH  13  14
ENDBRANCH   8   9
ENDBRANCH   7   8
ENDBRANCH   5   7
ENDBRANCH   4   5
ENDBRANCH   3   4
ENDBRANCH   2   3
ENDBRANCH   1   2
BRANCH   1  22
ATOM     22  C   UNL A   1      31.415  28.548  27.319  1.00  0.00     0.188 C 
BRANCH  22  23
ATOM     23  C   UNL A   1      32.881  29.001  27.252  1.00  0.00     0.188 C 
BRANCH  23  24
ATOM     24  O   UNL A   1      33.035  30.394  27.021  1.00  0.00    -0.376 OA
BRANCH  24  25
ATOM     25  C   UNL A   1      31.861  31.083  26.616  1.00  0.00     0.202 C 
BRANCH  25  26
ATOM     26  C   UNL A   1      31.808  32.574  26.983  1.00  0.00     0.261 C 
BRANCH  26  27
ATOM     27  O   UNL A   1      33.073  33.250  27.076  1.00  0.00    -0.460 OA
BRANCH  27  28
ATOM     28  C   UNL A   1      33.259  34.072  28.131  1.00  0.00     0.338 C 
ATOM     29  O   UNL A   1      32.538  34.987  28.480  1.00  0.00    -0.246 OA
BRANCH  28  30
ATOM     30  C   UNL A   1      34.409  33.569  28.918  1.00  0.00     0.060 A 
ATOM     31  C   UNL A   1      35.695  34.001  28.570  1.00  0.00     0.016 A 
ATOM     32  C   UNL A   1      34.230  32.678  29.980  1.00  0.00     0.016 A 
ATOM     33  C   UNL A   1      36.805  33.538  29.279  1.00  0.00     0.010 A 
ATOM     34  C   UNL A   1      35.348  32.186  30.668  1.00  0.00     0.010 A 
ATOM     35  C   UNL A   1      36.643  32.593  30.302  1.00  0.00    -0.014 A 
BRANCH  35  36
ATOM     36  C   UNL A   1      37.846  31.899  30.827  1.00  0.00     0.031 A 
ATOM     37  C   UNL A   1      38.306  32.227  32.222  1.00  0.00     0.074 A 
ATOM     38  C   UNL A   1      38.477  30.944  30.120  1.00  0.00     0.049 A 
ATOM     39  N   UNL A   1      39.277  31.704  32.926  1.00  0.00    -0.248 NA
ATOM     40  C   UNL A   1      37.560  33.288  32.919  1.00  0.00     0.031 C 
ATOM     41  C   UNL A   1      38.119  30.516  28.770  1.00  0.00     0.029 A 
ATOM     42  N   UNL A   1      39.553  30.157  30.449  1.00  0.00    -0.354 N 
ATOM     43  C   UNL A   1      39.244  32.354  34.152  1.00  0.00     0.074 A 
ATOM     44  C   UNL A   1      38.192  33.345  34.081  1.00  0.00     0.031 C 
ATOM     45  C   UNL A   1      38.969  29.548  28.381  1.00  0.00     0.029 A 
ATOM     46  C   UNL A   1      39.938  29.299  29.449  1.00  0.00     0.049 A 
ATOM     47  H   UNL A   1      40.008  30.204  31.322  1.00  0.00     0.167 HD
ATOM     48  C   UNL A   1      40.007  32.133  35.250  1.00  0.00     0.037 A 
ATOM     49  C   UNL A   1      40.959  28.420  29.401  1.00  0.00     0.037 A 
ATOM     50  C   UNL A   1      41.072  31.167  35.316  1.00  0.00     0.049 A 
ATOM     51  C   UNL A   1      41.841  28.243  30.613  1.00  0.00     0.074 A 
ATOM     52  C   UNL A   1      41.910  30.878  36.380  1.00  0.00     0.029 A 
ATOM     53  N   UNL A   1      41.454  30.341  34.270  1.00  0.00    -0.354 N 
ATOM     54  N   UNL A   1      41.779  28.834  31.781  1.00  0.00    -0.248 NA
ATOM     55  C   UNL A   1      42.930  27.260  30.502  1.00  0.00     0.031 C 
ATOM     56  C   UNL A   1      42.832  29.912  35.960  1.00  0.00     0.029 A 
ATOM     57  C   UNL A   1      42.529  29.556  34.656  1.00  0.00     0.049 A 
ATOM     58  H   UNL A   1      41.025  30.316  33.385  1.00  0.00     0.167 HD
ATOM     59  C   UNL A   1      42.797  28.280  32.549  1.00  0.00     0.074 A 
ATOM     60  C   UNL A   1      43.445  27.283  31.722  1.00  0.00     0.031 C 
ATOM     61  C   UNL A   1      43.168  28.570  33.821  1.00  0.00     0.037 A 
BRANCH  48  62
ATOM     62  C   UNL A   1      39.721  32.965  36.466  1.00  0.00     0.064 A 
ATOM     63  C   UNL A   1      38.771  32.566  37.420  1.00  0.00     0.173 A 
ATOM     64  C   UNL A   1      40.424  34.155  36.699  1.00  0.00     0.173 A 
ATOM     65  F   UNL A   1      38.058  31.444  37.236  1.00  0.00    -0.203 F 
ATOM     66  C   UNL A   1      38.521  33.340  38.550  1.00  0.00     0.198 A 
ATOM     67  C   UNL A   1      40.192  34.911  37.845  1.00  0.00     0.198 A 
ATOM     68  F   UNL A   1      41.343  34.582  35.820  1.00  0.00    -0.203 F 
ATOM     69  F   UNL A   1      37.577  32.963  39.423  1.00  0.00    -0.200 F 
ATOM     70  C   UNL A   1      39.238  34.507  38.766  1.00  0.00     0.200 A 
ATOM     71  F   UNL A   1      40.895  36.033  38.059  1.00  0.00    -0.200 F 
ATOM     72  F   UNL A   1      39.003  35.247  39.859  1.00  0.00    -0.200 F 
ENDBRANCH  48  62
BRANCH  49  73
ATOM     73  C   UNL A   1      41.219  27.642  28.159  1.00  0.00     0.064 A 
ATOM     74  C   UNL A   1      40.680  26.361  27.969  1.00  0.00     0.173 A 
ATOM     75  C   UNL A   1      42.057  28.149  27.154  1.00  0.00     0.173 A 
ATOM     76  F   UNL A   1      39.897  25.818  28.913  1.00  0.00    -0.203 F 
ATOM     77  C   UNL A   1      40.990  25.608  26.838  1.00  0.00     0.198 A 
ATOM     78  C   UNL A   1      42.339  27.408  26.007  1.00  0.00     0.198 A 
ATOM     79  F   UNL A   1      42.604  29.365  27.286  1.00  0.00    -0.203 F 
ATOM     80  F   UNL A   1      40.511  24.363  26.713  1.00  0.00    -0.200 F 
ATOM     81  C   UNL A   1      41.816  26.135  25.856  1.00  0.00     0.200 A 
ATOM     82  F   UNL A   1      43.128  27.926  25.056  1.00  0.00    -0.200 F 
ATOM     83  F   UNL A   1      42.115  25.409  24.769  1.00  0.00    -0.200 F 
ENDBRANCH  49  73
BRANCH  61  84
ATOM     84  C   UNL A   1      44.307  27.780  34.405  1.00  0.00     0.064 A 
ATOM     85  C   UNL A   1      45.633  28.236  34.338  1.00  0.00     0.173 A 
ATOM     86  C   UNL A   1      44.068  26.554  35.046  1.00  0.00     0.173 A 
ATOM     87  F   UNL A   1      45.919  29.395  33.727  1.00  0.00    -0.203 F 
ATOM     88  C   UNL A   1      46.679  27.474  34.852  1.00  0.00     0.198 A 
ATOM     89  C   UNL A   1      45.114  25.814  35.591  1.00  0.00     0.198 A 
ATOM     90  F   UNL A   1      42.820  26.075  35.150  1.00  0.00    -0.203 F 
ATOM     91  F   UNL A   1      47.944  27.898  34.716  1.00  0.00    -0.200 F 
ATOM     92  C   UNL A   1      46.419  26.267  35.481  1.00  0.00     0.200 A 
ATOM     93  F   UNL A   1      44.859  24.655  36.215  1.00  0.00    -0.200 F 
ATOM     94  F   UNL A   1      47.429  25.534  35.972  1.00  0.00    -0.200 F 
ENDBRANCH  61  84
ENDBRANCH  35  36
ENDBRANCH  28  30
ENDBRANCH  27  28
ENDBRANCH  26  27
ENDBRANCH  25  26
ENDBRANCH  24  25
ENDBRANCH  23  24
ENDBRANCH  22  23
ENDBRANCH   1  22
TORSDOF 22
ENDMDL
MODEL 2
REMARK VINA RESULT:     -10.2      1.607      3.788
REMARK SMILES O=C(CCc1nnc(CSc2ccccc2)o1)OCCOCCOCCOC(=O)c1ccc(-c2c3nc(c(-c4c(F)c(F)c(F)c(F)c4F)c4ccc([nH]4)c(-c4c(F)c(F)c(F)c(F)c4F)c4nc(c(-c5c(F)c(F)c(F)c(F)c5F)c5ccc2[nH]5)C=C4)C=C3)cc1
REMARK SMILES IDX 21 1 20 2 19 3 18 4 2 5 1 6 3 7 4 8 5 9 6 10 17 11 7 12 8 13
REMARK SMILES IDX 9 14 10 15 11 16 12 17 16 18 13 19 15 20 14 21 22 22 23 23
REMARK SMILES IDX 24 24 25 25 26 26 27 27 28 28 29 29 30 30 31 31 92 32 32 33
REMARK SMILES IDX 91 34 33 35 34 36 35 37 85 38 36 39 90 40 84 41 86 42 37 43
REMARK SMILES IDX 89 44 83 45 82 46 38 48 70 49 50 50 69 51 51 52 54 53 68 54
REMARK SMILES IDX 87 55 52 56 53 57 67 59 88 60 55 61 39 62 40 63 48 64 41 65
REMARK SMILES IDX 42 66 46 67 49 68 43 69 44 70 47 71 45 72 71 73 72 74 80 75
REMARK SMILES IDX 73 76 74 77 78 78 81 79 75 80 76 81 79 82 77 83 56 84 57 85
REMARK SMILES IDX 65 86 58 87 59 88 63 89 66 90 60 91 61 92 64 93 62 94
REMARK H PARENT 86 47 54 58
REMARK Flexibility Score: inf
ROOT
ATOM      1  O   UNL A   1      31.530  27.263  27.482  1.00  0.00    -0.376 OA
ENDROOT
BRANCH   1   2
ATOM      2  C   UNL A   1      31.397  26.538  26.267  1.00  0.00     0.202 C 
BRANCH   2   3
ATOM      3  C   UNL A   1      31.833  25.076  26.200  1.00  0.00     0.261 C 
BRANCH   3   4
ATOM      4  O   UNL A   1      30.923  24.049  25.755  1.00  0.00    -0.463 OA
BRANCH   4   5
ATOM      5  C   UNL A   1      31.110  23.053  24.877  1.00  0.00     0.306 C 
ATOM      6  O   UNL A   1      31.405  21.926  25.274  1.00  0.00    -0.252 OA
BRANCH   5   7
ATOM      7  C   UNL A   1      30.993  23.326  23.409  1.00  0.00     0.132 C 
BRANCH   7   8
ATOM      8  C   UNL A   1      32.353  23.482  22.757  1.00  0.00     0.111 C 
BRANCH   8   9
ATOM      9  C   UNL A   1      32.610  24.873  22.318  1.00  0.00     0.217 A 
ATOM     10  N   UNL A   1      33.652  25.373  21.691  1.00  0.00    -0.113 NA
ATOM     11  O   UNL A   1      31.715  25.834  22.711  1.00  0.00    -0.424 OA
ATOM     12  N   UNL A   1      33.461  26.741  21.649  1.00  0.00    -0.112 NA
ATOM     13  C   UNL A   1      32.325  26.986  22.274  1.00  0.00     0.226 A 
BRANCH  13  14
ATOM     14  C   UNL A   1      31.649  28.275  22.567  1.00  0.00     0.174 C 
BRANCH  14  15
ATOM     15  S   UNL A   1      29.885  28.082  23.048  1.00  0.00    -0.116 SA
BRANCH  15  16
ATOM     16  C   UNL A   1      29.200  29.709  22.770  1.00  0.00     0.008 A 
ATOM     17  C   UNL A   1      29.346  30.679  23.771  1.00  0.00     0.015 A 
ATOM     18  C   UNL A   1      28.574  30.075  21.576  1.00  0.00     0.015 A 
ATOM     19  C   UNL A   1      28.773  31.945  23.635  1.00  0.00     0.001 A 
ATOM     20  C   UNL A   1      28.021  31.353  21.426  1.00  0.00     0.001 A 
ATOM     21  C   UNL A   1      28.099  32.279  22.464  1.00  0.00     0.000 A 
ENDBRANCH  15  16
ENDBRANCH  14  15
ENDBRANCH  13  14
ENDBRANCH   8   9
ENDBRANCH   7   8
ENDBRANCH   5   7
ENDBRANCH   4   5
ENDBRANCH   3   4
ENDBRANCH   2   3
ENDBRANCH   1   2
BRANCH   1  22
ATOM     22  C   UNL A   1      31.801  28.655  27.432  1.00  0.00     0.188 C 
BRANCH  22  23
ATOM     23  C   UNL A   1      32.104  29.303  26.073  1.00  0.00     0.188 C 
BRANCH  23  24
ATOM     24  O   UNL A   1      31.891  30.707  26.053  1.00  0.00    -0.376 OA
BRANCH  24  25
ATOM     25  C   UNL A   1      32.597  31.449  27.037  1.00  0.00     0.202 C 
BRANCH  25  26
ATOM     26  C   UNL A   1      32.109  32.890  27.257  1.00  0.00     0.261 C 
BRANCH  26  27
ATOM     27  O   UNL A   1      33.123  33.909  27.259  1.00  0.00    -0.460 OA
BRANCH  27  28
ATOM     28  C   UNL A   1      33.261  34.640  28.386  1.00  0.00     0.338 C 
ATOM     29  O   UNL A   1      32.513  35.511  28.788  1.00  0.00    -0.246 OA
BRANCH  28  30
ATOM     30  C   UNL A   1      34.396  34.090  29.163  1.00  0.00     0.060 A 
ATOM     31  C   UNL A   1      35.698  34.420  28.765  1.00  0.00     0.016 A 
ATOM     32  C   UNL A   1      34.187  33.255  30.264  1.00  0.00     0.016 A 
ATOM     33  C   UNL A   1      36.793  33.908  29.464  1.00  0.00     0.010 A 
ATOM     34  C   UNL A   1      35.288  32.714  30.942  1.00  0.00     0.010 A 
ATOM     35  C   UNL A   1      36.597  33.017  30.528  1.00  0.00    -0.014 A 
BRANCH  35  36
ATOM     36  C   UNL A   1      37.764  32.262  31.050  1.00  0.00     0.031 A 
ATOM     37  C   UNL A   1      38.247  32.571  32.441  1.00  0.00     0.074 A 
ATOM     38  C   UNL A   1      38.340  31.273  30.344  1.00  0.00     0.049 A 
ATOM     39  N   UNL A   1      39.194  32.000  33.143  1.00  0.00    -0.248 NA
ATOM     40  C   UNL A   1      37.562  33.673  33.138  1.00  0.00     0.031 C 
ATOM     41  C   UNL A   1      37.954  30.860  28.997  1.00  0.00     0.029 A 
ATOM     42  N   UNL A   1      39.375  30.432  30.671  1.00  0.00    -0.354 N 
ATOM     43  C   UNL A   1      39.201  32.655  34.367  1.00  0.00     0.074 A 
ATOM     44  C   UNL A   1      38.203  33.700  34.296  1.00  0.00     0.031 C 
ATOM     45  C   UNL A   1      38.750  29.846  28.608  1.00  0.00     0.029 A 
ATOM     46  C   UNL A   1      39.709  29.551  29.672  1.00  0.00     0.049 A 
ATOM     47  H   UNL A   1      39.836  30.458  31.541  1.00  0.00     0.167 HD
ATOM     48  C   UNL A   1      39.957  32.399  35.461  1.00  0.00     0.037 A 
ATOM     49  C   UNL A   1      40.682  28.619  29.623  1.00  0.00     0.037 A 
ATOM     50  C   UNL A   1      40.970  31.379  35.527  1.00  0.00     0.049 A 
ATOM     51  C   UNL A   1      41.560  28.400  30.831  1.00  0.00     0.074 A 
ATOM     52  C   UNL A   1      41.797  31.050  36.587  1.00  0.00     0.029 A 
ATOM     53  N   UNL A   1      41.303  30.530  34.482  1.00  0.00    -0.354 N 
ATOM     54  N   UNL A   1      41.535  28.998  31.997  1.00  0.00    -0.248 NA
ATOM     55  C   UNL A   1      42.595  27.361  30.719  1.00  0.00     0.031 C 
ATOM     56  C   UNL A   1      42.664  30.035  36.167  1.00  0.00     0.029 A 
ATOM     57  C   UNL A   1      42.337  29.690  34.866  1.00  0.00     0.049 A 
ATOM     58  H   UNL A   1      40.868  30.524  33.599  1.00  0.00     0.167 HD
ATOM     59  C   UNL A   1      42.527  28.394  32.762  1.00  0.00     0.074 A 
ATOM     60  C   UNL A   1      43.117  27.362  31.936  1.00  0.00     0.031 C 
ATOM     61  C   UNL A   1      42.919  28.669  34.032  1.00  0.00     0.037 A 
BRANCH  48  62
ATOM     62  C   UNL A   1      39.721  33.249  36.675  1.00  0.00     0.064 A 
ATOM     63  C   UNL A   1      38.750  32.909  37.631  1.00  0.00     0.173 A 
ATOM     64  C   UNL A   1      40.493  34.398  36.905  1.00  0.00     0.173 A 
ATOM     65  F   UNL A   1      37.974  31.831  37.451  1.00  0.00    -0.203 F 
ATOM     66  C   UNL A   1      38.548  33.700  38.759  1.00  0.00     0.198 A 
ATOM     67  C   UNL A   1      40.307  35.169  38.049  1.00  0.00     0.198 A 
ATOM     68  F   UNL A   1      41.433  34.768  36.024  1.00  0.00    -0.203 F 
ATOM     69  F   UNL A   1      37.584  33.380  39.635  1.00  0.00    -0.200 F 
ATOM     70  C   UNL A   1      39.331  34.824  38.971  1.00  0.00     0.200 A 
ATOM     71  F   UNL A   1      41.074  36.248  38.258  1.00  0.00    -0.200 F 
ATOM     72  F   UNL A   1      39.142  35.578  40.062  1.00  0.00    -0.200 F 
ENDBRANCH  48  62
BRANCH  49  73
ATOM     73  C   UNL A   1      40.895  27.823  28.383  1.00  0.00     0.064 A 
ATOM     74  C   UNL A   1      40.277  26.578  28.195  1.00  0.00     0.173 A 
ATOM     75  C   UNL A   1      41.763  28.275  27.377  1.00  0.00     0.173 A 
ATOM     76  F   UNL A   1      39.462  26.087  29.139  1.00  0.00    -0.203 F 
ATOM     77  C   UNL A   1      40.542  25.805  27.066  1.00  0.00     0.198 A 
ATOM     78  C   UNL A   1      42.000  27.516  26.233  1.00  0.00     0.198 A 
ATOM     79  F   UNL A   1      42.385  29.456  27.508  1.00  0.00    -0.203 F 
ATOM     80  F   UNL A   1      39.986  24.592  26.943  1.00  0.00    -0.200 F 
ATOM     81  C   UNL A   1      41.399  26.277  26.083  1.00  0.00     0.200 A 
ATOM     82  F   UNL A   1      42.820  27.982  25.281  1.00  0.00    -0.200 F 
ATOM     83  F   UNL A   1      41.654  25.532  24.999  1.00  0.00    -0.200 F 
ENDBRANCH  49  73
BRANCH  61  84
ATOM     84  C   UNL A   1      44.017  27.822  34.613  1.00  0.00     0.064 A 
ATOM     85  C   UNL A   1      43.753  26.583  35.217  1.00  0.00     0.173 A 
ATOM     86  C   UNL A   1      45.352  28.252  34.559  1.00  0.00     0.173 A 
ATOM     87  F   UNL A   1      42.494  26.129  35.306  1.00  0.00    -0.203 F 
ATOM     88  C   UNL A   1      44.778  25.828  35.783  1.00  0.00     0.198 A 
ATOM     89  C   UNL A   1      46.378  27.477  35.093  1.00  0.00     0.198 A 
ATOM     90  F   UNL A   1      45.665  29.422  33.983  1.00  0.00    -0.203 F 
ATOM     91  F   UNL A   1      44.493  24.680  36.413  1.00  0.00    -0.200 F 
ATOM     92  C   UNL A   1      46.089  26.273  35.716  1.00  0.00     0.200 A 
ATOM     93  F   UNL A   1      47.647  27.900  35.013  1.00  0.00    -0.200 F 
ATOM     94  F   UNL A   1      47.074  25.547  36.264  1.00  0.00    -0.200 F 
ENDBRANCH  61  84
ENDBRANCH  35  36
ENDBRANCH  28  30
ENDBRANCH  27  28
ENDBRANCH  26  27
ENDBRANCH  25  26
ENDBRANCH  24  25
ENDBRANCH  23  24
ENDBRANCH  22  23
ENDBRANCH   1  22
TORSDOF 22
ENDMDL
MODEL 3
REMARK VINA RESULT:     -10.2      1.649      3.866
REMARK SMILES O=C(CCc1nnc(CSc2ccccc2)o1)OCCOCCOCCOC(=O)c1ccc(-c2c3nc(c(-c4c(F)c(F)c(F)c(F)c4F)c4ccc([nH]4)c(-c4c(F)c(F)c(F)c(F)c4F)c4nc(c(-c5c(F)c(F)c(F)c(F)c5F)c5ccc2[nH]5)C=C4)C=C3)cc1
REMARK SMILES IDX 21 1 20 2 19 3 18 4 2 5 1 6 3 7 4 8 5 9 6 10 17 11 7 12 8 13
REMARK SMILES IDX 9 14 10 15 11 16 12 17 16 18 13 19 15 20 14 21 22 22 23 23
REMARK SMILES IDX 24 24 25 25 26 26 27 27 28 28 29 29 30 30 31 31 92 32 32 33
REMARK SMILES IDX 91 34 33 35 34 36 35 37 85 38 36 39 90 40 84 41 86 42 37 43
REMARK SMILES IDX 89 44 83 45 82 46 38 48 70 49 50 50 69 51 51 52 54 53 68 54
REMARK SMILES IDX 87 55 52 56 53 57 67 59 88 60 55 61 39 62 40 63 48 64 41 65
REMARK SMILES IDX 42 66 46 67 49 68 43 69 44 70 47 71 45 72 71 73 72 74 80 75
REMARK SMILES IDX 73 76 74 77 78 78 81 79 75 80 76 81 79 82 77 83 56 84 57 85
REMARK SMILES IDX 65 86 58 87 59 88 63 89 66 90 60 91 61 92 64 93 62 94
REMARK H PARENT 86 47 54 58
REMARK Flexibility Score: inf
ROOT
ATOM      1  O   UNL A   1      33.985  27.289  26.128  1.00  0.00    -0.376 OA
ENDROOT
BRANCH   1   2
ATOM      2  C   UNL A   1      33.684  26.055  25.490  1.00  0.00     0.202 C 
BRANCH   2   3
ATOM      3  C   UNL A   1      32.685  25.092  26.127  1.00  0.00     0.261 C 
BRANCH   3   4
ATOM      4  O   UNL A   1      33.007  23.697  26.304  1.00  0.00    -0.463 OA
BRANCH   4   5
ATOM      5  C   UNL A   1      33.221  22.740  25.389  1.00  0.00     0.306 C 
ATOM      6  O   UNL A   1      34.337  22.237  25.269  1.00  0.00    -0.252 OA
BRANCH   5   7
ATOM      7  C   UNL A   1      32.102  22.308  24.493  1.00  0.00     0.132 C 
BRANCH   7   8
ATOM      8  C   UNL A   1      32.550  22.200  23.048  1.00  0.00     0.111 C 
BRANCH   8   9
ATOM      9  C   UNL A   1      32.669  23.524  22.395  1.00  0.00     0.217 A 
ATOM     10  N   UNL A   1      33.643  24.009  21.655  1.00  0.00    -0.113 NA
ATOM     11  O   UNL A   1      31.704  24.457  22.680  1.00  0.00    -0.424 OA
ATOM     12  N   UNL A   1      33.329  25.333  21.418  1.00  0.00    -0.112 NA
ATOM     13  C   UNL A   1      32.196  25.575  22.049  1.00  0.00     0.226 A 
BRANCH  13  14
ATOM     14  C   UNL A   1      31.417  26.833  22.177  1.00  0.00     0.174 C 
BRANCH  14  15
ATOM     15  S   UNL A   1      30.390  26.905  23.700  1.00  0.00    -0.116 SA
BRANCH  15  16
ATOM     16  C   UNL A   1      29.451  28.412  23.495  1.00  0.00     0.008 A 
ATOM     17  C   UNL A   1      28.098  28.316  23.145  1.00  0.00     0.015 A 
ATOM     18  C   UNL A   1      29.991  29.680  23.721  1.00  0.00     0.015 A 
ATOM     19  C   UNL A   1      27.333  29.461  22.906  1.00  0.00     0.001 A 
ATOM     20  C   UNL A   1      29.220  30.829  23.509  1.00  0.00     0.001 A 
ATOM     21  C   UNL A   1      27.900  30.721  23.078  1.00  0.00     0.000 A 
ENDBRANCH  15  16
ENDBRANCH  14  15
ENDBRANCH  13  14
ENDBRANCH   8   9
ENDBRANCH   7   8
ENDBRANCH   5   7
ENDBRANCH   4   5
ENDBRANCH   3   4
ENDBRANCH   2   3
ENDBRANCH   1   2
BRANCH   1  22
ATOM     22  C   UNL A   1      33.308  28.466  25.715  1.00  0.00     0.188 C 
BRANCH  22  23
ATOM     23  C   UNL A   1      32.720  29.398  26.786  1.00  0.00     0.188 C 
BRANCH  23  24
ATOM     24  O   UNL A   1      32.832  30.776  26.464  1.00  0.00    -0.376 OA
BRANCH  24  25
ATOM     25  C   UNL A   1      33.078  31.645  27.560  1.00  0.00     0.202 C 
BRANCH  25  26
ATOM     26  C   UNL A   1      32.919  33.145  27.264  1.00  0.00     0.261 C 
BRANCH  26  27
ATOM     27  O   UNL A   1      32.281  33.929  28.287  1.00  0.00    -0.460 OA
BRANCH  27  28
ATOM     28  C   UNL A   1      32.966  34.988  28.770  1.00  0.00     0.338 C 
ATOM     29  O   UNL A   1      32.619  36.153  28.749  1.00  0.00    -0.246 OA
BRANCH  28  30
ATOM     30  C   UNL A   1      34.151  34.483  29.501  1.00  0.00     0.060 A 
ATOM     31  C   UNL A   1      35.409  34.607  28.897  1.00  0.00     0.016 A 
ATOM     32  C   UNL A   1      34.032  33.888  30.760  1.00  0.00     0.016 A 
ATOM     33  C   UNL A   1      36.548  34.130  29.548  1.00  0.00     0.010 A 
ATOM     34  C   UNL A   1      35.171  33.378  31.397  1.00  0.00     0.010 A 
ATOM     35  C   UNL A   1      36.431  33.472  30.780  1.00  0.00    -0.014 A 
BRANCH  35  36
ATOM     36  C   UNL A   1      37.600  32.718  31.298  1.00  0.00     0.031 A 
ATOM     37  C   UNL A   1      38.133  33.076  32.659  1.00  0.00     0.074 A 
ATOM     38  C   UNL A   1      38.135  31.688  30.618  1.00  0.00     0.049 A 
ATOM     39  N   UNL A   1      39.091  32.517  33.356  1.00  0.00    -0.248 NA
ATOM     40  C   UNL A   1      37.491  34.220  33.328  1.00  0.00     0.031 C 
ATOM     41  C   UNL A   1      37.699  31.225  29.304  1.00  0.00     0.029 A 
ATOM     42  N   UNL A   1      39.165  30.841  30.950  1.00  0.00    -0.354 N 
ATOM     43  C   UNL A   1      39.149  33.224  34.549  1.00  0.00     0.074 A 
ATOM     44  C   UNL A   1      38.169  34.284  34.464  1.00  0.00     0.031 C 
ATOM     45  C   UNL A   1      38.463  30.180  28.935  1.00  0.00     0.029 A 
ATOM     46  C   UNL A   1      39.450  29.911  29.981  1.00  0.00     0.049 A 
ATOM     47  H   UNL A   1      39.653  30.895  31.803  1.00  0.00     0.167 HD
ATOM     48  C   UNL A   1      39.934  33.000  35.630  1.00  0.00     0.037 A 
ATOM     49  C   UNL A   1      40.404  28.959  29.942  1.00  0.00     0.037 A 
ATOM     50  C   UNL A   1      40.930  31.963  35.708  1.00  0.00     0.049 A 
ATOM     51  C   UNL A   1      41.316  28.775  31.131  1.00  0.00     0.074 A 
ATOM     52  C   UNL A   1      41.784  31.664  36.756  1.00  0.00     0.029 A 
ATOM     53  N   UNL A   1      41.213  31.064  34.691  1.00  0.00    -0.354 N 
ATOM     54  N   UNL A   1      41.339  29.423  32.270  1.00  0.00    -0.248 NA
ATOM     55  C   UNL A   1      42.327  27.712  31.031  1.00  0.00     0.031 C 
ATOM     56  C   UNL A   1      42.619  30.615  36.354  1.00  0.00     0.029 A 
ATOM     57  C   UNL A   1      42.244  30.221  35.080  1.00  0.00     0.049 A 
ATOM     58  H   UNL A   1      40.752  31.029  33.824  1.00  0.00     0.167 HD
ATOM     59  C   UNL A   1      42.343  28.833  33.030  1.00  0.00     0.074 A 
ATOM     60  C   UNL A   1      42.888  27.754  32.232  1.00  0.00     0.031 C 
ATOM     61  C   UNL A   1      42.779  29.153  34.273  1.00  0.00     0.037 A 
BRANCH  48  62
ATOM     62  C   UNL A   1      39.753  33.905  36.813  1.00  0.00     0.064 A 
ATOM     63  C   UNL A   1      40.372  35.164  36.874  1.00  0.00     0.173 A 
ATOM     64  C   UNL A   1      38.928  33.528  37.882  1.00  0.00     0.173 A 
ATOM     65  F   UNL A   1      41.185  35.566  35.885  1.00  0.00    -0.203 F 
ATOM     66  C   UNL A   1      40.188  36.001  37.972  1.00  0.00     0.198 A 
ATOM     67  C   UNL A   1      38.723  34.380  38.964  1.00  0.00     0.198 A 
ATOM     68  F   UNL A   1      38.312  32.337  37.874  1.00  0.00    -0.203 F 
ATOM     69  F   UNL A   1      40.826  37.178  38.028  1.00  0.00    -0.200 F 
ATOM     70  C   UNL A   1      39.358  35.612  39.012  1.00  0.00     0.200 A 
ATOM     71  F   UNL A   1      37.910  34.008  39.963  1.00  0.00    -0.200 F 
ATOM     72  F   UNL A   1      39.174  36.422  40.063  1.00  0.00    -0.200 F 
ENDBRANCH  48  62
BRANCH  49  73
ATOM     73  C   UNL A   1      40.563  28.107  28.731  1.00  0.00     0.064 A 
ATOM     74  C   UNL A   1      41.334  28.524  27.637  1.00  0.00     0.173 A 
ATOM     75  C   UNL A   1      39.903  26.873  28.628  1.00  0.00     0.173 A 
ATOM     76  F   UNL A   1      41.961  29.709  27.673  1.00  0.00    -0.203 F 
ATOM     77  C   UNL A   1      41.416  27.755  26.477  1.00  0.00     0.198 A 
ATOM     78  C   UNL A   1      40.013  26.089  27.481  1.00  0.00     0.198 A 
ATOM     79  F   UNL A   1      39.148  26.428  29.642  1.00  0.00    -0.203 F 
ATOM     80  F   UNL A   1      42.109  28.208  25.424  1.00  0.00    -0.200 F 
ATOM     81  C   UNL A   1      40.760  26.536  26.402  1.00  0.00     0.200 A 
ATOM     82  F   UNL A   1      39.387  24.906  27.418  1.00  0.00    -0.200 F 
ATOM     83  F   UNL A   1      40.838  25.798  25.286  1.00  0.00    -0.200 F 
ENDBRANCH  49  73
BRANCH  61  84
ATOM     84  C   UNL A   1      43.880  28.311  34.857  1.00  0.00     0.064 A 
ATOM     85  C   UNL A   1      45.232  28.666  34.723  1.00  0.00     0.173 A 
ATOM     86  C   UNL A   1      43.579  27.137  35.565  1.00  0.00     0.173 A 
ATOM     87  F   UNL A   1      45.577  29.771  34.047  1.00  0.00    -0.203 F 
ATOM     88  C   UNL A   1      46.240  27.855  35.238  1.00  0.00     0.198 A 
ATOM     89  C   UNL A   1      44.589  26.349  36.110  1.00  0.00     0.198 A 
ATOM     90  F   UNL A   1      42.305  26.755  35.734  1.00  0.00    -0.203 F 
ATOM     91  F   UNL A   1      47.526  28.179  35.040  1.00  0.00    -0.200 F 
ATOM     92  C   UNL A   1      45.918  26.700  35.935  1.00  0.00     0.200 A 
ATOM     93  F   UNL A   1      44.276  25.242  36.798  1.00  0.00    -0.200 F 
ATOM     94  F   UNL A   1      46.891  25.920  36.427  1.00  0.00    -0.200 F 
ENDBRANCH  61  84
ENDBRANCH  35  36
ENDBRANCH  28  30
ENDBRANCH  27  28
ENDBRANCH  26  27
ENDBRANCH  25  26
ENDBRANCH  24  25
ENDBRANCH  23  24
ENDBRANCH  22  23
ENDBRANCH   1  22
TORSDOF 22
ENDMDL
