MODEL 1
REMARK VINA RESULT:     -11.5      0.000      0.000
REMARK SMILES O=C(OCCOCCOCCOC(=O)[C@]1(C2CCCC2)CCOc2ccccc21)c1ccc(-c2c3nc(c(-c4c(F)c(F)c(F)c(F)c4F)c4ccc([nH]4)c(-c4c(F)c(F)c(F)c(F)c4F)c4nc(c(-c5c(F)c(F)c(F)c(F)c5F)c5ccc2[nH]5)C=C4)C=C3)cc1
REMARK SMILES IDX 7 1 6 2 5 3 4 4 3 5 2 6 1 7 30 8 31 9 92 10 32 11 91 12
REMARK SMILES IDX 33 13 34 14 35 15 85 16 36 17 90 18 84 19 86 20 37 21 89 22
REMARK SMILES IDX 83 23 82 24 38 26 70 27 50 28 69 29 51 30 54 31 68 32 87 33
REMARK SMILES IDX 52 34 53 35 67 37 88 38 55 39 39 40 40 41 48 42 41 43 42 44
REMARK SMILES IDX 46 45 49 46 43 47 44 48 47 49 45 50 71 51 72 52 80 53 73 54
REMARK SMILES IDX 74 55 78 56 81 57 75 58 76 59 79 60 77 61 56 62 57 63 65 64
REMARK SMILES IDX 58 65 59 66 63 67 66 68 60 69 61 70 64 71 62 72 8 73 9 74
REMARK SMILES IDX 10 75 11 76 12 77 13 78 14 79 15 80 21 81 29 82 22 83 24 84
REMARK SMILES IDX 28 85 23 86 25 87 27 88 26 89 16 90 17 91 20 92 18 93 19 94
REMARK H PARENT 86 25 54 36
REMARK Flexibility Score: inf
ROOT
ATOM      1  C   UNL A   1      35.069  23.356  24.661  1.00  0.00     0.188 C 
ENDROOT
BRANCH   1   2
ATOM      2  O   UNL A   1      35.294  22.255  25.548  1.00  0.00    -0.376 OA
BRANCH   2   3
ATOM      3  C   UNL A   1      35.419  21.001  24.863  1.00  0.00     0.202 C 
BRANCH   3   4
ATOM      4  C   UNL A   1      36.751  20.266  25.087  1.00  0.00     0.261 C 
BRANCH   4   5
ATOM      5  O   UNL A   1      37.895  21.129  24.972  1.00  0.00    -0.460 OA
BRANCH   5   6
ATOM      6  C   UNL A   1      38.945  21.246  25.817  1.00  0.00     0.338 C 
ATOM      7  O   UNL A   1      39.626  20.239  26.048  1.00  0.00    -0.246 OA
BRANCH   6   8
ATOM      8  C   UNL A   1      39.354  22.520  26.483  1.00  0.00     0.060 A 
ATOM      9  C   UNL A   1      38.733  23.759  26.319  1.00  0.00     0.016 A 
ATOM     10  C   UNL A   1      40.422  22.441  27.395  1.00  0.00     0.016 A 
ATOM     11  C   UNL A   1      39.221  24.905  26.940  1.00  0.00     0.010 A 
ATOM     12  C   UNL A   1      40.892  23.576  28.060  1.00  0.00     0.010 A 
ATOM     13  C   UNL A   1      40.324  24.825  27.788  1.00  0.00    -0.014 A 
BRANCH  13  14
ATOM     14  C   UNL A   1      40.991  26.080  28.191  1.00  0.00     0.031 A 
ATOM     15  C   UNL A   1      42.356  26.344  27.640  1.00  0.00     0.074 A 
ATOM     16  C   UNL A   1      40.350  26.996  28.936  1.00  0.00     0.049 A 
ATOM     17  N   UNL A   1      43.124  27.387  27.794  1.00  0.00    -0.248 NA
ATOM     18  C   UNL A   1      42.944  25.277  26.814  1.00  0.00     0.031 C 
ATOM     19  C   UNL A   1      39.017  26.817  29.493  1.00  0.00     0.029 A 
ATOM     20  N   UNL A   1      40.704  28.263  29.319  1.00  0.00    -0.354 N 
ATOM     21  C   UNL A   1      44.309  27.071  27.146  1.00  0.00     0.074 A 
ATOM     22  C   UNL A   1      44.158  25.746  26.592  1.00  0.00     0.031 C 
ATOM     23  C   UNL A   1      38.635  27.953  30.097  1.00  0.00     0.029 A 
ATOM     24  C   UNL A   1      39.695  28.942  29.963  1.00  0.00     0.049 A 
ATOM     25  H   UNL A   1      41.594  28.651  29.150  1.00  0.00     0.167 HD
ATOM     26  C   UNL A   1      45.429  27.821  27.047  1.00  0.00     0.037 A 
ATOM     27  C   UNL A   1      39.634  30.228  30.360  1.00  0.00     0.037 A 
ATOM     28  C   UNL A   1      45.539  29.143  27.597  1.00  0.00     0.049 A 
ATOM     29  C   UNL A   1      40.865  31.073  30.161  1.00  0.00     0.074 A 
ATOM     30  C   UNL A   1      46.629  29.989  27.611  1.00  0.00     0.029 A 
ATOM     31  N   UNL A   1      44.498  29.812  28.233  1.00  0.00    -0.354 N 
ATOM     32  N   UNL A   1      41.997  30.760  29.577  1.00  0.00    -0.248 NA
ATOM     33  C   UNL A   1      40.823  32.439  30.701  1.00  0.00     0.031 C 
ATOM     34  C   UNL A   1      46.260  31.156  28.292  1.00  0.00     0.029 A 
ATOM     35  C   UNL A   1      44.923  31.061  28.649  1.00  0.00     0.049 A 
ATOM     36  H   UNL A   1      43.593  29.450  28.366  1.00  0.00     0.167 HD
ATOM     37  C   UNL A   1      42.806  31.880  29.685  1.00  0.00     0.074 A 
ATOM     38  C   UNL A   1      42.014  32.900  30.346  1.00  0.00     0.031 C 
ATOM     39  C   UNL A   1      44.098  32.046  29.303  1.00  0.00     0.037 A 
BRANCH  26  40
ATOM     40  C   UNL A   1      46.619  27.163  26.412  1.00  0.00     0.064 A 
ATOM     41  C   UNL A   1      47.545  26.413  27.153  1.00  0.00     0.173 A 
ATOM     42  C   UNL A   1      46.888  27.381  25.053  1.00  0.00     0.173 A 
ATOM     43  F   UNL A   1      47.355  26.211  28.466  1.00  0.00    -0.203 F 
ATOM     44  C   UNL A   1      48.723  25.953  26.568  1.00  0.00     0.198 A 
ATOM     45  C   UNL A   1      48.049  26.887  24.464  1.00  0.00     0.198 A 
ATOM     46  F   UNL A   1      46.042  28.102  24.302  1.00  0.00    -0.203 F 
ATOM     47  F   UNL A   1      49.638  25.322  27.318  1.00  0.00    -0.200 F 
ATOM     48  C   UNL A   1      48.973  26.189  25.225  1.00  0.00     0.200 A 
ATOM     49  F   UNL A   1      48.288  27.117  23.165  1.00  0.00    -0.200 F 
ATOM     50  F   UNL A   1      50.117  25.765  24.670  1.00  0.00    -0.200 F 
ENDBRANCH  26  40
BRANCH  27  51
ATOM     51  C   UNL A   1      38.377  30.806  30.917  1.00  0.00     0.064 A 
ATOM     52  C   UNL A   1      37.351  31.236  30.060  1.00  0.00     0.173 A 
ATOM     53  C   UNL A   1      38.165  30.950  32.295  1.00  0.00     0.173 A 
ATOM     54  F   UNL A   1      37.501  31.135  28.731  1.00  0.00    -0.203 F 
ATOM     55  C   UNL A   1      36.177  31.802  30.558  1.00  0.00     0.198 A 
ATOM     56  C   UNL A   1      36.976  31.485  32.793  1.00  0.00     0.198 A 
ATOM     57  F   UNL A   1      39.109  30.565  33.165  1.00  0.00    -0.203 F 
ATOM     58  F   UNL A   1      35.236  32.242  29.710  1.00  0.00    -0.200 F 
ATOM     59  C   UNL A   1      35.987  31.919  31.925  1.00  0.00     0.200 A 
ATOM     60  F   UNL A   1      36.789  31.582  34.117  1.00  0.00    -0.200 F 
ATOM     61  F   UNL A   1      34.856  32.454  32.403  1.00  0.00    -0.200 F 
ENDBRANCH  27  51
BRANCH  39  62
ATOM     62  C   UNL A   1      44.719  33.380  29.587  1.00  0.00     0.064 A 
ATOM     63  C   UNL A   1      45.420  33.623  30.778  1.00  0.00     0.173 A 
ATOM     64  C   UNL A   1      44.653  34.407  28.635  1.00  0.00     0.173 A 
ATOM     65  F   UNL A   1      45.498  32.674  31.722  1.00  0.00    -0.203 F 
ATOM     66  C   UNL A   1      46.007  34.861  31.017  1.00  0.00     0.198 A 
ATOM     67  C   UNL A   1      45.270  35.632  28.865  1.00  0.00     0.198 A 
ATOM     68  F   UNL A   1      44.001  34.216  27.478  1.00  0.00    -0.203 F 
ATOM     69  F   UNL A   1      46.630  35.091  32.181  1.00  0.00    -0.200 F 
ATOM     70  C   UNL A   1      45.940  35.861  30.058  1.00  0.00     0.200 A 
ATOM     71  F   UNL A   1      45.216  36.592  27.931  1.00  0.00    -0.200 F 
ATOM     72  F   UNL A   1      46.514  37.049  30.287  1.00  0.00    -0.200 F 
ENDBRANCH  39  62
ENDBRANCH  13  14
ENDBRANCH   6   8
ENDBRANCH   5   6
ENDBRANCH   4   5
ENDBRANCH   3   4
ENDBRANCH   2   3
ENDBRANCH   1   2
BRANCH   1  73
ATOM     73  C   UNL A   1      34.963  22.965  23.187  1.00  0.00     0.188 C 
BRANCH  73  74
ATOM     74  O   UNL A   1      33.825  23.422  22.471  1.00  0.00    -0.376 OA
BRANCH  74  75
ATOM     75  C   UNL A   1      32.552  23.070  22.995  1.00  0.00     0.202 C 
BRANCH  75  76
ATOM     76  C   UNL A   1      31.461  24.149  23.129  1.00  0.00     0.261 C 
BRANCH  76  77
ATOM     77  O   UNL A   1      31.765  25.346  23.878  1.00  0.00    -0.463 OA
BRANCH  77  78
ATOM     78  C   UNL A   1      30.739  26.247  23.945  1.00  0.00     0.317 C 
ATOM     79  O   UNL A   1      29.564  25.886  24.046  1.00  0.00    -0.251 OA
BRANCH  78  80
ATOM     80  C   UNL A   1      31.177  27.750  23.825  1.00  0.00     0.102 C 
ATOM     81  C   UNL A   1      32.124  27.788  22.583  1.00  0.00     0.065 C 
ATOM     82  C   UNL A   1      32.009  28.130  25.073  1.00  0.00     0.012 A 
ATOM     83  C   UNL A   1      33.200  28.849  22.654  1.00  0.00     0.231 C 
ATOM     84  C   UNL A   1      33.351  28.524  24.969  1.00  0.00     0.123 A 
ATOM     85  C   UNL A   1      31.468  28.037  26.373  1.00  0.00     0.009 A 
ATOM     86  O   UNL A   1      34.029  28.672  23.792  1.00  0.00    -0.493 OA
ATOM     87  C   UNL A   1      34.133  28.750  26.107  1.00  0.00     0.047 A 
ATOM     88  C   UNL A   1      32.255  28.245  27.512  1.00  0.00     0.001 A 
ATOM     89  C   UNL A   1      33.592  28.593  27.379  1.00  0.00     0.004 A 
BRANCH  80  90
ATOM     90  C   UNL A   1      29.945  28.722  23.659  1.00  0.00     0.011 C 
ATOM     91  C   UNL A   1      30.205  30.191  24.038  1.00  0.00     0.005 C 
ATOM     92  C   UNL A   1      29.377  28.921  22.242  1.00  0.00     0.005 C 
ATOM     93  C   UNL A   1      28.971  30.937  23.566  1.00  0.00     0.000 C 
ATOM     94  C   UNL A   1      28.549  30.213  22.296  1.00  0.00     0.000 C 
ENDBRANCH  80  90
ENDBRANCH  78  80
ENDBRANCH  77  78
ENDBRANCH  76  77
ENDBRANCH  75  76
ENDBRANCH  74  75
ENDBRANCH  73  74
ENDBRANCH   1  73
TORSDOF 18
ENDMDL
MODEL 2
REMARK VINA RESULT:     -11.5      3.839      9.746
REMARK SMILES O=C(OCCOCCOCCOC(=O)[C@]1(C2CCCC2)CCOc2ccccc21)c1ccc(-c2c3nc(c(-c4c(F)c(F)c(F)c(F)c4F)c4ccc([nH]4)c(-c4c(F)c(F)c(F)c(F)c4F)c4nc(c(-c5c(F)c(F)c(F)c(F)c5F)c5ccc2[nH]5)C=C4)C=C3)cc1
REMARK SMILES IDX 7 1 6 2 5 3 4 4 3 5 2 6 1 7 30 8 31 9 92 10 32 11 91 12
REMARK SMILES IDX 33 13 34 14 35 15 85 16 36 17 90 18 84 19 86 20 37 21 89 22
REMARK SMILES IDX 83 23 82 24 38 26 70 27 50 28 69 29 51 30 54 31 68 32 87 33
REMARK SMILES IDX 52 34 53 35 67 37 88 38 55 39 39 40 40 41 48 42 41 43 42 44
REMARK SMILES IDX 46 45 49 46 43 47 44 48 47 49 45 50 71 51 72 52 80 53 73 54
REMARK SMILES IDX 74 55 78 56 81 57 75 58 76 59 79 60 77 61 56 62 57 63 65 64
REMARK SMILES IDX 58 65 59 66 63 67 66 68 60 69 61 70 64 71 62 72 8 73 9 74
REMARK SMILES IDX 10 75 11 76 12 77 13 78 14 79 15 80 21 81 29 82 22 83 24 84
REMARK SMILES IDX 28 85 23 86 25 87 27 88 26 89 16 90 17 91 20 92 18 93 19 94
REMARK H PARENT 86 25 54 36
REMARK Flexibility Score: inf
ROOT
ATOM      1  C   UNL A   1      32.070  27.769  24.960  1.00  0.00     0.188 C 
ENDROOT
BRANCH   1   2
ATOM      2  O   UNL A   1      30.987  28.683  24.747  1.00  0.00    -0.376 OA
BRANCH   2   3
ATOM      3  C   UNL A   1      31.338  30.042  25.038  1.00  0.00     0.202 C 
BRANCH   3   4
ATOM      4  C   UNL A   1      32.470  30.217  26.064  1.00  0.00     0.261 C 
BRANCH   4   5
ATOM      5  O   UNL A   1      32.333  31.411  26.854  1.00  0.00    -0.460 OA
BRANCH   5   6
ATOM      6  C   UNL A   1      33.298  32.101  27.504  1.00  0.00     0.338 C 
ATOM      7  O   UNL A   1      33.077  33.282  27.798  1.00  0.00    -0.246 OA
BRANCH   6   8
ATOM      8  C   UNL A   1      34.618  31.527  27.909  1.00  0.00     0.060 A 
ATOM      9  C   UNL A   1      34.864  30.186  28.207  1.00  0.00     0.016 A 
ATOM     10  C   UNL A   1      35.710  32.412  27.934  1.00  0.00     0.016 A 
ATOM     11  C   UNL A   1      36.116  29.753  28.632  1.00  0.00     0.010 A 
ATOM     12  C   UNL A   1      36.984  31.980  28.313  1.00  0.00     0.010 A 
ATOM     13  C   UNL A   1      37.176  30.655  28.719  1.00  0.00    -0.014 A 
BRANCH  13  14
ATOM     14  C   UNL A   1      38.394  30.238  29.441  1.00  0.00     0.031 A 
ATOM     15  C   UNL A   1      38.500  30.610  30.887  1.00  0.00     0.074 A 
ATOM     16  C   UNL A   1      39.318  29.463  28.851  1.00  0.00     0.049 A 
ATOM     17  N   UNL A   1      39.432  30.319  31.751  1.00  0.00    -0.248 NA
ATOM     18  C   UNL A   1      37.412  31.439  31.428  1.00  0.00     0.031 C 
ATOM     19  C   UNL A   1      39.275  29.048  27.457  1.00  0.00     0.029 A 
ATOM     20  N   UNL A   1      40.442  28.854  29.346  1.00  0.00    -0.354 N 
ATOM     21  C   UNL A   1      39.079  30.987  32.913  1.00  0.00     0.074 A 
ATOM     22  C   UNL A   1      37.847  31.691  32.649  1.00  0.00     0.031 C 
ATOM     23  C   UNL A   1      40.289  28.202  27.217  1.00  0.00     0.029 A 
ATOM     24  C   UNL A   1      41.050  28.012  28.442  1.00  0.00     0.049 A 
ATOM     25  H   UNL A   1      40.781  29.004  30.258  1.00  0.00     0.167 HD
ATOM     26  C   UNL A   1      39.745  31.020  34.089  1.00  0.00     0.037 A 
ATOM     27  C   UNL A   1      42.081  27.162  28.612  1.00  0.00     0.037 A 
ATOM     28  C   UNL A   1      40.961  30.294  34.323  1.00  0.00     0.049 A 
ATOM     29  C   UNL A   1      42.756  27.150  29.959  1.00  0.00     0.074 A 
ATOM     30  C   UNL A   1      41.762  30.280  35.447  1.00  0.00     0.029 A 
ATOM     31  N   UNL A   1      41.549  29.439  33.396  1.00  0.00    -0.354 N 
ATOM     32  N   UNL A   1      42.438  27.810  31.047  1.00  0.00    -0.248 NA
ATOM     33  C   UNL A   1      43.948  26.303  30.093  1.00  0.00     0.031 C 
ATOM     34  C   UNL A   1      42.857  29.447  35.186  1.00  0.00     0.029 A 
ATOM     35  C   UNL A   1      42.707  28.895  33.922  1.00  0.00     0.049 A 
ATOM     36  H   UNL A   1      41.193  29.248  32.499  1.00  0.00     0.167 HD
ATOM     37  C   UNL A   1      43.392  27.468  31.994  1.00  0.00     0.074 A 
ATOM     38  C   UNL A   1      44.270  26.499  31.364  1.00  0.00     0.031 C 
ATOM     39  C   UNL A   1      43.551  27.932  33.259  1.00  0.00     0.037 A 
BRANCH  26  40
ATOM     40  C   UNL A   1      39.206  31.951  35.135  1.00  0.00     0.064 A 
ATOM     41  C   UNL A   1      39.553  33.310  35.180  1.00  0.00     0.173 A 
ATOM     42  C   UNL A   1      38.411  31.443  36.173  1.00  0.00     0.173 A 
ATOM     43  F   UNL A   1      40.346  33.837  34.235  1.00  0.00    -0.203 F 
ATOM     44  C   UNL A   1      39.169  34.111  36.254  1.00  0.00     0.198 A 
ATOM     45  C   UNL A   1      37.998  32.255  37.225  1.00  0.00     0.198 A 
ATOM     46  F   UNL A   1      38.061  30.147  36.185  1.00  0.00    -0.203 F 
ATOM     47  F   UNL A   1      39.592  35.381  36.325  1.00  0.00    -0.200 F 
ATOM     48  C   UNL A   1      38.391  33.584  37.274  1.00  0.00     0.200 A 
ATOM     49  F   UNL A   1      37.247  31.742  38.209  1.00  0.00    -0.200 F 
ATOM     50  F   UNL A   1      38.042  34.349  38.317  1.00  0.00    -0.200 F 
ENDBRANCH  26  40
BRANCH  27  51
ATOM     51  C   UNL A   1      42.496  26.225  27.528  1.00  0.00     0.064 A 
ATOM     52  C   UNL A   1      43.544  26.563  26.657  1.00  0.00     0.173 A 
ATOM     53  C   UNL A   1      41.868  24.987  27.327  1.00  0.00     0.173 A 
ATOM     54  F   UNL A   1      44.174  27.739  26.791  1.00  0.00    -0.203 F 
ATOM     55  C   UNL A   1      43.933  25.713  25.622  1.00  0.00     0.198 A 
ATOM     56  C   UNL A   1      42.281  24.122  26.313  1.00  0.00     0.198 A 
ATOM     57  F   UNL A   1      40.857  24.609  28.121  1.00  0.00    -0.203 F 
ATOM     58  F   UNL A   1      44.908  26.086  24.781  1.00  0.00    -0.200 F 
ATOM     59  C   UNL A   1      43.306  24.488  25.455  1.00  0.00     0.200 A 
ATOM     60  F   UNL A   1      41.682  22.932  26.164  1.00  0.00    -0.200 F 
ATOM     61  F   UNL A   1      43.685  23.668  24.466  1.00  0.00    -0.200 F 
ENDBRANCH  27  51
BRANCH  39  62
ATOM     62  C   UNL A   1      44.710  27.387  34.036  1.00  0.00     0.064 A 
ATOM     63  C   UNL A   1      45.961  28.023  34.027  1.00  0.00     0.173 A 
ATOM     64  C   UNL A   1      44.553  26.247  34.836  1.00  0.00     0.173 A 
ATOM     65  F   UNL A   1      46.162  29.110  33.267  1.00  0.00    -0.203 F 
ATOM     66  C   UNL A   1      47.022  27.516  34.770  1.00  0.00     0.198 A 
ATOM     67  C   UNL A   1      45.607  25.762  35.602  1.00  0.00     0.198 A 
ATOM     68  F   UNL A   1      43.372  25.611  34.882  1.00  0.00    -0.203 F 
ATOM     69  F   UNL A   1      48.223  28.108  34.711  1.00  0.00    -0.200 F 
ATOM     70  C   UNL A   1      46.842  26.392  35.563  1.00  0.00     0.200 A 
ATOM     71  F   UNL A   1      45.428  24.685  36.379  1.00  0.00    -0.200 F 
ATOM     72  F   UNL A   1      47.863  25.911  36.285  1.00  0.00    -0.200 F 
ENDBRANCH  39  62
ENDBRANCH  13  14
ENDBRANCH   6   8
ENDBRANCH   5   6
ENDBRANCH   4   5
ENDBRANCH   3   4
ENDBRANCH   2   3
ENDBRANCH   1   2
BRANCH   1  73
ATOM     73  C   UNL A   1      31.785  26.339  24.503  1.00  0.00     0.188 C 
BRANCH  73  74
ATOM     74  O   UNL A   1      30.699  25.661  25.118  1.00  0.00    -0.376 OA
BRANCH  74  75
ATOM     75  C   UNL A   1      30.895  24.292  25.438  1.00  0.00     0.202 C 
BRANCH  75  76
ATOM     76  C   UNL A   1      31.537  23.911  26.786  1.00  0.00     0.261 C 
BRANCH  76  77
ATOM     77  O   UNL A   1      32.963  24.078  26.942  1.00  0.00    -0.463 OA
BRANCH  77  78
ATOM     78  C   UNL A   1      33.684  22.922  26.828  1.00  0.00     0.317 C 
ATOM     79  O   UNL A   1      33.682  22.065  27.715  1.00  0.00    -0.251 OA
BRANCH  78  80
ATOM     80  C   UNL A   1      34.542  22.811  25.518  1.00  0.00     0.102 C 
ATOM     81  C   UNL A   1      34.728  24.287  25.041  1.00  0.00     0.065 C 
ATOM     82  C   UNL A   1      33.721  22.060  24.443  1.00  0.00     0.012 A 
ATOM     83  C   UNL A   1      34.858  24.444  23.541  1.00  0.00     0.231 C 
ATOM     84  C   UNL A   1      33.352  22.676  23.239  1.00  0.00     0.123 A 
ATOM     85  C   UNL A   1      33.258  20.744  24.658  1.00  0.00     0.009 A 
ATOM     86  O   UNL A   1      33.717  23.939  22.866  1.00  0.00    -0.493 OA
ATOM     87  C   UNL A   1      32.509  22.036  22.323  1.00  0.00     0.047 A 
ATOM     88  C   UNL A   1      32.400  20.111  23.751  1.00  0.00     0.001 A 
ATOM     89  C   UNL A   1      32.017  20.762  22.587  1.00  0.00     0.004 A 
BRANCH  80  90
ATOM     90  C   UNL A   1      35.925  22.091  25.766  1.00  0.00     0.011 C 
ATOM     91  C   UNL A   1      36.467  21.271  24.582  1.00  0.00     0.005 C 
ATOM     92  C   UNL A   1      37.152  22.978  26.045  1.00  0.00     0.005 C 
ATOM     93  C   UNL A   1      37.882  20.899  24.984  1.00  0.00     0.000 C 
ATOM     94  C   UNL A   1      38.380  22.096  25.781  1.00  0.00     0.000 C 
ENDBRANCH  80  90
ENDBRANCH  78  80
ENDBRANCH  77  78
ENDBRANCH  76  77
ENDBRANCH  75  76
ENDBRANCH  74  75
ENDBRANCH  73  74
ENDBRANCH   1  73
TORSDOF 18
ENDMDL
MODEL 3
REMARK VINA RESULT:     -11.5      0.909      2.174
REMARK SMILES O=C(OCCOCCOCCOC(=O)[C@]1(C2CCCC2)CCOc2ccccc21)c1ccc(-c2c3nc(c(-c4c(F)c(F)c(F)c(F)c4F)c4ccc([nH]4)c(-c4c(F)c(F)c(F)c(F)c4F)c4nc(c(-c5c(F)c(F)c(F)c(F)c5F)c5ccc2[nH]5)C=C4)C=C3)cc1
REMARK SMILES IDX 7 1 6 2 5 3 4 4 3 5 2 6 1 7 30 8 31 9 92 10 32 11 91 12
REMARK SMILES IDX 33 13 34 14 35 15 85 16 36 17 90 18 84 19 86 20 37 21 89 22
REMARK SMILES IDX 83 23 82 24 38 26 70 27 50 28 69 29 51 30 54 31 68 32 87 33
REMARK SMILES IDX 52 34 53 35 67 37 88 38 55 39 39 40 40 41 48 42 41 43 42 44
REMARK SMILES IDX 46 45 49 46 43 47 44 48 47 49 45 50 71 51 72 52 80 53 73 54
REMARK SMILES IDX 74 55 78 56 81 57 75 58 76 59 79 60 77 61 56 62 57 63 65 64
REMARK SMILES IDX 58 65 59 66 63 67 66 68 60 69 61 70 64 71 62 72 8 73 9 74
REMARK SMILES IDX 10 75 11 76 12 77 13 78 14 79 15 80 21 81 29 82 22 83 24 84
REMARK SMILES IDX 28 85 23 86 25 87 27 88 26 89 16 90 17 91 20 92 18 93 19 94
REMARK H PARENT 86 25 54 36
REMARK Flexibility Score: inf
ROOT
ATOM      1  C   UNL A   1      33.226  20.553  24.227  1.00  0.00     0.188 C 
ENDROOT
BRANCH   1   2
ATOM      2  O   UNL A   1      34.459  20.256  24.894  1.00  0.00    -0.376 OA
BRANCH   2   3
ATOM      3  C   UNL A   1      35.507  21.179  24.570  1.00  0.00     0.202 C 
BRANCH   3   4
ATOM      4  C   UNL A   1      36.571  21.366  25.664  1.00  0.00     0.261 C 
BRANCH   4   5
ATOM      5  O   UNL A   1      37.885  20.957  25.246  1.00  0.00    -0.460 OA
BRANCH   5   6
ATOM      6  C   UNL A   1      39.069  21.188  25.858  1.00  0.00     0.338 C 
ATOM      7  O   UNL A   1      39.905  20.278  25.879  1.00  0.00    -0.246 OA
BRANCH   6   8
ATOM      8  C   UNL A   1      39.447  22.484  26.501  1.00  0.00     0.060 A 
ATOM      9  C   UNL A   1      38.800  23.706  26.310  1.00  0.00     0.016 A 
ATOM     10  C   UNL A   1      40.510  22.446  27.421  1.00  0.00     0.016 A 
ATOM     11  C   UNL A   1      39.260  24.874  26.910  1.00  0.00     0.010 A 
ATOM     12  C   UNL A   1      40.951  23.604  28.066  1.00  0.00     0.010 A 
ATOM     13  C   UNL A   1      40.359  24.835  27.767  1.00  0.00    -0.014 A 
BRANCH  13  14
ATOM     14  C   UNL A   1      40.996  26.111  28.149  1.00  0.00     0.031 A 
ATOM     15  C   UNL A   1      42.354  26.399  27.591  1.00  0.00     0.074 A 
ATOM     16  C   UNL A   1      40.335  27.023  28.880  1.00  0.00     0.049 A 
ATOM     17  N   UNL A   1      43.098  27.461  27.728  1.00  0.00    -0.248 NA
ATOM     18  C   UNL A   1      42.966  25.333  26.782  1.00  0.00     0.031 C 
ATOM     19  C   UNL A   1      39.007  26.822  29.442  1.00  0.00     0.029 A 
ATOM     20  N   UNL A   1      40.659  28.305  29.242  1.00  0.00    -0.354 N 
ATOM     21  C   UNL A   1      44.289  27.163  27.084  1.00  0.00     0.074 A 
ATOM     22  C   UNL A   1      44.168  25.827  26.551  1.00  0.00     0.031 C 
ATOM     23  C   UNL A   1      38.599  27.958  30.028  1.00  0.00     0.029 A 
ATOM     24  C   UNL A   1      39.635  28.969  29.877  1.00  0.00     0.049 A 
ATOM     25  H   UNL A   1      41.539  28.710  29.066  1.00  0.00     0.167 HD
ATOM     26  C   UNL A   1      45.390  27.938  26.971  1.00  0.00     0.037 A 
ATOM     27  C   UNL A   1      39.544  30.259  30.254  1.00  0.00     0.037 A 
ATOM     28  C   UNL A   1      45.470  29.270  27.500  1.00  0.00     0.049 A 
ATOM     29  C   UNL A   1      40.754  31.131  30.040  1.00  0.00     0.074 A 
ATOM     30  C   UNL A   1      46.540  30.142  27.499  1.00  0.00     0.029 A 
ATOM     31  N   UNL A   1      44.415  29.925  28.127  1.00  0.00    -0.354 N 
ATOM     32  N   UNL A   1      41.892  30.835  29.459  1.00  0.00    -0.248 NA
ATOM     33  C   UNL A   1      40.681  32.503  30.558  1.00  0.00     0.031 C 
ATOM     34  C   UNL A   1      46.144  31.311  28.162  1.00  0.00     0.029 A 
ATOM     35  C   UNL A   1      44.810  31.190  28.522  1.00  0.00     0.049 A 
ATOM     36  H   UNL A   1      43.518  29.544  28.267  1.00  0.00     0.167 HD
ATOM     37  C   UNL A   1      42.676  31.976  29.548  1.00  0.00     0.074 A 
ATOM     38  C   UNL A   1      41.860  32.987  30.194  1.00  0.00     0.031 C 
ATOM     39  C   UNL A   1      43.962  32.165  29.162  1.00  0.00     0.037 A 
BRANCH  26  40
ATOM     40  C   UNL A   1      46.595  27.299  26.345  1.00  0.00     0.064 A 
ATOM     41  C   UNL A   1      47.536  26.577  27.095  1.00  0.00     0.173 A 
ATOM     42  C   UNL A   1      46.861  27.506  24.983  1.00  0.00     0.173 A 
ATOM     43  F   UNL A   1      47.349  26.386  28.411  1.00  0.00    -0.203 F 
ATOM     44  C   UNL A   1      48.725  26.135  26.517  1.00  0.00     0.198 A 
ATOM     45  C   UNL A   1      48.034  27.031  24.401  1.00  0.00     0.198 A 
ATOM     46  F   UNL A   1      46.001  28.200  24.223  1.00  0.00    -0.203 F 
ATOM     47  F   UNL A   1      49.652  25.533  27.275  1.00  0.00    -0.200 F 
ATOM     48  C   UNL A   1      48.971  26.361  25.172  1.00  0.00     0.200 A 
ATOM     49  F   UNL A   1      48.268  27.251  23.100  1.00  0.00    -0.200 F 
ATOM     50  F   UNL A   1      50.125  25.956  24.623  1.00  0.00    -0.200 F 
ENDBRANCH  26  40
BRANCH  27  51
ATOM     51  C   UNL A   1      38.274  30.816  30.803  1.00  0.00     0.064 A 
ATOM     52  C   UNL A   1      37.240  31.216  29.941  1.00  0.00     0.173 A 
ATOM     53  C   UNL A   1      38.057  30.970  32.180  1.00  0.00     0.173 A 
ATOM     54  F   UNL A   1      37.395  31.106  28.613  1.00  0.00    -0.203 F 
ATOM     55  C   UNL A   1      36.054  31.762  30.431  1.00  0.00     0.198 A 
ATOM     56  C   UNL A   1      36.856  31.484  32.671  1.00  0.00     0.198 A 
ATOM     57  F   UNL A   1      39.008  30.613  33.054  1.00  0.00    -0.203 F 
ATOM     58  F   UNL A   1      35.106  32.174  29.578  1.00  0.00    -0.200 F 
ATOM     59  C   UNL A   1      35.859  31.889  31.797  1.00  0.00     0.200 A 
ATOM     60  F   UNL A   1      36.665  31.590  33.993  1.00  0.00    -0.200 F 
ATOM     61  F   UNL A   1      34.716  32.405  32.268  1.00  0.00    -0.200 F 
ENDBRANCH  27  51
BRANCH  39  62
ATOM     62  C   UNL A   1      44.552  33.518  29.424  1.00  0.00     0.064 A 
ATOM     63  C   UNL A   1      45.247  33.797  30.610  1.00  0.00     0.173 A 
ATOM     64  C   UNL A   1      44.461  34.528  28.456  1.00  0.00     0.173 A 
ATOM     65  F   UNL A   1      45.348  32.865  31.569  1.00  0.00    -0.203 F 
ATOM     66  C   UNL A   1      45.806  35.052  30.829  1.00  0.00     0.198 A 
ATOM     67  C   UNL A   1      45.049  35.771  28.666  1.00  0.00     0.198 A 
ATOM     68  F   UNL A   1      43.813  34.304  27.303  1.00  0.00    -0.203 F 
ATOM     69  F   UNL A   1      46.424  35.315  31.988  1.00  0.00    -0.200 F 
ATOM     70  C   UNL A   1      45.714  36.034  29.854  1.00  0.00     0.200 A 
ATOM     71  F   UNL A   1      44.972  36.714  27.716  1.00  0.00    -0.200 F 
ATOM     72  F   UNL A   1      46.261  37.239  30.063  1.00  0.00    -0.200 F 
ENDBRANCH  39  62
ENDBRANCH  13  14
ENDBRANCH   6   8
ENDBRANCH   5   6
ENDBRANCH   4   5
ENDBRANCH   3   4
ENDBRANCH   2   3
ENDBRANCH   1   2
BRANCH   1  73
ATOM     73  C   UNL A   1      33.000  22.041  23.958  1.00  0.00     0.188 C 
BRANCH  73  74
ATOM     74  O   UNL A   1      32.582  22.411  22.653  1.00  0.00    -0.376 OA
BRANCH  74  75
ATOM     75  C   UNL A   1      33.339  23.420  21.998  1.00  0.00     0.202 C 
BRANCH  75  76
ATOM     76  C   UNL A   1      33.076  24.901  22.328  1.00  0.00     0.261 C 
BRANCH  76  77
ATOM     77  O   UNL A   1      33.905  25.543  23.322  1.00  0.00    -0.463 OA
BRANCH  77  78
ATOM     78  C   UNL A   1      33.613  26.861  23.537  1.00  0.00     0.317 C 
ATOM     79  O   UNL A   1      34.038  27.749  22.794  1.00  0.00    -0.251 OA
BRANCH  78  80
ATOM     80  C   UNL A   1      32.755  27.142  24.822  1.00  0.00     0.102 C 
ATOM     81  C   UNL A   1      32.968  25.883  25.722  1.00  0.00     0.065 C 
ATOM     82  C   UNL A   1      31.261  27.200  24.423  1.00  0.00     0.012 A 
ATOM     83  C   UNL A   1      31.789  25.549  26.611  1.00  0.00     0.231 C 
ATOM     84  C   UNL A   1      30.331  26.281  24.931  1.00  0.00     0.123 A 
ATOM     85  C   UNL A   1      30.787  28.141  23.485  1.00  0.00     0.009 A 
ATOM     86  O   UNL A   1      30.616  25.310  25.849  1.00  0.00    -0.493 OA
ATOM     87  C   UNL A   1      29.007  26.261  24.476  1.00  0.00     0.047 A 
ATOM     88  C   UNL A   1      29.468  28.109  23.017  1.00  0.00     0.001 A 
ATOM     89  C   UNL A   1      28.579  27.161  23.506  1.00  0.00     0.004 A 
BRANCH  80  90
ATOM     90  C   UNL A   1      33.188  28.472  25.553  1.00  0.00     0.011 C 
ATOM     91  C   UNL A   1      32.141  29.076  26.505  1.00  0.00     0.005 C 
ATOM     92  C   UNL A   1      34.393  28.401  26.510  1.00  0.00     0.005 C 
ATOM     93  C   UNL A   1      32.878  30.177  27.244  1.00  0.00     0.000 C 
ATOM     94  C   UNL A   1      34.296  29.647  27.402  1.00  0.00     0.000 C 
ENDBRANCH  80  90
ENDBRANCH  78  80
ENDBRANCH  77  78
ENDBRANCH  76  77
ENDBRANCH  75  76
ENDBRANCH  74  75
ENDBRANCH  73  74
ENDBRANCH   1  73
TORSDOF 18
ENDMDL
