MODEL 1
REMARK VINA RESULT:      -9.0      0.000      0.000
REMARK SMILES O=C1NC(=S)/C(=C/c2ccc(-c3ccc(C(=O)OCCOCCOCCOC(=O)c4ccc(-c5c6nc(c(-c7c(F)c(F)c(F)c(F)c7F)c7ccc([nH]7)c(-c7c(F)c(F)c(F)c(F)c7F)c7nc(c(-c8c(F)c(F)c(F)c(F)c8F)c8ccc5[nH]8)C=C7)C=C6)cc4)cc3)o2)S1
REMARK SMILES IDX 22 1 21 2 20 3 19 4 18 5 16 6 17 7 15 8 12 9 13 10 94 11
REMARK SMILES IDX 14 12 93 13 11 14 8 15 9 16 95 17 10 18 7 19 1 20 2 21 3 22
REMARK SMILES IDX 96 23 4 24 6 26 5 27 23 28 24 29 25 30 26 31 27 32 28 33
REMARK SMILES IDX 29 34 30 35 31 36 92 37 32 38 91 39 33 40 34 41 35 42 85 43
REMARK SMILES IDX 36 44 90 45 84 46 86 47 37 48 89 49 83 50 82 51 38 53 70 54
REMARK SMILES IDX 50 55 69 56 51 57 54 58 68 59 87 60 52 61 53 62 67 64 88 65
REMARK SMILES IDX 55 66 39 67 40 68 48 69 41 70 42 71 46 72 49 73 43 74 44 75
REMARK SMILES IDX 47 76 45 77 71 78 72 79 80 80 73 81 74 82 78 83 81 84 75 85
REMARK SMILES IDX 76 86 79 87 77 88 56 89 57 90 65 91 58 92 59 93 63 94 66 95
REMARK SMILES IDX 60 96 61 97 64 98 62 99
REMARK H PARENT 3 25 86 52 54 63
REMARK Flexibility Score: inf
ROOT
ATOM      1  C   UNL A   1      36.365  34.208  32.050  1.00  0.00     0.188 C 
ENDROOT
BRANCH   1   2
ATOM      2  O   UNL A   1      36.715  32.840  32.118  1.00  0.00    -0.376 OA
BRANCH   2   3
ATOM      3  C   UNL A   1      36.443  32.076  33.281  1.00  0.00     0.202 C 
BRANCH   3   4
ATOM      4  C   UNL A   1      37.424  31.933  34.460  1.00  0.00     0.261 C 
BRANCH   4   5
ATOM      5  O   UNL A   1      38.242  30.758  34.473  1.00  0.00    -0.460 OA
BRANCH   5   6
ATOM      6  C   UNL A   1      39.573  30.983  34.608  1.00  0.00     0.338 C 
ATOM      7  O   UNL A   1      40.110  32.035  34.910  1.00  0.00    -0.246 OA
BRANCH   6   8
ATOM      8  C   UNL A   1      40.317  29.705  34.516  1.00  0.00     0.060 A 
ATOM      9  C   UNL A   1      41.958  27.445  34.328  1.00  0.00     0.017 A 
ATOM     10  C   UNL A   1      41.975  28.223  35.490  1.00  0.00     0.013 A 
ATOM     11  C   UNL A   1      41.031  27.742  33.314  1.00  0.00     0.013 A 
ATOM     12  C   UNL A   1      41.169  29.361  35.576  1.00  0.00     0.016 A 
ATOM     13  C   UNL A   1      40.204  28.865  33.408  1.00  0.00     0.016 A 
BRANCH   9  14
ATOM     14  C   UNL A   1      43.031  26.504  34.055  1.00  0.00     0.134 A 
ATOM     15  C   UNL A   1      44.219  24.657  34.369  1.00  0.00     0.128 A 
ATOM     16  C   UNL A   1      44.887  25.446  33.440  1.00  0.00     0.051 A 
ATOM     17  O   UNL A   1      43.060  25.321  34.731  1.00  0.00    -0.457 OA
ATOM     18  C   UNL A   1      44.135  26.618  33.244  1.00  0.00     0.051 A 
BRANCH  15  19
ATOM     19  C   UNL A   1      44.597  23.380  34.870  1.00  0.00     0.065 C 
ATOM     20  O   UNL A   1      46.225  23.539  39.645  1.00  0.00    -0.261 OA
ATOM     21  C   UNL A   1      45.923  23.263  38.500  1.00  0.00     0.289 C 
ATOM     22  N   UNL A   1      46.030  22.039  37.915  1.00  0.00    -0.307 N 
ATOM     23  S   UNL A   1      45.287  24.401  37.339  1.00  0.00    -0.025 SA
ATOM     24  C   UNL A   1      45.630  21.892  36.612  1.00  0.00     0.120 C 
ATOM     25  H   UNL A   1      46.389  21.274  38.418  1.00  0.00     0.171 HD
ATOM     26  C   UNL A   1      45.118  23.199  36.095  1.00  0.00     0.056 C 
ATOM     27  S   UNL A   1      45.791  20.421  35.845  1.00  0.00    -0.059 S 
ENDBRANCH  15  19
ENDBRANCH   9  14
ENDBRANCH   6   8
ENDBRANCH   5   6
ENDBRANCH   4   5
ENDBRANCH   3   4
ENDBRANCH   2   3
ENDBRANCH   1   2
BRANCH   1  28
ATOM     28  C   UNL A   1      34.923  34.654  32.365  1.00  0.00     0.188 C 
BRANCH  28  29
ATOM     29  O   UNL A   1      33.953  34.460  31.366  1.00  0.00    -0.376 OA
BRANCH  29  30
ATOM     30  C   UNL A   1      34.329  34.415  30.000  1.00  0.00     0.202 C 
BRANCH  30  31
ATOM     31  C   UNL A   1      34.187  33.207  29.049  1.00  0.00     0.261 C 
BRANCH  31  32
ATOM     32  O   UNL A   1      34.640  31.925  29.489  1.00  0.00    -0.460 OA
BRANCH  32  33
ATOM     33  C   UNL A   1      34.751  30.976  28.527  1.00  0.00     0.338 C 
ATOM     34  O   UNL A   1      33.995  30.772  27.595  1.00  0.00    -0.246 OA
BRANCH  33  35
ATOM     35  C   UNL A   1      36.056  30.304  28.676  1.00  0.00     0.060 A 
ATOM     36  C   UNL A   1      36.382  29.719  29.908  1.00  0.00     0.016 A 
ATOM     37  C   UNL A   1      36.965  30.285  27.618  1.00  0.00     0.016 A 
ATOM     38  C   UNL A   1      37.630  29.123  30.089  1.00  0.00     0.010 A 
ATOM     39  C   UNL A   1      38.223  29.708  27.810  1.00  0.00     0.010 A 
ATOM     40  C   UNL A   1      38.572  29.148  29.053  1.00  0.00    -0.014 A 
BRANCH  40  41
ATOM     41  C   UNL A   1      39.974  28.740  29.313  1.00  0.00     0.031 A 
ATOM     42  C   UNL A   1      40.870  29.681  30.071  1.00  0.00     0.074 A 
ATOM     43  C   UNL A   1      40.446  27.554  28.890  1.00  0.00     0.049 A 
ATOM     44  N   UNL A   1      42.145  29.578  30.347  1.00  0.00    -0.248 NA
ATOM     45  C   UNL A   1      40.238  30.908  30.583  1.00  0.00     0.031 C 
ATOM     46  C   UNL A   1      39.667  26.536  28.189  1.00  0.00     0.029 A 
ATOM     47  N   UNL A   1      41.706  27.014  28.982  1.00  0.00    -0.354 N 
ATOM     48  C   UNL A   1      42.469  30.728  31.054  1.00  0.00     0.074 A 
ATOM     49  C   UNL A   1      41.268  31.530  31.137  1.00  0.00     0.031 C 
ATOM     50  C   UNL A   1      40.471  25.497  27.901  1.00  0.00     0.029 A 
ATOM     51  C   UNL A   1      41.827  25.796  28.361  1.00  0.00     0.049 A 
ATOM     52  H   UNL A   1      42.450  27.457  29.449  1.00  0.00     0.167 HD
ATOM     53  C   UNL A   1      43.662  31.080  31.591  1.00  0.00     0.037 A 
ATOM     54  C   UNL A   1      42.915  25.025  28.163  1.00  0.00     0.037 A 
ATOM     55  C   UNL A   1      44.857  30.283  31.502  1.00  0.00     0.049 A 
ATOM     56  C   UNL A   1      44.252  25.483  28.693  1.00  0.00     0.074 A 
ATOM     57  C   UNL A   1      46.111  30.546  32.025  1.00  0.00     0.029 A 
ATOM     58  N   UNL A   1      44.950  29.071  30.834  1.00  0.00    -0.354 N 
ATOM     59  N   UNL A   1      44.550  26.559  29.381  1.00  0.00    -0.248 NA
ATOM     60  C   UNL A   1      45.406  24.613  28.420  1.00  0.00     0.031 C 
ATOM     61  C   UNL A   1      46.977  29.527  31.619  1.00  0.00     0.029 A 
ATOM     62  C   UNL A   1      46.248  28.589  30.906  1.00  0.00     0.049 A 
ATOM     63  H   UNL A   1      44.204  28.619  30.375  1.00  0.00     0.167 HD
ATOM     64  C   UNL A   1      45.911  26.478  29.653  1.00  0.00     0.074 A 
ATOM     65  C   UNL A   1      46.378  25.240  29.067  1.00  0.00     0.031 C 
ATOM     66  C   UNL A   1      46.701  27.348  30.330  1.00  0.00     0.037 A 
BRANCH  53  67
ATOM     67  C   UNL A   1      43.742  32.403  32.300  1.00  0.00     0.064 A 
ATOM     68  C   UNL A   1      43.555  32.513  33.686  1.00  0.00     0.173 A 
ATOM     69  C   UNL A   1      44.046  33.572  31.584  1.00  0.00     0.173 A 
ATOM     70  F   UNL A   1      43.250  31.430  34.415  1.00  0.00    -0.203 F 
ATOM     71  C   UNL A   1      43.642  33.748  34.325  1.00  0.00     0.198 A 
ATOM     72  C   UNL A   1      44.166  34.799  32.232  1.00  0.00     0.198 A 
ATOM     73  F   UNL A   1      44.239  33.523  30.258  1.00  0.00    -0.203 F 
ATOM     74  F   UNL A   1      43.410  33.837  35.642  1.00  0.00    -0.200 F 
ATOM     75  C   UNL A   1      43.956  34.887  33.599  1.00  0.00     0.200 A 
ATOM     76  F   UNL A   1      44.487  35.895  31.531  1.00  0.00    -0.200 F 
ATOM     77  F   UNL A   1      44.050  36.073  34.218  1.00  0.00    -0.200 F 
ENDBRANCH  53  67
BRANCH  54  78
ATOM     78  C   UNL A   1      42.798  23.742  27.418  1.00  0.00     0.064 A 
ATOM     79  C   UNL A   1      42.401  22.564  28.065  1.00  0.00     0.173 A 
ATOM     80  C   UNL A   1      43.114  23.660  26.053  1.00  0.00     0.173 A 
ATOM     81  F   UNL A   1      42.118  22.584  29.376  1.00  0.00    -0.203 F 
ATOM     82  C   UNL A   1      42.347  21.350  27.384  1.00  0.00     0.198 A 
ATOM     83  C   UNL A   1      43.027  22.452  25.365  1.00  0.00     0.198 A 
ATOM     84  F   UNL A   1      43.505  24.755  25.386  1.00  0.00    -0.203 F 
ATOM     85  F   UNL A   1      42.022  20.229  28.042  1.00  0.00    -0.200 F 
ATOM     86  C   UNL A   1      42.654  21.295  26.032  1.00  0.00     0.200 A 
ATOM     87  F   UNL A   1      43.314  22.406  24.056  1.00  0.00    -0.200 F 
ATOM     88  F   UNL A   1      42.603  20.128  25.378  1.00  0.00    -0.200 F 
ENDBRANCH  54  78
BRANCH  66  89
ATOM     89  C   UNL A   1      48.144  26.973  30.523  1.00  0.00     0.064 A 
ATOM     90  C   UNL A   1      49.147  27.388  29.635  1.00  0.00     0.173 A 
ATOM     91  C   UNL A   1      48.535  26.221  31.643  1.00  0.00     0.173 A 
ATOM     92  F   UNL A   1      48.829  28.099  28.542  1.00  0.00    -0.203 F 
ATOM     93  C   UNL A   1      50.480  27.040  29.844  1.00  0.00     0.198 A 
ATOM     94  C   UNL A   1      49.872  25.906  31.869  1.00  0.00     0.198 A 
ATOM     95  F   UNL A   1      47.620  25.804  32.532  1.00  0.00    -0.203 F 
ATOM     96  F   UNL A   1      51.412  27.403  28.953  1.00  0.00    -0.200 F 
ATOM     97  C   UNL A   1      50.842  26.308  30.964  1.00  0.00     0.200 A 
ATOM     98  F   UNL A   1      50.222  25.215  32.963  1.00  0.00    -0.200 F 
ATOM     99  F   UNL A   1      52.126  25.983  31.169  1.00  0.00    -0.200 F 
ENDBRANCH  66  89
ENDBRANCH  40  41
ENDBRANCH  33  35
ENDBRANCH  32  33
ENDBRANCH  31  32
ENDBRANCH  30  31
ENDBRANCH  29  30
ENDBRANCH  28  29
ENDBRANCH   1  28
TORSDOF 19
ENDMDL
MODEL 2
REMARK VINA RESULT:      -8.7      4.352     10.056
REMARK SMILES O=C1NC(=S)/C(=C/c2ccc(-c3ccc(C(=O)OCCOCCOCCOC(=O)c4ccc(-c5c6nc(c(-c7c(F)c(F)c(F)c(F)c7F)c7ccc([nH]7)c(-c7c(F)c(F)c(F)c(F)c7F)c7nc(c(-c8c(F)c(F)c(F)c(F)c8F)c8ccc5[nH]8)C=C7)C=C6)cc4)cc3)o2)S1
REMARK SMILES IDX 22 1 21 2 20 3 19 4 18 5 16 6 17 7 15 8 12 9 13 10 94 11
REMARK SMILES IDX 14 12 93 13 11 14 8 15 9 16 95 17 10 18 7 19 1 20 2 21 3 22
REMARK SMILES IDX 96 23 4 24 6 26 5 27 23 28 24 29 25 30 26 31 27 32 28 33
REMARK SMILES IDX 29 34 30 35 31 36 92 37 32 38 91 39 33 40 34 41 35 42 85 43
REMARK SMILES IDX 36 44 90 45 84 46 86 47 37 48 89 49 83 50 82 51 38 53 70 54
REMARK SMILES IDX 50 55 69 56 51 57 54 58 68 59 87 60 52 61 53 62 67 64 88 65
REMARK SMILES IDX 55 66 39 67 40 68 48 69 41 70 42 71 46 72 49 73 43 74 44 75
REMARK SMILES IDX 47 76 45 77 71 78 72 79 80 80 73 81 74 82 78 83 81 84 75 85
REMARK SMILES IDX 76 86 79 87 77 88 56 89 57 90 65 91 58 92 59 93 63 94 66 95
REMARK SMILES IDX 60 96 61 97 64 98 62 99
REMARK H PARENT 3 25 86 52 54 63
REMARK Flexibility Score: inf
ROOT
ATOM      1  C   UNL A   1      45.465  22.580  26.458  1.00  0.00     0.188 C 
ENDROOT
BRANCH   1   2
ATOM      2  O   UNL A   1      44.703  22.802  25.289  1.00  0.00    -0.376 OA
BRANCH   2   3
ATOM      3  C   UNL A   1      43.377  22.310  25.180  1.00  0.00     0.202 C 
BRANCH   3   4
ATOM      4  C   UNL A   1      42.734  21.350  26.198  1.00  0.00     0.261 C 
BRANCH   4   5
ATOM      5  O   UNL A   1      42.256  21.934  27.415  1.00  0.00    -0.460 OA
BRANCH   5   6
ATOM      6  C   UNL A   1      40.952  22.307  27.403  1.00  0.00     0.338 C 
ATOM      7  O   UNL A   1      39.980  21.572  27.361  1.00  0.00    -0.246 OA
BRANCH   6   8
ATOM      8  C   UNL A   1      40.838  23.766  27.635  1.00  0.00     0.060 A 
ATOM      9  C   UNL A   1      40.713  26.474  28.335  1.00  0.00     0.017 A 
ATOM     10  C   UNL A   1      41.956  25.849  28.187  1.00  0.00     0.013 A 
ATOM     11  C   UNL A   1      39.543  25.763  28.016  1.00  0.00     0.013 A 
ATOM     12  C   UNL A   1      42.016  24.493  27.855  1.00  0.00     0.016 A 
ATOM     13  C   UNL A   1      39.601  24.413  27.658  1.00  0.00     0.016 A 
BRANCH   9  14
ATOM     14  C   UNL A   1      40.605  27.743  29.034  1.00  0.00     0.134 A 
ATOM     15  C   UNL A   1      40.039  29.074  30.716  1.00  0.00     0.128 A 
ATOM     16  C   UNL A   1      40.474  29.871  29.663  1.00  0.00     0.051 A 
ATOM     17  O   UNL A   1      40.141  27.753  30.315  1.00  0.00    -0.457 OA
ATOM     18  C   UNL A   1      40.829  29.026  28.596  1.00  0.00     0.051 A 
BRANCH  15  19
ATOM     19  C   UNL A   1      39.590  29.485  32.001  1.00  0.00     0.065 C 
ATOM     20  O   UNL A   1      35.155  31.891  31.861  1.00  0.00    -0.261 OA
ATOM     21  C   UNL A   1      36.229  31.393  32.136  1.00  0.00     0.289 C 
ATOM     22  N   UNL A   1      36.806  31.359  33.367  1.00  0.00    -0.307 N 
ATOM     23  S   UNL A   1      37.285  30.612  30.985  1.00  0.00    -0.025 SA
ATOM     24  C   UNL A   1      38.023  30.743  33.511  1.00  0.00     0.120 C 
ATOM     25  H   UNL A   1      36.359  31.770  34.141  1.00  0.00     0.171 HD
ATOM     26  C   UNL A   1      38.466  30.197  32.191  1.00  0.00     0.056 C 
ATOM     27  S   UNL A   1      38.785  30.723  34.993  1.00  0.00    -0.059 S 
ENDBRANCH  15  19
ENDBRANCH   9  14
ENDBRANCH   6   8
ENDBRANCH   5   6
ENDBRANCH   4   5
ENDBRANCH   3   4
ENDBRANCH   2   3
ENDBRANCH   1   2
BRANCH   1  28
ATOM     28  C   UNL A   1      45.803  23.755  27.397  1.00  0.00     0.188 C 
BRANCH  28  29
ATOM     29  O   UNL A   1      47.160  24.094  27.546  1.00  0.00    -0.376 OA
BRANCH  29  30
ATOM     30  C   UNL A   1      47.780  24.987  26.638  1.00  0.00     0.202 C 
BRANCH  30  31
ATOM     31  C   UNL A   1      47.510  25.086  25.121  1.00  0.00     0.261 C 
BRANCH  31  32
ATOM     32  O   UNL A   1      46.376  25.827  24.668  1.00  0.00    -0.460 OA
BRANCH  32  33
ATOM     33  C   UNL A   1      46.602  27.129  24.368  1.00  0.00     0.338 C 
ATOM     34  O   UNL A   1      47.092  27.582  23.349  1.00  0.00    -0.246 OA
BRANCH  33  35
ATOM     35  C   UNL A   1      45.993  27.968  25.418  1.00  0.00     0.060 A 
ATOM     36  C   UNL A   1      46.800  28.880  26.112  1.00  0.00     0.016 A 
ATOM     37  C   UNL A   1      44.643  27.826  25.739  1.00  0.00     0.016 A 
ATOM     38  C   UNL A   1      46.258  29.647  27.144  1.00  0.00     0.010 A 
ATOM     39  C   UNL A   1      44.108  28.578  26.789  1.00  0.00     0.010 A 
ATOM     40  C   UNL A   1      44.919  29.472  27.513  1.00  0.00    -0.014 A 
BRANCH  40  41
ATOM     41  C   UNL A   1      44.403  30.097  28.756  1.00  0.00     0.031 A 
ATOM     42  C   UNL A   1      44.190  31.586  28.779  1.00  0.00     0.074 A 
ATOM     43  C   UNL A   1      44.124  29.359  29.844  1.00  0.00     0.049 A 
ATOM     44  N   UNL A   1      43.826  32.361  29.769  1.00  0.00    -0.248 NA
ATOM     45  C   UNL A   1      44.424  32.296  27.512  1.00  0.00     0.031 C 
ATOM     46  C   UNL A   1      44.243  27.906  29.933  1.00  0.00     0.029 A 
ATOM     47  N   UNL A   1      43.692  29.740  31.091  1.00  0.00    -0.354 N 
ATOM     48  C   UNL A   1      43.797  33.647  29.247  1.00  0.00     0.074 A 
ATOM     49  C   UNL A   1      44.211  33.555  27.864  1.00  0.00     0.031 C 
ATOM     50  C   UNL A   1      43.904  27.517  31.175  1.00  0.00     0.029 A 
ATOM     51  C   UNL A   1      43.586  28.698  31.978  1.00  0.00     0.049 A 
ATOM     52  H   UNL A   1      43.479  30.672  31.327  1.00  0.00     0.167 HD
ATOM     53  C   UNL A   1      43.450  34.802  29.866  1.00  0.00     0.037 A 
ATOM     54  C   UNL A   1      43.292  28.702  33.294  1.00  0.00     0.037 A 
ATOM     55  C   UNL A   1      43.044  34.891  31.244  1.00  0.00     0.049 A 
ATOM     56  C   UNL A   1      42.998  30.013  33.982  1.00  0.00     0.074 A 
ATOM     57  C   UNL A   1      42.659  36.012  31.959  1.00  0.00     0.029 A 
ATOM     58  N   UNL A   1      42.983  33.818  32.120  1.00  0.00    -0.354 N 
ATOM     59  N   UNL A   1      42.949  31.223  33.480  1.00  0.00    -0.248 NA
ATOM     60  C   UNL A   1      42.714  29.955  35.424  1.00  0.00     0.031 C 
ATOM     61  C   UNL A   1      42.428  35.628  33.283  1.00  0.00     0.029 A 
ATOM     62  C   UNL A   1      42.596  34.256  33.378  1.00  0.00     0.049 A 
ATOM     63  H   UNL A   1      43.185  32.883  31.885  1.00  0.00     0.167 HD
ATOM     64  C   UNL A   1      42.595  32.062  34.531  1.00  0.00     0.074 A 
ATOM     65  C   UNL A   1      42.428  31.220  35.696  1.00  0.00     0.031 C 
ATOM     66  C   UNL A   1      42.420  33.407  34.529  1.00  0.00     0.037 A 
BRANCH  53  67
ATOM     67  C   UNL A   1      43.524  36.069  29.063  1.00  0.00     0.064 A 
ATOM     68  C   UNL A   1      42.438  36.528  28.302  1.00  0.00     0.173 A 
ATOM     69  C   UNL A   1      44.687  36.855  29.086  1.00  0.00     0.173 A 
ATOM     70  F   UNL A   1      41.308  35.810  28.235  1.00  0.00    -0.203 F 
ATOM     71  C   UNL A   1      42.524  37.711  27.571  1.00  0.00     0.198 A 
ATOM     72  C   UNL A   1      44.756  38.055  28.382  1.00  0.00     0.198 A 
ATOM     73  F   UNL A   1      45.753  36.466  29.801  1.00  0.00    -0.203 F 
ATOM     74  F   UNL A   1      41.493  38.104  26.811  1.00  0.00    -0.200 F 
ATOM     75  C   UNL A   1      43.680  38.477  27.619  1.00  0.00     0.200 A 
ATOM     76  F   UNL A   1      45.867  38.801  28.444  1.00  0.00    -0.200 F 
ATOM     77  F   UNL A   1      43.756  39.621  26.925  1.00  0.00    -0.200 F 
ENDBRANCH  53  67
BRANCH  54  78
ATOM     78  C   UNL A   1      43.273  27.427  34.060  1.00  0.00     0.064 A 
ATOM     79  C   UNL A   1      42.062  26.812  34.409  1.00  0.00     0.173 A 
ATOM     80  C   UNL A   1      44.460  26.815  34.489  1.00  0.00     0.173 A 
ATOM     81  F   UNL A   1      40.899  27.373  34.049  1.00  0.00    -0.203 F 
ATOM     82  C   UNL A   1      42.039  25.649  35.177  1.00  0.00     0.198 A 
ATOM     83  C   UNL A   1      44.437  25.634  35.228  1.00  0.00     0.198 A 
ATOM     84  F   UNL A   1      45.646  27.364  34.189  1.00  0.00    -0.203 F 
ATOM     85  F   UNL A   1      40.866  25.117  35.546  1.00  0.00    -0.200 F 
ATOM     86  C   UNL A   1      43.227  25.057  35.581  1.00  0.00     0.200 A 
ATOM     87  F   UNL A   1      45.587  25.060  35.606  1.00  0.00    -0.200 F 
ATOM     88  F   UNL A   1      43.204  23.940  36.319  1.00  0.00    -0.200 F 
ENDBRANCH  54  78
BRANCH  66  89
ATOM     89  C   UNL A   1      41.975  34.053  35.813  1.00  0.00     0.064 A 
ATOM     90  C   UNL A   1      40.620  34.231  36.126  1.00  0.00     0.173 A 
ATOM     91  C   UNL A   1      42.925  34.459  36.764  1.00  0.00     0.173 A 
ATOM     92  F   UNL A   1      39.671  33.871  35.249  1.00  0.00    -0.203 F 
ATOM     93  C   UNL A   1      40.233  34.819  37.329  1.00  0.00     0.198 A 
ATOM     94  C   UNL A   1      42.534  35.012  37.981  1.00  0.00     0.198 A 
ATOM     95  F   UNL A   1      44.235  34.304  36.523  1.00  0.00    -0.203 F 
ATOM     96  F   UNL A   1      38.934  35.028  37.582  1.00  0.00    -0.200 F 
ATOM     97  C   UNL A   1      41.189  35.201  38.258  1.00  0.00     0.200 A 
ATOM     98  F   UNL A   1      43.459  35.363  38.885  1.00  0.00    -0.200 F 
ATOM     99  F   UNL A   1      40.814  35.757  39.418  1.00  0.00    -0.200 F 
ENDBRANCH  66  89
ENDBRANCH  40  41
ENDBRANCH  33  35
ENDBRANCH  32  33
ENDBRANCH  31  32
ENDBRANCH  30  31
ENDBRANCH  29  30
ENDBRANCH  28  29
ENDBRANCH   1  28
TORSDOF 19
ENDMDL
MODEL 3
REMARK VINA RESULT:      -8.3      4.706     10.682
REMARK SMILES O=C1NC(=S)/C(=C/c2ccc(-c3ccc(C(=O)OCCOCCOCCOC(=O)c4ccc(-c5c6nc(c(-c7c(F)c(F)c(F)c(F)c7F)c7ccc([nH]7)c(-c7c(F)c(F)c(F)c(F)c7F)c7nc(c(-c8c(F)c(F)c(F)c(F)c8F)c8ccc5[nH]8)C=C7)C=C6)cc4)cc3)o2)S1
REMARK SMILES IDX 22 1 21 2 20 3 19 4 18 5 16 6 17 7 15 8 12 9 13 10 94 11
REMARK SMILES IDX 14 12 93 13 11 14 8 15 9 16 95 17 10 18 7 19 1 20 2 21 3 22
REMARK SMILES IDX 96 23 4 24 6 26 5 27 23 28 24 29 25 30 26 31 27 32 28 33
REMARK SMILES IDX 29 34 30 35 31 36 92 37 32 38 91 39 33 40 34 41 35 42 85 43
REMARK SMILES IDX 36 44 90 45 84 46 86 47 37 48 89 49 83 50 82 51 38 53 70 54
REMARK SMILES IDX 50 55 69 56 51 57 54 58 68 59 87 60 52 61 53 62 67 64 88 65
REMARK SMILES IDX 55 66 39 67 40 68 48 69 41 70 42 71 46 72 49 73 43 74 44 75
REMARK SMILES IDX 47 76 45 77 71 78 72 79 80 80 73 81 74 82 78 83 81 84 75 85
REMARK SMILES IDX 76 86 79 87 77 88 56 89 57 90 65 91 58 92 59 93 63 94 66 95
REMARK SMILES IDX 60 96 61 97 64 98 62 99
REMARK H PARENT 3 25 86 52 54 63
REMARK Flexibility Score: inf
ROOT
ATOM      1  C   UNL A   1      34.000  33.916  33.324  1.00  0.00     0.188 C 
ENDROOT
BRANCH   1   2
ATOM      2  O   UNL A   1      32.896  34.314  32.535  1.00  0.00    -0.376 OA
BRANCH   2   3
ATOM      3  C   UNL A   1      32.526  35.679  32.438  1.00  0.00     0.202 C 
BRANCH   3   4
ATOM      4  C   UNL A   1      32.533  36.476  31.121  1.00  0.00     0.261 C 
BRANCH   4   5
ATOM      5  O   UNL A   1      33.768  36.504  30.396  1.00  0.00    -0.460 OA
BRANCH   5   6
ATOM      6  C   UNL A   1      33.659  36.275  29.063  1.00  0.00     0.338 C 
ATOM      7  O   UNL A   1      33.771  37.096  28.168  1.00  0.00    -0.246 OA
BRANCH   6   8
ATOM      8  C   UNL A   1      33.562  34.820  28.802  1.00  0.00     0.060 A 
ATOM      9  C   UNL A   1      33.620  32.093  28.171  1.00  0.00     0.017 A 
ATOM     10  C   UNL A   1      34.533  32.615  29.094  1.00  0.00     0.013 A 
ATOM     11  C   UNL A   1      32.609  32.925  27.658  1.00  0.00     0.013 A 
ATOM     12  C   UNL A   1      34.514  33.979  29.395  1.00  0.00     0.016 A 
ATOM     13  C   UNL A   1      32.571  34.285  27.977  1.00  0.00     0.016 A 
BRANCH   9  14
ATOM     14  C   UNL A   1      33.850  30.795  27.560  1.00  0.00     0.134 A 
ATOM     15  C   UNL A   1      33.265  28.792  26.808  1.00  0.00     0.128 A 
ATOM     16  C   UNL A   1      34.653  28.878  26.772  1.00  0.00     0.051 A 
ATOM     17  O   UNL A   1      32.780  29.996  27.286  1.00  0.00    -0.457 OA
ATOM     18  C   UNL A   1      35.022  30.147  27.252  1.00  0.00     0.051 A 
BRANCH  15  19
ATOM     19  C   UNL A   1      32.443  27.701  26.410  1.00  0.00     0.065 C 
ATOM     20  O   UNL A   1      30.087  28.507  22.020  1.00  0.00    -0.261 OA
ATOM     21  C   UNL A   1      30.499  28.112  23.094  1.00  0.00     0.289 C 
ATOM     22  N   UNL A   1      30.145  26.953  23.711  1.00  0.00    -0.307 N 
ATOM     23  S   UNL A   1      31.643  28.970  24.095  1.00  0.00    -0.025 SA
ATOM     24  C   UNL A   1      30.716  26.647  24.920  1.00  0.00     0.120 C 
ATOM     25  H   UNL A   1      29.491  26.345  23.298  1.00  0.00     0.171 HD
ATOM     26  C   UNL A   1      31.676  27.726  25.307  1.00  0.00     0.056 C 
ATOM     27  S   UNL A   1      30.273  25.260  25.731  1.00  0.00    -0.059 S 
ENDBRANCH  15  19
ENDBRANCH   9  14
ENDBRANCH   6   8
ENDBRANCH   5   6
ENDBRANCH   4   5
ENDBRANCH   3   4
ENDBRANCH   2   3
ENDBRANCH   1   2
BRANCH   1  28
ATOM     28  C   UNL A   1      35.135  33.078  32.701  1.00  0.00     0.188 C 
BRANCH  28  29
ATOM     29  O   UNL A   1      36.439  33.600  32.776  1.00  0.00    -0.376 OA
BRANCH  29  30
ATOM     30  C   UNL A   1      36.964  34.043  34.015  1.00  0.00     0.202 C 
BRANCH  30  31
ATOM     31  C   UNL A   1      37.420  33.151  35.189  1.00  0.00     0.261 C 
BRANCH  31  32
ATOM     32  O   UNL A   1      37.450  31.734  35.008  1.00  0.00    -0.460 OA
BRANCH  32  33
ATOM     33  C   UNL A   1      38.559  31.103  35.468  1.00  0.00     0.338 C 
ATOM     34  O   UNL A   1      38.831  30.827  36.623  1.00  0.00    -0.246 OA
BRANCH  33  35
ATOM     35  C   UNL A   1      39.344  30.627  34.314  1.00  0.00     0.060 A 
ATOM     36  C   UNL A   1      40.356  29.680  34.524  1.00  0.00     0.016 A 
ATOM     37  C   UNL A   1      39.108  31.142  33.039  1.00  0.00     0.016 A 
ATOM     38  C   UNL A   1      41.146  29.253  33.456  1.00  0.00     0.010 A 
ATOM     39  C   UNL A   1      39.916  30.731  31.976  1.00  0.00     0.010 A 
ATOM     40  C   UNL A   1      40.956  29.805  32.184  1.00  0.00    -0.014 A 
BRANCH  40  41
ATOM     41  C   UNL A   1      41.940  29.544  31.106  1.00  0.00     0.031 A 
ATOM     42  C   UNL A   1      41.731  28.353  30.211  1.00  0.00     0.074 A 
ATOM     43  C   UNL A   1      43.000  30.350  30.919  1.00  0.00     0.049 A 
ATOM     44  N   UNL A   1      42.494  27.881  29.259  1.00  0.00    -0.248 NA
ATOM     45  C   UNL A   1      40.490  27.590  30.425  1.00  0.00     0.031 C 
ATOM     46  C   UNL A   1      43.289  31.558  31.686  1.00  0.00     0.029 A 
ATOM     47  N   UNL A   1      44.040  30.259  30.025  1.00  0.00    -0.354 N 
ATOM     48  C   UNL A   1      41.833  26.763  28.768  1.00  0.00     0.074 A 
ATOM     49  C   UNL A   1      40.624  26.607  29.548  1.00  0.00     0.031 C 
ATOM     50  C   UNL A   1      44.440  32.092  31.239  1.00  0.00     0.029 A 
ATOM     51  C   UNL A   1      44.987  31.240  30.184  1.00  0.00     0.049 A 
ATOM     52  H   UNL A   1      44.100  29.558  29.336  1.00  0.00     0.167 HD
ATOM     53  C   UNL A   1      42.199  25.943  27.753  1.00  0.00     0.037 A 
ATOM     54  C   UNL A   1      46.173  31.411  29.565  1.00  0.00     0.037 A 
ATOM     55  C   UNL A   1      43.406  26.097  26.984  1.00  0.00     0.049 A 
ATOM     56  C   UNL A   1      46.601  30.431  28.501  1.00  0.00     0.074 A 
ATOM     57  C   UNL A   1      43.859  25.327  25.927  1.00  0.00     0.029 A 
ATOM     58  N   UNL A   1      44.359  27.082  27.198  1.00  0.00    -0.354 N 
ATOM     59  N   UNL A   1      45.963  29.390  28.024  1.00  0.00    -0.248 NA
ATOM     60  C   UNL A   1      47.918  30.655  27.885  1.00  0.00     0.031 C 
ATOM     61  C   UNL A   1      45.115  25.806  25.544  1.00  0.00     0.029 A 
ATOM     62  C   UNL A   1      45.413  26.921  26.311  1.00  0.00     0.049 A 
ATOM     63  H   UNL A   1      44.296  27.791  27.878  1.00  0.00     0.167 HD
ATOM     64  C   UNL A   1      46.780  28.858  27.032  1.00  0.00     0.074 A 
ATOM     65  C   UNL A   1      47.954  29.701  26.966  1.00  0.00     0.031 C 
ATOM     66  C   UNL A   1      46.573  27.774  26.245  1.00  0.00     0.037 A 
BRANCH  53  67
ATOM     67  C   UNL A   1      41.297  24.784  27.437  1.00  0.00     0.064 A 
ATOM     68  C   UNL A   1      40.144  24.936  26.651  1.00  0.00     0.173 A 
ATOM     69  C   UNL A   1      41.613  23.495  27.895  1.00  0.00     0.173 A 
ATOM     70  F   UNL A   1      39.790  26.147  26.198  1.00  0.00    -0.203 F 
ATOM     71  C   UNL A   1      39.326  23.846  26.362  1.00  0.00     0.198 A 
ATOM     72  C   UNL A   1      40.810  22.403  27.574  1.00  0.00     0.198 A 
ATOM     73  F   UNL A   1      42.706  23.292  28.646  1.00  0.00    -0.203 F 
ATOM     74  F   UNL A   1      38.203  24.024  25.653  1.00  0.00    -0.200 F 
ATOM     75  C   UNL A   1      39.665  22.580  26.816  1.00  0.00     0.200 A 
ATOM     76  F   UNL A   1      41.149  21.178  28.000  1.00  0.00    -0.200 F 
ATOM     77  F   UNL A   1      38.882  21.531  26.526  1.00  0.00    -0.200 F 
ENDBRANCH  53  67
BRANCH  54  78
ATOM     78  C   UNL A   1      47.055  32.549  29.942  1.00  0.00     0.064 A 
ATOM     79  C   UNL A   1      46.991  33.770  29.256  1.00  0.00     0.173 A 
ATOM     80  C   UNL A   1      48.002  32.429  30.970  1.00  0.00     0.173 A 
ATOM     81  F   UNL A   1      46.123  33.925  28.246  1.00  0.00    -0.203 F 
ATOM     82  C   UNL A   1      47.855  34.818  29.567  1.00  0.00     0.198 A 
ATOM     83  C   UNL A   1      48.843  33.489  31.303  1.00  0.00     0.198 A 
ATOM     84  F   UNL A   1      48.111  31.281  31.654  1.00  0.00    -0.203 F 
ATOM     85  F   UNL A   1      47.812  35.953  28.855  1.00  0.00    -0.200 F 
ATOM     86  C   UNL A   1      48.777  34.680  30.595  1.00  0.00     0.200 A 
ATOM     87  F   UNL A   1      49.725  33.354  32.303  1.00  0.00    -0.200 F 
ATOM     88  F   UNL A   1      49.608  35.686  30.892  1.00  0.00    -0.200 F 
ENDBRANCH  54  78
BRANCH  66  89
ATOM     89  C   UNL A   1      47.612  27.460  25.205  1.00  0.00     0.064 A 
ATOM     90  C   UNL A   1      48.787  26.758  25.514  1.00  0.00     0.173 A 
ATOM     91  C   UNL A   1      47.406  27.831  23.866  1.00  0.00     0.173 A 
ATOM     92  F   UNL A   1      49.040  26.389  26.779  1.00  0.00    -0.203 F 
ATOM     93  C   UNL A   1      49.728  26.466  24.529  1.00  0.00     0.198 A 
ATOM     94  C   UNL A   1      48.331  27.505  22.878  1.00  0.00     0.198 A 
ATOM     95  F   UNL A   1      46.297  28.495  23.510  1.00  0.00    -0.203 F 
ATOM     96  F   UNL A   1      50.867  25.842  24.859  1.00  0.00    -0.200 F 
ATOM     97  C   UNL A   1      49.496  26.832  23.212  1.00  0.00     0.200 A 
ATOM     98  F   UNL A   1      48.096  27.843  21.602  1.00  0.00    -0.200 F 
ATOM     99  F   UNL A   1      50.399  26.541  22.264  1.00  0.00    -0.200 F 
ENDBRANCH  66  89
ENDBRANCH  40  41
ENDBRANCH  33  35
ENDBRANCH  32  33
ENDBRANCH  31  32
ENDBRANCH  30  31
ENDBRANCH  29  30
ENDBRANCH  28  29
ENDBRANCH   1  28
TORSDOF 19
ENDMDL
