MODEL 1
REMARK VINA RESULT:     -10.7      0.000      0.000
REMARK SMILES O=C(CSc1nc2cccnc2n1CC(F)(F)F)OCCOCCOCCOC(=O)c1ccc(-c2c3nc(c(-c4c(F)c(F)c(F)c(F)c4F)c4ccc([nH]4)c(-c4c(F)c(F)c(F)c(F)c4F)c4nc(c(-c5c(F)c(F)c(F)c(F)c5F)c5ccc2[nH]5)C=C4)C=C3)cc1
REMARK SMILES IDX 23 1 22 2 21 3 20 4 19 5 2 6 1 7 3 8 4 9 5 10 6 11 13 12
REMARK SMILES IDX 7 13 12 14 8 15 11 16 9 17 10 18 14 19 15 20 16 21 17 22
REMARK SMILES IDX 18 23 24 24 25 25 26 26 27 27 28 28 29 29 30 30 31 31 32 32
REMARK SMILES IDX 93 33 33 34 92 35 34 36 35 37 36 38 86 39 37 40 91 41 85 42
REMARK SMILES IDX 87 43 38 44 90 45 84 46 83 47 39 49 71 50 51 51 70 52 52 53
REMARK SMILES IDX 55 54 69 55 88 56 53 57 54 58 68 60 89 61 56 62 40 63 41 64
REMARK SMILES IDX 49 65 42 66 43 67 47 68 50 69 44 70 45 71 48 72 46 73 72 74
REMARK SMILES IDX 73 75 81 76 74 77 75 78 79 79 82 80 76 81 77 82 80 83 78 84
REMARK SMILES IDX 57 85 58 86 66 87 59 88 60 89 64 90 67 91 61 92 62 93 65 94
REMARK SMILES IDX 63 95
REMARK H PARENT 87 48 55 59
REMARK Flexibility Score: inf
ROOT
ATOM      1  C   UNL A   1      36.222  22.012  25.849  1.00  0.00     0.188 C 
ENDROOT
BRANCH   1   2
ATOM      2  O   UNL A   1      35.760  20.754  25.377  1.00  0.00    -0.376 OA
BRANCH   2   3
ATOM      3  C   UNL A   1      34.539  20.778  24.649  1.00  0.00     0.202 C 
BRANCH   3   4
ATOM      4  C   UNL A   1      33.555  21.865  25.101  1.00  0.00     0.261 C 
BRANCH   4   5
ATOM      5  O   UNL A   1      33.080  22.713  24.037  1.00  0.00    -0.463 OA
BRANCH   5   6
ATOM      6  C   UNL A   1      33.119  24.058  24.035  1.00  0.00     0.316 C 
ATOM      7  O   UNL A   1      34.062  24.640  23.503  1.00  0.00    -0.251 OA
BRANCH   6   8
ATOM      8  C   UNL A   1      31.980  24.830  24.643  1.00  0.00     0.200 C 
BRANCH   8   9
ATOM      9  S   UNL A   1      30.707  24.989  23.398  1.00  0.00    -0.076 SA
BRANCH   9  10
ATOM     10  C   UNL A   1      30.276  26.663  23.461  1.00  0.00     0.171 A 
ATOM     11  N   UNL A   1      29.052  27.017  23.785  1.00  0.00    -0.221 NA
ATOM     12  N   UNL A   1      30.965  27.689  22.859  1.00  0.00    -0.294 N 
ATOM     13  C   UNL A   1      28.854  28.201  23.135  1.00  0.00     0.109 A 
ATOM     14  C   UNL A   1      30.028  28.637  22.539  1.00  0.00     0.160 A 
ATOM     15  C   UNL A   1      27.695  28.949  22.918  1.00  0.00     0.034 A 
ATOM     16  N   UNL A   1      30.206  29.712  21.749  1.00  0.00    -0.237 NA
ATOM     17  C   UNL A   1      27.805  30.047  22.061  1.00  0.00     0.022 A 
ATOM     18  C   UNL A   1      29.047  30.372  21.522  1.00  0.00     0.113 A 
BRANCH  12  19
ATOM     19  C   UNL A   1      32.348  27.797  22.447  1.00  0.00     0.241 C 
BRANCH  19  20
ATOM     20  C   UNL A   1      33.203  28.503  23.480  1.00  0.00     0.406 C 
ATOM     21  F   UNL A   1      34.146  29.295  22.921  1.00  0.00    -0.169 F 
ATOM     22  F   UNL A   1      32.449  29.281  24.290  1.00  0.00    -0.169 F 
ATOM     23  F   UNL A   1      33.856  27.627  24.279  1.00  0.00    -0.169 F 
ENDBRANCH  19  20
ENDBRANCH  12  19
ENDBRANCH   9  10
ENDBRANCH   8   9
ENDBRANCH   6   8
ENDBRANCH   5   6
ENDBRANCH   4   5
ENDBRANCH   3   4
ENDBRANCH   2   3
ENDBRANCH   1   2
BRANCH   1  24
ATOM     24  C   UNL A   1      37.736  22.294  25.688  1.00  0.00     0.188 C 
BRANCH  24  25
ATOM     25  O   UNL A   1      38.732  21.280  25.725  1.00  0.00    -0.376 OA
BRANCH  25  26
ATOM     26  C   UNL A   1      40.000  21.481  26.324  1.00  0.00     0.202 C 
BRANCH  26  27
ATOM     27  C   UNL A   1      40.937  20.284  26.481  1.00  0.00     0.261 C 
BRANCH  27  28
ATOM     28  O   UNL A   1      42.269  20.660  26.813  1.00  0.00    -0.460 OA
BRANCH  28  29
ATOM     29  C   UNL A   1      43.113  20.680  25.761  1.00  0.00     0.338 C 
ATOM     30  O   UNL A   1      43.386  19.759  25.012  1.00  0.00    -0.246 OA
BRANCH  29  31
ATOM     31  C   UNL A   1      43.687  22.028  25.616  1.00  0.00     0.060 A 
ATOM     32  C   UNL A   1      44.821  22.318  26.383  1.00  0.00     0.016 A 
ATOM     33  C   UNL A   1      43.012  23.024  24.898  1.00  0.00     0.016 A 
ATOM     34  C   UNL A   1      45.123  23.637  26.646  1.00  0.00     0.010 A 
ATOM     35  C   UNL A   1      43.305  24.345  25.168  1.00  0.00     0.010 A 
ATOM     36  C   UNL A   1      44.270  24.622  26.142  1.00  0.00    -0.014 A 
BRANCH  36  37
ATOM     37  C   UNL A   1      44.140  25.831  26.941  1.00  0.00     0.031 A 
ATOM     38  C   UNL A   1      45.114  26.925  26.766  1.00  0.00     0.074 A 
ATOM     39  C   UNL A   1      43.046  25.971  27.719  1.00  0.00     0.049 A 
ATOM     40  N   UNL A   1      45.805  27.527  27.680  1.00  0.00    -0.248 NA
ATOM     41  C   UNL A   1      45.345  27.421  25.402  1.00  0.00     0.031 C 
ATOM     42  C   UNL A   1      41.851  25.113  27.736  1.00  0.00     0.029 A 
ATOM     43  N   UNL A   1      42.714  26.980  28.573  1.00  0.00    -0.354 N 
ATOM     44  C   UNL A   1      46.450  28.575  27.035  1.00  0.00     0.074 A 
ATOM     45  C   UNL A   1      46.203  28.416  25.624  1.00  0.00     0.031 C 
ATOM     46  C   UNL A   1      40.857  25.750  28.388  1.00  0.00     0.029 A 
ATOM     47  C   UNL A   1      41.373  26.997  28.923  1.00  0.00     0.049 A 
ATOM     48  H   UNL A   1      43.366  27.635  28.909  1.00  0.00     0.167 HD
ATOM     49  C   UNL A   1      46.995  29.624  27.705  1.00  0.00     0.037 A 
ATOM     50  C   UNL A   1      40.709  28.008  29.527  1.00  0.00     0.037 A 
ATOM     51  C   UNL A   1      47.223  29.353  29.094  1.00  0.00     0.049 A 
ATOM     52  C   UNL A   1      41.712  28.895  30.164  1.00  0.00     0.074 A 
ATOM     53  C   UNL A   1      47.988  28.434  29.786  1.00  0.00     0.029 A 
ATOM     54  N   UNL A   1      46.379  29.905  30.023  1.00  0.00    -0.354 N 
ATOM     55  N   UNL A   1      42.423  28.586  31.212  1.00  0.00    -0.248 NA
ATOM     56  C   UNL A   1      42.190  30.040  29.402  1.00  0.00     0.031 C 
ATOM     57  C   UNL A   1      47.261  28.157  30.979  1.00  0.00     0.029 A 
ATOM     58  C   UNL A   1      46.096  28.923  30.938  1.00  0.00     0.049 A 
ATOM     59  H   UNL A   1      46.041  30.830  30.032  1.00  0.00     0.167 HD
ATOM     60  C   UNL A   1      43.636  29.230  31.018  1.00  0.00     0.074 A 
ATOM     61  C   UNL A   1      43.388  30.202  29.962  1.00  0.00     0.031 C 
ATOM     62  C   UNL A   1      44.793  28.722  31.530  1.00  0.00     0.037 A 
BRANCH  49  63
ATOM     63  C   UNL A   1      47.066  30.997  27.116  1.00  0.00     0.064 A 
ATOM     64  C   UNL A   1      48.282  31.693  27.055  1.00  0.00     0.173 A 
ATOM     65  C   UNL A   1      45.904  31.738  26.812  1.00  0.00     0.173 A 
ATOM     66  F   UNL A   1      49.430  31.086  27.391  1.00  0.00    -0.203 F 
ATOM     67  C   UNL A   1      48.332  33.042  26.700  1.00  0.00     0.198 A 
ATOM     68  C   UNL A   1      45.960  33.069  26.410  1.00  0.00     0.198 A 
ATOM     69  F   UNL A   1      44.680  31.214  26.981  1.00  0.00    -0.203 F 
ATOM     70  F   UNL A   1      49.501  33.695  26.723  1.00  0.00    -0.200 F 
ATOM     71  C   UNL A   1      47.173  33.725  26.368  1.00  0.00     0.200 A 
ATOM     72  F   UNL A   1      44.825  33.720  26.118  1.00  0.00    -0.200 F 
ATOM     73  F   UNL A   1      47.218  35.026  26.049  1.00  0.00    -0.200 F 
ENDBRANCH  49  63
BRANCH  50  74
ATOM     74  C   UNL A   1      39.293  28.402  29.345  1.00  0.00     0.064 A 
ATOM     75  C   UNL A   1      38.424  28.491  30.444  1.00  0.00     0.173 A 
ATOM     76  C   UNL A   1      38.822  28.940  28.130  1.00  0.00     0.173 A 
ATOM     77  F   UNL A   1      38.812  28.049  31.649  1.00  0.00    -0.203 F 
ATOM     78  C   UNL A   1      37.168  29.097  30.337  1.00  0.00     0.198 A 
ATOM     79  C   UNL A   1      37.562  29.527  28.020  1.00  0.00     0.198 A 
ATOM     80  F   UNL A   1      39.608  28.997  27.046  1.00  0.00    -0.203 F 
ATOM     81  F   UNL A   1      36.394  29.223  31.423  1.00  0.00    -0.200 F 
ATOM     82  C   UNL A   1      36.741  29.618  29.127  1.00  0.00     0.200 A 
ATOM     83  F   UNL A   1      37.176  30.056  26.850  1.00  0.00    -0.200 F 
ATOM     84  F   UNL A   1      35.559  30.244  29.036  1.00  0.00    -0.200 F 
ENDBRANCH  50  74
BRANCH  62  85
ATOM     85  C   UNL A   1      44.681  27.650  32.574  1.00  0.00     0.064 A 
ATOM     86  C   UNL A   1      44.550  27.919  33.947  1.00  0.00     0.173 A 
ATOM     87  C   UNL A   1      44.556  26.317  32.160  1.00  0.00     0.173 A 
ATOM     88  F   UNL A   1      44.554  29.179  34.404  1.00  0.00    -0.203 F 
ATOM     89  C   UNL A   1      44.353  26.891  34.867  1.00  0.00     0.198 A 
ATOM     90  C   UNL A   1      44.323  25.296  33.077  1.00  0.00     0.198 A 
ATOM     91  F   UNL A   1      44.609  26.011  30.853  1.00  0.00    -0.203 F 
ATOM     92  F   UNL A   1      44.242  27.172  36.174  1.00  0.00    -0.200 F 
ATOM     93  C   UNL A   1      44.234  25.582  34.430  1.00  0.00     0.200 A 
ATOM     94  F   UNL A   1      44.158  24.037  32.647  1.00  0.00    -0.200 F 
ATOM     95  F   UNL A   1      44.002  24.598  35.311  1.00  0.00    -0.200 F 
ENDBRANCH  62  85
ENDBRANCH  36  37
ENDBRANCH  29  31
ENDBRANCH  28  29
ENDBRANCH  27  28
ENDBRANCH  26  27
ENDBRANCH  25  26
ENDBRANCH  24  25
ENDBRANCH   1  24
TORSDOF 21
ENDMDL
MODEL 2
REMARK VINA RESULT:     -10.6      3.633      8.178
REMARK SMILES O=C(CSc1nc2cccnc2n1CC(F)(F)F)OCCOCCOCCOC(=O)c1ccc(-c2c3nc(c(-c4c(F)c(F)c(F)c(F)c4F)c4ccc([nH]4)c(-c4c(F)c(F)c(F)c(F)c4F)c4nc(c(-c5c(F)c(F)c(F)c(F)c5F)c5ccc2[nH]5)C=C4)C=C3)cc1
REMARK SMILES IDX 23 1 22 2 21 3 20 4 19 5 2 6 1 7 3 8 4 9 5 10 6 11 13 12
REMARK SMILES IDX 7 13 12 14 8 15 11 16 9 17 10 18 14 19 15 20 16 21 17 22
REMARK SMILES IDX 18 23 24 24 25 25 26 26 27 27 28 28 29 29 30 30 31 31 32 32
REMARK SMILES IDX 93 33 33 34 92 35 34 36 35 37 36 38 86 39 37 40 91 41 85 42
REMARK SMILES IDX 87 43 38 44 90 45 84 46 83 47 39 49 71 50 51 51 70 52 52 53
REMARK SMILES IDX 55 54 69 55 88 56 53 57 54 58 68 60 89 61 56 62 40 63 41 64
REMARK SMILES IDX 49 65 42 66 43 67 47 68 50 69 44 70 45 71 48 72 46 73 72 74
REMARK SMILES IDX 73 75 81 76 74 77 75 78 79 79 82 80 76 81 77 82 80 83 78 84
REMARK SMILES IDX 57 85 58 86 66 87 59 88 60 89 64 90 67 91 61 92 62 93 65 94
REMARK SMILES IDX 63 95
REMARK H PARENT 87 48 55 59
REMARK Flexibility Score: inf
ROOT
ATOM      1  C   UNL A   1      42.707  19.169  26.147  1.00  0.00     0.188 C 
ENDROOT
BRANCH   1   2
ATOM      2  O   UNL A   1      41.381  19.212  25.639  1.00  0.00    -0.376 OA
BRANCH   2   3
ATOM      3  C   UNL A   1      40.525  20.183  26.227  1.00  0.00     0.202 C 
BRANCH   3   4
ATOM      4  C   UNL A   1      39.070  20.119  25.744  1.00  0.00     0.261 C 
BRANCH   4   5
ATOM      5  O   UNL A   1      38.470  21.406  25.504  1.00  0.00    -0.463 OA
BRANCH   5   6
ATOM      6  C   UNL A   1      37.161  21.627  25.279  1.00  0.00     0.316 C 
ATOM      7  O   UNL A   1      36.448  20.710  24.874  1.00  0.00    -0.251 OA
BRANCH   6   8
ATOM      8  C   UNL A   1      36.581  22.982  25.573  1.00  0.00     0.200 C 
BRANCH   8   9
ATOM      9  S   UNL A   1      35.113  22.740  26.566  1.00  0.00    -0.076 SA
BRANCH   9  10
ATOM     10  C   UNL A   1      34.024  23.955  25.993  1.00  0.00     0.171 A 
ATOM     11  N   UNL A   1      34.492  25.037  25.408  1.00  0.00    -0.221 NA
ATOM     12  N   UNL A   1      32.718  24.112  26.393  1.00  0.00    -0.294 N 
ATOM     13  C   UNL A   1      33.564  26.002  25.681  1.00  0.00     0.109 A 
ATOM     14  C   UNL A   1      32.453  25.455  26.305  1.00  0.00     0.160 A 
ATOM     15  C   UNL A   1      33.603  27.387  25.515  1.00  0.00     0.034 A 
ATOM     16  N   UNL A   1      31.378  26.098  26.795  1.00  0.00    -0.237 NA
ATOM     17  C   UNL A   1      32.539  28.116  26.052  1.00  0.00     0.022 A 
ATOM     18  C   UNL A   1      31.486  27.440  26.663  1.00  0.00     0.113 A 
BRANCH  12  19
ATOM     19  C   UNL A   1      31.775  23.172  26.961  1.00  0.00     0.241 C 
BRANCH  19  20
ATOM     20  C   UNL A   1      30.955  22.467  25.901  1.00  0.00     0.406 C 
ATOM     21  F   UNL A   1      29.712  22.150  26.330  1.00  0.00    -0.169 F 
ATOM     22  F   UNL A   1      30.817  23.238  24.797  1.00  0.00    -0.169 F 
ATOM     23  F   UNL A   1      31.534  21.312  25.500  1.00  0.00    -0.169 F 
ENDBRANCH  19  20
ENDBRANCH  12  19
ENDBRANCH   9  10
ENDBRANCH   8   9
ENDBRANCH   6   8
ENDBRANCH   5   6
ENDBRANCH   4   5
ENDBRANCH   3   4
ENDBRANCH   2   3
ENDBRANCH   1   2
BRANCH   1  24
ATOM     24  C   UNL A   1      43.797  19.856  25.289  1.00  0.00     0.188 C 
BRANCH  24  25
ATOM     25  O   UNL A   1      44.138  21.232  25.408  1.00  0.00    -0.376 OA
BRANCH  25  26
ATOM     26  C   UNL A   1      43.199  22.269  25.186  1.00  0.00     0.202 C 
BRANCH  26  27
ATOM     27  C   UNL A   1      42.944  23.281  26.302  1.00  0.00     0.261 C 
BRANCH  27  28
ATOM     28  O   UNL A   1      41.869  24.168  26.015  1.00  0.00    -0.460 OA
BRANCH  28  29
ATOM     29  C   UNL A   1      42.260  25.396  25.614  1.00  0.00     0.338 C 
ATOM     30  O   UNL A   1      43.240  25.681  24.949  1.00  0.00    -0.246 OA
BRANCH  29  31
ATOM     31  C   UNL A   1      41.299  26.400  26.097  1.00  0.00     0.060 A 
ATOM     32  C   UNL A   1      41.572  27.737  25.788  1.00  0.00     0.016 A 
ATOM     33  C   UNL A   1      40.275  26.047  26.987  1.00  0.00     0.016 A 
ATOM     34  C   UNL A   1      41.006  28.726  26.563  1.00  0.00     0.010 A 
ATOM     35  C   UNL A   1      39.714  27.033  27.771  1.00  0.00     0.010 A 
ATOM     36  C   UNL A   1      40.191  28.341  27.632  1.00  0.00    -0.014 A 
BRANCH  36  37
ATOM     37  C   UNL A   1      40.195  29.219  28.792  1.00  0.00     0.031 A 
ATOM     38  C   UNL A   1      39.093  30.181  28.977  1.00  0.00     0.074 A 
ATOM     39  C   UNL A   1      41.138  29.027  29.739  1.00  0.00     0.049 A 
ATOM     40  N   UNL A   1      39.177  31.455  29.192  1.00  0.00    -0.248 NA
ATOM     41  C   UNL A   1      37.719  29.663  28.925  1.00  0.00     0.031 C 
ATOM     42  C   UNL A   1      42.084  27.906  29.837  1.00  0.00     0.029 A 
ATOM     43  N   UNL A   1      41.370  29.727  30.885  1.00  0.00    -0.354 N 
ATOM     44  C   UNL A   1      37.881  31.881  29.450  1.00  0.00     0.074 A 
ATOM     45  C   UNL A   1      37.011  30.760  29.190  1.00  0.00     0.031 C 
ATOM     46  C   UNL A   1      42.628  27.890  31.070  1.00  0.00     0.029 A 
ATOM     47  C   UNL A   1      42.157  29.051  31.803  1.00  0.00     0.049 A 
ATOM     48  H   UNL A   1      41.010  30.630  31.044  1.00  0.00     0.167 HD
ATOM     49  C   UNL A   1      37.604  33.071  30.043  1.00  0.00     0.037 A 
ATOM     50  C   UNL A   1      42.334  29.371  33.105  1.00  0.00     0.037 A 
ATOM     51  C   UNL A   1      38.693  34.001  29.984  1.00  0.00     0.049 A 
ATOM     52  C   UNL A   1      41.935  30.787  33.284  1.00  0.00     0.074 A 
ATOM     53  C   UNL A   1      39.394  34.605  28.959  1.00  0.00     0.029 A 
ATOM     54  N   UNL A   1      39.429  34.230  31.119  1.00  0.00    -0.354 N 
ATOM     55  N   UNL A   1      42.598  31.813  32.827  1.00  0.00    -0.248 NA
ATOM     56  C   UNL A   1      40.566  31.063  33.694  1.00  0.00     0.031 C 
ATOM     57  C   UNL A   1      40.722  34.764  29.449  1.00  0.00     0.029 A 
ATOM     58  C   UNL A   1      40.748  34.244  30.742  1.00  0.00     0.049 A 
ATOM     59  H   UNL A   1      39.078  34.360  32.029  1.00  0.00     0.167 HD
ATOM     60  C   UNL A   1      41.626  32.752  32.519  1.00  0.00     0.074 A 
ATOM     61  C   UNL A   1      40.419  32.288  33.189  1.00  0.00     0.031 C 
ATOM     62  C   UNL A   1      41.817  33.664  31.523  1.00  0.00     0.037 A 
BRANCH  49  63
ATOM     63  C   UNL A   1      36.404  33.269  30.914  1.00  0.00     0.064 A 
ATOM     64  C   UNL A   1      35.299  34.005  30.462  1.00  0.00     0.173 A 
ATOM     65  C   UNL A   1      36.415  32.933  32.285  1.00  0.00     0.173 A 
ATOM     66  F   UNL A   1      35.236  34.424  29.189  1.00  0.00    -0.203 F 
ATOM     67  C   UNL A   1      34.266  34.371  31.326  1.00  0.00     0.198 A 
ATOM     68  C   UNL A   1      35.361  33.255  33.133  1.00  0.00     0.198 A 
ATOM     69  F   UNL A   1      37.488  32.361  32.852  1.00  0.00    -0.203 F 
ATOM     70  F   UNL A   1      33.262  35.137  30.879  1.00  0.00    -0.200 F 
ATOM     71  C   UNL A   1      34.292  33.986  32.657  1.00  0.00     0.200 A 
ATOM     72  F   UNL A   1      35.417  32.897  34.424  1.00  0.00    -0.200 F 
ATOM     73  F   UNL A   1      33.311  34.357  33.492  1.00  0.00    -0.200 F 
ENDBRANCH  49  63
BRANCH  50  74
ATOM     74  C   UNL A   1      42.553  28.451  34.245  1.00  0.00     0.064 A 
ATOM     75  C   UNL A   1      43.524  28.730  35.220  1.00  0.00     0.173 A 
ATOM     76  C   UNL A   1      41.652  27.408  34.542  1.00  0.00     0.173 A 
ATOM     77  F   UNL A   1      44.388  29.739  35.039  1.00  0.00    -0.203 F 
ATOM     78  C   UNL A   1      43.578  28.022  36.424  1.00  0.00     0.198 A 
ATOM     79  C   UNL A   1      41.719  26.689  35.735  1.00  0.00     0.198 A 
ATOM     80  F   UNL A   1      40.626  27.125  33.726  1.00  0.00    -0.203 F 
ATOM     81  F   UNL A   1      44.477  28.363  37.358  1.00  0.00    -0.200 F 
ATOM     82  C   UNL A   1      42.673  27.006  36.682  1.00  0.00     0.200 A 
ATOM     83  F   UNL A   1      40.815  25.731  35.985  1.00  0.00    -0.200 F 
ATOM     84  F   UNL A   1      42.693  26.362  37.857  1.00  0.00    -0.200 F 
ENDBRANCH  50  74
BRANCH  62  85
ATOM     85  C   UNL A   1      43.212  33.841  31.000  1.00  0.00     0.064 A 
ATOM     86  C   UNL A   1      43.761  33.045  29.980  1.00  0.00     0.173 A 
ATOM     87  C   UNL A   1      43.963  34.939  31.440  1.00  0.00     0.173 A 
ATOM     88  F   UNL A   1      43.057  32.042  29.436  1.00  0.00    -0.203 F 
ATOM     89  C   UNL A   1      45.027  33.310  29.462  1.00  0.00     0.198 A 
ATOM     90  C   UNL A   1      45.212  35.222  30.896  1.00  0.00     0.198 A 
ATOM     91  F   UNL A   1      43.459  35.769  32.368  1.00  0.00    -0.203 F 
ATOM     92  F   UNL A   1      45.535  32.530  28.497  1.00  0.00    -0.200 F 
ATOM     93  C   UNL A   1      45.749  34.402  29.917  1.00  0.00     0.200 A 
ATOM     94  F   UNL A   1      45.887  36.307  31.303  1.00  0.00    -0.200 F 
ATOM     95  F   UNL A   1      46.949  34.682  29.389  1.00  0.00    -0.200 F 
ENDBRANCH  62  85
ENDBRANCH  36  37
ENDBRANCH  29  31
ENDBRANCH  28  29
ENDBRANCH  27  28
ENDBRANCH  26  27
ENDBRANCH  25  26
ENDBRANCH  24  25
ENDBRANCH   1  24
TORSDOF 21
ENDMDL
MODEL 3
REMARK VINA RESULT:     -10.4      3.554      8.032
REMARK SMILES O=C(CSc1nc2cccnc2n1CC(F)(F)F)OCCOCCOCCOC(=O)c1ccc(-c2c3nc(c(-c4c(F)c(F)c(F)c(F)c4F)c4ccc([nH]4)c(-c4c(F)c(F)c(F)c(F)c4F)c4nc(c(-c5c(F)c(F)c(F)c(F)c5F)c5ccc2[nH]5)C=C4)C=C3)cc1
REMARK SMILES IDX 23 1 22 2 21 3 20 4 19 5 2 6 1 7 3 8 4 9 5 10 6 11 13 12
REMARK SMILES IDX 7 13 12 14 8 15 11 16 9 17 10 18 14 19 15 20 16 21 17 22
REMARK SMILES IDX 18 23 24 24 25 25 26 26 27 27 28 28 29 29 30 30 31 31 32 32
REMARK SMILES IDX 93 33 33 34 92 35 34 36 35 37 36 38 86 39 37 40 91 41 85 42
REMARK SMILES IDX 87 43 38 44 90 45 84 46 83 47 39 49 71 50 51 51 70 52 52 53
REMARK SMILES IDX 55 54 69 55 88 56 53 57 54 58 68 60 89 61 56 62 40 63 41 64
REMARK SMILES IDX 49 65 42 66 43 67 47 68 50 69 44 70 45 71 48 72 46 73 72 74
REMARK SMILES IDX 73 75 81 76 74 77 75 78 79 79 82 80 76 81 77 82 80 83 78 84
REMARK SMILES IDX 57 85 58 86 66 87 59 88 60 89 64 90 67 91 61 92 62 93 65 94
REMARK SMILES IDX 63 95
REMARK H PARENT 87 48 55 59
REMARK Flexibility Score: inf
ROOT
ATOM      1  C   UNL A   1      33.701  29.696  26.234  1.00  0.00     0.188 C 
ENDROOT
BRANCH   1   2
ATOM      2  O   UNL A   1      32.425  30.040  25.711  1.00  0.00    -0.376 OA
BRANCH   2   3
ATOM      3  C   UNL A   1      31.851  29.097  24.815  1.00  0.00     0.202 C 
BRANCH   3   4
ATOM      4  C   UNL A   1      32.628  28.916  23.505  1.00  0.00     0.261 C 
BRANCH   4   5
ATOM      5  O   UNL A   1      32.490  27.612  22.910  1.00  0.00    -0.463 OA
BRANCH   5   6
ATOM      6  C   UNL A   1      31.324  27.022  22.587  1.00  0.00     0.316 C 
ATOM      7  O   UNL A   1      30.439  27.678  22.039  1.00  0.00    -0.251 OA
BRANCH   6   8
ATOM      8  C   UNL A   1      31.139  25.555  22.859  1.00  0.00     0.200 C 
BRANCH   8   9
ATOM      9  S   UNL A   1      32.389  24.670  21.933  1.00  0.00    -0.076 SA
BRANCH   9  10
ATOM     10  C   UNL A   1      33.529  24.186  23.140  1.00  0.00     0.171 A 
ATOM     11  N   UNL A   1      34.819  24.246  22.889  1.00  0.00    -0.221 NA
ATOM     12  N   UNL A   1      33.254  23.394  24.229  1.00  0.00    -0.294 N 
ATOM     13  C   UNL A   1      35.364  23.256  23.657  1.00  0.00     0.109 A 
ATOM     14  C   UNL A   1      34.407  22.701  24.494  1.00  0.00     0.160 A 
ATOM     15  C   UNL A   1      36.641  22.694  23.663  1.00  0.00     0.034 A 
ATOM     16  N   UNL A   1      34.545  21.656  25.330  1.00  0.00    -0.237 NA
ATOM     17  C   UNL A   1      36.832  21.571  24.472  1.00  0.00     0.022 A 
ATOM     18  C   UNL A   1      35.781  21.109  25.260  1.00  0.00     0.113 A 
BRANCH  12  19
ATOM     19  C   UNL A   1      32.015  23.135  24.930  1.00  0.00     0.241 C 
BRANCH  19  20
ATOM     20  C   UNL A   1      31.890  23.952  26.200  1.00  0.00     0.406 C 
ATOM     21  F   UNL A   1      31.446  23.220  27.248  1.00  0.00    -0.169 F 
ATOM     22  F   UNL A   1      33.081  24.486  26.557  1.00  0.00    -0.169 F 
ATOM     23  F   UNL A   1      31.028  24.984  26.053  1.00  0.00    -0.169 F 
ENDBRANCH  19  20
ENDBRANCH  12  19
ENDBRANCH   9  10
ENDBRANCH   8   9
ENDBRANCH   6   8
ENDBRANCH   5   6
ENDBRANCH   4   5
ENDBRANCH   3   4
ENDBRANCH   2   3
ENDBRANCH   1   2
BRANCH   1  24
ATOM     24  C   UNL A   1      34.088  30.341  27.588  1.00  0.00     0.188 C 
BRANCH  24  25
ATOM     25  O   UNL A   1      34.708  31.616  27.701  1.00  0.00    -0.376 OA
BRANCH  25  26
ATOM     26  C   UNL A   1      34.462  32.486  28.792  1.00  0.00     0.202 C 
BRANCH  26  27
ATOM     27  C   UNL A   1      35.495  32.566  29.915  1.00  0.00     0.261 C 
BRANCH  27  28
ATOM     28  O   UNL A   1      36.537  31.606  29.782  1.00  0.00    -0.460 OA
BRANCH  28  29
ATOM     29  C   UNL A   1      36.502  30.623  30.706  1.00  0.00     0.338 C 
ATOM     30  O   UNL A   1      36.006  30.668  31.817  1.00  0.00    -0.246 OA
BRANCH  29  31
ATOM     31  C   UNL A   1      37.162  29.421  30.170  1.00  0.00     0.060 A 
ATOM     32  C   UNL A   1      37.723  28.540  31.100  1.00  0.00     0.016 A 
ATOM     33  C   UNL A   1      37.385  29.276  28.793  1.00  0.00     0.016 A 
ATOM     34  C   UNL A   1      38.715  27.680  30.683  1.00  0.00     0.010 A 
ATOM     35  C   UNL A   1      38.385  28.423  28.374  1.00  0.00     0.010 A 
ATOM     36  C   UNL A   1      39.121  27.739  29.347  1.00  0.00    -0.014 A 
BRANCH  36  37
ATOM     37  C   UNL A   1      40.518  27.425  29.085  1.00  0.00     0.031 A 
ATOM     38  C   UNL A   1      40.873  26.104  28.532  1.00  0.00     0.074 A 
ATOM     39  C   UNL A   1      41.434  28.407  29.223  1.00  0.00     0.049 A 
ATOM     40  N   UNL A   1      41.749  25.264  28.983  1.00  0.00    -0.248 NA
ATOM     41  C   UNL A   1      40.173  25.661  27.319  1.00  0.00     0.031 C 
ATOM     42  C   UNL A   1      41.175  29.838  29.447  1.00  0.00     0.029 A 
ATOM     43  N   UNL A   1      42.786  28.358  29.071  1.00  0.00    -0.354 N 
ATOM     44  C   UNL A   1      41.822  24.252  28.035  1.00  0.00     0.074 A 
ATOM     45  C   UNL A   1      40.774  24.498  27.076  1.00  0.00     0.031 C 
ATOM     46  C   UNL A   1      42.303  30.536  29.203  1.00  0.00     0.029 A 
ATOM     47  C   UNL A   1      43.377  29.603  28.918  1.00  0.00     0.049 A 
ATOM     48  H   UNL A   1      43.296  27.516  29.070  1.00  0.00     0.167 HD
ATOM     49  C   UNL A   1      42.854  23.371  27.981  1.00  0.00     0.037 A 
ATOM     50  C   UNL A   1      44.636  29.851  28.493  1.00  0.00     0.037 A 
ATOM     51  C   UNL A   1      43.607  23.303  29.199  1.00  0.00     0.049 A 
ATOM     52  C   UNL A   1      45.426  28.607  28.653  1.00  0.00     0.074 A 
ATOM     53  C   UNL A   1      43.306  22.965  30.504  1.00  0.00     0.029 A 
ATOM     54  N   UNL A   1      44.839  23.903  29.249  1.00  0.00    -0.354 N 
ATOM     55  N   UNL A   1      45.793  28.097  29.796  1.00  0.00    -0.248 NA
ATOM     56  C   UNL A   1      45.519  27.708  27.512  1.00  0.00     0.031 C 
ATOM     57  C   UNL A   1      44.151  23.779  31.312  1.00  0.00     0.029 A 
ATOM     58  C   UNL A   1      44.913  24.565  30.448  1.00  0.00     0.049 A 
ATOM     59  H   UNL A   1      45.538  23.865  28.556  1.00  0.00     0.167 HD
ATOM     60  C   UNL A   1      45.779  26.726  29.592  1.00  0.00     0.074 A 
ATOM     61  C   UNL A   1      45.730  26.555  28.147  1.00  0.00     0.031 C 
ATOM     62  C   UNL A   1      45.524  25.864  30.617  1.00  0.00     0.037 A 
BRANCH  49  63
ATOM     63  C   UNL A   1      43.322  22.766  26.695  1.00  0.00     0.064 A 
ATOM     64  C   UNL A   1      43.138  21.401  26.432  1.00  0.00     0.173 A 
ATOM     65  C   UNL A   1      44.158  23.470  25.802  1.00  0.00     0.173 A 
ATOM     66  F   UNL A   1      42.412  20.640  27.264  1.00  0.00    -0.203 F 
ATOM     67  C   UNL A   1      43.744  20.783  25.337  1.00  0.00     0.198 A 
ATOM     68  C   UNL A   1      44.721  22.864  24.684  1.00  0.00     0.198 A 
ATOM     69  F   UNL A   1      44.519  24.740  26.042  1.00  0.00    -0.203 F 
ATOM     70  F   UNL A   1      43.608  19.463  25.156  1.00  0.00    -0.200 F 
ATOM     71  C   UNL A   1      44.526  21.517  24.458  1.00  0.00     0.200 A 
ATOM     72  F   UNL A   1      45.495  23.585  23.860  1.00  0.00    -0.200 F 
ATOM     73  F   UNL A   1      45.126  20.919  23.420  1.00  0.00    -0.200 F 
ENDBRANCH  49  63
BRANCH  50  74
ATOM     74  C   UNL A   1      45.116  31.006  27.698  1.00  0.00     0.064 A 
ATOM     75  C   UNL A   1      44.384  31.475  26.596  1.00  0.00     0.173 A 
ATOM     76  C   UNL A   1      46.168  31.830  28.147  1.00  0.00     0.173 A 
ATOM     77  F   UNL A   1      43.335  30.777  26.137  1.00  0.00    -0.203 F 
ATOM     78  C   UNL A   1      44.677  32.702  25.992  1.00  0.00     0.198 A 
ATOM     79  C   UNL A   1      46.472  33.044  27.531  1.00  0.00     0.198 A 
ATOM     80  F   UNL A   1      46.866  31.525  29.250  1.00  0.00    -0.203 F 
ATOM     81  F   UNL A   1      43.913  33.147  24.984  1.00  0.00    -0.200 F 
ATOM     82  C   UNL A   1      45.716  33.487  26.462  1.00  0.00     0.200 A 
ATOM     83  F   UNL A   1      47.460  33.808  28.019  1.00  0.00    -0.200 F 
ATOM     84  F   UNL A   1      45.964  34.685  25.916  1.00  0.00    -0.200 F 
ENDBRANCH  50  74
BRANCH  62  85
ATOM     85  C   UNL A   1      45.588  26.405  32.015  1.00  0.00     0.064 A 
ATOM     86  C   UNL A   1      44.500  27.023  32.655  1.00  0.00     0.173 A 
ATOM     87  C   UNL A   1      46.737  26.163  32.779  1.00  0.00     0.173 A 
ATOM     88  F   UNL A   1      43.333  27.192  32.018  1.00  0.00    -0.203 F 
ATOM     89  C   UNL A   1      44.581  27.425  33.987  1.00  0.00     0.198 A 
ATOM     90  C   UNL A   1      46.802  26.533  34.120  1.00  0.00     0.198 A 
ATOM     91  F   UNL A   1      47.783  25.520  32.235  1.00  0.00    -0.203 F 
ATOM     92  F   UNL A   1      43.533  28.022  34.574  1.00  0.00    -0.200 F 
ATOM     93  C   UNL A   1      45.729  27.173  34.719  1.00  0.00     0.200 A 
ATOM     94  F   UNL A   1      47.896  26.244  34.839  1.00  0.00    -0.200 F 
ATOM     95  F   UNL A   1      45.793  27.521  36.013  1.00  0.00    -0.200 F 
ENDBRANCH  62  85
ENDBRANCH  36  37
ENDBRANCH  29  31
ENDBRANCH  28  29
ENDBRANCH  27  28
ENDBRANCH  26  27
ENDBRANCH  25  26
ENDBRANCH  24  25
ENDBRANCH   1  24
TORSDOF 21
ENDMDL
