MODEL 1
REMARK VINA RESULT:     -11.8      0.000      0.000
REMARK SMILES O=C(OCCOCCOCCOC(=O)c1nccnc1C(=O)N1CCC(Cc2ccccc2)CC1)c1ccc(-c2c3nc(c(-c4c(F)c(F)c(F)c(F)c4F)c4ccc([nH]4)c(-c4c(F)c(F)c(F)c(F)c4F)c4nc(c(-c5c(F)c(F)c(F)c(F)c5F)c5ccc2[nH]5)C=C4)C=C3)cc1
REMARK SMILES IDX 8 1 7 2 6 3 5 4 4 5 3 6 2 7 1 8 36 9 37 10 98 11 38 12 97 13
REMARK SMILES IDX 39 14 40 15 41 16 91 17 42 18 96 19 90 20 92 21 43 22 95 23
REMARK SMILES IDX 89 24 88 25 44 27 76 28 56 29 75 30 57 31 60 32 74 33 93 34
REMARK SMILES IDX 58 35 59 36 73 38 94 39 61 40 45 41 46 42 54 43 47 44 48 45
REMARK SMILES IDX 52 46 55 47 49 48 50 49 53 50 51 51 77 52 78 53 86 54 79 55
REMARK SMILES IDX 80 56 84 57 87 58 81 59 82 60 85 61 83 62 62 63 63 64 71 65
REMARK SMILES IDX 64 66 65 67 69 68 72 69 66 70 67 71 70 72 68 73 9 74 10 75
REMARK SMILES IDX 11 76 12 77 13 78 14 79 15 80 16 81 20 82 17 83 19 84 18 85
REMARK SMILES IDX 21 86 22 87 23 88 24 89 35 90 25 91 34 92 26 93 27 94 28 95
REMARK SMILES IDX 29 96 33 97 30 98 32 99 31 100
REMARK H PARENT 92 26 60 37
REMARK Flexibility Score: inf
ROOT
ATOM      1  C   UNL A   1      34.122  32.908  28.033  1.00  0.00     0.188 C 
ENDROOT
BRANCH   1   2
ATOM      2  C   UNL A   1      34.019  33.243  29.533  1.00  0.00     0.188 C 
BRANCH   2   3
ATOM      3  O   UNL A   1      35.200  33.752  30.156  1.00  0.00    -0.376 OA
BRANCH   3   4
ATOM      4  C   UNL A   1      35.032  34.669  31.233  1.00  0.00     0.202 C 
BRANCH   4   5
ATOM      5  C   UNL A   1      34.800  34.016  32.600  1.00  0.00     0.261 C 
BRANCH   5   6
ATOM      6  O   UNL A   1      35.195  32.618  32.594  1.00  0.00    -0.460 OA
BRANCH   6   7
ATOM      7  C   UNL A   1      36.253  32.000  33.160  1.00  0.00     0.338 C 
ATOM      8  O   UNL A   1      36.556  32.232  34.327  1.00  0.00    -0.246 OA
BRANCH   7   9
ATOM      9  C   UNL A   1      37.213  31.266  32.304  1.00  0.00     0.060 A 
ATOM     10  C   UNL A   1      38.337  30.633  32.815  1.00  0.00     0.016 A 
ATOM     11  C   UNL A   1      36.996  31.246  30.910  1.00  0.00     0.016 A 
ATOM     12  C   UNL A   1      39.205  29.950  31.993  1.00  0.00     0.010 A 
ATOM     13  C   UNL A   1      37.909  30.618  30.057  1.00  0.00     0.010 A 
ATOM     14  C   UNL A   1      39.023  29.989  30.615  1.00  0.00    -0.014 A 
BRANCH  14  15
ATOM     15  C   UNL A   1      40.185  29.547  29.839  1.00  0.00     0.031 A 
ATOM     16  C   UNL A   1      41.343  30.492  29.754  1.00  0.00     0.074 A 
ATOM     17  C   UNL A   1      40.289  28.253  29.501  1.00  0.00     0.049 A 
ATOM     18  N   UNL A   1      42.545  30.282  29.296  1.00  0.00    -0.248 NA
ATOM     19  C   UNL A   1      41.146  31.830  30.346  1.00  0.00     0.031 C 
ATOM     20  C   UNL A   1      39.280  27.232  29.783  1.00  0.00     0.029 A 
ATOM     21  N   UNL A   1      41.301  27.569  28.892  1.00  0.00    -0.354 N 
ATOM     22  C   UNL A   1      43.252  31.443  29.572  1.00  0.00     0.074 A 
ATOM     23  C   UNL A   1      42.357  32.355  30.244  1.00  0.00     0.031 C 
ATOM     24  C   UNL A   1      39.707  26.054  29.299  1.00  0.00     0.029 A 
ATOM     25  C   UNL A   1      40.988  26.258  28.637  1.00  0.00     0.049 A 
ATOM     26  H   UNL A   1      42.166  27.975  28.659  1.00  0.00     0.167 HD
ATOM     27  C   UNL A   1      44.540  31.713  29.271  1.00  0.00     0.037 A 
ATOM     28  C   UNL A   1      41.651  25.357  27.890  1.00  0.00     0.037 A 
ATOM     29  C   UNL A   1      45.374  30.800  28.543  1.00  0.00     0.049 A 
ATOM     30  C   UNL A   1      42.989  25.774  27.342  1.00  0.00     0.074 A 
ATOM     31  C   UNL A   1      46.667  30.975  28.094  1.00  0.00     0.029 A 
ATOM     32  N   UNL A   1      44.964  29.538  28.129  1.00  0.00    -0.354 N 
ATOM     33  N   UNL A   1      43.656  26.884  27.565  1.00  0.00    -0.248 NA
ATOM     34  C   UNL A   1      43.666  24.835  26.443  1.00  0.00     0.031 C 
ATOM     35  C   UNL A   1      47.013  29.847  27.342  1.00  0.00     0.029 A 
ATOM     36  C   UNL A   1      45.956  28.946  27.372  1.00  0.00     0.049 A 
ATOM     37  H   UNL A   1      44.096  29.128  28.343  1.00  0.00     0.167 HD
ATOM     38  C   UNL A   1      44.836  26.774  26.849  1.00  0.00     0.074 A 
ATOM     39  C   UNL A   1      44.799  25.479  26.196  1.00  0.00     0.031 C 
ATOM     40  C   UNL A   1      45.861  27.655  26.738  1.00  0.00     0.037 A 
BRANCH  27  41
ATOM     41  C   UNL A   1      45.057  33.073  29.620  1.00  0.00     0.064 A 
ATOM     42  C   UNL A   1      45.719  33.334  30.828  1.00  0.00     0.173 A 
ATOM     43  C   UNL A   1      44.864  34.140  28.730  1.00  0.00     0.173 A 
ATOM     44  F   UNL A   1      45.893  32.356  31.730  1.00  0.00    -0.203 F 
ATOM     45  C   UNL A   1      46.166  34.619  31.134  1.00  0.00     0.198 A 
ATOM     46  C   UNL A   1      45.327  35.417  29.031  1.00  0.00     0.198 A 
ATOM     47  F   UNL A   1      44.215  33.943  27.573  1.00  0.00    -0.203 F 
ATOM     48  F   UNL A   1      46.764  34.858  32.309  1.00  0.00    -0.200 F 
ATOM     49  C   UNL A   1      45.974  35.657  30.232  1.00  0.00     0.200 A 
ATOM     50  F   UNL A   1      45.135  36.418  28.161  1.00  0.00    -0.200 F 
ATOM     51  F   UNL A   1      46.402  36.892  30.528  1.00  0.00    -0.200 F 
ENDBRANCH  27  41
BRANCH  28  52
ATOM     52  C   UNL A   1      41.005  24.072  27.518  1.00  0.00     0.064 A 
ATOM     53  C   UNL A   1      41.454  22.838  28.004  1.00  0.00     0.173 A 
ATOM     54  C   UNL A   1      39.929  24.056  26.611  1.00  0.00     0.173 A 
ATOM     55  F   UNL A   1      42.486  22.791  28.859  1.00  0.00    -0.203 F 
ATOM     56  C   UNL A   1      40.873  21.642  27.579  1.00  0.00     0.198 A 
ATOM     57  C   UNL A   1      39.332  22.865  26.208  1.00  0.00     0.198 A 
ATOM     58  F   UNL A   1      39.448  25.207  26.116  1.00  0.00    -0.203 F 
ATOM     59  F   UNL A   1      41.357  20.472  28.020  1.00  0.00    -0.200 F 
ATOM     60  C   UNL A   1      39.813  21.656  26.682  1.00  0.00     0.200 A 
ATOM     61  F   UNL A   1      38.300  22.893  25.356  1.00  0.00    -0.200 F 
ATOM     62  F   UNL A   1      39.265  20.507  26.267  1.00  0.00    -0.200 F 
ENDBRANCH  28  52
BRANCH  40  63
ATOM     63  C   UNL A   1      47.014  27.236  25.884  1.00  0.00     0.064 A 
ATOM     64  C   UNL A   1      47.063  27.557  24.520  1.00  0.00     0.173 A 
ATOM     65  C   UNL A   1      48.107  26.566  26.451  1.00  0.00     0.173 A 
ATOM     66  F   UNL A   1      46.029  28.182  23.936  1.00  0.00    -0.203 F 
ATOM     67  C   UNL A   1      48.165  27.206  23.748  1.00  0.00     0.198 A 
ATOM     68  C   UNL A   1      49.219  26.245  25.683  1.00  0.00     0.198 A 
ATOM     69  F   UNL A   1      48.103  26.247  27.754  1.00  0.00    -0.203 F 
ATOM     70  F   UNL A   1      48.177  27.486  22.438  1.00  0.00    -0.200 F 
ATOM     71  C   UNL A   1      49.245  26.561  24.332  1.00  0.00     0.200 A 
ATOM     72  F   UNL A   1      50.269  25.636  26.250  1.00  0.00    -0.200 F 
ATOM     73  F   UNL A   1      50.312  26.237  23.590  1.00  0.00    -0.200 F 
ENDBRANCH  40  63
ENDBRANCH  14  15
ENDBRANCH   7   9
ENDBRANCH   6   7
ENDBRANCH   5   6
ENDBRANCH   4   5
ENDBRANCH   3   4
ENDBRANCH   2   3
ENDBRANCH   1   2
BRANCH   1  74
ATOM     74  O   UNL A   1      34.729  31.689  27.659  1.00  0.00    -0.376 OA
BRANCH  74  75
ATOM     75  C   UNL A   1      33.868  30.702  27.124  1.00  0.00     0.202 C 
BRANCH  75  76
ATOM     76  C   UNL A   1      34.049  29.267  27.658  1.00  0.00     0.261 C 
BRANCH  76  77
ATOM     77  O   UNL A   1      33.465  28.238  26.818  1.00  0.00    -0.458 OA
BRANCH  77  78
ATOM     78  C   UNL A   1      32.131  27.945  26.987  1.00  0.00     0.359 C 
ATOM     79  O   UNL A   1      31.529  27.937  28.045  1.00  0.00    -0.244 OA
BRANCH  78  80
ATOM     80  C   UNL A   1      31.537  27.700  25.643  1.00  0.00     0.179 A 
ATOM     81  N   UNL A   1      31.930  28.642  24.716  1.00  0.00    -0.245 NA
ATOM     82  C   UNL A   1      30.598  26.692  25.349  1.00  0.00     0.161 A 
ATOM     83  C   UNL A   1      31.423  28.494  23.477  1.00  0.00     0.132 A 
ATOM     84  N   UNL A   1      29.988  26.669  24.119  1.00  0.00    -0.247 NA
ATOM     85  C   UNL A   1      30.445  27.558  23.198  1.00  0.00     0.132 A 
BRANCH  82  86
ATOM     86  C   UNL A   1      30.550  25.343  26.036  1.00  0.00     0.274 C 
ATOM     87  O   UNL A   1      29.547  25.142  26.726  1.00  0.00    -0.267 OA
ATOM     88  N   UNL A   1      31.651  24.419  26.039  1.00  0.00    -0.337 N 
ATOM     89  C   UNL A   1      31.567  23.291  26.985  1.00  0.00     0.120 C 
ATOM     90  C   UNL A   1      32.311  24.132  24.797  1.00  0.00     0.120 C 
ATOM     91  C   UNL A   1      32.714  22.245  26.938  1.00  0.00     0.025 C 
ATOM     92  C   UNL A   1      33.454  23.133  24.805  1.00  0.00     0.025 C 
ATOM     93  C   UNL A   1      33.065  21.836  25.503  1.00  0.00    -0.003 C 
BRANCH  93  94
ATOM     94  C   UNL A   1      34.226  20.819  25.342  1.00  0.00     0.039 C 
BRANCH  94  95
ATOM     95  C   UNL A   1      33.906  19.570  24.553  1.00  0.00    -0.048 A 
ATOM     96  C   UNL A   1      32.700  19.470  23.847  1.00  0.00     0.004 A 
ATOM     97  C   UNL A   1      34.765  18.459  24.572  1.00  0.00     0.004 A 
ATOM     98  C   UNL A   1      32.383  18.307  23.138  1.00  0.00     0.000 A 
ATOM     99  C   UNL A   1      34.448  17.298  23.862  1.00  0.00     0.000 A 
ATOM    100  C   UNL A   1      33.262  17.226  23.134  1.00  0.00     0.000 A 
ENDBRANCH  94  95
ENDBRANCH  93  94
ENDBRANCH  82  86
ENDBRANCH  78  80
ENDBRANCH  77  78
ENDBRANCH  76  77
ENDBRANCH  75  76
ENDBRANCH  74  75
ENDBRANCH   1  74
TORSDOF 20
ENDMDL
MODEL 2
REMARK VINA RESULT:     -11.7      2.912      8.073
REMARK SMILES O=C(OCCOCCOCCOC(=O)c1nccnc1C(=O)N1CCC(Cc2ccccc2)CC1)c1ccc(-c2c3nc(c(-c4c(F)c(F)c(F)c(F)c4F)c4ccc([nH]4)c(-c4c(F)c(F)c(F)c(F)c4F)c4nc(c(-c5c(F)c(F)c(F)c(F)c5F)c5ccc2[nH]5)C=C4)C=C3)cc1
REMARK SMILES IDX 8 1 7 2 6 3 5 4 4 5 3 6 2 7 1 8 36 9 37 10 98 11 38 12 97 13
REMARK SMILES IDX 39 14 40 15 41 16 91 17 42 18 96 19 90 20 92 21 43 22 95 23
REMARK SMILES IDX 89 24 88 25 44 27 76 28 56 29 75 30 57 31 60 32 74 33 93 34
REMARK SMILES IDX 58 35 59 36 73 38 94 39 61 40 45 41 46 42 54 43 47 44 48 45
REMARK SMILES IDX 52 46 55 47 49 48 50 49 53 50 51 51 77 52 78 53 86 54 79 55
REMARK SMILES IDX 80 56 84 57 87 58 81 59 82 60 85 61 83 62 62 63 63 64 71 65
REMARK SMILES IDX 64 66 65 67 69 68 72 69 66 70 67 71 70 72 68 73 9 74 10 75
REMARK SMILES IDX 11 76 12 77 13 78 14 79 15 80 16 81 20 82 17 83 19 84 18 85
REMARK SMILES IDX 21 86 22 87 23 88 24 89 35 90 25 91 34 92 26 93 27 94 28 95
REMARK SMILES IDX 29 96 33 97 30 98 32 99 31 100
REMARK H PARENT 92 26 60 37
REMARK Flexibility Score: inf
ROOT
ATOM      1  C   UNL A   1      36.489  23.080  25.746  1.00  0.00     0.188 C 
ENDROOT
BRANCH   1   2
ATOM      2  C   UNL A   1      37.595  22.275  25.037  1.00  0.00     0.188 C 
BRANCH   2   3
ATOM      3  O   UNL A   1      37.259  20.946  24.634  1.00  0.00    -0.376 OA
BRANCH   3   4
ATOM      4  C   UNL A   1      38.169  19.905  24.977  1.00  0.00     0.202 C 
BRANCH   4   5
ATOM      5  C   UNL A   1      39.430  20.373  25.713  1.00  0.00     0.261 C 
BRANCH   5   6
ATOM      6  O   UNL A   1      40.416  19.311  25.804  1.00  0.00    -0.460 OA
BRANCH   6   7
ATOM      7  C   UNL A   1      41.736  19.357  26.084  1.00  0.00     0.338 C 
ATOM      8  O   UNL A   1      42.361  18.322  26.297  1.00  0.00    -0.246 OA
BRANCH   7   9
ATOM      9  C   UNL A   1      42.367  20.655  26.414  1.00  0.00     0.060 A 
ATOM     10  C   UNL A   1      42.415  21.155  27.707  1.00  0.00     0.016 A 
ATOM     11  C   UNL A   1      42.902  21.431  25.364  1.00  0.00     0.016 A 
ATOM     12  C   UNL A   1      43.018  22.362  27.982  1.00  0.00     0.010 A 
ATOM     13  C   UNL A   1      43.452  22.691  25.620  1.00  0.00     0.010 A 
ATOM     14  C   UNL A   1      43.486  23.153  26.937  1.00  0.00    -0.014 A 
BRANCH  14  15
ATOM     15  C   UNL A   1      43.766  24.542  27.309  1.00  0.00     0.031 A 
ATOM     16  C   UNL A   1      45.160  25.038  27.076  1.00  0.00     0.074 A 
ATOM     17  C   UNL A   1      42.740  25.372  27.551  1.00  0.00     0.049 A 
ATOM     18  N   UNL A   1      45.622  26.254  27.142  1.00  0.00    -0.248 NA
ATOM     19  C   UNL A   1      46.147  24.040  26.622  1.00  0.00     0.031 C 
ATOM     20  C   UNL A   1      41.331  24.981  27.549  1.00  0.00     0.029 A 
ATOM     21  N   UNL A   1      42.719  26.713  27.801  1.00  0.00    -0.354 N 
ATOM     22  C   UNL A   1      46.936  26.173  26.709  1.00  0.00     0.074 A 
ATOM     23  C   UNL A   1      47.205  24.795  26.373  1.00  0.00     0.031 C 
ATOM     24  C   UNL A   1      40.581  26.057  27.837  1.00  0.00     0.029 A 
ATOM     25  C   UNL A   1      41.464  27.187  28.089  1.00  0.00     0.049 A 
ATOM     26  H   UNL A   1      43.520  27.282  27.777  1.00  0.00     0.167 HD
ATOM     27  C   UNL A   1      47.837  27.175  26.618  1.00  0.00     0.037 A 
ATOM     28  C   UNL A   1      41.100  28.390  28.567  1.00  0.00     0.037 A 
ATOM     29  C   UNL A   1      47.544  28.519  27.026  1.00  0.00     0.049 A 
ATOM     30  C   UNL A   1      42.181  29.429  28.701  1.00  0.00     0.074 A 
ATOM     31  C   UNL A   1      48.382  29.615  27.069  1.00  0.00     0.029 A 
ATOM     32  N   UNL A   1      46.304  28.934  27.496  1.00  0.00    -0.354 N 
ATOM     33  N   UNL A   1      43.440  29.354  28.329  1.00  0.00    -0.248 NA
ATOM     34  C   UNL A   1      41.810  30.705  29.318  1.00  0.00     0.031 C 
ATOM     35  C   UNL A   1      47.668  30.674  27.640  1.00  0.00     0.029 A 
ATOM     36  C   UNL A   1      46.369  30.254  27.896  1.00  0.00     0.049 A 
ATOM     37  H   UNL A   1      45.498  28.370  27.539  1.00  0.00     0.167 HD
ATOM     38  C   UNL A   1      44.008  30.575  28.651  1.00  0.00     0.074 A 
ATOM     39  C   UNL A   1      42.950  31.378  29.235  1.00  0.00     0.031 C 
ATOM     40  C   UNL A   1      45.284  31.002  28.481  1.00  0.00     0.037 A 
BRANCH  27  41
ATOM     41  C   UNL A   1      49.221  26.818  26.180  1.00  0.00     0.064 A 
ATOM     42  C   UNL A   1      49.644  26.951  24.850  1.00  0.00     0.173 A 
ATOM     43  C   UNL A   1      50.137  26.310  27.114  1.00  0.00     0.173 A 
ATOM     44  F   UNL A   1      48.794  27.395  23.911  1.00  0.00    -0.203 F 
ATOM     45  C   UNL A   1      50.935  26.585  24.471  1.00  0.00     0.198 A 
ATOM     46  C   UNL A   1      51.429  25.962  26.736  1.00  0.00     0.198 A 
ATOM     47  F   UNL A   1      49.770  26.142  28.394  1.00  0.00    -0.203 F 
ATOM     48  F   UNL A   1      51.309  26.684  23.188  1.00  0.00    -0.200 F 
ATOM     49  C   UNL A   1      51.827  26.096  25.415  1.00  0.00     0.200 A 
ATOM     50  F   UNL A   1      52.286  25.485  27.649  1.00  0.00    -0.200 F 
ATOM     51  F   UNL A   1      53.066  25.742  25.048  1.00  0.00    -0.200 F 
ENDBRANCH  27  41
BRANCH  28  52
ATOM     52  C   UNL A   1      39.719  28.612  29.068  1.00  0.00     0.064 A 
ATOM     53  C   UNL A   1      38.710  29.162  28.269  1.00  0.00     0.173 A 
ATOM     54  C   UNL A   1      39.393  28.309  30.403  1.00  0.00     0.173 A 
ATOM     55  F   UNL A   1      38.968  29.484  26.993  1.00  0.00    -0.203 F 
ATOM     56  C   UNL A   1      37.442  29.426  28.789  1.00  0.00     0.198 A 
ATOM     57  C   UNL A   1      38.120  28.547  30.914  1.00  0.00     0.198 A 
ATOM     58  F   UNL A   1      40.315  27.772  31.217  1.00  0.00    -0.203 F 
ATOM     59  F   UNL A   1      36.510  30.001  28.017  1.00  0.00    -0.200 F 
ATOM     60  C   UNL A   1      37.148  29.118  30.111  1.00  0.00     0.200 A 
ATOM     61  F   UNL A   1      37.844  28.230  32.186  1.00  0.00    -0.200 F 
ATOM     62  F   UNL A   1      35.934  29.382  30.611  1.00  0.00    -0.200 F 
ENDBRANCH  28  52
BRANCH  40  63
ATOM     63  C   UNL A   1      45.590  32.394  28.931  1.00  0.00     0.064 A 
ATOM     64  C   UNL A   1      45.368  33.495  28.092  1.00  0.00     0.173 A 
ATOM     65  C   UNL A   1      46.047  32.631  30.235  1.00  0.00     0.173 A 
ATOM     66  F   UNL A   1      44.949  33.308  26.831  1.00  0.00    -0.203 F 
ATOM     67  C   UNL A   1      45.609  34.788  28.540  1.00  0.00     0.198 A 
ATOM     68  C   UNL A   1      46.256  33.927  30.689  1.00  0.00     0.198 A 
ATOM     69  F   UNL A   1      46.265  31.606  31.072  1.00  0.00    -0.203 F 
ATOM     70  F   UNL A   1      45.429  35.825  27.712  1.00  0.00    -0.200 F 
ATOM     71  C   UNL A   1      46.042  35.004  29.841  1.00  0.00     0.200 A 
ATOM     72  F   UNL A   1      46.659  34.136  31.950  1.00  0.00    -0.200 F 
ATOM     73  F   UNL A   1      46.258  36.252  30.276  1.00  0.00    -0.200 F 
ENDBRANCH  40  63
ENDBRANCH  14  15
ENDBRANCH   7   9
ENDBRANCH   6   7
ENDBRANCH   5   6
ENDBRANCH   4   5
ENDBRANCH   3   4
ENDBRANCH   2   3
ENDBRANCH   1   2
BRANCH   1  74
ATOM     74  O   UNL A   1      35.231  23.188  25.115  1.00  0.00    -0.376 OA
BRANCH  74  75
ATOM     75  C   UNL A   1      35.147  24.110  24.045  1.00  0.00     0.202 C 
BRANCH  75  76
ATOM     76  C   UNL A   1      34.312  25.381  24.294  1.00  0.00     0.261 C 
BRANCH  76  77
ATOM     77  O   UNL A   1      33.901  25.566  25.674  1.00  0.00    -0.458 OA
BRANCH  77  78
ATOM     78  C   UNL A   1      33.128  26.663  25.977  1.00  0.00     0.359 C 
ATOM     79  O   UNL A   1      33.456  27.596  26.686  1.00  0.00    -0.244 OA
BRANCH  78  80
ATOM     80  C   UNL A   1      31.842  26.542  25.235  1.00  0.00     0.179 A 
ATOM     81  N   UNL A   1      31.709  27.502  24.255  1.00  0.00    -0.245 NA
ATOM     82  C   UNL A   1      30.816  25.627  25.545  1.00  0.00     0.161 A 
ATOM     83  C   UNL A   1      30.565  27.464  23.547  1.00  0.00     0.132 A 
ATOM     84  N   UNL A   1      29.605  25.722  24.905  1.00  0.00    -0.247 NA
ATOM     85  C   UNL A   1      29.522  26.624  23.891  1.00  0.00     0.132 A 
BRANCH  82  86
ATOM     86  C   UNL A   1      31.048  24.250  26.129  1.00  0.00     0.274 C 
ATOM     87  O   UNL A   1      30.692  24.110  27.302  1.00  0.00    -0.267 OA
ATOM     88  N   UNL A   1      31.778  23.216  25.447  1.00  0.00    -0.337 N 
ATOM     89  C   UNL A   1      32.173  22.044  26.250  1.00  0.00     0.120 C 
ATOM     90  C   UNL A   1      31.463  22.942  24.074  1.00  0.00     0.120 C 
ATOM     91  C   UNL A   1      32.893  20.888  25.502  1.00  0.00     0.025 C 
ATOM     92  C   UNL A   1      32.219  21.830  23.371  1.00  0.00     0.025 C 
ATOM     93  C   UNL A   1      32.204  20.539  24.178  1.00  0.00    -0.003 C 
BRANCH  93  94
ATOM     94  C   UNL A   1      32.865  19.418  23.333  1.00  0.00     0.039 C 
BRANCH  94  95
ATOM     95  C   UNL A   1      33.231  18.156  24.081  1.00  0.00    -0.048 A 
ATOM     96  C   UNL A   1      32.277  17.500  24.870  1.00  0.00     0.004 A 
ATOM     97  C   UNL A   1      34.544  17.658  24.067  1.00  0.00     0.004 A 
ATOM     98  C   UNL A   1      32.615  16.349  25.588  1.00  0.00     0.000 A 
ATOM     99  C   UNL A   1      34.880  16.506  24.783  1.00  0.00     0.000 A 
ATOM    100  C   UNL A   1      33.912  15.844  25.535  1.00  0.00     0.000 A 
ENDBRANCH  94  95
ENDBRANCH  93  94
ENDBRANCH  82  86
ENDBRANCH  78  80
ENDBRANCH  77  78
ENDBRANCH  76  77
ENDBRANCH  75  76
ENDBRANCH  74  75
ENDBRANCH   1  74
TORSDOF 20
ENDMDL
MODEL 3
REMARK VINA RESULT:     -11.5      2.950      8.210
REMARK SMILES O=C(OCCOCCOCCOC(=O)c1nccnc1C(=O)N1CCC(Cc2ccccc2)CC1)c1ccc(-c2c3nc(c(-c4c(F)c(F)c(F)c(F)c4F)c4ccc([nH]4)c(-c4c(F)c(F)c(F)c(F)c4F)c4nc(c(-c5c(F)c(F)c(F)c(F)c5F)c5ccc2[nH]5)C=C4)C=C3)cc1
REMARK SMILES IDX 8 1 7 2 6 3 5 4 4 5 3 6 2 7 1 8 36 9 37 10 98 11 38 12 97 13
REMARK SMILES IDX 39 14 40 15 41 16 91 17 42 18 96 19 90 20 92 21 43 22 95 23
REMARK SMILES IDX 89 24 88 25 44 27 76 28 56 29 75 30 57 31 60 32 74 33 93 34
REMARK SMILES IDX 58 35 59 36 73 38 94 39 61 40 45 41 46 42 54 43 47 44 48 45
REMARK SMILES IDX 52 46 55 47 49 48 50 49 53 50 51 51 77 52 78 53 86 54 79 55
REMARK SMILES IDX 80 56 84 57 87 58 81 59 82 60 85 61 83 62 62 63 63 64 71 65
REMARK SMILES IDX 64 66 65 67 69 68 72 69 66 70 67 71 70 72 68 73 9 74 10 75
REMARK SMILES IDX 11 76 12 77 13 78 14 79 15 80 16 81 20 82 17 83 19 84 18 85
REMARK SMILES IDX 21 86 22 87 23 88 24 89 35 90 25 91 34 92 26 93 27 94 28 95
REMARK SMILES IDX 29 96 33 97 30 98 32 99 31 100
REMARK H PARENT 92 26 60 37
REMARK Flexibility Score: inf
ROOT
ATOM      1  C   UNL A   1      36.256  23.295  26.098  1.00  0.00     0.188 C 
ENDROOT
BRANCH   1   2
ATOM      2  C   UNL A   1      37.147  22.978  24.882  1.00  0.00     0.188 C 
BRANCH   2   3
ATOM      3  O   UNL A   1      37.121  21.631  24.405  1.00  0.00    -0.376 OA
BRANCH   3   4
ATOM      4  C   UNL A   1      37.786  20.644  25.188  1.00  0.00     0.202 C 
BRANCH   4   5
ATOM      5  C   UNL A   1      39.144  21.080  25.751  1.00  0.00     0.261 C 
BRANCH   5   6
ATOM      6  O   UNL A   1      40.006  19.938  25.999  1.00  0.00    -0.460 OA
BRANCH   6   7
ATOM      7  C   UNL A   1      41.340  19.870  26.199  1.00  0.00     0.338 C 
ATOM      8  O   UNL A   1      41.870  18.800  26.481  1.00  0.00    -0.246 OA
BRANCH   7   9
ATOM      9  C   UNL A   1      42.118  21.119  26.360  1.00  0.00     0.060 A 
ATOM     10  C   UNL A   1      42.312  21.725  27.593  1.00  0.00     0.016 A 
ATOM     11  C   UNL A   1      42.647  21.738  25.207  1.00  0.00     0.016 A 
ATOM     12  C   UNL A   1      43.050  22.882  27.710  1.00  0.00     0.010 A 
ATOM     13  C   UNL A   1      43.336  22.951  25.304  1.00  0.00     0.010 A 
ATOM     14  C   UNL A   1      43.513  23.522  26.565  1.00  0.00    -0.014 A 
BRANCH  14  15
ATOM     15  C   UNL A   1      43.956  24.902  26.782  1.00  0.00     0.031 A 
ATOM     16  C   UNL A   1      42.925  25.878  27.258  1.00  0.00     0.074 A 
ATOM     17  C   UNL A   1      45.271  25.164  26.836  1.00  0.00     0.049 A 
ATOM     18  N   UNL A   1      43.085  27.095  27.696  1.00  0.00    -0.248 NA
ATOM     19  C   UNL A   1      41.536  25.386  27.331  1.00  0.00     0.031 C 
ATOM     20  C   UNL A   1      46.328  24.177  26.617  1.00  0.00     0.029 A 
ATOM     21  N   UNL A   1      45.939  26.316  27.132  1.00  0.00    -0.354 N 
ATOM     22  C   UNL A   1      41.829  27.499  28.126  1.00  0.00     0.074 A 
ATOM     23  C   UNL A   1      40.915  26.404  27.907  1.00  0.00     0.031 C 
ATOM     24  C   UNL A   1      47.520  24.784  26.739  1.00  0.00     0.029 A 
ATOM     25  C   UNL A   1      47.299  26.201  26.993  1.00  0.00     0.049 A 
ATOM     26  H   UNL A   1      45.491  27.144  27.416  1.00  0.00     0.167 HD
ATOM     27  C   UNL A   1      41.483  28.696  28.646  1.00  0.00     0.037 A 
ATOM     28  C   UNL A   1      48.238  27.163  27.009  1.00  0.00     0.037 A 
ATOM     29  C   UNL A   1      42.414  29.779  28.784  1.00  0.00     0.049 A 
ATOM     30  C   UNL A   1      47.784  28.558  27.345  1.00  0.00     0.074 A 
ATOM     31  C   UNL A   1      42.185  31.071  29.215  1.00  0.00     0.029 A 
ATOM     32  N   UNL A   1      43.761  29.690  28.455  1.00  0.00    -0.354 N 
ATOM     33  N   UNL A   1      46.590  28.963  27.718  1.00  0.00    -0.248 NA
ATOM     34  C   UNL A   1      48.783  29.626  27.261  1.00  0.00     0.031 C 
ATOM     35  C   UNL A   1      43.380  31.785  29.072  1.00  0.00     0.029 A 
ATOM     36  C   UNL A   1      44.366  30.923  28.609  1.00  0.00     0.049 A 
ATOM     37  H   UNL A   1      44.217  28.871  28.156  1.00  0.00     0.167 HD
ATOM     38  C   UNL A   1      46.696  30.328  27.929  1.00  0.00     0.074 A 
ATOM     39  C   UNL A   1      48.078  30.678  27.656  1.00  0.00     0.031 C 
ATOM     40  C   UNL A   1      45.746  31.215  28.313  1.00  0.00     0.037 A 
BRANCH  27  41
ATOM     41  C   UNL A   1      40.040  28.912  28.974  1.00  0.00     0.064 A 
ATOM     42  C   UNL A   1      39.528  28.713  30.264  1.00  0.00     0.173 A 
ATOM     43  C   UNL A   1      39.149  29.307  27.965  1.00  0.00     0.173 A 
ATOM     44  F   UNL A   1      40.332  28.296  31.254  1.00  0.00    -0.203 F 
ATOM     45  C   UNL A   1      38.172  28.898  30.530  1.00  0.00     0.198 A 
ATOM     46  C   UNL A   1      37.800  29.507  28.238  1.00  0.00     0.198 A 
ATOM     47  F   UNL A   1      39.589  29.486  26.710  1.00  0.00    -0.203 F 
ATOM     48  F   UNL A   1      37.693  28.667  31.760  1.00  0.00    -0.200 F 
ATOM     49  C   UNL A   1      37.311  29.300  29.518  1.00  0.00     0.200 A 
ATOM     50  F   UNL A   1      36.970  29.891  27.258  1.00  0.00    -0.200 F 
ATOM     51  F   UNL A   1      36.008  29.476  29.775  1.00  0.00    -0.200 F 
ENDBRANCH  27  41
BRANCH  28  52
ATOM     52  C   UNL A   1      49.625  26.864  26.569  1.00  0.00     0.064 A 
ATOM     53  C   UNL A   1      50.646  26.546  27.472  1.00  0.00     0.173 A 
ATOM     54  C   UNL A   1      49.968  26.938  25.206  1.00  0.00     0.173 A 
ATOM     55  F   UNL A   1      50.382  26.476  28.785  1.00  0.00    -0.203 F 
ATOM     56  C   UNL A   1      51.957  26.341  27.036  1.00  0.00     0.198 A 
ATOM     57  C   UNL A   1      51.269  26.707  24.768  1.00  0.00     0.198 A 
ATOM     58  F   UNL A   1      49.031  27.231  24.291  1.00  0.00    -0.203 F 
ATOM     59  F   UNL A   1      52.925  26.089  27.927  1.00  0.00    -0.200 F 
ATOM     60  C   UNL A   1      52.267  26.422  25.685  1.00  0.00     0.200 A 
ATOM     61  F   UNL A   1      51.552  26.771  23.461  1.00  0.00    -0.200 F 
ATOM     62  F   UNL A   1      53.526  26.236  25.269  1.00  0.00    -0.200 F 
ENDBRANCH  28  52
BRANCH  40  63
ATOM     63  C   UNL A   1      46.180  32.638  28.461  1.00  0.00     0.064 A 
ATOM     64  C   UNL A   1      46.051  33.551  27.405  1.00  0.00     0.173 A 
ATOM     65  C   UNL A   1      46.668  33.105  29.690  1.00  0.00     0.173 A 
ATOM     66  F   UNL A   1      45.606  33.140  26.208  1.00  0.00    -0.203 F 
ATOM     67  C   UNL A   1      46.412  34.883  27.571  1.00  0.00     0.198 A 
ATOM     68  C   UNL A   1      46.997  34.444  29.861  1.00  0.00     0.198 A 
ATOM     69  F   UNL A   1      46.800  32.266  30.728  1.00  0.00    -0.203 F 
ATOM     70  F   UNL A   1      46.318  35.733  26.540  1.00  0.00    -0.200 F 
ATOM     71  C   UNL A   1      46.873  35.330  28.801  1.00  0.00     0.200 A 
ATOM     72  F   UNL A   1      47.428  34.878  31.053  1.00  0.00    -0.200 F 
ATOM     73  F   UNL A   1      47.205  36.618  28.964  1.00  0.00    -0.200 F 
ENDBRANCH  40  63
ENDBRANCH  14  15
ENDBRANCH   7   9
ENDBRANCH   6   7
ENDBRANCH   5   6
ENDBRANCH   4   5
ENDBRANCH   3   4
ENDBRANCH   2   3
ENDBRANCH   1   2
BRANCH   1  74
ATOM     74  O   UNL A   1      34.946  23.764  25.863  1.00  0.00    -0.376 OA
BRANCH  74  75
ATOM     75  C   UNL A   1      34.795  24.694  24.807  1.00  0.00     0.202 C 
BRANCH  75  76
ATOM     76  C   UNL A   1      34.076  26.014  25.148  1.00  0.00     0.261 C 
BRANCH  76  77
ATOM     77  O   UNL A   1      33.213  25.942  26.313  1.00  0.00    -0.458 OA
BRANCH  77  78
ATOM     78  C   UNL A   1      32.279  26.937  26.488  1.00  0.00     0.359 C 
ATOM     79  O   UNL A   1      32.360  27.865  27.272  1.00  0.00    -0.244 OA
BRANCH  78  80
ATOM     80  C   UNL A   1      31.180  26.717  25.508  1.00  0.00     0.179 A 
ATOM     81  N   UNL A   1      31.127  27.706  24.548  1.00  0.00    -0.245 NA
ATOM     82  C   UNL A   1      30.225  25.684  25.585  1.00  0.00     0.161 A 
ATOM     83  C   UNL A   1      30.149  27.582  23.630  1.00  0.00     0.132 A 
ATOM     84  N   UNL A   1      29.155  25.682  24.725  1.00  0.00    -0.247 NA
ATOM     85  C   UNL A   1      29.163  26.620  23.742  1.00  0.00     0.132 A 
BRANCH  82  86
ATOM     86  C   UNL A   1      30.497  24.312  26.163  1.00  0.00     0.274 C 
ATOM     87  O   UNL A   1      29.961  24.084  27.251  1.00  0.00    -0.267 OA
ATOM     88  N   UNL A   1      31.441  23.388  25.593  1.00  0.00    -0.337 N 
ATOM     89  C   UNL A   1      31.814  22.227  26.421  1.00  0.00     0.120 C 
ATOM     90  C   UNL A   1      31.400  23.148  24.179  1.00  0.00     0.120 C 
ATOM     91  C   UNL A   1      32.771  21.183  25.782  1.00  0.00     0.025 C 
ATOM     92  C   UNL A   1      32.381  22.150  23.591  1.00  0.00     0.025 C 
ATOM     93  C   UNL A   1      32.363  20.828  24.347  1.00  0.00    -0.003 C 
BRANCH  93  94
ATOM     94  C   UNL A   1      33.277  19.819  23.603  1.00  0.00     0.039 C 
BRANCH  94  95
ATOM     95  C   UNL A   1      33.418  18.457  24.245  1.00  0.00    -0.048 A 
ATOM     96  C   UNL A   1      34.645  17.784  24.212  1.00  0.00     0.004 A 
ATOM     97  C   UNL A   1      32.312  17.805  24.815  1.00  0.00     0.004 A 
ATOM     98  C   UNL A   1      34.777  16.512  24.777  1.00  0.00     0.000 A 
ATOM     99  C   UNL A   1      32.445  16.535  25.382  1.00  0.00     0.000 A 
ATOM    100  C   UNL A   1      33.681  15.893  25.374  1.00  0.00     0.000 A 
ENDBRANCH  94  95
ENDBRANCH  93  94
ENDBRANCH  82  86
ENDBRANCH  78  80
ENDBRANCH  77  78
ENDBRANCH  76  77
ENDBRANCH  75  76
ENDBRANCH  74  75
ENDBRANCH   1  74
TORSDOF 20
ENDMDL
