MODEL 1
REMARK VINA RESULT:     -15.0      0.000      0.000
REMARK SMILES CC[C@@H](C)[C@H](NC(=O)[C@H](C)N1C(=O)N2CCC3=c4cc(OC)ccc4=N[C@H]3[C@@]2(C)C1=O)C(=O)OCCOCCOCCOC(=O)c1ccc(-c2c3nc(c(-c4c(F)c(F)c(F)c(F)c4F)c4ccc([nH]4)c(-c4c(F)c(F)c(F)c(F)c4F)c4nc(c(-c5c(F)c(F)c(F)c(F)c5F)c5ccc2[nH]5)C=C4)C=C3)cc1
REMARK SMILES IDX 38 1 37 2 36 3 35 4 34 5 32 6 33 7 5 8 3 9 4 10 2 11 1 12
REMARK SMILES IDX 6 13 7 14 8 16 9 17 10 18 11 19 12 20 30 21 14 22 13 23
REMARK SMILES IDX 28 24 31 25 15 26 27 27 29 28 16 29 17 30 26 31 18 32 25 33
REMARK SMILES IDX 19 34 24 35 20 36 23 37 21 38 22 39 39 40 40 41 41 42 42 43
REMARK SMILES IDX 43 44 44 45 45 46 46 47 47 48 108 49 48 50 107 51 49 52
REMARK SMILES IDX 50 53 51 54 101 55 52 56 106 57 100 58 102 59 53 60 105 61
REMARK SMILES IDX 99 62 98 63 54 65 86 66 66 67 85 68 67 69 70 70 84 71 103 72
REMARK SMILES IDX 68 73 69 74 83 76 104 77 71 78 55 79 56 80 64 81 57 82 58 83
REMARK SMILES IDX 62 84 65 85 59 86 60 87 63 88 61 89 87 90 88 91 96 92 89 93
REMARK SMILES IDX 90 94 94 95 97 96 91 97 92 98 95 99 93 100 72 101 73 102
REMARK SMILES IDX 81 103 74 104 75 105 79 106 82 107 76 108 77 109 80 110
REMARK SMILES IDX 78 111
REMARK H PARENT 6 15 102 64 70 75
REMARK Flexibility Score: inf
ROOT
ATOM      1  C   UNL A   1      44.058  18.347  26.136  1.00  0.00     0.188 C 
ENDROOT
BRANCH   1   2
ATOM      2  O   UNL A   1      42.565  18.649  26.534  1.00  0.00    -0.376 OA
BRANCH   2   3
ATOM      3  C   UNL A   1      41.381  19.733  25.857  1.00  0.00     0.202 C 
BRANCH   3   4
ATOM      4  C   UNL A   1      40.199  21.312  26.846  1.00  0.00     0.261 C 
BRANCH   4   5
ATOM      5  O   UNL A   1      39.182  22.476  25.919  1.00  0.00    -0.462 OA
BRANCH   5   6
ATOM      6  C   UNL A   1      37.956  23.152  26.144  1.00  0.00     0.328 C 
ATOM      7  O   UNL A   1      38.042  24.234  26.734  1.00  0.00    -0.250 OA
BRANCH   6   8
ATOM      8  C   UNL A   1      36.358  22.536  25.681  1.00  0.00     0.195 C 
BRANCH   8   9
ATOM      9  C   UNL A   1      36.399  21.315  24.681  1.00  0.00     0.019 C 
ATOM     10  C   UNL A   1      35.258  20.331  25.041  1.00  0.00     0.010 C 
BRANCH   9  11
ATOM     11  C   UNL A   1      37.750  20.567  24.671  1.00  0.00     0.002 C 
ATOM     12  C   UNL A   1      37.687  19.090  25.037  1.00  0.00     0.004 C 
ENDBRANCH   9  11
ENDBRANCH   8   9
BRANCH   8  13
ATOM     13  N   UNL A   1      35.177  23.425  25.217  1.00  0.00    -0.341 N 
ATOM     14  C   UNL A   1      34.039  23.872  25.962  1.00  0.00     0.243 C 
ATOM     15  H   UNL A   1      35.215  23.725  24.280  1.00  0.00     0.164 HD
ATOM     16  O   UNL A   1      33.336  23.030  26.531  1.00  0.00    -0.273 OA
BRANCH  14  17
ATOM     17  C   UNL A   1      33.546  25.623  25.808  1.00  0.00     0.181 C 
ATOM     18  C   UNL A   1      31.950  25.506  26.532  1.00  0.00     0.042 C 
BRANCH  17  19
ATOM     19  N   UNL A   1      34.140  27.439  25.128  1.00  0.00    -0.250 N 
ATOM     20  C   UNL A   1      33.458  28.012  23.550  1.00  0.00     0.328 C 
ATOM     21  C   UNL A   1      34.042  28.902  26.501  1.00  0.00     0.259 C 
ATOM     22  N   UNL A   1      32.311  29.375  23.927  1.00  0.00    -0.307 N 
ATOM     23  O   UNL A   1      34.095  28.064  22.485  1.00  0.00    -0.248 OA
ATOM     24  C   UNL A   1      32.252  29.451  25.425  1.00  0.00     0.147 C 
ATOM     25  O   UNL A   1      34.415  29.197  27.621  1.00  0.00    -0.271 OA
ATOM     26  C   UNL A   1      30.771  29.764  23.126  1.00  0.00     0.127 C 
ATOM     27  C   UNL A   1      31.162  28.028  24.606  1.00  0.00     0.168 C 
ATOM     28  C   UNL A   1      31.521  30.658  25.993  1.00  0.00     0.048 C 
ATOM     29  C   UNL A   1      29.434  28.456  23.395  1.00  0.00     0.055 C 
ATOM     30  C   UNL A   1      30.093  27.050  24.352  1.00  0.00    -0.032 C 
ATOM     31  N   UNL A   1      31.450  27.789  22.763  1.00  0.00    -0.274 NA
ATOM     32  C   UNL A   1      30.607  25.868  23.776  1.00  0.00     0.005 A 
ATOM     33  C   UNL A   1      31.118  26.612  22.311  1.00  0.00     0.066 A 
ATOM     34  C   UNL A   1      31.735  24.415  24.186  1.00  0.00     0.056 A 
ATOM     35  C   UNL A   1      32.056  25.685  20.942  1.00  0.00     0.032 A 
ATOM     36  C   UNL A   1      32.777  23.628  23.020  1.00  0.00     0.119 A 
ATOM     37  C   UNL A   1      32.901  24.423  21.283  1.00  0.00     0.048 A 
BRANCH  36  38
ATOM     38  O   UNL A   1      33.431  22.435  23.003  1.00  0.00    -0.497 OA
ATOM     39  C   UNL A   1      32.645  21.244  22.950  1.00  0.00     0.278 C 
ENDBRANCH  36  38
ENDBRANCH  17  19
ENDBRANCH  14  17
ENDBRANCH   8  13
ENDBRANCH   6   8
ENDBRANCH   5   6
ENDBRANCH   4   5
ENDBRANCH   3   4
ENDBRANCH   2   3
ENDBRANCH   1   2
BRANCH   1  40
ATOM     40  C   UNL A   1      45.173  19.218  24.876  1.00  0.00     0.188 C 
BRANCH  40  41
ATOM     41  O   UNL A   1      44.483  20.311  23.597  1.00  0.00    -0.376 OA
BRANCH  41  42
ATOM     42  C   UNL A   1      44.809  22.194  23.820  1.00  0.00     0.202 C 
BRANCH  42  43
ATOM     43  C   UNL A   1      43.068  22.629  25.241  1.00  0.00     0.261 C 
BRANCH  43  44
ATOM     44  O   UNL A   1      43.238  23.730  26.341  1.00  0.00    -0.460 OA
BRANCH  44  45
ATOM     45  C   UNL A   1      44.000  23.747  27.439  1.00  0.00     0.338 C 
ATOM     46  O   UNL A   1      44.015  22.964  28.362  1.00  0.00    -0.246 OA
BRANCH  45  47
ATOM     47  C   UNL A   1      44.907  24.904  27.200  1.00  0.00     0.060 A 
ATOM     48  C   UNL A   1      45.135  25.354  25.890  1.00  0.00     0.016 A 
ATOM     49  C   UNL A   1      45.661  25.427  28.253  1.00  0.00     0.016 A 
ATOM     50  C   UNL A   1      46.075  26.364  25.642  1.00  0.00     0.010 A 
ATOM     51  C   UNL A   1      46.640  26.396  27.997  1.00  0.00     0.010 A 
ATOM     52  C   UNL A   1      46.820  26.910  26.696  1.00  0.00    -0.014 A 
BRANCH  52  53
ATOM     53  C   UNL A   1      47.537  28.201  26.510  1.00  0.00     0.031 A 
ATOM     54  C   UNL A   1      46.897  29.551  26.646  1.00  0.00     0.074 A 
ATOM     55  C   UNL A   1      48.849  28.117  26.216  1.00  0.00     0.049 A 
ATOM     56  N   UNL A   1      47.471  30.731  26.603  1.00  0.00    -0.248 NA
ATOM     57  C   UNL A   1      45.444  29.600  26.854  1.00  0.00     0.031 C 
ATOM     58  C   UNL A   1      49.593  26.862  26.072  1.00  0.00     0.029 A 
ATOM     59  N   UNL A   1      49.782  29.088  25.965  1.00  0.00    -0.354 N 
ATOM     60  C   UNL A   1      46.464  31.661  26.815  1.00  0.00     0.074 A 
ATOM     61  C   UNL A   1      45.229  30.911  26.944  1.00  0.00     0.031 C 
ATOM     62  C   UNL A   1      50.849  27.136  25.701  1.00  0.00     0.029 A 
ATOM     63  C   UNL A   1      51.009  28.583  25.618  1.00  0.00     0.049 A 
ATOM     64  H   UNL A   1      49.591  30.051  26.026  1.00  0.00     0.167 HD
ATOM     65  C   UNL A   1      46.574  33.010  26.909  1.00  0.00     0.037 A 
ATOM     66  C   UNL A   1      52.152  29.204  25.282  1.00  0.00     0.037 A 
ATOM     67  C   UNL A   1      47.804  33.755  26.766  1.00  0.00     0.049 A 
ATOM     68  C   UNL A   1      52.233  30.693  25.349  1.00  0.00     0.074 A 
ATOM     69  C   UNL A   1      48.019  35.113  26.948  1.00  0.00     0.029 A 
ATOM     70  N   UNL A   1      49.022  33.213  26.385  1.00  0.00    -0.354 N 
ATOM     71  N   UNL A   1      51.296  31.551  25.662  1.00  0.00    -0.248 NA
ATOM     72  C   UNL A   1      53.537  31.298  25.052  1.00  0.00     0.031 C 
ATOM     73  C   UNL A   1      49.354  35.398  26.638  1.00  0.00     0.029 A 
ATOM     74  C   UNL A   1      49.980  34.213  26.293  1.00  0.00     0.049 A 
ATOM     75  H   UNL A   1      49.183  32.258  26.205  1.00  0.00     0.167 HD
ATOM     76  C   UNL A   1      51.899  32.797  25.631  1.00  0.00     0.074 A 
ATOM     77  C   UNL A   1      53.284  32.585  25.260  1.00  0.00     0.031 C 
ATOM     78  C   UNL A   1      51.349  34.004  25.902  1.00  0.00     0.037 A 
BRANCH  65  79
ATOM     79  C   UNL A   1      45.341  33.808  27.218  1.00  0.00     0.064 A 
ATOM     80  C   UNL A   1      45.106  34.293  28.512  1.00  0.00     0.173 A 
ATOM     81  C   UNL A   1      44.481  34.226  26.190  1.00  0.00     0.173 A 
ATOM     82  F   UNL A   1      45.908  33.932  29.524  1.00  0.00    -0.203 F 
ATOM     83  C   UNL A   1      44.057  35.174  28.766  1.00  0.00     0.198 A 
ATOM     84  C   UNL A   1      43.440  35.115  26.447  1.00  0.00     0.198 A 
ATOM     85  F   UNL A   1      44.677  33.804  24.932  1.00  0.00    -0.203 F 
ATOM     86  F   UNL A   1      43.856  35.634  30.009  1.00  0.00    -0.200 F 
ATOM     87  C   UNL A   1      43.231  35.591  27.733  1.00  0.00     0.200 A 
ATOM     88  F   UNL A   1      42.652  35.532  25.445  1.00  0.00    -0.200 F 
ATOM     89  F   UNL A   1      42.239  36.461  27.974  1.00  0.00    -0.200 F 
ENDBRANCH  65  79
BRANCH  66  90
ATOM     90  C   UNL A   1      53.320  28.376  24.913  1.00  0.00     0.064 A 
ATOM     91  C   UNL A   1      53.546  28.014  23.581  1.00  0.00     0.173 A 
ATOM     92  C   UNL A   1      54.279  28.020  25.871  1.00  0.00     0.173 A 
ATOM     93  F   UNL A   1      52.649  28.336  22.638  1.00  0.00    -0.203 F 
ATOM     94  C   UNL A   1      54.701  27.327  23.215  1.00  0.00     0.198 A 
ATOM     95  C   UNL A   1      55.437  27.344  25.502  1.00  0.00     0.198 A 
ATOM     96  F   UNL A   1      54.102  28.362  27.156  1.00  0.00    -0.203 F 
ATOM     97  F   UNL A   1      54.899  26.991  21.934  1.00  0.00    -0.200 F 
ATOM     98  C   UNL A   1      55.648  26.999  24.175  1.00  0.00     0.200 A 
ATOM     99  F   UNL A   1      56.357  27.039  26.429  1.00  0.00    -0.200 F 
ATOM    100  F   UNL A   1      56.767  26.355  23.820  1.00  0.00    -0.200 F 
ENDBRANCH  66  90
BRANCH  78 101
ATOM    101  C   UNL A   1      52.255  35.192  25.809  1.00  0.00     0.064 A 
ATOM    102  C   UNL A   1      52.982  35.638  26.920  1.00  0.00     0.173 A 
ATOM    103  C   UNL A   1      52.399  35.887  24.599  1.00  0.00     0.173 A 
ATOM    104  F   UNL A   1      52.858  35.017  28.102  1.00  0.00    -0.203 F 
ATOM    105  C   UNL A   1      53.811  36.754  26.828  1.00  0.00     0.198 A 
ATOM    106  C   UNL A   1      53.241  36.992  24.508  1.00  0.00     0.198 A 
ATOM    107  F   UNL A   1      51.721  35.498  23.510  1.00  0.00    -0.203 F 
ATOM    108  F   UNL A   1      54.469  37.188  27.912  1.00  0.00    -0.200 F 
ATOM    109  C   UNL A   1      53.941  37.428  25.623  1.00  0.00     0.200 A 
ATOM    110  F   UNL A   1      53.368  37.642  23.342  1.00  0.00    -0.200 F 
ATOM    111  F   UNL A   1      54.736  38.504  25.538  1.00  0.00    -0.200 F 
ENDBRANCH  78 101
ENDBRANCH  52  53
ENDBRANCH  45  47
ENDBRANCH  44  45
ENDBRANCH  43  44
ENDBRANCH  42  43
ENDBRANCH  41  42
ENDBRANCH  40  41
ENDBRANCH   1  40
TORSDOF 23
ENDMDL
MODEL 2
REMARK VINA RESULT:     -14.9      5.961     10.062
REMARK SMILES CC[C@@H](C)[C@H](NC(=O)[C@H](C)N1C(=O)N2CCC3=c4cc(OC)ccc4=N[C@H]3[C@@]2(C)C1=O)C(=O)OCCOCCOCCOC(=O)c1ccc(-c2c3nc(c(-c4c(F)c(F)c(F)c(F)c4F)c4ccc([nH]4)c(-c4c(F)c(F)c(F)c(F)c4F)c4nc(c(-c5c(F)c(F)c(F)c(F)c5F)c5ccc2[nH]5)C=C4)C=C3)cc1
REMARK SMILES IDX 38 1 37 2 36 3 35 4 34 5 32 6 33 7 5 8 3 9 4 10 2 11 1 12
REMARK SMILES IDX 6 13 7 14 8 16 9 17 10 18 11 19 12 20 30 21 14 22 13 23
REMARK SMILES IDX 28 24 31 25 15 26 27 27 29 28 16 29 17 30 26 31 18 32 25 33
REMARK SMILES IDX 19 34 24 35 20 36 23 37 21 38 22 39 39 40 40 41 41 42 42 43
REMARK SMILES IDX 43 44 44 45 45 46 46 47 47 48 108 49 48 50 107 51 49 52
REMARK SMILES IDX 50 53 51 54 101 55 52 56 106 57 100 58 102 59 53 60 105 61
REMARK SMILES IDX 99 62 98 63 54 65 86 66 66 67 85 68 67 69 70 70 84 71 103 72
REMARK SMILES IDX 68 73 69 74 83 76 104 77 71 78 55 79 56 80 64 81 57 82 58 83
REMARK SMILES IDX 62 84 65 85 59 86 60 87 63 88 61 89 87 90 88 91 96 92 89 93
REMARK SMILES IDX 90 94 94 95 97 96 91 97 92 98 95 99 93 100 72 101 73 102
REMARK SMILES IDX 81 103 74 104 75 105 79 106 82 107 76 108 77 109 80 110
REMARK SMILES IDX 78 111
REMARK H PARENT 6 15 102 64 70 75
REMARK Flexibility Score: inf
ROOT
ATOM      1  C   UNL A   1      51.509  22.827  34.187  1.00  0.00     0.188 C 
ENDROOT
BRANCH   1   2
ATOM      2  O   UNL A   1      50.851  22.995  32.766  1.00  0.00    -0.376 OA
BRANCH   2   3
ATOM      3  C   UNL A   1      51.034  24.219  31.540  1.00  0.00     0.202 C 
BRANCH   3   4
ATOM      4  C   UNL A   1      49.980  26.144  31.313  1.00  0.00     0.261 C 
BRANCH   4   5
ATOM      5  O   UNL A   1      48.760  26.425  30.015  1.00  0.00    -0.462 OA
BRANCH   5   6
ATOM      6  C   UNL A   1      47.987  25.603  29.157  1.00  0.00     0.328 C 
ATOM      7  O   UNL A   1      46.876  25.277  29.587  1.00  0.00    -0.250 OA
BRANCH   6   8
ATOM      8  C   UNL A   1      48.520  25.004  27.575  1.00  0.00     0.195 C 
BRANCH   8   9
ATOM      9  C   UNL A   1      49.643  25.880  26.894  1.00  0.00     0.019 C 
ATOM     10  C   UNL A   1      49.331  26.013  25.382  1.00  0.00     0.010 C 
BRANCH   9  11
ATOM     11  C   UNL A   1      51.069  25.320  27.085  1.00  0.00     0.002 C 
ATOM     12  C   UNL A   1      51.954  26.089  28.057  1.00  0.00     0.004 C 
ENDBRANCH   9  11
ENDBRANCH   8   9
BRANCH   8  13
ATOM     13  N   UNL A   1      47.565  24.575  26.433  1.00  0.00    -0.341 N 
ATOM     14  C   UNL A   1      46.259  23.995  26.520  1.00  0.00     0.243 C 
ATOM     15  H   UNL A   1      47.903  24.724  25.519  1.00  0.00     0.164 HD
ATOM     16  O   UNL A   1      46.112  22.966  27.188  1.00  0.00    -0.273 OA
BRANCH  14  17
ATOM     17  C   UNL A   1      44.952  24.655  25.430  1.00  0.00     0.181 C 
ATOM     18  C   UNL A   1      44.676  23.218  24.459  1.00  0.00     0.042 C 
BRANCH  17  19
ATOM     19  N   UNL A   1      43.863  26.310  24.994  1.00  0.00    -0.250 N 
ATOM     20  C   UNL A   1      42.246  26.489  25.791  1.00  0.00     0.328 C 
ATOM     21  C   UNL A   1      44.897  28.028  25.120  1.00  0.00     0.259 C 
ATOM     22  N   UNL A   1      42.397  27.837  27.006  1.00  0.00    -0.307 N 
ATOM     23  O   UNL A   1      41.156  26.345  25.214  1.00  0.00    -0.248 OA
ATOM     24  C   UNL A   1      43.845  28.233  26.995  1.00  0.00     0.147 C 
ATOM     25  O   UNL A   1      45.903  28.579  24.712  1.00  0.00    -0.271 OA
ATOM     26  C   UNL A   1      41.631  27.959  28.607  1.00  0.00     0.127 C 
ATOM     27  C   UNL A   1      43.419  26.609  28.026  1.00  0.00     0.168 C 
ATOM     28  C   UNL A   1      44.187  29.492  27.775  1.00  0.00     0.048 C 
ATOM     29  C   UNL A   1      42.256  26.670  29.838  1.00  0.00     0.055 C 
ATOM     30  C   UNL A   1      43.447  25.543  29.039  1.00  0.00    -0.032 C 
ATOM     31  N   UNL A   1      41.654  25.993  27.817  1.00  0.00    -0.274 NA
ATOM     32  C   UNL A   1      43.105  24.293  28.477  1.00  0.00     0.005 A 
ATOM     33  C   UNL A   1      41.485  24.729  28.092  1.00  0.00     0.066 A 
ATOM     34  C   UNL A   1      43.743  23.028  27.236  1.00  0.00     0.056 A 
ATOM     35  C   UNL A   1      40.289  23.580  27.164  1.00  0.00     0.032 A 
ATOM     36  C   UNL A   1      42.707  22.064  26.203  1.00  0.00     0.119 A 
ATOM     37  C   UNL A   1      40.836  22.470  26.220  1.00  0.00     0.048 A 
BRANCH  36  38
ATOM     38  O   UNL A   1      42.903  20.934  25.473  1.00  0.00    -0.497 OA
ATOM     39  C   UNL A   1      42.756  19.678  26.135  1.00  0.00     0.278 C 
ENDBRANCH  36  38
ENDBRANCH  17  19
ENDBRANCH  14  17
ENDBRANCH   8  13
ENDBRANCH   6   8
ENDBRANCH   5   6
ENDBRANCH   4   5
ENDBRANCH   3   4
ENDBRANCH   2   3
ENDBRANCH   1   2
BRANCH   1  40
ATOM     40  C   UNL A   1      51.279  21.455  35.472  1.00  0.00     0.188 C 
BRANCH  40  41
ATOM     41  O   UNL A   1      49.736  20.498  35.569  1.00  0.00    -0.376 OA
BRANCH  41  42
ATOM     42  C   UNL A   1      48.434  20.840  34.195  1.00  0.00     0.202 C 
BRANCH  42  43
ATOM     43  C   UNL A   1      47.842  22.946  34.865  1.00  0.00     0.261 C 
BRANCH  43  44
ATOM     44  O   UNL A   1      46.470  23.160  35.587  1.00  0.00    -0.460 OA
BRANCH  44  45
ATOM     45  C   UNL A   1      45.222  22.949  35.155  1.00  0.00     0.338 C 
ATOM     46  O   UNL A   1      44.525  21.971  35.303  1.00  0.00    -0.246 OA
BRANCH  45  47
ATOM     47  C   UNL A   1      44.855  24.255  34.541  1.00  0.00     0.060 A 
ATOM     48  C   UNL A   1      44.753  25.401  35.345  1.00  0.00     0.016 A 
ATOM     49  C   UNL A   1      44.444  24.306  33.206  1.00  0.00     0.016 A 
ATOM     50  C   UNL A   1      44.294  26.609  34.800  1.00  0.00     0.010 A 
ATOM     51  C   UNL A   1      43.933  25.499  32.678  1.00  0.00     0.010 A 
ATOM     52  C   UNL A   1      43.901  26.674  33.456  1.00  0.00    -0.014 A 
BRANCH  52  53
ATOM     53  C   UNL A   1      43.764  27.995  32.785  1.00  0.00     0.031 A 
ATOM     54  C   UNL A   1      42.496  28.797  32.744  1.00  0.00     0.074 A 
ATOM     55  C   UNL A   1      44.874  28.482  32.196  1.00  0.00     0.049 A 
ATOM     56  N   UNL A   1      42.314  30.007  32.270  1.00  0.00    -0.248 NA
ATOM     57  C   UNL A   1      41.281  28.182  33.296  1.00  0.00     0.031 C 
ATOM     58  C   UNL A   1      46.174  27.806  32.179  1.00  0.00     0.029 A 
ATOM     59  N   UNL A   1      45.088  29.635  31.487  1.00  0.00    -0.354 N 
ATOM     60  C   UNL A   1      40.981  30.317  32.496  1.00  0.00     0.074 A 
ATOM     61  C   UNL A   1      40.384  29.148  33.114  1.00  0.00     0.031 C 
ATOM     62  C   UNL A   1      47.033  28.524  31.446  1.00  0.00     0.029 A 
ATOM     63  C   UNL A   1      46.357  29.726  30.974  1.00  0.00     0.049 A 
ATOM     64  H   UNL A   1      44.401  30.326  31.358  1.00  0.00     0.167 HD
ATOM     65  C   UNL A   1      40.332  31.477  32.226  1.00  0.00     0.037 A 
ATOM     66  C   UNL A   1      46.933  30.676  30.218  1.00  0.00     0.037 A 
ATOM     67  C   UNL A   1      40.927  32.635  31.599  1.00  0.00     0.049 A 
ATOM     68  C   UNL A   1      46.179  31.923  29.896  1.00  0.00     0.074 A 
ATOM     69  C   UNL A   1      40.366  33.885  31.382  1.00  0.00     0.029 A 
ATOM     70  N   UNL A   1      42.206  32.681  31.065  1.00  0.00    -0.354 N 
ATOM     71  N   UNL A   1      44.953  32.245  30.217  1.00  0.00    -0.248 NA
ATOM     72  C   UNL A   1      46.900  32.954  29.139  1.00  0.00     0.031 C 
ATOM     73  C   UNL A   1      41.289  34.672  30.683  1.00  0.00     0.029 A 
ATOM     74  C   UNL A   1      42.437  33.923  30.491  1.00  0.00     0.049 A 
ATOM     75  H   UNL A   1      42.854  31.940  31.089  1.00  0.00     0.167 HD
ATOM     76  C   UNL A   1      44.759  33.527  29.730  1.00  0.00     0.074 A 
ATOM     77  C   UNL A   1      45.994  33.922  29.083  1.00  0.00     0.031 C 
ATOM     78  C   UNL A   1      43.656  34.306  29.828  1.00  0.00     0.037 A 
BRANCH  65  79
ATOM     79  C   UNL A   1      38.893  31.603  32.633  1.00  0.00     0.064 A 
ATOM     80  C   UNL A   1      38.543  32.160  33.872  1.00  0.00     0.173 A 
ATOM     81  C   UNL A   1      37.863  31.320  31.724  1.00  0.00     0.173 A 
ATOM     82  F   UNL A   1      39.494  32.459  34.769  1.00  0.00    -0.203 F 
ATOM     83  C   UNL A   1      37.214  32.435  34.183  1.00  0.00     0.198 A 
ATOM     84  C   UNL A   1      36.535  31.607  32.035  1.00  0.00     0.198 A 
ATOM     85  F   UNL A   1      38.149  30.805  30.519  1.00  0.00    -0.203 F 
ATOM     86  F   UNL A   1      36.902  32.977  35.369  1.00  0.00    -0.200 F 
ATOM     87  C   UNL A   1      36.212  32.167  33.261  1.00  0.00     0.200 A 
ATOM     88  F   UNL A   1      35.569  31.364  31.137  1.00  0.00    -0.200 F 
ATOM     89  F   UNL A   1      34.936  32.459  33.552  1.00  0.00    -0.200 F 
ENDBRANCH  65  79
BRANCH  66  90
ATOM     90  C   UNL A   1      48.329  30.472  29.778  1.00  0.00     0.064 A 
ATOM     91  C   UNL A   1      49.397  30.748  30.640  1.00  0.00     0.173 A 
ATOM     92  C   UNL A   1      48.613  29.904  28.529  1.00  0.00     0.173 A 
ATOM     93  F   UNL A   1      49.162  31.293  31.842  1.00  0.00    -0.203 F 
ATOM     94  C   UNL A   1      50.706  30.455  30.269  1.00  0.00     0.198 A 
ATOM     95  C   UNL A   1      49.921  29.602  28.165  1.00  0.00     0.198 A 
ATOM     96  F   UNL A   1      47.614  29.614  27.682  1.00  0.00    -0.203 F 
ATOM     97  F   UNL A   1      51.714  30.726  31.109  1.00  0.00    -0.200 F 
ATOM     98  C   UNL A   1      50.966  29.876  29.035  1.00  0.00     0.200 A 
ATOM     99  F   UNL A   1      50.169  29.031  26.977  1.00  0.00    -0.200 F 
ATOM    100  F   UNL A   1      52.224  29.578  28.686  1.00  0.00    -0.200 F 
ENDBRANCH  66  90
BRANCH  78 101
ATOM    101  C   UNL A   1      43.740  35.671  29.221  1.00  0.00     0.064 A 
ATOM    102  C   UNL A   1      43.169  35.946  27.971  1.00  0.00     0.173 A 
ATOM    103  C   UNL A   1      44.393  36.713  29.894  1.00  0.00     0.173 A 
ATOM    104  F   UNL A   1      42.554  34.973  27.281  1.00  0.00    -0.203 F 
ATOM    105  C   UNL A   1      43.266  37.215  27.406  1.00  0.00     0.198 A 
ATOM    106  C   UNL A   1      44.474  37.985  29.333  1.00  0.00     0.198 A 
ATOM    107  F   UNL A   1      44.957  36.497  31.091  1.00  0.00    -0.203 F 
ATOM    108  F   UNL A   1      42.746  37.448  26.193  1.00  0.00    -0.200 F 
ATOM    109  C   UNL A   1      43.914  38.234  28.088  1.00  0.00     0.200 A 
ATOM    110  F   UNL A   1      45.100  38.969  29.994  1.00  0.00    -0.200 F 
ATOM    111  F   UNL A   1      44.010  39.453  27.541  1.00  0.00    -0.200 F 
ENDBRANCH  78 101
ENDBRANCH  52  53
ENDBRANCH  45  47
ENDBRANCH  44  45
ENDBRANCH  43  44
ENDBRANCH  42  43
ENDBRANCH  41  42
ENDBRANCH  40  41
ENDBRANCH   1  40
TORSDOF 23
ENDMDL
MODEL 3
REMARK VINA RESULT:     -14.3      6.984     13.330
REMARK SMILES CC[C@@H](C)[C@H](NC(=O)[C@H](C)N1C(=O)N2CCC3=c4cc(OC)ccc4=N[C@H]3[C@@]2(C)C1=O)C(=O)OCCOCCOCCOC(=O)c1ccc(-c2c3nc(c(-c4c(F)c(F)c(F)c(F)c4F)c4ccc([nH]4)c(-c4c(F)c(F)c(F)c(F)c4F)c4nc(c(-c5c(F)c(F)c(F)c(F)c5F)c5ccc2[nH]5)C=C4)C=C3)cc1
REMARK SMILES IDX 38 1 37 2 36 3 35 4 34 5 32 6 33 7 5 8 3 9 4 10 2 11 1 12
REMARK SMILES IDX 6 13 7 14 8 16 9 17 10 18 11 19 12 20 30 21 14 22 13 23
REMARK SMILES IDX 28 24 31 25 15 26 27 27 29 28 16 29 17 30 26 31 18 32 25 33
REMARK SMILES IDX 19 34 24 35 20 36 23 37 21 38 22 39 39 40 40 41 41 42 42 43
REMARK SMILES IDX 43 44 44 45 45 46 46 47 47 48 108 49 48 50 107 51 49 52
REMARK SMILES IDX 50 53 51 54 101 55 52 56 106 57 100 58 102 59 53 60 105 61
REMARK SMILES IDX 99 62 98 63 54 65 86 66 66 67 85 68 67 69 70 70 84 71 103 72
REMARK SMILES IDX 68 73 69 74 83 76 104 77 71 78 55 79 56 80 64 81 57 82 58 83
REMARK SMILES IDX 62 84 65 85 59 86 60 87 63 88 61 89 87 90 88 91 96 92 89 93
REMARK SMILES IDX 90 94 94 95 97 96 91 97 92 98 95 99 93 100 72 101 73 102
REMARK SMILES IDX 81 103 74 104 75 105 79 106 82 107 76 108 77 109 80 110
REMARK SMILES IDX 78 111
REMARK H PARENT 6 15 102 64 70 75
REMARK Flexibility Score: inf
ROOT
ATOM      1  C   UNL A   1      42.705  35.131  31.617  1.00  0.00     0.188 C 
ENDROOT
BRANCH   1   2
ATOM      2  O   UNL A   1      43.876  36.025  32.173  1.00  0.00    -0.376 OA
BRANCH   2   3
ATOM      3  C   UNL A   1      43.888  37.632  32.847  1.00  0.00     0.202 C 
BRANCH   3   4
ATOM      4  C   UNL A   1      43.657  38.274  34.945  1.00  0.00     0.261 C 
BRANCH   4   5
ATOM      5  O   UNL A   1      43.131  37.142  36.245  1.00  0.00    -0.462 OA
BRANCH   5   6
ATOM      6  C   UNL A   1      43.196  35.741  36.456  1.00  0.00     0.328 C 
ATOM      7  O   UNL A   1      44.121  35.156  35.881  1.00  0.00    -0.250 OA
BRANCH   6   8
ATOM      8  C   UNL A   1      42.044  34.806  37.427  1.00  0.00     0.195 C 
BRANCH   8   9
ATOM      9  C   UNL A   1      41.728  35.434  38.841  1.00  0.00     0.019 C 
ATOM     10  C   UNL A   1      42.360  34.544  39.941  1.00  0.00     0.010 C 
BRANCH   9  11
ATOM     11  C   UNL A   1      40.219  35.614  39.117  1.00  0.00     0.002 C 
ATOM     12  C   UNL A   1      39.655  34.778  40.258  1.00  0.00     0.004 C 
ENDBRANCH   9  11
ENDBRANCH   8   9
BRANCH   8  13
ATOM     13  N   UNL A   1      42.126  33.275  37.652  1.00  0.00    -0.341 N 
ATOM     14  C   UNL A   1      41.215  32.253  37.235  1.00  0.00     0.243 C 
ATOM     15  H   UNL A   1      42.916  32.962  38.151  1.00  0.00     0.164 HD
ATOM     16  O   UNL A   1      40.026  32.354  37.553  1.00  0.00    -0.273 OA
BRANCH  14  17
ATOM     17  C   UNL A   1      41.908  30.737  36.491  1.00  0.00     0.181 C 
ATOM     18  C   UNL A   1      43.545  31.309  36.218  1.00  0.00     0.042 C 
BRANCH  17  19
ATOM     19  N   UNL A   1      41.461  28.846  35.907  1.00  0.00    -0.250 N 
ATOM     20  C   UNL A   1      41.111  28.566  34.152  1.00  0.00     0.328 C 
ATOM     21  C   UNL A   1      42.735  27.453  36.595  1.00  0.00     0.259 C 
ATOM     22  N   UNL A   1      42.518  27.631  33.470  1.00  0.00    -0.307 N 
ATOM     23  O   UNL A   1      39.983  28.343  33.685  1.00  0.00    -0.248 OA
ATOM     24  C   UNL A   1      43.519  27.536  34.585  1.00  0.00     0.147 C 
ATOM     25  O   UNL A   1      43.229  27.023  37.621  1.00  0.00    -0.271 OA
ATOM     26  C   UNL A   1      43.251  27.778  31.856  1.00  0.00     0.127 C 
ATOM     27  C   UNL A   1      43.484  29.256  33.622  1.00  0.00     0.168 C 
ATOM     28  C   UNL A   1      44.699  26.611  34.330  1.00  0.00     0.048 C 
ATOM     29  C   UNL A   1      44.109  29.437  31.569  1.00  0.00     0.055 C 
ATOM     30  C   UNL A   1      43.893  30.530  33.013  1.00  0.00    -0.032 C 
ATOM     31  N   UNL A   1      42.059  29.441  32.409  1.00  0.00    -0.274 NA
ATOM     32  C   UNL A   1      42.875  31.502  33.128  1.00  0.00     0.005 A 
ATOM     33  C   UNL A   1      41.749  30.676  32.123  1.00  0.00     0.066 A 
ATOM     34  C   UNL A   1      41.956  32.506  34.432  1.00  0.00     0.056 A 
ATOM     35  C   UNL A   1      39.978  31.292  31.814  1.00  0.00     0.032 A 
ATOM     36  C   UNL A   1      40.267  32.951  34.311  1.00  0.00     0.119 A 
ATOM     37  C   UNL A   1      39.270  32.207  32.856  1.00  0.00     0.048 A 
BRANCH  36  38
ATOM     38  O   UNL A   1      39.493  33.871  34.946  1.00  0.00    -0.497 OA
ATOM     39  C   UNL A   1      39.790  35.252  34.735  1.00  0.00     0.278 C 
ENDBRANCH  36  38
ENDBRANCH  17  19
ENDBRANCH  14  17
ENDBRANCH   8  13
ENDBRANCH   6   8
ENDBRANCH   5   6
ENDBRANCH   4   5
ENDBRANCH   3   4
ENDBRANCH   2   3
ENDBRANCH   1   2
BRANCH   1  40
ATOM     40  C   UNL A   1      42.390  34.512  29.854  1.00  0.00     0.188 C 
BRANCH  40  41
ATOM     41  O   UNL A   1      41.418  35.487  28.667  1.00  0.00    -0.376 OA
BRANCH  41  42
ATOM     42  C   UNL A   1      42.210  35.757  26.935  1.00  0.00     0.202 C 
BRANCH  42  43
ATOM     43  C   UNL A   1      43.809  37.266  27.572  1.00  0.00     0.261 C 
BRANCH  43  44
ATOM     44  O   UNL A   1      45.312  36.828  27.577  1.00  0.00    -0.460 OA
BRANCH  44  45
ATOM     45  C   UNL A   1      46.060  36.311  28.555  1.00  0.00     0.338 C 
ATOM     46  O   UNL A   1      46.689  36.888  29.414  1.00  0.00    -0.246 OA
BRANCH  45  47
ATOM     47  C   UNL A   1      45.845  34.845  28.402  1.00  0.00     0.060 A 
ATOM     48  C   UNL A   1      46.101  33.985  29.481  1.00  0.00     0.016 A 
ATOM     49  C   UNL A   1      45.561  34.311  27.142  1.00  0.00     0.016 A 
ATOM     50  C   UNL A   1      46.015  32.596  29.315  1.00  0.00     0.010 A 
ATOM     51  C   UNL A   1      45.532  32.922  26.964  1.00  0.00     0.010 A 
ATOM     52  C   UNL A   1      45.709  32.052  28.059  1.00  0.00    -0.014 A 
BRANCH  52  53
ATOM     53  C   UNL A   1      45.265  30.635  27.951  1.00  0.00     0.031 A 
ATOM     54  C   UNL A   1      43.858  30.169  28.185  1.00  0.00     0.074 A 
ATOM     55  C   UNL A   1      46.210  29.740  27.603  1.00  0.00     0.049 A 
ATOM     56  N   UNL A   1      43.361  28.967  28.010  1.00  0.00    -0.248 NA
ATOM     57  C   UNL A   1      42.884  31.154  28.673  1.00  0.00     0.031 C 
ATOM     58  C   UNL A   1      47.612  30.070  27.333  1.00  0.00     0.029 A 
ATOM     59  N   UNL A   1      46.150  28.381  27.439  1.00  0.00    -0.354 N 
ATOM     60  C   UNL A   1      42.013  29.054  28.328  1.00  0.00     0.074 A 
ATOM     61  C   UNL A   1      41.776  30.421  28.750  1.00  0.00     0.031 C 
ATOM     62  C   UNL A   1      48.291  28.942  27.095  1.00  0.00     0.029 A 
ATOM     63  C   UNL A   1      47.367  27.816  27.158  1.00  0.00     0.049 A 
ATOM     64  H   UNL A   1      45.317  27.863  27.514  1.00  0.00     0.167 HD
ATOM     65  C   UNL A   1      41.069  28.082  28.253  1.00  0.00     0.037 A 
ATOM     66  C   UNL A   1      47.715  26.534  26.956  1.00  0.00     0.037 A 
ATOM     67  C   UNL A   1      41.313  26.717  27.845  1.00  0.00     0.049 A 
ATOM     68  C   UNL A   1      46.661  25.477  26.925  1.00  0.00     0.074 A 
ATOM     69  C   UNL A   1      40.394  25.698  27.645  1.00  0.00     0.029 A 
ATOM     70  N   UNL A   1      42.564  26.173  27.598  1.00  0.00    -0.354 N 
ATOM     71  N   UNL A   1      45.373  25.599  27.117  1.00  0.00    -0.248 NA
ATOM     72  C   UNL A   1      47.103  24.112  26.613  1.00  0.00     0.031 C 
ATOM     73  C   UNL A   1      41.091  24.529  27.317  1.00  0.00     0.029 A 
ATOM     74  C   UNL A   1      42.442  24.827  27.282  1.00  0.00     0.049 A 
ATOM     75  H   UNL A   1      43.413  26.668  27.641  1.00  0.00     0.167 HD
ATOM     76  C   UNL A   1      44.841  24.336  26.922  1.00  0.00     0.074 A 
ATOM     77  C   UNL A   1      45.949  23.458  26.603  1.00  0.00     0.031 C 
ATOM     78  C   UNL A   1      43.545  23.950  26.988  1.00  0.00     0.037 A 
BRANCH  65  79
ATOM     79  C   UNL A   1      39.649  28.439  28.583  1.00  0.00     0.064 A 
ATOM     80  C   UNL A   1      39.134  28.217  29.867  1.00  0.00     0.173 A 
ATOM     81  C   UNL A   1      38.857  29.149  27.668  1.00  0.00     0.173 A 
ATOM     82  F   UNL A   1      39.858  27.554  30.780  1.00  0.00    -0.203 F 
ATOM     83  C   UNL A   1      37.877  28.700  30.228  1.00  0.00     0.198 A 
ATOM     84  C   UNL A   1      37.606  29.640  28.036  1.00  0.00     0.198 A 
ATOM     85  F   UNL A   1      39.315  29.403  26.433  1.00  0.00    -0.203 F 
ATOM     86  F   UNL A   1      37.408  28.485  31.464  1.00  0.00    -0.200 F 
ATOM     87  C   UNL A   1      37.119  29.418  29.315  1.00  0.00     0.200 A 
ATOM     88  F   UNL A   1      36.880  30.348  27.159  1.00  0.00    -0.200 F 
ATOM     89  F   UNL A   1      35.922  29.906  29.673  1.00  0.00    -0.200 F 
ENDBRANCH  65  79
BRANCH  66  90
ATOM     90  C   UNL A   1      49.139  26.223  26.709  1.00  0.00     0.064 A 
ATOM     91  C   UNL A   1      49.688  26.357  25.428  1.00  0.00     0.173 A 
ATOM     92  C   UNL A   1      49.994  25.887  27.767  1.00  0.00     0.173 A 
ATOM     93  F   UNL A   1      48.899  26.676  24.393  1.00  0.00    -0.203 F 
ATOM     94  C   UNL A   1      51.051  26.171  25.214  1.00  0.00     0.198 A 
ATOM     95  C   UNL A   1      51.357  25.712  27.552  1.00  0.00     0.198 A 
ATOM     96  F   UNL A   1      49.506  25.763  29.010  1.00  0.00    -0.203 F 
ATOM     97  F   UNL A   1      51.556  26.305  23.981  1.00  0.00    -0.200 F 
ATOM     98  C   UNL A   1      51.885  25.855  26.277  1.00  0.00     0.200 A 
ATOM     99  F   UNL A   1      52.164  25.420  28.583  1.00  0.00    -0.200 F 
ATOM    100  F   UNL A   1      53.199  25.695  26.074  1.00  0.00    -0.200 F 
ENDBRANCH  66  90
BRANCH  78 101
ATOM    101  C   UNL A   1      43.257  22.509  26.705  1.00  0.00     0.064 A 
ATOM    102  C   UNL A   1      43.677  21.905  25.513  1.00  0.00     0.173 A 
ATOM    103  C   UNL A   1      42.558  21.725  27.635  1.00  0.00     0.173 A 
ATOM    104  F   UNL A   1      44.330  22.623  24.586  1.00  0.00    -0.203 F 
ATOM    105  C   UNL A   1      43.391  20.568  25.252  1.00  0.00     0.198 A 
ATOM    106  C   UNL A   1      42.288  20.384  27.376  1.00  0.00     0.198 A 
ATOM    107  F   UNL A   1      42.134  22.260  28.788  1.00  0.00    -0.203 F 
ATOM    108  F   UNL A   1      43.769  20.018  24.089  1.00  0.00    -0.200 F 
ATOM    109  C   UNL A   1      42.700  19.808  26.183  1.00  0.00     0.200 A 
ATOM    110  F   UNL A   1      41.621  19.650  28.278  1.00  0.00    -0.200 F 
ATOM    111  F   UNL A   1      42.422  18.522  25.928  1.00  0.00    -0.200 F 
ENDBRANCH  78 101
ENDBRANCH  52  53
ENDBRANCH  45  47
ENDBRANCH  44  45
ENDBRANCH  43  44
ENDBRANCH  42  43
ENDBRANCH  41  42
ENDBRANCH  40  41
ENDBRANCH   1  40
TORSDOF 23
ENDMDL
