MODEL 1
REMARK VINA RESULT:     -13.5      0.000      0.000
REMARK SMILES O=C(Cc1ccccc1)Nc1cccc(C(=O)Nc2ccccc2C(=O)OCCOCCOCCOC(=O)c2ccc(-c3c4nc(c(-c5c(F)c(F)c(F)c(F)c5F)c5ccc([nH]5)c(-c5c(F)c(F)c(F)c(F)c5F)c5nc(c(-c6c(F)c(F)c(F)c(F)c6F)c6ccc3[nH]6)C=C5)C=C4)cc2)c1
REMARK SMILES IDX 30 1 29 2 28 3 27 4 25 5 26 6 24 7 19 8 20 9 21 10 23 11
REMARK SMILES IDX 22 12 18 13 16 14 17 15 15 17 11 18 12 19 102 20 13 21 14 22
REMARK SMILES IDX 10 23 1 24 2 25 3 27 4 28 5 29 9 30 6 31 8 32 7 33 31 34
REMARK SMILES IDX 32 35 33 36 34 37 35 38 36 39 37 40 38 41 39 42 40 43 101 44
REMARK SMILES IDX 41 45 100 46 42 47 43 48 44 49 94 50 45 51 99 52 93 53 95 54
REMARK SMILES IDX 46 55 98 56 92 57 91 58 47 60 79 61 59 62 78 63 60 64 63 65
REMARK SMILES IDX 77 66 96 67 61 68 62 69 76 71 97 72 64 73 48 74 49 75 57 76
REMARK SMILES IDX 50 77 51 78 55 79 58 80 52 81 53 82 56 83 54 84 80 85 81 86
REMARK SMILES IDX 89 87 82 88 83 89 87 90 90 91 84 92 85 93 88 94 86 95 65 96
REMARK SMILES IDX 66 97 74 98 67 99 68 100 72 101 75 102 69 103 70 104 73 105
REMARK SMILES IDX 71 106
REMARK H PARENT 18 16 10 26 95 59 63 70
REMARK Flexibility Score: inf
ROOT
ATOM      1  O   UNL A   1      40.245  21.350  27.324  1.00  0.00    -0.376 OA
ENDROOT
BRANCH   1   2
ATOM      2  C   UNL A   1      39.491  21.596  26.152  1.00  0.00     0.202 C 
BRANCH   2   3
ATOM      3  C   UNL A   1      38.320  22.579  26.046  1.00  0.00     0.261 C 
BRANCH   3   4
ATOM      4  O   UNL A   1      37.021  22.063  25.743  1.00  0.00    -0.460 OA
BRANCH   4   5
ATOM      5  C   UNL A   1      36.409  22.645  24.681  1.00  0.00     0.340 C 
ATOM      6  O   UNL A   1      36.927  23.446  23.911  1.00  0.00    -0.246 OA
BRANCH   5   7
ATOM      7  C   UNL A   1      35.076  22.048  24.407  1.00  0.00     0.083 A 
ATOM      8  C   UNL A   1      34.080  22.572  23.562  1.00  0.00     0.056 A 
ATOM      9  C   UNL A   1      32.835  21.915  23.530  1.00  0.00     0.027 A 
ATOM     10  C   UNL A   1      32.613  20.725  24.232  1.00  0.00     0.002 A 
ATOM     11  C   UNL A   1      34.823  20.867  25.143  1.00  0.00     0.018 A 
ATOM     12  C   UNL A   1      33.611  20.195  25.036  1.00  0.00     0.001 A 
BRANCH   8  13
ATOM     13  N   UNL A   1      34.177  23.678  22.683  1.00  0.00    -0.321 N 
ATOM     14  C   UNL A   1      33.498  24.879  22.603  1.00  0.00     0.255 C 
ATOM     15  O   UNL A   1      33.642  25.592  21.610  1.00  0.00    -0.269 OA
ATOM     16  H   UNL A   1      34.866  23.569  21.989  1.00  0.00     0.170 HD
BRANCH  14  17
ATOM     17  C   UNL A   1      32.630  25.358  23.707  1.00  0.00     0.042 A 
ATOM     18  C   UNL A   1      30.525  26.335  24.332  1.00  0.00     0.041 A 
ATOM     19  C   UNL A   1      31.143  26.913  25.450  1.00  0.00     0.026 A 
ATOM     20  C   UNL A   1      31.245  25.442  23.544  1.00  0.00     0.040 A 
ATOM     21  C   UNL A   1      32.486  26.652  25.735  1.00  0.00     0.003 A 
ATOM     22  C   UNL A   1      33.242  25.892  24.845  1.00  0.00     0.014 A 
BRANCH  18  23
ATOM     23  N   UNL A   1      29.299  26.892  23.903  1.00  0.00    -0.326 N 
ATOM     24  O   UNL A   1      29.921  28.219  22.090  1.00  0.00    -0.274 OA
ATOM     25  C   UNL A   1      29.118  27.893  22.960  1.00  0.00     0.228 C 
ATOM     26  H   UNL A   1      28.484  26.529  24.319  1.00  0.00     0.169 HD
BRANCH  25  27
ATOM     27  C   UNL A   1      27.820  28.676  23.145  1.00  0.00     0.135 C 
BRANCH  27  28
ATOM     28  C   UNL A   1      27.931  30.094  22.655  1.00  0.00    -0.039 A 
ATOM     29  C   UNL A   1      27.954  30.381  21.284  1.00  0.00     0.004 A 
ATOM     30  C   UNL A   1      28.107  31.125  23.585  1.00  0.00     0.004 A 
ATOM     31  C   UNL A   1      28.204  31.682  20.851  1.00  0.00     0.000 A 
ATOM     32  C   UNL A   1      28.357  32.422  23.148  1.00  0.00     0.000 A 
ATOM     33  C   UNL A   1      28.417  32.698  21.784  1.00  0.00     0.000 A 
ENDBRANCH  27  28
ENDBRANCH  25  27
ENDBRANCH  18  23
ENDBRANCH  14  17
ENDBRANCH   8  13
ENDBRANCH   5   7
ENDBRANCH   4   5
ENDBRANCH   3   4
ENDBRANCH   2   3
ENDBRANCH   1   2
BRANCH   1  34
ATOM     34  C   UNL A   1      41.211  20.328  27.361  1.00  0.00     0.188 C 
BRANCH  34  35
ATOM     35  C   UNL A   1      41.329  19.381  26.145  1.00  0.00     0.188 C 
BRANCH  35  36
ATOM     36  O   UNL A   1      42.460  19.423  25.303  1.00  0.00    -0.376 OA
BRANCH  36  37
ATOM     37  C   UNL A   1      43.596  20.152  25.731  1.00  0.00     0.202 C 
BRANCH  37  38
ATOM     38  C   UNL A   1      44.005  21.469  25.043  1.00  0.00     0.261 C 
BRANCH  38  39
ATOM     39  O   UNL A   1      43.129  22.596  25.240  1.00  0.00    -0.460 OA
BRANCH  39  40
ATOM     40  C   UNL A   1      43.692  23.828  25.093  1.00  0.00     0.338 C 
ATOM     41  O   UNL A   1      44.512  24.166  24.266  1.00  0.00    -0.246 OA
BRANCH  40  42
ATOM     42  C   UNL A   1      42.984  24.805  25.964  1.00  0.00     0.060 A 
ATOM     43  C   UNL A   1      43.334  26.165  25.882  1.00  0.00     0.016 A 
ATOM     44  C   UNL A   1      41.995  24.393  26.856  1.00  0.00     0.016 A 
ATOM     45  C   UNL A   1      42.714  27.110  26.704  1.00  0.00     0.010 A 
ATOM     46  C   UNL A   1      41.402  25.335  27.706  1.00  0.00     0.010 A 
ATOM     47  C   UNL A   1      41.780  26.691  27.659  1.00  0.00    -0.014 A 
BRANCH  47  48
ATOM     48  C   UNL A   1      41.377  27.605  28.761  1.00  0.00     0.031 A 
ATOM     49  C   UNL A   1      42.144  27.522  30.056  1.00  0.00     0.074 A 
ATOM     50  C   UNL A   1      40.362  28.479  28.641  1.00  0.00     0.049 A 
ATOM     51  N   UNL A   1      41.918  28.110  31.202  1.00  0.00    -0.248 NA
ATOM     52  C   UNL A   1      43.328  26.646  30.054  1.00  0.00     0.031 C 
ATOM     53  C   UNL A   1      39.578  28.712  27.430  1.00  0.00     0.029 A 
ATOM     54  N   UNL A   1      39.804  29.325  29.571  1.00  0.00    -0.354 N 
ATOM     55  C   UNL A   1      42.909  27.654  32.062  1.00  0.00     0.074 A 
ATOM     56  C   UNL A   1      43.733  26.733  31.312  1.00  0.00     0.031 C 
ATOM     57  C   UNL A   1      38.626  29.625  27.697  1.00  0.00     0.029 A 
ATOM     58  C   UNL A   1      38.703  30.007  29.109  1.00  0.00     0.049 A 
ATOM     59  H   UNL A   1      40.159  29.434  30.483  1.00  0.00     0.167 HD
ATOM     60  C   UNL A   1      43.112  27.972  33.362  1.00  0.00     0.037 A 
ATOM     61  C   UNL A   1      37.841  30.813  29.762  1.00  0.00     0.037 A 
ATOM     62  C   UNL A   1      42.303  28.897  34.106  1.00  0.00     0.049 A 
ATOM     63  C   UNL A   1      38.041  31.081  31.237  1.00  0.00     0.074 A 
ATOM     64  C   UNL A   1      42.456  29.314  35.417  1.00  0.00     0.029 A 
ATOM     65  N   UNL A   1      41.180  29.541  33.611  1.00  0.00    -0.354 N 
ATOM     66  N   UNL A   1      38.997  30.673  32.035  1.00  0.00    -0.248 NA
ATOM     67  C   UNL A   1      37.032  31.922  31.903  1.00  0.00     0.031 C 
ATOM     68  C   UNL A   1      41.387  30.154  35.737  1.00  0.00     0.029 A 
ATOM     69  C   UNL A   1      40.608  30.321  34.602  1.00  0.00     0.049 A 
ATOM     70  H   UNL A   1      40.839  29.457  32.691  1.00  0.00     0.167 HD
ATOM     71  C   UNL A   1      38.732  31.243  33.276  1.00  0.00     0.074 A 
ATOM     72  C   UNL A   1      37.529  32.031  33.126  1.00  0.00     0.031 C 
ATOM     73  C   UNL A   1      39.426  31.125  34.436  1.00  0.00     0.037 A 
BRANCH  60  74
ATOM     74  C   UNL A   1      44.232  27.281  34.085  1.00  0.00     0.064 A 
ATOM     75  C   UNL A   1      45.508  27.851  34.198  1.00  0.00     0.173 A 
ATOM     76  C   UNL A   1      44.001  26.054  34.726  1.00  0.00     0.173 A 
ATOM     77  F   UNL A   1      45.784  29.016  33.592  1.00  0.00    -0.203 F 
ATOM     78  C   UNL A   1      46.517  27.210  34.912  1.00  0.00     0.198 A 
ATOM     79  C   UNL A   1      45.001  25.431  35.466  1.00  0.00     0.198 A 
ATOM     80  F   UNL A   1      42.797  25.467  34.652  1.00  0.00    -0.203 F 
ATOM     81  F   UNL A   1      47.740  27.752  34.975  1.00  0.00    -0.200 F 
ATOM     82  C   UNL A   1      46.260  26.007  35.554  1.00  0.00     0.200 A 
ATOM     83  F   UNL A   1      44.745  24.278  36.098  1.00  0.00    -0.200 F 
ATOM     84  F   UNL A   1      47.226  25.399  36.256  1.00  0.00    -0.200 F 
ENDBRANCH  60  74
BRANCH  61  85
ATOM     85  C   UNL A   1      36.678  31.416  29.049  1.00  0.00     0.064 A 
ATOM     86  C   UNL A   1      36.652  32.786  28.741  1.00  0.00     0.173 A 
ATOM     87  C   UNL A   1      35.544  30.658  28.725  1.00  0.00     0.173 A 
ATOM     88  F   UNL A   1      37.695  33.564  29.060  1.00  0.00    -0.203 F 
ATOM     89  C   UNL A   1      35.526  33.375  28.167  1.00  0.00     0.198 A 
ATOM     90  C   UNL A   1      34.433  31.241  28.119  1.00  0.00     0.198 A 
ATOM     91  F   UNL A   1      35.510  29.347  29.003  1.00  0.00    -0.203 F 
ATOM     92  F   UNL A   1      35.500  34.698  27.952  1.00  0.00    -0.200 F 
ATOM     93  C   UNL A   1      34.419  32.601  27.852  1.00  0.00     0.200 A 
ATOM     94  F   UNL A   1      33.371  30.488  27.805  1.00  0.00    -0.200 F 
ATOM     95  F   UNL A   1      33.334  33.168  27.307  1.00  0.00    -0.200 F 
ENDBRANCH  61  85
BRANCH  73  96
ATOM     96  C   UNL A   1      38.950  31.917  35.623  1.00  0.00     0.064 A 
ATOM     97  C   UNL A   1      38.176  31.341  36.640  1.00  0.00     0.173 A 
ATOM     98  C   UNL A   1      39.331  33.261  35.772  1.00  0.00     0.173 A 
ATOM     99  F   UNL A   1      37.775  30.064  36.544  1.00  0.00    -0.203 F 
ATOM    100  C   UNL A   1      37.778  32.086  37.747  1.00  0.00     0.198 A 
ATOM    101  C   UNL A   1      38.962  33.992  36.897  1.00  0.00     0.198 A 
ATOM    102  F   UNL A   1      40.081  33.859  34.835  1.00  0.00    -0.203 F 
ATOM    103  F   UNL A   1      36.997  31.528  38.683  1.00  0.00    -0.200 F 
ATOM    104  C   UNL A   1      38.180  33.408  37.880  1.00  0.00     0.200 A 
ATOM    105  F   UNL A   1      39.368  35.262  37.033  1.00  0.00    -0.200 F 
ATOM    106  F   UNL A   1      37.808  34.118  38.954  1.00  0.00    -0.200 F 
ENDBRANCH  73  96
ENDBRANCH  47  48
ENDBRANCH  40  42
ENDBRANCH  39  40
ENDBRANCH  38  39
ENDBRANCH  37  38
ENDBRANCH  36  37
ENDBRANCH  35  36
ENDBRANCH  34  35
ENDBRANCH   1  34
TORSDOF 22
ENDMDL
MODEL 2
REMARK VINA RESULT:     -12.2      5.242     10.986
REMARK SMILES O=C(Cc1ccccc1)Nc1cccc(C(=O)Nc2ccccc2C(=O)OCCOCCOCCOC(=O)c2ccc(-c3c4nc(c(-c5c(F)c(F)c(F)c(F)c5F)c5ccc([nH]5)c(-c5c(F)c(F)c(F)c(F)c5F)c5nc(c(-c6c(F)c(F)c(F)c(F)c6F)c6ccc3[nH]6)C=C5)C=C4)cc2)c1
REMARK SMILES IDX 30 1 29 2 28 3 27 4 25 5 26 6 24 7 19 8 20 9 21 10 23 11
REMARK SMILES IDX 22 12 18 13 16 14 17 15 15 17 11 18 12 19 102 20 13 21 14 22
REMARK SMILES IDX 10 23 1 24 2 25 3 27 4 28 5 29 9 30 6 31 8 32 7 33 31 34
REMARK SMILES IDX 32 35 33 36 34 37 35 38 36 39 37 40 38 41 39 42 40 43 101 44
REMARK SMILES IDX 41 45 100 46 42 47 43 48 44 49 94 50 45 51 99 52 93 53 95 54
REMARK SMILES IDX 46 55 98 56 92 57 91 58 47 60 79 61 59 62 78 63 60 64 63 65
REMARK SMILES IDX 77 66 96 67 61 68 62 69 76 71 97 72 64 73 48 74 49 75 57 76
REMARK SMILES IDX 50 77 51 78 55 79 58 80 52 81 53 82 56 83 54 84 80 85 81 86
REMARK SMILES IDX 89 87 82 88 83 89 87 90 90 91 84 92 85 93 88 94 86 95 65 96
REMARK SMILES IDX 66 97 74 98 67 99 68 100 72 101 75 102 69 103 70 104 73 105
REMARK SMILES IDX 71 106
REMARK H PARENT 18 16 10 26 95 59 63 70
REMARK Flexibility Score: inf
ROOT
ATOM      1  O   UNL A   1      34.104  32.076  28.583  1.00  0.00    -0.376 OA
ENDROOT
BRANCH   1   2
ATOM      2  C   UNL A   1      34.699  31.111  27.736  1.00  0.00     0.202 C 
BRANCH   2   3
ATOM      3  C   UNL A   1      33.963  29.935  27.085  1.00  0.00     0.261 C 
BRANCH   3   4
ATOM      4  O   UNL A   1      33.113  30.198  25.965  1.00  0.00    -0.460 OA
BRANCH   4   5
ATOM      5  C   UNL A   1      33.127  29.245  24.999  1.00  0.00     0.340 C 
ATOM      6  O   UNL A   1      33.914  28.308  24.936  1.00  0.00    -0.246 OA
BRANCH   5   7
ATOM      7  C   UNL A   1      31.937  29.327  24.114  1.00  0.00     0.083 A 
ATOM      8  C   UNL A   1      31.814  28.780  22.823  1.00  0.00     0.056 A 
ATOM      9  C   UNL A   1      30.643  29.071  22.096  1.00  0.00     0.027 A 
ATOM     10  C   UNL A   1      29.588  29.796  22.662  1.00  0.00     0.002 A 
ATOM     11  C   UNL A   1      30.879  30.093  24.657  1.00  0.00     0.018 A 
ATOM     12  C   UNL A   1      29.703  30.305  23.947  1.00  0.00     0.001 A 
BRANCH   8  13
ATOM     13  N   UNL A   1      32.714  27.916  22.153  1.00  0.00    -0.321 N 
ATOM     14  C   UNL A   1      33.061  26.591  22.340  1.00  0.00     0.255 C 
ATOM     15  O   UNL A   1      34.029  26.127  21.737  1.00  0.00    -0.269 OA
ATOM     16  H   UNL A   1      33.189  28.345  21.406  1.00  0.00     0.170 HD
BRANCH  14  17
ATOM     17  C   UNL A   1      32.267  25.694  23.216  1.00  0.00     0.042 A 
ATOM     18  C   UNL A   1      32.290  23.845  24.750  1.00  0.00     0.041 A 
ATOM     19  C   UNL A   1      30.990  23.511  24.344  1.00  0.00     0.026 A 
ATOM     20  C   UNL A   1      32.867  25.022  24.284  1.00  0.00     0.040 A 
ATOM     21  C   UNL A   1      30.303  24.314  23.429  1.00  0.00     0.003 A 
ATOM     22  C   UNL A   1      30.953  25.397  22.841  1.00  0.00     0.014 A 
BRANCH  18  23
ATOM     23  N   UNL A   1      33.051  22.840  25.390  1.00  0.00    -0.326 N 
ATOM     24  O   UNL A   1      34.742  22.388  23.849  1.00  0.00    -0.274 OA
ATOM     25  C   UNL A   1      34.079  22.089  24.839  1.00  0.00     0.228 C 
ATOM     26  H   UNL A   1      32.827  22.654  26.331  1.00  0.00     0.169 HD
BRANCH  25  27
ATOM     27  C   UNL A   1      34.282  20.739  25.525  1.00  0.00     0.135 C 
BRANCH  27  28
ATOM     28  C   UNL A   1      33.944  19.583  24.625  1.00  0.00    -0.039 A 
ATOM     29  C   UNL A   1      32.749  19.567  23.894  1.00  0.00     0.004 A 
ATOM     30  C   UNL A   1      34.791  18.470  24.596  1.00  0.00     0.004 A 
ATOM     31  C   UNL A   1      32.385  18.425  23.182  1.00  0.00     0.000 A 
ATOM     32  C   UNL A   1      34.424  17.332  23.885  1.00  0.00     0.000 A 
ATOM     33  C   UNL A   1      33.217  17.305  23.189  1.00  0.00     0.000 A 
ENDBRANCH  27  28
ENDBRANCH  25  27
ENDBRANCH  18  23
ENDBRANCH  14  17
ENDBRANCH   8  13
ENDBRANCH   5   7
ENDBRANCH   4   5
ENDBRANCH   3   4
ENDBRANCH   2   3
ENDBRANCH   1   2
BRANCH   1  34
ATOM     34  C   UNL A   1      34.425  33.440  28.462  1.00  0.00     0.188 C 
BRANCH  34  35
ATOM     35  C   UNL A   1      33.519  34.476  29.165  1.00  0.00     0.188 C 
BRANCH  35  36
ATOM     36  O   UNL A   1      33.435  34.528  30.572  1.00  0.00    -0.376 OA
BRANCH  36  37
ATOM     37  C   UNL A   1      34.613  34.318  31.328  1.00  0.00     0.202 C 
BRANCH  37  38
ATOM     38  C   UNL A   1      34.614  33.400  32.566  1.00  0.00     0.261 C 
BRANCH  38  39
ATOM     39  O   UNL A   1      35.260  32.121  32.417  1.00  0.00    -0.460 OA
BRANCH  39  40
ATOM     40  C   UNL A   1      36.426  31.952  33.100  1.00  0.00     0.338 C 
ATOM     41  O   UNL A   1      36.605  32.094  34.291  1.00  0.00    -0.246 OA
BRANCH  40  42
ATOM     42  C   UNL A   1      37.441  31.334  32.205  1.00  0.00     0.060 A 
ATOM     43  C   UNL A   1      38.612  30.802  32.774  1.00  0.00     0.016 A 
ATOM     44  C   UNL A   1      37.252  31.281  30.825  1.00  0.00     0.016 A 
ATOM     45  C   UNL A   1      39.603  30.238  31.965  1.00  0.00     0.010 A 
ATOM     46  C   UNL A   1      38.263  30.752  30.013  1.00  0.00     0.010 A 
ATOM     47  C   UNL A   1      39.457  30.258  30.573  1.00  0.00    -0.014 A 
BRANCH  47  48
ATOM     48  C   UNL A   1      40.627  29.994  29.695  1.00  0.00     0.031 A 
ATOM     49  C   UNL A   1      40.762  28.614  29.103  1.00  0.00     0.074 A 
ATOM     50  C   UNL A   1      41.556  30.929  29.428  1.00  0.00     0.049 A 
ATOM     51  N   UNL A   1      41.744  28.091  28.414  1.00  0.00    -0.248 NA
ATOM     52  C   UNL A   1      39.630  27.698  29.327  1.00  0.00     0.031 C 
ATOM     53  C   UNL A   1      41.519  32.318  29.878  1.00  0.00     0.029 A 
ATOM     54  N   UNL A   1      42.732  30.836  28.720  1.00  0.00    -0.354 N 
ATOM     55  C   UNL A   1      41.362  26.781  28.151  1.00  0.00     0.074 A 
ATOM     56  C   UNL A   1      40.066  26.584  28.759  1.00  0.00     0.031 C 
ATOM     57  C   UNL A   1      42.633  32.943  29.454  1.00  0.00     0.029 A 
ATOM     58  C   UNL A   1      43.483  31.987  28.742  1.00  0.00     0.049 A 
ATOM     59  H   UNL A   1      43.010  30.022  28.242  1.00  0.00     0.167 HD
ATOM     60  C   UNL A   1      42.035  25.828  27.465  1.00  0.00     0.037 A 
ATOM     61  C   UNL A   1      44.726  32.225  28.272  1.00  0.00     0.037 A 
ATOM     62  C   UNL A   1      43.317  26.025  26.846  1.00  0.00     0.049 A 
ATOM     63  C   UNL A   1      45.490  31.115  27.587  1.00  0.00     0.074 A 
ATOM     64  C   UNL A   1      44.058  25.130  26.095  1.00  0.00     0.029 A 
ATOM     65  N   UNL A   1      44.057  27.195  26.919  1.00  0.00    -0.354 N 
ATOM     66  N   UNL A   1      45.112  29.890  27.313  1.00  0.00    -0.248 NA
ATOM     67  C   UNL A   1      46.862  31.422  27.151  1.00  0.00     0.031 C 
ATOM     68  C   UNL A   1      45.276  25.733  25.773  1.00  0.00     0.029 A 
ATOM     69  C   UNL A   1      45.263  27.031  26.258  1.00  0.00     0.049 A 
ATOM     70  H   UNL A   1      43.768  28.020  27.372  1.00  0.00     0.167 HD
ATOM     71  C   UNL A   1      46.174  29.301  26.634  1.00  0.00     0.074 A 
ATOM     72  C   UNL A   1      47.211  30.304  26.532  1.00  0.00     0.031 C 
ATOM     73  C   UNL A   1      46.279  28.044  26.138  1.00  0.00     0.037 A 
BRANCH  60  74
ATOM     74  C   UNL A   1      41.418  24.462  27.377  1.00  0.00     0.064 A 
ATOM     75  C   UNL A   1      40.291  24.203  26.584  1.00  0.00     0.173 A 
ATOM     76  C   UNL A   1      42.006  23.383  28.056  1.00  0.00     0.173 A 
ATOM     77  F   UNL A   1      39.684  25.202  25.927  1.00  0.00    -0.203 F 
ATOM     78  C   UNL A   1      39.766  22.917  26.487  1.00  0.00     0.198 A 
ATOM     79  C   UNL A   1      41.499  22.094  27.931  1.00  0.00     0.198 A 
ATOM     80  F   UNL A   1      43.088  23.576  28.826  1.00  0.00    -0.203 F 
ATOM     81  F   UNL A   1      38.665  22.698  25.755  1.00  0.00    -0.200 F 
ATOM     82  C   UNL A   1      40.376  21.862  27.151  1.00  0.00     0.200 A 
ATOM     83  F   UNL A   1      42.099  21.075  28.561  1.00  0.00    -0.200 F 
ATOM     84  F   UNL A   1      39.879  20.622  27.042  1.00  0.00    -0.200 F 
ENDBRANCH  60  74
BRANCH  61  85
ATOM     85  C   UNL A   1      45.361  33.562  28.451  1.00  0.00     0.064 A 
ATOM     86  C   UNL A   1      46.135  33.848  29.587  1.00  0.00     0.173 A 
ATOM     87  C   UNL A   1      45.152  34.601  27.532  1.00  0.00     0.173 A 
ATOM     88  F   UNL A   1      46.337  32.902  30.514  1.00  0.00    -0.203 F 
ATOM     89  C   UNL A   1      46.646  35.126  29.810  1.00  0.00     0.198 A 
ATOM     90  C   UNL A   1      45.693  35.868  27.738  1.00  0.00     0.198 A 
ATOM     91  F   UNL A   1      44.414  34.388  26.433  1.00  0.00    -0.203 F 
ATOM     92  F   UNL A   1      47.318  35.389  30.939  1.00  0.00    -0.200 F 
ATOM     93  C   UNL A   1      46.428  36.134  28.883  1.00  0.00     0.200 A 
ATOM     94  F   UNL A   1      45.492  36.836  26.834  1.00  0.00    -0.200 F 
ATOM     95  F   UNL A   1      46.914  37.364  29.099  1.00  0.00    -0.200 F 
ENDBRANCH  61  85
BRANCH  73  96
ATOM     96  C   UNL A   1      47.527  27.690  25.376  1.00  0.00     0.064 A 
ATOM     97  C   UNL A   1      48.680  27.213  26.016  1.00  0.00     0.173 A 
ATOM     98  C   UNL A   1      47.544  27.774  23.974  1.00  0.00     0.173 A 
ATOM     99  F   UNL A   1      48.722  27.123  27.354  1.00  0.00    -0.203 F 
ATOM    100  C   UNL A   1      49.810  26.858  25.284  1.00  0.00     0.198 A 
ATOM    101  C   UNL A   1      48.664  27.385  23.244  1.00  0.00     0.198 A 
ATOM    102  F   UNL A   1      46.465  28.213  23.309  1.00  0.00    -0.203 F 
ATOM    103  F   UNL A   1      50.917  26.451  25.921  1.00  0.00    -0.200 F 
ATOM    104  C   UNL A   1      49.798  26.935  23.899  1.00  0.00     0.200 A 
ATOM    105  F   UNL A   1      48.642  27.441  21.905  1.00  0.00    -0.200 F 
ATOM    106  F   UNL A   1      50.883  26.579  23.196  1.00  0.00    -0.200 F 
ENDBRANCH  73  96
ENDBRANCH  47  48
ENDBRANCH  40  42
ENDBRANCH  39  40
ENDBRANCH  38  39
ENDBRANCH  37  38
ENDBRANCH  36  37
ENDBRANCH  35  36
ENDBRANCH  34  35
ENDBRANCH   1  34
TORSDOF 22
ENDMDL
MODEL 3
REMARK VINA RESULT:     -11.7      5.076      7.402
REMARK SMILES O=C(Cc1ccccc1)Nc1cccc(C(=O)Nc2ccccc2C(=O)OCCOCCOCCOC(=O)c2ccc(-c3c4nc(c(-c5c(F)c(F)c(F)c(F)c5F)c5ccc([nH]5)c(-c5c(F)c(F)c(F)c(F)c5F)c5nc(c(-c6c(F)c(F)c(F)c(F)c6F)c6ccc3[nH]6)C=C5)C=C4)cc2)c1
REMARK SMILES IDX 30 1 29 2 28 3 27 4 25 5 26 6 24 7 19 8 20 9 21 10 23 11
REMARK SMILES IDX 22 12 18 13 16 14 17 15 15 17 11 18 12 19 102 20 13 21 14 22
REMARK SMILES IDX 10 23 1 24 2 25 3 27 4 28 5 29 9 30 6 31 8 32 7 33 31 34
REMARK SMILES IDX 32 35 33 36 34 37 35 38 36 39 37 40 38 41 39 42 40 43 101 44
REMARK SMILES IDX 41 45 100 46 42 47 43 48 44 49 94 50 45 51 99 52 93 53 95 54
REMARK SMILES IDX 46 55 98 56 92 57 91 58 47 60 79 61 59 62 78 63 60 64 63 65
REMARK SMILES IDX 77 66 96 67 61 68 62 69 76 71 97 72 64 73 48 74 49 75 57 76
REMARK SMILES IDX 50 77 51 78 55 79 58 80 52 81 53 82 56 83 54 84 80 85 81 86
REMARK SMILES IDX 89 87 82 88 83 89 87 90 90 91 84 92 85 93 88 94 86 95 65 96
REMARK SMILES IDX 66 97 74 98 67 99 68 100 72 101 75 102 69 103 70 104 73 105
REMARK SMILES IDX 71 106
REMARK H PARENT 18 16 10 26 95 59 63 70
REMARK Flexibility Score: inf
ROOT
ATOM      1  O   UNL A   1      39.405  23.270  26.652  1.00  0.00    -0.376 OA
ENDROOT
BRANCH   1   2
ATOM      2  C   UNL A   1      38.322  22.656  25.980  1.00  0.00     0.202 C 
BRANCH   2   3
ATOM      3  C   UNL A   1      36.965  23.314  25.706  1.00  0.00     0.261 C 
BRANCH   3   4
ATOM      4  O   UNL A   1      35.926  22.521  25.125  1.00  0.00    -0.460 OA
BRANCH   4   5
ATOM      5  C   UNL A   1      35.136  21.871  26.017  1.00  0.00     0.340 C 
ATOM      6  O   UNL A   1      34.764  22.318  27.096  1.00  0.00    -0.246 OA
BRANCH   5   7
ATOM      7  C   UNL A   1      34.578  20.613  25.457  1.00  0.00     0.083 A 
ATOM      8  C   UNL A   1      33.220  20.250  25.403  1.00  0.00     0.056 A 
ATOM      9  C   UNL A   1      32.904  18.958  24.941  1.00  0.00     0.027 A 
ATOM     10  C   UNL A   1      33.889  18.090  24.455  1.00  0.00     0.002 A 
ATOM     11  C   UNL A   1      35.566  19.709  25.002  1.00  0.00     0.018 A 
ATOM     12  C   UNL A   1      35.223  18.467  24.481  1.00  0.00     0.001 A 
BRANCH   8  13
ATOM     13  N   UNL A   1      32.091  21.046  25.720  1.00  0.00    -0.321 N 
ATOM     14  C   UNL A   1      31.708  22.321  25.353  1.00  0.00     0.255 C 
ATOM     15  O   UNL A   1      30.766  22.862  25.933  1.00  0.00    -0.269 OA
ATOM     16  H   UNL A   1      31.454  20.601  26.322  1.00  0.00     0.170 HD
BRANCH  14  17
ATOM     17  C   UNL A   1      32.374  23.045  24.242  1.00  0.00     0.042 A 
ATOM     18  C   UNL A   1      32.730  25.153  23.143  1.00  0.00     0.041 A 
ATOM     19  C   UNL A   1      32.913  24.472  21.930  1.00  0.00     0.026 A 
ATOM     20  C   UNL A   1      32.603  24.422  24.320  1.00  0.00     0.040 A 
ATOM     21  C   UNL A   1      32.899  23.075  21.890  1.00  0.00     0.003 A 
ATOM     22  C   UNL A   1      32.602  22.357  23.047  1.00  0.00     0.014 A 
BRANCH  18  23
ATOM     23  N   UNL A   1      32.413  26.528  23.077  1.00  0.00    -0.326 N 
ATOM     24  O   UNL A   1      34.029  27.380  21.628  1.00  0.00    -0.274 OA
ATOM     25  C   UNL A   1      33.164  27.534  22.486  1.00  0.00     0.228 C 
ATOM     26  H   UNL A   1      31.564  26.802  23.496  1.00  0.00     0.169 HD
BRANCH  25  27
ATOM     27  C   UNL A   1      32.898  28.918  23.076  1.00  0.00     0.135 C 
BRANCH  27  28
ATOM     28  C   UNL A   1      32.812  28.895  24.577  1.00  0.00    -0.039 A 
ATOM     29  C   UNL A   1      31.770  29.549  25.247  1.00  0.00     0.004 A 
ATOM     30  C   UNL A   1      33.839  28.290  25.311  1.00  0.00     0.004 A 
ATOM     31  C   UNL A   1      31.788  29.640  26.638  1.00  0.00     0.000 A 
ATOM     32  C   UNL A   1      33.853  28.384  26.698  1.00  0.00     0.000 A 
ATOM     33  C   UNL A   1      32.836  29.068  27.360  1.00  0.00     0.000 A 
ENDBRANCH  27  28
ENDBRANCH  25  27
ENDBRANCH  18  23
ENDBRANCH  14  17
ENDBRANCH   8  13
ENDBRANCH   5   7
ENDBRANCH   4   5
ENDBRANCH   3   4
ENDBRANCH   2   3
ENDBRANCH   1   2
BRANCH   1  34
ATOM     34  C   UNL A   1      40.458  22.501  27.179  1.00  0.00     0.188 C 
BRANCH  34  35
ATOM     35  C   UNL A   1      41.498  21.907  26.203  1.00  0.00     0.188 C 
BRANCH  35  36
ATOM     36  O   UNL A   1      41.387  20.577  25.747  1.00  0.00    -0.376 OA
BRANCH  36  37
ATOM     37  C   UNL A   1      42.016  19.551  26.493  1.00  0.00     0.202 C 
BRANCH  37  38
ATOM     38  C   UNL A   1      42.937  18.520  25.813  1.00  0.00     0.261 C 
BRANCH  38  39
ATOM     39  O   UNL A   1      44.308  18.915  25.615  1.00  0.00    -0.460 OA
BRANCH  39  40
ATOM     40  C   UNL A   1      44.583  19.571  24.453  1.00  0.00     0.338 C 
ATOM     41  O   UNL A   1      44.390  19.175  23.323  1.00  0.00    -0.246 OA
BRANCH  40  42
ATOM     42  C   UNL A   1      44.958  20.979  24.755  1.00  0.00     0.060 A 
ATOM     43  C   UNL A   1      45.384  21.302  26.057  1.00  0.00     0.016 A 
ATOM     44  C   UNL A   1      44.887  21.972  23.780  1.00  0.00     0.016 A 
ATOM     45  C   UNL A   1      45.718  22.618  26.389  1.00  0.00     0.010 A 
ATOM     46  C   UNL A   1      45.183  23.296  24.125  1.00  0.00     0.010 A 
ATOM     47  C   UNL A   1      45.568  23.633  25.437  1.00  0.00    -0.014 A 
BRANCH  47  48
ATOM     48  C   UNL A   1      45.575  25.059  25.858  1.00  0.00     0.031 A 
ATOM     49  C   UNL A   1      46.891  25.793  25.827  1.00  0.00     0.074 A 
ATOM     50  C   UNL A   1      44.464  25.697  26.270  1.00  0.00     0.049 A 
ATOM     51  N   UNL A   1      47.192  26.992  26.258  1.00  0.00    -0.248 NA
ATOM     52  C   UNL A   1      48.024  25.068  25.228  1.00  0.00     0.031 C 
ATOM     53  C   UNL A   1      43.117  25.132  26.290  1.00  0.00     0.029 A 
ATOM     54  N   UNL A   1      44.304  26.968  26.772  1.00  0.00    -0.354 N 
ATOM     55  C   UNL A   1      48.550  27.150  26.011  1.00  0.00     0.074 A 
ATOM     56  C   UNL A   1      49.019  25.925  25.402  1.00  0.00     0.031 C 
ATOM     57  C   UNL A   1      42.270  26.045  26.800  1.00  0.00     0.029 A 
ATOM     58  C   UNL A   1      43.022  27.242  27.184  1.00  0.00     0.049 A 
ATOM     59  H   UNL A   1      45.038  27.621  26.829  1.00  0.00     0.167 HD
ATOM     60  C   UNL A   1      49.337  28.220  26.272  1.00  0.00     0.037 A 
ATOM     61  C   UNL A   1      42.526  28.318  27.829  1.00  0.00     0.037 A 
ATOM     62  C   UNL A   1      48.871  29.444  26.864  1.00  0.00     0.049 A 
ATOM     63  C   UNL A   1      43.447  29.463  28.188  1.00  0.00     0.074 A 
ATOM     64  C   UNL A   1      49.586  30.599  27.129  1.00  0.00     0.029 A 
ATOM     65  N   UNL A   1      47.573  29.669  27.296  1.00  0.00    -0.354 N 
ATOM     66  N   UNL A   1      44.721  29.621  27.923  1.00  0.00    -0.248 NA
ATOM     67  C   UNL A   1      42.856  30.581  28.942  1.00  0.00     0.031 C 
ATOM     68  C   UNL A   1      48.739  31.496  27.786  1.00  0.00     0.029 A 
ATOM     69  C   UNL A   1      47.477  30.930  27.861  1.00  0.00     0.049 A 
ATOM     70  H   UNL A   1      46.830  29.028  27.213  1.00  0.00     0.167 HD
ATOM     71  C   UNL A   1      45.069  30.867  28.433  1.00  0.00     0.074 A 
ATOM     72  C   UNL A   1      43.872  31.428  29.018  1.00  0.00     0.031 C 
ATOM     73  C   UNL A   1      46.273  31.492  28.417  1.00  0.00     0.037 A 
BRANCH  60  74
ATOM     74  C   UNL A   1      50.800  28.107  25.959  1.00  0.00     0.064 A 
ATOM     75  C   UNL A   1      51.305  28.324  24.668  1.00  0.00     0.173 A 
ATOM     76  C   UNL A   1      51.718  27.833  26.986  1.00  0.00     0.173 A 
ATOM     77  F   UNL A   1      50.469  28.574  23.650  1.00  0.00    -0.203 F 
ATOM     78  C   UNL A   1      52.672  28.255  24.415  1.00  0.00     0.198 A 
ATOM     79  C   UNL A   1      53.086  27.797  26.735  1.00  0.00     0.198 A 
ATOM     80  F   UNL A   1      51.288  27.621  28.239  1.00  0.00    -0.203 F 
ATOM     81  F   UNL A   1      53.130  28.427  23.167  1.00  0.00    -0.200 F 
ATOM     82  C   UNL A   1      53.562  28.003  25.449  1.00  0.00     0.200 A 
ATOM     83  F   UNL A   1      53.944  27.570  27.739  1.00  0.00    -0.200 F 
ATOM     84  F   UNL A   1      54.879  27.955  25.207  1.00  0.00    -0.200 F 
ENDBRANCH  60  74
BRANCH  61  85
ATOM     85  C   UNL A   1      41.087  28.374  28.217  1.00  0.00     0.064 A 
ATOM     86  C   UNL A   1      40.124  28.899  27.341  1.00  0.00     0.173 A 
ATOM     87  C   UNL A   1      40.656  27.972  29.489  1.00  0.00     0.173 A 
ATOM     88  F   UNL A   1      40.488  29.330  26.125  1.00  0.00    -0.203 F 
ATOM     89  C   UNL A   1      38.795  29.049  27.736  1.00  0.00     0.198 A 
ATOM     90  C   UNL A   1      39.320  28.089  29.870  1.00  0.00     0.198 A 
ATOM     91  F   UNL A   1      41.534  27.471  30.370  1.00  0.00    -0.203 F 
ATOM     92  F   UNL A   1      37.912  29.621  26.906  1.00  0.00    -0.200 F 
ATOM     93  C   UNL A   1      38.393  28.639  28.998  1.00  0.00     0.200 A 
ATOM     94  F   UNL A   1      38.933  27.681  31.086  1.00  0.00    -0.200 F 
ATOM     95  F   UNL A   1      37.117  28.789  29.381  1.00  0.00    -0.200 F 
ENDBRANCH  61  85
BRANCH  73  96
ATOM     96  C   UNL A   1      46.352  32.883  28.983  1.00  0.00     0.064 A 
ATOM     97  C   UNL A   1      46.750  33.126  30.305  1.00  0.00     0.173 A 
ATOM     98  C   UNL A   1      46.082  33.993  28.166  1.00  0.00     0.173 A 
ATOM     99  F   UNL A   1      47.010  32.102  31.132  1.00  0.00    -0.203 F 
ATOM    100  C   UNL A   1      46.850  34.426  30.795  1.00  0.00     0.198 A 
ATOM    101  C   UNL A   1      46.217  35.291  28.649  1.00  0.00     0.198 A 
ATOM    102  F   UNL A   1      45.707  33.818  26.890  1.00  0.00    -0.203 F 
ATOM    103  F   UNL A   1      47.186  34.633  32.077  1.00  0.00    -0.200 F 
ATOM    104  C   UNL A   1      46.593  35.507  29.965  1.00  0.00     0.200 A 
ATOM    105  F   UNL A   1      45.988  36.334  27.839  1.00  0.00    -0.200 F 
ATOM    106  F   UNL A   1      46.704  36.758  30.435  1.00  0.00    -0.200 F 
ENDBRANCH  73  96
ENDBRANCH  47  48
ENDBRANCH  40  42
ENDBRANCH  39  40
ENDBRANCH  38  39
ENDBRANCH  37  38
ENDBRANCH  36  37
ENDBRANCH  35  36
ENDBRANCH  34  35
ENDBRANCH   1  34
TORSDOF 22
ENDMDL
