MODEL 1
REMARK VINA RESULT:     -10.4      0.000      0.000
REMARK SMILES CC(C)(C)[NH+]1CCN(C(=O)CCCC(=O)OCCOCCOCCOC(=O)c2ccc(-c3c4nc(c(-c5c(F)c(F)c(F)c(F)c5F)c5ccc([nH]5)c(-c5c(F)c(F)c(F)c(F)c5F)c5nc(c(-c6c(F)c(F)c(F)c(F)c6F)c6ccc3[nH]6)C=C5)C=C4)cc2)CC1
REMARK SMILES IDX 20 1 19 2 18 3 17 4 16 5 14 6 15 7 13 8 12 9 11 10 9 11 5 12
REMARK SMILES IDX 6 13 92 14 7 16 91 17 8 18 10 19 2 20 1 21 3 22 4 23 21 24
REMARK SMILES IDX 22 25 23 26 24 27 25 28 26 29 27 30 28 31 29 32 90 33 30 34
REMARK SMILES IDX 89 35 31 36 32 37 33 38 83 39 34 40 88 41 82 42 84 43 35 44
REMARK SMILES IDX 87 45 81 46 80 47 36 49 68 50 48 51 67 52 49 53 52 54 66 55
REMARK SMILES IDX 85 56 50 57 51 58 65 60 86 61 53 62 37 63 38 64 46 65 39 66
REMARK SMILES IDX 40 67 44 68 47 69 41 70 42 71 45 72 43 73 69 74 70 75 78 76
REMARK SMILES IDX 71 77 72 78 76 79 79 80 73 81 74 82 77 83 75 84 54 85 55 86
REMARK SMILES IDX 63 87 56 88 57 89 61 90 64 91 58 92 59 93 62 94 60 95
REMARK H PARENT 5 15 84 48 52 59
REMARK Flexibility Score: inf
ROOT
ATOM      1  C   UNL A   1      34.280  32.132  28.308  1.00  0.00     0.188 C 
ENDROOT
BRANCH   1   2
ATOM      2  O   UNL A   1      34.648  31.203  27.289  1.00  0.00    -0.376 OA
BRANCH   2   3
ATOM      3  C   UNL A   1      34.643  29.814  27.601  1.00  0.00     0.202 C 
BRANCH   3   4
ATOM      4  C   UNL A   1      34.166  28.887  26.485  1.00  0.00     0.261 C 
BRANCH   4   5
ATOM      5  O   UNL A   1      32.874  29.277  25.969  1.00  0.00    -0.463 OA
BRANCH   5   6
ATOM      6  C   UNL A   1      31.787  28.583  26.375  1.00  0.00     0.305 C 
ATOM      7  O   UNL A   1      31.405  28.534  27.539  1.00  0.00    -0.252 OA
BRANCH   6   8
ATOM      8  C   UNL A   1      31.064  27.813  25.271  1.00  0.00     0.123 C 
BRANCH   8   9
ATOM      9  C   UNL A   1      31.177  28.050  23.752  1.00  0.00     0.022 C 
BRANCH   9  10
ATOM     10  C   UNL A   1      32.387  27.618  22.918  1.00  0.00     0.101 C 
BRANCH  10  11
ATOM     11  C   UNL A   1      32.374  26.193  22.358  1.00  0.00     0.222 C 
ATOM     12  N   UNL A   1      34.778  23.224  24.377  1.00  0.00    -0.328 N 
ATOM     13  C   UNL A   1      34.478  23.156  22.935  1.00  0.00     0.284 C 
ATOM     14  C   UNL A   1      34.803  24.620  24.789  1.00  0.00     0.284 C 
ATOM     15  H   UNL A   1      35.712  22.825  24.472  1.00  0.00     0.348 HD
ATOM     16  C   UNL A   1      33.171  23.858  22.505  1.00  0.00     0.181 C 
ATOM     17  C   UNL A   1      33.540  25.379  24.397  1.00  0.00     0.181 C 
ATOM     18  N   UNL A   1      33.086  25.217  23.034  1.00  0.00    -0.331 N 
ATOM     19  O   UNL A   1      31.778  25.954  21.306  1.00  0.00    -0.275 OA
BRANCH  12  20
ATOM     20  C   UNL A   1      34.190  22.242  25.315  1.00  0.00     0.089 C 
ATOM     21  C   UNL A   1      35.357  21.275  25.612  1.00  0.00     0.078 C 
ATOM     22  C   UNL A   1      33.025  21.418  24.732  1.00  0.00     0.078 C 
ATOM     23  C   UNL A   1      33.697  22.785  26.682  1.00  0.00     0.078 C 
ENDBRANCH  12  20
ENDBRANCH  10  11
ENDBRANCH   9  10
ENDBRANCH   8   9
ENDBRANCH   6   8
ENDBRANCH   5   6
ENDBRANCH   4   5
ENDBRANCH   3   4
ENDBRANCH   2   3
ENDBRANCH   1   2
BRANCH   1  24
ATOM     24  C   UNL A   1      34.389  33.637  28.002  1.00  0.00     0.188 C 
BRANCH  24  25
ATOM     25  O   UNL A   1      34.839  34.396  29.105  1.00  0.00    -0.376 OA
BRANCH  25  26
ATOM     26  C   UNL A   1      33.879  34.664  30.111  1.00  0.00     0.202 C 
BRANCH  26  27
ATOM     27  C   UNL A   1      34.286  34.254  31.534  1.00  0.00     0.261 C 
BRANCH  27  28
ATOM     28  O   UNL A   1      34.634  32.868  31.720  1.00  0.00    -0.460 OA
BRANCH  28  29
ATOM     29  C   UNL A   1      35.572  32.560  32.646  1.00  0.00     0.338 C 
ATOM     30  O   UNL A   1      35.479  32.702  33.853  1.00  0.00    -0.246 OA
BRANCH  29  31
ATOM     31  C   UNL A   1      36.637  31.776  31.966  1.00  0.00     0.060 A 
ATOM     32  C   UNL A   1      37.513  30.998  32.740  1.00  0.00     0.016 A 
ATOM     33  C   UNL A   1      36.742  31.761  30.573  1.00  0.00     0.016 A 
ATOM     34  C   UNL A   1      38.513  30.233  32.125  1.00  0.00     0.010 A 
ATOM     35  C   UNL A   1      37.755  31.015  29.960  1.00  0.00     0.010 A 
ATOM     36  C   UNL A   1      38.666  30.272  30.732  1.00  0.00    -0.014 A 
BRANCH  36  37
ATOM     37  C   UNL A   1      39.904  29.745  30.095  1.00  0.00     0.031 A 
ATOM     38  C   UNL A   1      41.063  30.691  29.928  1.00  0.00     0.074 A 
ATOM     39  C   UNL A   1      40.007  28.477  29.655  1.00  0.00     0.049 A 
ATOM     40  N   UNL A   1      42.208  30.514  29.318  1.00  0.00    -0.248 NA
ATOM     41  C   UNL A   1      40.903  32.027  30.528  1.00  0.00     0.031 C 
ATOM     42  C   UNL A   1      38.986  27.442  29.791  1.00  0.00     0.029 A 
ATOM     43  N   UNL A   1      41.033  27.851  28.986  1.00  0.00    -0.354 N 
ATOM     44  C   UNL A   1      42.892  31.716  29.445  1.00  0.00     0.074 A 
ATOM     45  C   UNL A   1      42.032  32.621  30.175  1.00  0.00     0.031 C 
ATOM     46  C   UNL A   1      39.429  26.313  29.205  1.00  0.00     0.029 A 
ATOM     47  C   UNL A   1      40.749  26.556  28.623  1.00  0.00     0.049 A 
ATOM     48  H   UNL A   1      41.892  28.289  28.785  1.00  0.00     0.167 HD
ATOM     49  C   UNL A   1      44.125  32.040  28.993  1.00  0.00     0.037 A 
ATOM     50  C   UNL A   1      41.462  25.683  27.882  1.00  0.00     0.037 A 
ATOM     51  C   UNL A   1      44.991  31.141  28.279  1.00  0.00     0.049 A 
ATOM     52  C   UNL A   1      42.807  26.096  27.327  1.00  0.00     0.074 A 
ATOM     53  C   UNL A   1      46.277  31.369  27.820  1.00  0.00     0.029 A 
ATOM     54  N   UNL A   1      44.656  29.848  27.912  1.00  0.00    -0.354 N 
ATOM     55  N   UNL A   1      43.463  27.220  27.488  1.00  0.00    -0.248 NA
ATOM     56  C   UNL A   1      43.508  25.115  26.483  1.00  0.00     0.031 C 
ATOM     57  C   UNL A   1      46.699  30.232  27.125  1.00  0.00     0.029 A 
ATOM     58  C   UNL A   1      45.699  29.277  27.202  1.00  0.00     0.049 A 
ATOM     59  H   UNL A   1      43.804  29.403  28.124  1.00  0.00     0.167 HD
ATOM     60  C   UNL A   1      44.664  27.064  26.803  1.00  0.00     0.074 A 
ATOM     61  C   UNL A   1      44.652  25.736  26.232  1.00  0.00     0.031 C 
ATOM     62  C   UNL A   1      45.687  27.943  26.662  1.00  0.00     0.037 A 
BRANCH  49  63
ATOM     63  C   UNL A   1      44.608  33.439  29.229  1.00  0.00     0.064 A 
ATOM     64  C   UNL A   1      45.338  33.787  30.375  1.00  0.00     0.173 A 
ATOM     65  C   UNL A   1      44.383  34.433  28.264  1.00  0.00     0.173 A 
ATOM     66  F   UNL A   1      45.564  32.877  31.333  1.00  0.00    -0.203 F 
ATOM     67  C   UNL A   1      45.813  35.084  30.553  1.00  0.00     0.198 A 
ATOM     68  C   UNL A   1      44.882  35.721  28.432  1.00  0.00     0.198 A 
ATOM     69  F   UNL A   1      43.690  34.150  27.151  1.00  0.00    -0.203 F 
ATOM     70  F   UNL A   1      46.477  35.405  31.671  1.00  0.00    -0.200 F 
ATOM     71  C   UNL A   1      45.593  36.047  29.578  1.00  0.00     0.200 A 
ATOM     72  F   UNL A   1      44.678  36.646  27.484  1.00  0.00    -0.200 F 
ATOM     73  F   UNL A   1      46.063  37.290  29.744  1.00  0.00    -0.200 F 
ENDBRANCH  49  63
BRANCH  50  74
ATOM     74  C   UNL A   1      40.926  24.325  27.583  1.00  0.00     0.064 A 
ATOM     75  C   UNL A   1      41.519  23.178  28.132  1.00  0.00     0.173 A 
ATOM     76  C   UNL A   1      39.865  24.141  26.686  1.00  0.00     0.173 A 
ATOM     77  F   UNL A   1      42.563  23.298  28.967  1.00  0.00    -0.203 F 
ATOM     78  C   UNL A   1      41.092  21.901  27.771  1.00  0.00     0.198 A 
ATOM     79  C   UNL A   1      39.418  22.864  26.350  1.00  0.00     0.198 A 
ATOM     80  F   UNL A   1      39.270  25.202  26.122  1.00  0.00    -0.203 F 
ATOM     81  F   UNL A   1      41.724  20.824  28.257  1.00  0.00    -0.200 F 
ATOM     82  C   UNL A   1      40.039  21.745  26.882  1.00  0.00     0.200 A 
ATOM     83  F   UNL A   1      38.397  22.718  25.493  1.00  0.00    -0.200 F 
ATOM     84  F   UNL A   1      39.637  20.517  26.526  1.00  0.00    -0.200 F 
ENDBRANCH  50  74
BRANCH  62  85
ATOM     85  C   UNL A   1      46.906  27.484  25.912  1.00  0.00     0.064 A 
ATOM     86  C   UNL A   1      47.035  27.665  24.528  1.00  0.00     0.173 A 
ATOM     87  C   UNL A   1      47.982  26.903  26.601  1.00  0.00     0.173 A 
ATOM     88  F   UNL A   1      46.031  28.204  23.820  1.00  0.00    -0.203 F 
ATOM     89  C   UNL A   1      48.187  27.258  23.857  1.00  0.00     0.198 A 
ATOM     90  C   UNL A   1      49.145  26.528  25.933  1.00  0.00     0.198 A 
ATOM     91  F   UNL A   1      47.915  26.718  27.928  1.00  0.00    -0.203 F 
ATOM     92  F   UNL A   1      48.270  27.399  22.527  1.00  0.00    -0.200 F 
ATOM     93  C   UNL A   1      49.243  26.699  24.561  1.00  0.00     0.200 A 
ATOM     94  F   UNL A   1      50.170  26.003  26.619  1.00  0.00    -0.200 F 
ATOM     95  F   UNL A   1      50.354  26.318  23.915  1.00  0.00    -0.200 F 
ENDBRANCH  62  85
ENDBRANCH  36  37
ENDBRANCH  29  31
ENDBRANCH  28  29
ENDBRANCH  27  28
ENDBRANCH  26  27
ENDBRANCH  25  26
ENDBRANCH  24  25
ENDBRANCH   1  24
TORSDOF 21
ENDMDL
MODEL 2
REMARK VINA RESULT:     -10.4      1.033      2.130
REMARK SMILES CC(C)(C)[NH+]1CCN(C(=O)CCCC(=O)OCCOCCOCCOC(=O)c2ccc(-c3c4nc(c(-c5c(F)c(F)c(F)c(F)c5F)c5ccc([nH]5)c(-c5c(F)c(F)c(F)c(F)c5F)c5nc(c(-c6c(F)c(F)c(F)c(F)c6F)c6ccc3[nH]6)C=C5)C=C4)cc2)CC1
REMARK SMILES IDX 20 1 19 2 18 3 17 4 16 5 14 6 15 7 13 8 12 9 11 10 9 11 5 12
REMARK SMILES IDX 6 13 92 14 7 16 91 17 8 18 10 19 2 20 1 21 3 22 4 23 21 24
REMARK SMILES IDX 22 25 23 26 24 27 25 28 26 29 27 30 28 31 29 32 90 33 30 34
REMARK SMILES IDX 89 35 31 36 32 37 33 38 83 39 34 40 88 41 82 42 84 43 35 44
REMARK SMILES IDX 87 45 81 46 80 47 36 49 68 50 48 51 67 52 49 53 52 54 66 55
REMARK SMILES IDX 85 56 50 57 51 58 65 60 86 61 53 62 37 63 38 64 46 65 39 66
REMARK SMILES IDX 40 67 44 68 47 69 41 70 42 71 45 72 43 73 69 74 70 75 78 76
REMARK SMILES IDX 71 77 72 78 76 79 79 80 73 81 74 82 77 83 75 84 54 85 55 86
REMARK SMILES IDX 63 87 56 88 57 89 61 90 64 91 58 92 59 93 62 94 60 95
REMARK H PARENT 5 15 84 48 52 59
REMARK Flexibility Score: inf
ROOT
ATOM      1  C   UNL A   1      34.934  32.781  27.822  1.00  0.00     0.188 C 
ENDROOT
BRANCH   1   2
ATOM      2  O   UNL A   1      34.224  31.548  27.939  1.00  0.00    -0.376 OA
BRANCH   2   3
ATOM      3  C   UNL A   1      34.938  30.332  27.756  1.00  0.00     0.202 C 
BRANCH   3   4
ATOM      4  C   UNL A   1      34.246  29.281  26.891  1.00  0.00     0.261 C 
BRANCH   4   5
ATOM      5  O   UNL A   1      32.956  29.729  26.419  1.00  0.00    -0.463 OA
BRANCH   5   6
ATOM      6  C   UNL A   1      32.115  28.814  25.887  1.00  0.00     0.305 C 
ATOM      7  O   UNL A   1      31.209  29.091  25.109  1.00  0.00    -0.252 OA
BRANCH   6   8
ATOM      8  C   UNL A   1      32.346  27.378  26.354  1.00  0.00     0.123 C 
BRANCH   8   9
ATOM      9  C   UNL A   1      31.436  26.162  26.091  1.00  0.00     0.022 C 
BRANCH   9  10
ATOM     10  C   UNL A   1      31.909  24.711  26.221  1.00  0.00     0.101 C 
BRANCH  10  11
ATOM     11  C   UNL A   1      32.656  24.113  25.024  1.00  0.00     0.222 C 
ATOM     12  N   UNL A   1      34.201  20.098  25.430  1.00  0.00    -0.328 N 
ATOM     13  C   UNL A   1      34.831  21.107  24.559  1.00  0.00     0.284 C 
ATOM     14  C   UNL A   1      33.556  20.773  26.548  1.00  0.00     0.284 C 
ATOM     15  H   UNL A   1      34.972  19.527  25.776  1.00  0.00     0.348 HD
ATOM     16  C   UNL A   1      33.881  22.206  24.037  1.00  0.00     0.181 C 
ATOM     17  C   UNL A   1      32.599  21.875  26.106  1.00  0.00     0.181 C 
ATOM     18  N   UNL A   1      33.097  22.804  25.116  1.00  0.00    -0.331 N 
ATOM     19  O   UNL A   1      32.889  24.813  24.037  1.00  0.00    -0.275 OA
BRANCH  12  20
ATOM     20  C   UNL A   1      33.508  18.928  24.845  1.00  0.00     0.089 C 
ATOM     21  C   UNL A   1      34.663  18.033  24.342  1.00  0.00     0.078 C 
ATOM     22  C   UNL A   1      32.602  19.255  23.643  1.00  0.00     0.078 C 
ATOM     23  C   UNL A   1      32.656  18.061  25.810  1.00  0.00     0.078 C 
ENDBRANCH  12  20
ENDBRANCH  10  11
ENDBRANCH   9  10
ENDBRANCH   8   9
ENDBRANCH   6   8
ENDBRANCH   5   6
ENDBRANCH   4   5
ENDBRANCH   3   4
ENDBRANCH   2   3
ENDBRANCH   1   2
BRANCH   1  24
ATOM     24  C   UNL A   1      34.195  34.088  28.167  1.00  0.00     0.188 C 
BRANCH  24  25
ATOM     25  O   UNL A   1      33.489  34.020  29.388  1.00  0.00    -0.376 OA
BRANCH  25  26
ATOM     26  C   UNL A   1      33.995  34.813  30.447  1.00  0.00     0.202 C 
BRANCH  26  27
ATOM     27  C   UNL A   1      34.053  34.121  31.817  1.00  0.00     0.261 C 
BRANCH  27  28
ATOM     28  O   UNL A   1      34.608  32.791  31.834  1.00  0.00    -0.460 OA
BRANCH  28  29
ATOM     29  C   UNL A   1      35.561  32.504  32.752  1.00  0.00     0.338 C 
ATOM     30  O   UNL A   1      35.475  32.646  33.959  1.00  0.00    -0.246 OA
BRANCH  29  31
ATOM     31  C   UNL A   1      36.636  31.742  32.063  1.00  0.00     0.060 A 
ATOM     32  C   UNL A   1      37.487  30.922  32.822  1.00  0.00     0.016 A 
ATOM     33  C   UNL A   1      36.776  31.789  30.674  1.00  0.00     0.016 A 
ATOM     34  C   UNL A   1      38.495  30.177  32.197  1.00  0.00     0.010 A 
ATOM     35  C   UNL A   1      37.798  31.063  30.052  1.00  0.00     0.010 A 
ATOM     36  C   UNL A   1      38.684  30.277  30.812  1.00  0.00    -0.014 A 
BRANCH  36  37
ATOM     37  C   UNL A   1      39.932  29.769  30.182  1.00  0.00     0.031 A 
ATOM     38  C   UNL A   1      41.077  30.734  30.017  1.00  0.00     0.074 A 
ATOM     39  C   UNL A   1      40.059  28.501  29.747  1.00  0.00     0.049 A 
ATOM     40  N   UNL A   1      42.227  30.573  29.413  1.00  0.00    -0.248 NA
ATOM     41  C   UNL A   1      40.893  32.068  30.612  1.00  0.00     0.031 C 
ATOM     42  C   UNL A   1      39.054  27.450  29.881  1.00  0.00     0.029 A 
ATOM     43  N   UNL A   1      41.098  27.890  29.084  1.00  0.00    -0.354 N 
ATOM     44  C   UNL A   1      42.890  31.787  29.539  1.00  0.00     0.074 A 
ATOM     45  C   UNL A   1      42.013  32.680  30.262  1.00  0.00     0.031 C 
ATOM     46  C   UNL A   1      39.518  26.327  29.301  1.00  0.00     0.029 A 
ATOM     47  C   UNL A   1      40.837  26.590  28.724  1.00  0.00     0.049 A 
ATOM     48  H   UNL A   1      41.950  28.342  28.886  1.00  0.00     0.167 HD
ATOM     49  C   UNL A   1      44.121  32.129  29.091  1.00  0.00     0.037 A 
ATOM     50  C   UNL A   1      41.567  25.726  27.989  1.00  0.00     0.037 A 
ATOM     51  C   UNL A   1      45.005  31.243  28.384  1.00  0.00     0.049 A 
ATOM     52  C   UNL A   1      42.907  26.159  27.439  1.00  0.00     0.074 A 
ATOM     53  C   UNL A   1      46.288  31.490  27.929  1.00  0.00     0.029 A 
ATOM     54  N   UNL A   1      44.692  29.943  28.020  1.00  0.00    -0.354 N 
ATOM     55  N   UNL A   1      43.545  27.294  27.599  1.00  0.00    -0.248 NA
ATOM     56  C   UNL A   1      43.628  25.187  26.601  1.00  0.00     0.031 C 
ATOM     57  C   UNL A   1      46.732  30.358  27.240  1.00  0.00     0.029 A 
ATOM     58  C   UNL A   1      45.747  29.387  27.316  1.00  0.00     0.049 A 
ATOM     59  H   UNL A   1      43.846  29.485  28.230  1.00  0.00     0.167 HD
ATOM     60  C   UNL A   1      44.751  27.156  26.920  1.00  0.00     0.074 A 
ATOM     61  C   UNL A   1      44.763  25.825  26.353  1.00  0.00     0.031 C 
ATOM     62  C   UNL A   1      45.760  28.051  26.780  1.00  0.00     0.037 A 
BRANCH  49  63
ATOM     63  C   UNL A   1      44.580  33.537  29.324  1.00  0.00     0.064 A 
ATOM     64  C   UNL A   1      44.360  34.552  28.382  1.00  0.00     0.173 A 
ATOM     65  C   UNL A   1      45.202  33.883  30.534  1.00  0.00     0.173 A 
ATOM     66  F   UNL A   1      43.786  34.267  27.204  1.00  0.00    -0.203 F 
ATOM     67  C   UNL A   1      44.759  35.862  28.638  1.00  0.00     0.198 A 
ATOM     68  C   UNL A   1      45.575  35.198  30.797  1.00  0.00     0.198 A 
ATOM     69  F   UNL A   1      45.434  32.947  31.466  1.00  0.00    -0.203 F 
ATOM     70  F   UNL A   1      44.572  36.811  27.711  1.00  0.00    -0.200 F 
ATOM     71  C   UNL A   1      45.356  36.185  29.848  1.00  0.00     0.200 A 
ATOM     72  F   UNL A   1      46.141  35.509  31.971  1.00  0.00    -0.200 F 
ATOM     73  F   UNL A   1      45.726  37.449  30.098  1.00  0.00    -0.200 F 
ENDBRANCH  49  63
BRANCH  50  74
ATOM     74  C   UNL A   1      41.055  24.358  27.693  1.00  0.00     0.064 A 
ATOM     75  C   UNL A   1      41.663  23.223  28.249  1.00  0.00     0.173 A 
ATOM     76  C   UNL A   1      40.002  24.154  26.790  1.00  0.00     0.173 A 
ATOM     77  F   UNL A   1      42.700  23.363  29.090  1.00  0.00    -0.203 F 
ATOM     78  C   UNL A   1      41.259  21.938  27.891  1.00  0.00     0.198 A 
ATOM     79  C   UNL A   1      39.577  22.868  26.456  1.00  0.00     0.198 A 
ATOM     80  F   UNL A   1      39.394  25.203  26.218  1.00  0.00    -0.203 F 
ATOM     81  F   UNL A   1      41.905  20.873  28.384  1.00  0.00    -0.200 F 
ATOM     82  C   UNL A   1      40.213  21.761  26.997  1.00  0.00     0.200 A 
ATOM     83  F   UNL A   1      38.564  22.703  25.594  1.00  0.00    -0.200 F 
ATOM     84  F   UNL A   1      39.833  20.526  26.642  1.00  0.00    -0.200 F 
ENDBRANCH  50  74
BRANCH  62  85
ATOM     85  C   UNL A   1      46.989  27.610  26.037  1.00  0.00     0.064 A 
ATOM     86  C   UNL A   1      48.076  27.013  26.692  1.00  0.00     0.173 A 
ATOM     87  C   UNL A   1      47.056  27.740  24.641  1.00  0.00     0.173 A 
ATOM     88  F   UNL A   1      48.069  26.876  28.027  1.00  0.00    -0.203 F 
ATOM     89  C   UNL A   1      49.195  26.586  25.980  1.00  0.00     0.198 A 
ATOM     90  C   UNL A   1      48.160  27.282  23.929  1.00  0.00     0.198 A 
ATOM     91  F   UNL A   1      46.038  28.294  23.964  1.00  0.00    -0.203 F 
ATOM     92  F   UNL A   1      50.241  26.060  26.631  1.00  0.00    -0.200 F 
ATOM     93  C   UNL A   1      49.232  26.713  24.599  1.00  0.00     0.200 A 
ATOM     94  F   UNL A   1      48.186  27.391  22.593  1.00  0.00    -0.200 F 
ATOM     95  F   UNL A   1      50.304  26.291  23.914  1.00  0.00    -0.200 F 
ENDBRANCH  62  85
ENDBRANCH  36  37
ENDBRANCH  29  31
ENDBRANCH  28  29
ENDBRANCH  27  28
ENDBRANCH  26  27
ENDBRANCH  25  26
ENDBRANCH  24  25
ENDBRANCH   1  24
TORSDOF 21
ENDMDL
MODEL 3
REMARK VINA RESULT:     -10.2      4.531      6.991
REMARK SMILES CC(C)(C)[NH+]1CCN(C(=O)CCCC(=O)OCCOCCOCCOC(=O)c2ccc(-c3c4nc(c(-c5c(F)c(F)c(F)c(F)c5F)c5ccc([nH]5)c(-c5c(F)c(F)c(F)c(F)c5F)c5nc(c(-c6c(F)c(F)c(F)c(F)c6F)c6ccc3[nH]6)C=C5)C=C4)cc2)CC1
REMARK SMILES IDX 20 1 19 2 18 3 17 4 16 5 14 6 15 7 13 8 12 9 11 10 9 11 5 12
REMARK SMILES IDX 6 13 92 14 7 16 91 17 8 18 10 19 2 20 1 21 3 22 4 23 21 24
REMARK SMILES IDX 22 25 23 26 24 27 25 28 26 29 27 30 28 31 29 32 90 33 30 34
REMARK SMILES IDX 89 35 31 36 32 37 33 38 83 39 34 40 88 41 82 42 84 43 35 44
REMARK SMILES IDX 87 45 81 46 80 47 36 49 68 50 48 51 67 52 49 53 52 54 66 55
REMARK SMILES IDX 85 56 50 57 51 58 65 60 86 61 53 62 37 63 38 64 46 65 39 66
REMARK SMILES IDX 40 67 44 68 47 69 41 70 42 71 45 72 43 73 69 74 70 75 78 76
REMARK SMILES IDX 71 77 72 78 76 79 79 80 73 81 74 82 77 83 75 84 54 85 55 86
REMARK SMILES IDX 63 87 56 88 57 89 61 90 64 91 58 92 59 93 62 94 60 95
REMARK H PARENT 5 15 84 48 52 59
REMARK Flexibility Score: inf
ROOT
ATOM      1  C   UNL A   1      34.896  29.309  27.088  1.00  0.00     0.188 C 
ENDROOT
BRANCH   1   2
ATOM      2  O   UNL A   1      33.971  28.285  26.725  1.00  0.00    -0.376 OA
BRANCH   2   3
ATOM      3  C   UNL A   1      33.484  28.250  25.389  1.00  0.00     0.202 C 
BRANCH   3   4
ATOM      4  C   UNL A   1      32.021  28.649  25.207  1.00  0.00     0.261 C 
BRANCH   4   5
ATOM      5  O   UNL A   1      31.604  28.573  23.826  1.00  0.00    -0.463 OA
BRANCH   5   6
ATOM      6  C   UNL A   1      30.355  28.131  23.557  1.00  0.00     0.305 C 
ATOM      7  O   UNL A   1      29.413  28.870  23.291  1.00  0.00    -0.252 OA
BRANCH   6   8
ATOM      8  C   UNL A   1      30.174  26.617  23.643  1.00  0.00     0.123 C 
BRANCH   8   9
ATOM      9  C   UNL A   1      30.090  25.765  24.925  1.00  0.00     0.022 C 
BRANCH   9  10
ATOM     10  C   UNL A   1      30.638  24.338  25.027  1.00  0.00     0.101 C 
BRANCH  10  11
ATOM     11  C   UNL A   1      31.697  24.075  26.102  1.00  0.00     0.222 C 
ATOM     12  N   UNL A   1      35.160  21.748  24.976  1.00  0.00    -0.328 N 
ATOM     13  C   UNL A   1      34.627  21.765  26.350  1.00  0.00     0.284 C 
ATOM     14  C   UNL A   1      34.065  21.970  24.041  1.00  0.00     0.284 C 
ATOM     15  H   UNL A   1      35.532  20.808  24.847  1.00  0.00     0.348 HD
ATOM     16  C   UNL A   1      33.852  23.043  26.737  1.00  0.00     0.181 C 
ATOM     17  C   UNL A   1      33.253  23.220  24.362  1.00  0.00     0.181 C 
ATOM     18  N   UNL A   1      32.843  23.389  25.738  1.00  0.00    -0.331 N 
ATOM     19  O   UNL A   1      31.492  24.432  27.264  1.00  0.00    -0.275 OA
BRANCH  12  20
ATOM     20  C   UNL A   1      36.462  22.379  24.666  1.00  0.00     0.089 C 
ATOM     21  C   UNL A   1      37.479  21.234  24.866  1.00  0.00     0.078 C 
ATOM     22  C   UNL A   1      36.855  23.534  25.609  1.00  0.00     0.078 C 
ATOM     23  C   UNL A   1      36.661  22.909  23.222  1.00  0.00     0.078 C 
ENDBRANCH  12  20
ENDBRANCH  10  11
ENDBRANCH   9  10
ENDBRANCH   8   9
ENDBRANCH   6   8
ENDBRANCH   5   6
ENDBRANCH   4   5
ENDBRANCH   3   4
ENDBRANCH   2   3
ENDBRANCH   1   2
BRANCH   1  24
ATOM     24  C   UNL A   1      34.344  30.703  27.444  1.00  0.00     0.188 C 
BRANCH  24  25
ATOM     25  O   UNL A   1      32.941  30.716  27.614  1.00  0.00    -0.376 OA
BRANCH  25  26
ATOM     26  C   UNL A   1      32.276  31.901  27.216  1.00  0.00     0.202 C 
BRANCH  26  27
ATOM     27  C   UNL A   1      33.044  33.205  27.478  1.00  0.00     0.261 C 
BRANCH  27  28
ATOM     28  O   UNL A   1      32.315  34.245  28.161  1.00  0.00    -0.460 OA
BRANCH  28  29
ATOM     29  C   UNL A   1      33.017  35.244  28.746  1.00  0.00     0.338 C 
ATOM     30  O   UNL A   1      32.677  36.409  28.851  1.00  0.00    -0.246 OA
BRANCH  29  31
ATOM     31  C   UNL A   1      34.161  34.627  29.470  1.00  0.00     0.060 A 
ATOM     32  C   UNL A   1      35.425  34.606  28.860  1.00  0.00     0.016 A 
ATOM     33  C   UNL A   1      34.005  34.120  30.762  1.00  0.00     0.016 A 
ATOM     34  C   UNL A   1      36.524  34.050  29.527  1.00  0.00     0.010 A 
ATOM     35  C   UNL A   1      35.098  33.544  31.420  1.00  0.00     0.010 A 
ATOM     36  C   UNL A   1      36.357  33.476  30.795  1.00  0.00    -0.014 A 
BRANCH  36  37
ATOM     37  C   UNL A   1      37.412  32.599  31.371  1.00  0.00     0.031 A 
ATOM     38  C   UNL A   1      37.911  32.921  32.755  1.00  0.00     0.074 A 
ATOM     39  C   UNL A   1      37.935  31.559  30.696  1.00  0.00     0.049 A 
ATOM     40  N   UNL A   1      38.888  32.381  33.439  1.00  0.00    -0.248 NA
ATOM     41  C   UNL A   1      37.215  34.009  33.461  1.00  0.00     0.031 C 
ATOM     42  C   UNL A   1      37.518  31.105  29.373  1.00  0.00     0.029 A 
ATOM     43  N   UNL A   1      38.954  30.700  31.040  1.00  0.00    -0.354 N 
ATOM     44  C   UNL A   1      38.934  33.074  34.641  1.00  0.00     0.074 A 
ATOM     45  C   UNL A   1      37.899  34.083  34.592  1.00  0.00     0.031 C 
ATOM     46  C   UNL A   1      38.287  30.062  29.007  1.00  0.00     0.029 A 
ATOM     47  C   UNL A   1      39.273  29.797  30.055  1.00  0.00     0.049 A 
ATOM     48  H   UNL A   1      39.412  30.729  31.912  1.00  0.00     0.167 HD
ATOM     49  C   UNL A   1      39.763  32.889  35.695  1.00  0.00     0.037 A 
ATOM     50  C   UNL A   1      40.266  28.885  29.998  1.00  0.00     0.037 A 
ATOM     51  C   UNL A   1      40.784  31.879  35.757  1.00  0.00     0.049 A 
ATOM     52  C   UNL A   1      41.224  28.749  31.160  1.00  0.00     0.074 A 
ATOM     53  C   UNL A   1      41.644  31.590  36.802  1.00  0.00     0.029 A 
ATOM     54  N   UNL A   1      41.090  31.002  34.730  1.00  0.00    -0.354 N 
ATOM     55  N   UNL A   1      41.233  29.380  32.309  1.00  0.00    -0.248 NA
ATOM     56  C   UNL A   1      42.315  27.773  31.010  1.00  0.00     0.031 C 
ATOM     57  C   UNL A   1      42.509  30.573  36.386  1.00  0.00     0.029 A 
ATOM     58  C   UNL A   1      42.149  30.191  35.104  1.00  0.00     0.049 A 
ATOM     59  H   UNL A   1      40.624  30.961  33.864  1.00  0.00     0.167 HD
ATOM     60  C   UNL A   1      42.298  28.849  33.030  1.00  0.00     0.074 A 
ATOM     61  C   UNL A   1      42.908  27.839  32.194  1.00  0.00     0.031 C 
ATOM     62  C   UNL A   1      42.731  29.169  34.274  1.00  0.00     0.037 A 
BRANCH  49  63
ATOM     63  C   UNL A   1      39.625  33.820  36.861  1.00  0.00     0.064 A 
ATOM     64  C   UNL A   1      40.233  35.083  36.876  1.00  0.00     0.173 A 
ATOM     65  C   UNL A   1      38.828  33.459  37.959  1.00  0.00     0.173 A 
ATOM     66  F   UNL A   1      41.019  35.466  35.859  1.00  0.00    -0.203 F 
ATOM     67  C   UNL A   1      40.058  35.948  37.953  1.00  0.00     0.198 A 
ATOM     68  C   UNL A   1      38.633  34.336  39.021  1.00  0.00     0.198 A 
ATOM     69  F   UNL A   1      38.226  32.261  37.992  1.00  0.00    -0.203 F 
ATOM     70  F   UNL A   1      40.675  37.137  37.964  1.00  0.00    -0.200 F 
ATOM     71  C   UNL A   1      39.250  35.578  39.019  1.00  0.00     0.200 A 
ATOM     72  F   UNL A   1      37.844  33.981  40.044  1.00  0.00    -0.200 F 
ATOM     73  F   UNL A   1      39.071  36.417  40.049  1.00  0.00    -0.200 F 
ENDBRANCH  49  63
BRANCH  50  74
ATOM     74  C   UNL A   1      40.441  28.028  28.791  1.00  0.00     0.064 A 
ATOM     75  C   UNL A   1      41.172  28.482  27.683  1.00  0.00     0.173 A 
ATOM     76  C   UNL A   1      39.820  26.775  28.691  1.00  0.00     0.173 A 
ATOM     77  F   UNL A   1      41.755  29.690  27.715  1.00  0.00    -0.203 F 
ATOM     78  C   UNL A   1      41.248  27.731  26.511  1.00  0.00     0.198 A 
ATOM     79  C   UNL A   1      39.922  26.011  27.529  1.00  0.00     0.198 A 
ATOM     80  F   UNL A   1      39.098  26.299  29.715  1.00  0.00    -0.203 F 
ATOM     81  F   UNL A   1      41.893  28.222  25.445  1.00  0.00    -0.200 F 
ATOM     82  C   UNL A   1      40.625  26.494  26.436  1.00  0.00     0.200 A 
ATOM     83  F   UNL A   1      39.322  24.814  27.462  1.00  0.00    -0.200 F 
ATOM     84  F   UNL A   1      40.687  25.778  25.305  1.00  0.00    -0.200 F 
ENDBRANCH  50  74
BRANCH  62  85
ATOM     85  C   UNL A   1      43.881  28.385  34.839  1.00  0.00     0.064 A 
ATOM     86  C   UNL A   1      45.206  28.829  34.729  1.00  0.00     0.173 A 
ATOM     87  C   UNL A   1      43.645  27.196  35.548  1.00  0.00     0.173 A 
ATOM     88  F   UNL A   1      45.487  29.953  34.050  1.00  0.00    -0.203 F 
ATOM     89  C   UNL A   1      46.255  28.100  35.285  1.00  0.00     0.198 A 
ATOM     90  C   UNL A   1      44.691  26.488  36.132  1.00  0.00     0.198 A 
ATOM     91  F   UNL A   1      42.394  26.732  35.694  1.00  0.00    -0.203 F 
ATOM     92  F   UNL A   1      47.517  28.520  35.127  1.00  0.00    -0.200 F 
ATOM     93  C   UNL A   1      45.996  26.936  35.993  1.00  0.00     0.200 A 
ATOM     94  F   UNL A   1      44.436  25.372  36.829  1.00  0.00    -0.200 F 
ATOM     95  F   UNL A   1      47.005  26.242  36.537  1.00  0.00    -0.200 F 
ENDBRANCH  62  85
ENDBRANCH  36  37
ENDBRANCH  29  31
ENDBRANCH  28  29
ENDBRANCH  27  28
ENDBRANCH  26  27
ENDBRANCH  25  26
ENDBRANCH  24  25
ENDBRANCH   1  24
TORSDOF 21
ENDMDL
