MODEL 1
REMARK VINA RESULT:     -11.4      0.000      0.000
REMARK SMILES Cc1cc2c(c(C)c1Cl)C=C(C(=O)OCCOCCOCCOC(=O)c1ccc(-c3c4nc(c(-c5c(F)c(F)c(F)c(F)c5F)c5ccc([nH]5)c(-c5c(F)c(F)c(F)c(F)c5F)c5nc(c(-c6c(F)c(F)c(F)c(F)c6F)c6ccc3[nH]6)C=C5)C=C4)cc1)[C@@H](C(F)(F)F)O2
REMARK SMILES IDX 19 1 18 2 17 3 16 4 15 5 14 6 12 7 13 8 11 9 1 10 2 11 3 12
REMARK SMILES IDX 8 13 4 14 6 15 9 16 5 17 94 18 7 19 10 20 89 21 90 22 91 23
REMARK SMILES IDX 92 24 93 25 20 26 21 27 22 28 23 29 24 30 25 31 26 32 27 33
REMARK SMILES IDX 88 34 28 35 87 36 29 37 30 38 31 39 81 40 32 41 86 42 80 43
REMARK SMILES IDX 82 44 33 45 85 46 79 47 78 48 34 50 66 51 46 52 65 53 47 54
REMARK SMILES IDX 50 55 64 56 83 57 48 58 49 59 63 61 84 62 51 63 35 64 36 65
REMARK SMILES IDX 44 66 37 67 38 68 42 69 45 70 39 71 40 72 43 73 41 74 67 75
REMARK SMILES IDX 68 76 76 77 69 78 70 79 74 80 77 81 71 82 72 83 75 84 73 85
REMARK SMILES IDX 52 86 53 87 61 88 54 89 55 90 59 91 62 92 56 93 57 94 60 95
REMARK SMILES IDX 58 96
REMARK H PARENT 82 49 50 60
REMARK Flexibility Score: inf
ROOT
ATOM      1  C   UNL A   1      36.626  21.927  25.650  1.00  0.00     0.188 C 
ENDROOT
BRANCH   1   2
ATOM      2  C   UNL A   1      35.176  21.510  25.972  1.00  0.00     0.188 C 
BRANCH   2   3
ATOM      3  O   UNL A   1      34.698  21.550  27.299  1.00  0.00    -0.376 OA
BRANCH   3   4
ATOM      4  C   UNL A   1      33.385  22.000  27.592  1.00  0.00     0.202 C 
BRANCH   4   5
ATOM      5  C   UNL A   1      32.591  22.954  26.687  1.00  0.00     0.261 C 
BRANCH   5   6
ATOM      6  O   UNL A   1      33.066  24.304  26.623  1.00  0.00    -0.460 OA
BRANCH   6   7
ATOM      7  C   UNL A   1      33.278  24.780  25.374  1.00  0.00     0.338 C 
ATOM      8  O   UNL A   1      33.647  24.145  24.400  1.00  0.00    -0.246 OA
BRANCH   7   9
ATOM      9  C   UNL A   1      32.835  26.187  25.300  1.00  0.00     0.087 C 
ATOM     10  C   UNL A   1      31.235  32.322  26.549  1.00  0.00     0.046 C 
ATOM     11  C   UNL A   1      31.949  31.012  26.351  1.00  0.00    -0.028 A 
ATOM     12  C   UNL A   1      31.370  30.056  25.508  1.00  0.00     0.052 A 
ATOM     13  C   UNL A   1      33.183  30.720  26.964  1.00  0.00     0.047 A 
ATOM     14  C   UNL A   1      31.940  28.794  25.362  1.00  0.00     0.128 A 
ATOM     15  C   UNL A   1      33.788  29.449  26.814  1.00  0.00    -0.021 A 
ATOM     16  Cl  UNL A   1      33.943  31.951  27.927  1.00  0.00    -0.084 Cl
ATOM     17  C   UNL A   1      33.115  28.464  26.047  1.00  0.00     0.022 A 
ATOM     18  O   UNL A   1      31.265  27.949  24.529  1.00  0.00    -0.475 OA
ATOM     19  C   UNL A   1      35.115  29.118  27.460  1.00  0.00     0.047 C 
ATOM     20  C   UNL A   1      33.560  27.074  25.995  1.00  0.00     0.027 C 
ATOM     21  C   UNL A   1      31.631  26.547  24.479  1.00  0.00     0.316 C 
BRANCH  21  22
ATOM     22  C   UNL A   1      30.398  25.712  24.848  1.00  0.00     0.430 C 
ATOM     23  F   UNL A   1      29.260  26.288  24.391  1.00  0.00    -0.167 F 
ATOM     24  F   UNL A   1      30.450  24.472  24.306  1.00  0.00    -0.167 F 
ATOM     25  F   UNL A   1      30.271  25.564  26.186  1.00  0.00    -0.167 F 
ENDBRANCH  21  22
ENDBRANCH   7   9
ENDBRANCH   6   7
ENDBRANCH   5   6
ENDBRANCH   4   5
ENDBRANCH   3   4
ENDBRANCH   2   3
ENDBRANCH   1   2
BRANCH   1  26
ATOM     26  O   UNL A   1      37.343  21.222  24.665  1.00  0.00    -0.376 OA
BRANCH  26  27
ATOM     27  C   UNL A   1      37.775  19.894  24.912  1.00  0.00     0.202 C 
BRANCH  27  28
ATOM     28  C   UNL A   1      39.177  19.487  25.410  1.00  0.00     0.261 C 
BRANCH  28  29
ATOM     29  O   UNL A   1      39.613  20.000  26.672  1.00  0.00    -0.460 OA
BRANCH  29  30
ATOM     30  C   UNL A   1      40.949  20.220  26.781  1.00  0.00     0.338 C 
ATOM     31  O   UNL A   1      41.853  19.473  26.462  1.00  0.00    -0.246 OA
BRANCH  30  32
ATOM     32  C   UNL A   1      41.168  21.626  27.176  1.00  0.00     0.060 A 
ATOM     33  C   UNL A   1      40.547  22.635  26.426  1.00  0.00     0.016 A 
ATOM     34  C   UNL A   1      41.992  21.945  28.254  1.00  0.00     0.016 A 
ATOM     35  C   UNL A   1      40.754  23.975  26.753  1.00  0.00     0.010 A 
ATOM     36  C   UNL A   1      42.225  23.290  28.559  1.00  0.00     0.010 A 
ATOM     37  C   UNL A   1      41.624  24.310  27.799  1.00  0.00    -0.014 A 
BRANCH  37  38
ATOM     38  C   UNL A   1      42.056  25.719  27.963  1.00  0.00     0.031 A 
ATOM     39  C   UNL A   1      43.384  26.128  27.388  1.00  0.00     0.074 A 
ATOM     40  C   UNL A   1      41.272  26.628  28.569  1.00  0.00     0.049 A 
ATOM     41  N   UNL A   1      43.992  27.284  27.442  1.00  0.00    -0.248 NA
ATOM     42  C   UNL A   1      44.122  25.092  26.646  1.00  0.00     0.031 C 
ATOM     43  C   UNL A   1      39.939  26.373  29.106  1.00  0.00     0.029 A 
ATOM     44  N   UNL A   1      41.495  27.959  28.833  1.00  0.00    -0.354 N 
ATOM     45  C   UNL A   1      45.176  27.117  26.736  1.00  0.00     0.074 A 
ATOM     46  C   UNL A   1      45.221  25.740  26.293  1.00  0.00     0.031 C 
ATOM     47  C   UNL A   1      39.461  27.511  29.642  1.00  0.00     0.029 A 
ATOM     48  C   UNL A   1      40.470  28.564  29.519  1.00  0.00     0.049 A 
ATOM     49  H   UNL A   1      42.311  28.433  28.557  1.00  0.00     0.167 HD
ATOM     50  C   UNL A   1      46.134  28.034  26.467  1.00  0.00     0.037 A 
ATOM     51  C   UNL A   1      40.371  29.816  30.008  1.00  0.00     0.037 A 
ATOM     52  C   UNL A   1      46.095  29.400  26.913  1.00  0.00     0.049 A 
ATOM     53  C   UNL A   1      41.511  30.786  29.798  1.00  0.00     0.074 A 
ATOM     54  C   UNL A   1      47.028  30.400  26.703  1.00  0.00     0.029 A 
ATOM     55  N   UNL A   1      45.070  29.958  27.663  1.00  0.00    -0.354 N 
ATOM     56  N   UNL A   1      42.626  30.623  29.130  1.00  0.00    -0.248 NA
ATOM     57  C   UNL A   1      41.377  32.115  30.416  1.00  0.00     0.031 C 
ATOM     58  C   UNL A   1      46.594  31.548  27.370  1.00  0.00     0.029 A 
ATOM     59  C   UNL A   1      45.362  31.282  27.945  1.00  0.00     0.049 A 
ATOM     60  H   UNL A   1      44.257  29.484  27.951  1.00  0.00     0.167 HD
ATOM     61  C   UNL A   1      43.308  31.832  29.218  1.00  0.00     0.074 A 
ATOM     62  C   UNL A   1      42.476  32.725  29.995  1.00  0.00     0.031 C 
ATOM     63  C   UNL A   1      44.517  32.168  28.705  1.00  0.00     0.037 A 
BRANCH  50  64
ATOM     64  C   UNL A   1      47.316  27.594  25.658  1.00  0.00     0.064 A 
ATOM     65  C   UNL A   1      47.313  27.668  24.257  1.00  0.00     0.173 A 
ATOM     66  C   UNL A   1      48.494  27.168  26.291  1.00  0.00     0.173 A 
ATOM     67  F   UNL A   1      46.207  28.054  23.604  1.00  0.00    -0.203 F 
ATOM     68  C   UNL A   1      48.443  27.327  23.520  1.00  0.00     0.198 A 
ATOM     69  C   UNL A   1      49.631  26.854  25.553  1.00  0.00     0.198 A 
ATOM     70  F   UNL A   1      48.548  27.081  27.629  1.00  0.00    -0.203 F 
ATOM     71  F   UNL A   1      48.410  27.378  22.182  1.00  0.00    -0.200 F 
ATOM     72  C   UNL A   1      49.604  26.932  24.169  1.00  0.00     0.200 A 
ATOM     73  F   UNL A   1      50.756  26.487  26.182  1.00  0.00    -0.200 F 
ATOM     74  F   UNL A   1      50.698  26.625  23.459  1.00  0.00    -0.200 F 
ENDBRANCH  50  64
BRANCH  51  75
ATOM     75  C   UNL A   1      39.154  30.237  30.752  1.00  0.00     0.064 A 
ATOM     76  C   UNL A   1      38.097  30.887  30.100  1.00  0.00     0.173 A 
ATOM     77  C   UNL A   1      39.032  30.025  32.134  1.00  0.00     0.173 A 
ATOM     78  F   UNL A   1      38.178  31.142  28.786  1.00  0.00    -0.203 F 
ATOM     79  C   UNL A   1      36.974  31.323  30.802  1.00  0.00     0.198 A 
ATOM     80  C   UNL A   1      37.895  30.434  32.830  1.00  0.00     0.198 A 
ATOM     81  F   UNL A   1      40.017  29.417  32.811  1.00  0.00    -0.203 F 
ATOM     82  F   UNL A   1      36.003  31.987  30.161  1.00  0.00    -0.200 F 
ATOM     83  C   UNL A   1      36.870  31.089  32.164  1.00  0.00     0.200 A 
ATOM     84  F   UNL A   1      37.796  30.197  34.145  1.00  0.00    -0.200 F 
ATOM     85  F   UNL A   1      35.789  31.505  32.838  1.00  0.00    -0.200 F 
ENDBRANCH  51  75
BRANCH  63  86
ATOM     86  C   UNL A   1      45.014  33.568  28.929  1.00  0.00     0.064 A 
ATOM     87  C   UNL A   1      45.814  33.897  30.033  1.00  0.00     0.173 A 
ATOM     88  C   UNL A   1      44.767  34.571  27.977  1.00  0.00     0.173 A 
ATOM     89  F   UNL A   1      46.073  32.979  30.976  1.00  0.00    -0.203 F 
ATOM     90  C   UNL A   1      46.334  35.180  30.183  1.00  0.00     0.198 A 
ATOM     91  C   UNL A   1      45.316  35.843  28.114  1.00  0.00     0.198 A 
ATOM     92  F   UNL A   1      44.019  34.308  26.895  1.00  0.00    -0.203 F 
ATOM     93  F   UNL A   1      47.068  35.480  31.264  1.00  0.00    -0.200 F 
ATOM     94  C   UNL A   1      46.096  36.147  29.219  1.00  0.00     0.200 A 
ATOM     95  F   UNL A   1      45.102  36.769  27.169  1.00  0.00    -0.200 F 
ATOM     96  F   UNL A   1      46.618  37.375  29.354  1.00  0.00    -0.200 F 
ENDBRANCH  63  86
ENDBRANCH  37  38
ENDBRANCH  30  32
ENDBRANCH  29  30
ENDBRANCH  28  29
ENDBRANCH  27  28
ENDBRANCH  26  27
ENDBRANCH   1  26
TORSDOF 18
ENDMDL
MODEL 2
REMARK VINA RESULT:     -11.4      4.570      6.988
REMARK SMILES Cc1cc2c(c(C)c1Cl)C=C(C(=O)OCCOCCOCCOC(=O)c1ccc(-c3c4nc(c(-c5c(F)c(F)c(F)c(F)c5F)c5ccc([nH]5)c(-c5c(F)c(F)c(F)c(F)c5F)c5nc(c(-c6c(F)c(F)c(F)c(F)c6F)c6ccc3[nH]6)C=C5)C=C4)cc1)[C@@H](C(F)(F)F)O2
REMARK SMILES IDX 19 1 18 2 17 3 16 4 15 5 14 6 12 7 13 8 11 9 1 10 2 11 3 12
REMARK SMILES IDX 8 13 4 14 6 15 9 16 5 17 94 18 7 19 10 20 89 21 90 22 91 23
REMARK SMILES IDX 92 24 93 25 20 26 21 27 22 28 23 29 24 30 25 31 26 32 27 33
REMARK SMILES IDX 88 34 28 35 87 36 29 37 30 38 31 39 81 40 32 41 86 42 80 43
REMARK SMILES IDX 82 44 33 45 85 46 79 47 78 48 34 50 66 51 46 52 65 53 47 54
REMARK SMILES IDX 50 55 64 56 83 57 48 58 49 59 63 61 84 62 51 63 35 64 36 65
REMARK SMILES IDX 44 66 37 67 38 68 42 69 45 70 39 71 40 72 43 73 41 74 67 75
REMARK SMILES IDX 68 76 76 77 69 78 70 79 74 80 77 81 71 82 72 83 75 84 73 85
REMARK SMILES IDX 52 86 53 87 61 88 54 89 55 90 59 91 62 92 56 93 57 94 60 95
REMARK SMILES IDX 58 96
REMARK H PARENT 82 49 50 60
REMARK Flexibility Score: inf
ROOT
ATOM      1  C   UNL A   1      40.996  20.485  27.290  1.00  0.00     0.188 C 
ENDROOT
BRANCH   1   2
ATOM      2  C   UNL A   1      39.856  20.856  26.318  1.00  0.00     0.188 C 
BRANCH   2   3
ATOM      3  O   UNL A   1      39.636  22.202  25.955  1.00  0.00    -0.376 OA
BRANCH   3   4
ATOM      4  C   UNL A   1      38.555  22.941  26.502  1.00  0.00     0.202 C 
BRANCH   4   5
ATOM      5  C   UNL A   1      37.543  23.724  25.652  1.00  0.00     0.261 C 
BRANCH   5   6
ATOM      6  O   UNL A   1      36.352  23.018  25.281  1.00  0.00    -0.460 OA
BRANCH   6   7
ATOM      7  C   UNL A   1      36.076  23.012  23.956  1.00  0.00     0.338 C 
ATOM      8  O   UNL A   1      36.786  22.583  23.062  1.00  0.00    -0.246 OA
BRANCH   7   9
ATOM      9  C   UNL A   1      34.685  23.461  23.739  1.00  0.00     0.087 C 
ATOM     10  C   UNL A   1      28.920  26.363  24.059  1.00  0.00     0.046 C 
ATOM     11  C   UNL A   1      30.381  26.033  23.905  1.00  0.00    -0.028 A 
ATOM     12  C   UNL A   1      30.739  24.713  23.605  1.00  0.00     0.052 A 
ATOM     13  C   UNL A   1      31.396  27.001  24.031  1.00  0.00     0.047 A 
ATOM     14  C   UNL A   1      32.077  24.333  23.543  1.00  0.00     0.128 A 
ATOM     15  C   UNL A   1      32.762  26.638  23.953  1.00  0.00    -0.021 A 
ATOM     16  Cl  UNL A   1      30.935  28.655  24.301  1.00  0.00    -0.084 Cl
ATOM     17  C   UNL A   1      33.092  25.272  23.765  1.00  0.00     0.022 A 
ATOM     18  O   UNL A   1      32.290  23.013  23.266  1.00  0.00    -0.475 OA
ATOM     19  C   UNL A   1      33.866  27.664  24.080  1.00  0.00     0.047 C 
ATOM     20  C   UNL A   1      34.462  24.776  23.866  1.00  0.00     0.027 C 
ATOM     21  C   UNL A   1      33.623  22.457  23.401  1.00  0.00     0.316 C 
BRANCH  21  22
ATOM     22  C   UNL A   1      33.564  21.302  24.410  1.00  0.00     0.430 C 
ATOM     23  F   UNL A   1      32.489  20.508  24.184  1.00  0.00    -0.167 F 
ATOM     24  F   UNL A   1      34.657  20.509  24.329  1.00  0.00    -0.167 F 
ATOM     25  F   UNL A   1      33.480  21.749  25.683  1.00  0.00    -0.167 F 
ENDBRANCH  21  22
ENDBRANCH   7   9
ENDBRANCH   6   7
ENDBRANCH   5   6
ENDBRANCH   4   5
ENDBRANCH   3   4
ENDBRANCH   2   3
ENDBRANCH   1   2
BRANCH   1  26
ATOM     26  O   UNL A   1      42.148  19.851  26.790  1.00  0.00    -0.376 OA
BRANCH  26  27
ATOM     27  C   UNL A   1      42.908  20.463  25.759  1.00  0.00     0.202 C 
BRANCH  27  28
ATOM     28  C   UNL A   1      43.583  21.847  25.846  1.00  0.00     0.261 C 
BRANCH  28  29
ATOM     29  O   UNL A   1      42.988  22.927  25.121  1.00  0.00    -0.460 OA
BRANCH  29  30
ATOM     30  C   UNL A   1      43.683  24.094  25.139  1.00  0.00     0.338 C 
ATOM     31  O   UNL A   1      44.603  24.422  24.415  1.00  0.00    -0.246 OA
BRANCH  30  32
ATOM     32  C   UNL A   1      43.016  25.029  26.067  1.00  0.00     0.060 A 
ATOM     33  C   UNL A   1      43.555  26.314  26.225  1.00  0.00     0.016 A 
ATOM     34  C   UNL A   1      41.891  24.636  26.791  1.00  0.00     0.016 A 
ATOM     35  C   UNL A   1      42.969  27.213  27.115  1.00  0.00     0.010 A 
ATOM     36  C   UNL A   1      41.323  25.528  27.706  1.00  0.00     0.010 A 
ATOM     37  C   UNL A   1      41.871  26.812  27.888  1.00  0.00    -0.014 A 
BRANCH  37  38
ATOM     38  C   UNL A   1      41.428  27.661  29.019  1.00  0.00     0.031 A 
ATOM     39  C   UNL A   1      42.206  27.598  30.304  1.00  0.00     0.074 A 
ATOM     40  C   UNL A   1      40.387  28.504  28.900  1.00  0.00     0.049 A 
ATOM     41  N   UNL A   1      41.989  28.210  31.439  1.00  0.00    -0.248 NA
ATOM     42  C   UNL A   1      43.397  26.731  30.305  1.00  0.00     0.031 C 
ATOM     43  C   UNL A   1      39.596  28.706  27.689  1.00  0.00     0.029 A 
ATOM     44  N   UNL A   1      39.816  29.348  29.822  1.00  0.00    -0.354 N 
ATOM     45  C   UNL A   1      43.016  27.809  32.283  1.00  0.00     0.074 A 
ATOM     46  C   UNL A   1      43.838  26.875  31.545  1.00  0.00     0.031 C 
ATOM     47  C   UNL A   1      38.637  29.615  27.943  1.00  0.00     0.029 A 
ATOM     48  C   UNL A   1      38.724  30.030  29.344  1.00  0.00     0.049 A 
ATOM     49  H   UNL A   1      40.159  29.455  30.738  1.00  0.00     0.167 HD
ATOM     50  C   UNL A   1      43.261  28.198  33.555  1.00  0.00     0.037 A 
ATOM     51  C   UNL A   1      37.881  30.873  29.974  1.00  0.00     0.037 A 
ATOM     52  C   UNL A   1      42.440  29.121  34.292  1.00  0.00     0.049 A 
ATOM     53  C   UNL A   1      38.107  31.196  31.433  1.00  0.00     0.074 A 
ATOM     54  C   UNL A   1      42.601  29.563  35.594  1.00  0.00     0.029 A 
ATOM     55  N   UNL A   1      41.303  29.739  33.795  1.00  0.00    -0.354 N 
ATOM     56  N   UNL A   1      39.080  30.815  32.225  1.00  0.00    -0.248 NA
ATOM     57  C   UNL A   1      37.115  32.064  32.085  1.00  0.00     0.031 C 
ATOM     58  C   UNL A   1      41.532  30.408  35.901  1.00  0.00     0.029 A 
ATOM     59  C   UNL A   1      40.738  30.540  34.774  1.00  0.00     0.049 A 
ATOM     60  H   UNL A   1      40.951  29.626  32.883  1.00  0.00     0.167 HD
ATOM     61  C   UNL A   1      38.835  31.421  33.452  1.00  0.00     0.074 A 
ATOM     62  C   UNL A   1      37.629  32.205  33.299  1.00  0.00     0.031 C 
ATOM     63  C   UNL A   1      39.546  31.331  34.604  1.00  0.00     0.037 A 
BRANCH  50  64
ATOM     64  C   UNL A   1      44.462  27.624  34.243  1.00  0.00     0.064 A 
ATOM     65  C   UNL A   1      44.396  26.404  34.934  1.00  0.00     0.173 A 
ATOM     66  C   UNL A   1      45.710  28.258  34.146  1.00  0.00     0.173 A 
ATOM     67  F   UNL A   1      43.223  25.768  35.069  1.00  0.00    -0.203 F 
ATOM     68  C   UNL A   1      45.534  25.844  35.506  1.00  0.00     0.198 A 
ATOM     69  C   UNL A   1      46.851  27.681  34.695  1.00  0.00     0.198 A 
ATOM     70  F   UNL A   1      45.826  29.425  33.495  1.00  0.00    -0.203 F 
ATOM     71  F   UNL A   1      45.444  24.693  36.185  1.00  0.00    -0.200 F 
ATOM     72  C   UNL A   1      46.762  26.476  35.375  1.00  0.00     0.200 A 
ATOM     73  F   UNL A   1      48.039  28.286  34.555  1.00  0.00    -0.200 F 
ATOM     74  F   UNL A   1      47.861  25.924  35.908  1.00  0.00    -0.200 F 
ENDBRANCH  50  64
BRANCH  51  75
ATOM     75  C   UNL A   1      36.734  31.474  29.240  1.00  0.00     0.064 A 
ATOM     76  C   UNL A   1      36.718  32.838  28.920  1.00  0.00     0.173 A 
ATOM     77  C   UNL A   1      35.619  30.706  28.872  1.00  0.00     0.173 A 
ATOM     78  F   UNL A   1      37.746  33.622  29.278  1.00  0.00    -0.203 F 
ATOM     79  C   UNL A   1      35.626  33.415  28.272  1.00  0.00     0.198 A 
ATOM     80  C   UNL A   1      34.541  31.278  28.197  1.00  0.00     0.198 A 
ATOM     81  F   UNL A   1      35.576  29.398  29.163  1.00  0.00    -0.203 F 
ATOM     82  F   UNL A   1      35.617  34.731  28.023  1.00  0.00    -0.200 F 
ATOM     83  C   UNL A   1      34.542  32.633  27.904  1.00  0.00     0.200 A 
ATOM     84  F   UNL A   1      33.499  30.515  27.836  1.00  0.00    -0.200 F 
ATOM     85  F   UNL A   1      33.494  33.187  27.279  1.00  0.00    -0.200 F 
ENDBRANCH  51  75
BRANCH  63  86
ATOM     86  C   UNL A   1      39.069  32.120  35.791  1.00  0.00     0.064 A 
ATOM     87  C   UNL A   1      38.253  31.546  36.776  1.00  0.00     0.173 A 
ATOM     88  C   UNL A   1      39.512  33.437  35.993  1.00  0.00     0.173 A 
ATOM     89  F   UNL A   1      37.794  30.294  36.627  1.00  0.00    -0.203 F 
ATOM     90  C   UNL A   1      37.887  32.265  37.910  1.00  0.00     0.198 A 
ATOM     91  C   UNL A   1      39.172  34.141  37.144  1.00  0.00     0.198 A 
ATOM     92  F   UNL A   1      40.306  34.031  35.088  1.00  0.00    -0.203 F 
ATOM     93  F   UNL A   1      37.078  31.706  38.822  1.00  0.00    -0.200 F 
ATOM     94  C   UNL A   1      38.356  33.556  38.100  1.00  0.00     0.200 A 
ATOM     95  F   UNL A   1      39.644  35.381  37.335  1.00  0.00    -0.200 F 
ATOM     96  F   UNL A   1      38.021  34.237  39.205  1.00  0.00    -0.200 F 
ENDBRANCH  63  86
ENDBRANCH  37  38
ENDBRANCH  30  32
ENDBRANCH  29  30
ENDBRANCH  28  29
ENDBRANCH  27  28
ENDBRANCH  26  27
ENDBRANCH   1  26
TORSDOF 18
ENDMDL
MODEL 3
REMARK VINA RESULT:     -11.1      3.127      8.696
REMARK SMILES Cc1cc2c(c(C)c1Cl)C=C(C(=O)OCCOCCOCCOC(=O)c1ccc(-c3c4nc(c(-c5c(F)c(F)c(F)c(F)c5F)c5ccc([nH]5)c(-c5c(F)c(F)c(F)c(F)c5F)c5nc(c(-c6c(F)c(F)c(F)c(F)c6F)c6ccc3[nH]6)C=C5)C=C4)cc1)[C@@H](C(F)(F)F)O2
REMARK SMILES IDX 19 1 18 2 17 3 16 4 15 5 14 6 12 7 13 8 11 9 1 10 2 11 3 12
REMARK SMILES IDX 8 13 4 14 6 15 9 16 5 17 94 18 7 19 10 20 89 21 90 22 91 23
REMARK SMILES IDX 92 24 93 25 20 26 21 27 22 28 23 29 24 30 25 31 26 32 27 33
REMARK SMILES IDX 88 34 28 35 87 36 29 37 30 38 31 39 81 40 32 41 86 42 80 43
REMARK SMILES IDX 82 44 33 45 85 46 79 47 78 48 34 50 66 51 46 52 65 53 47 54
REMARK SMILES IDX 50 55 64 56 83 57 48 58 49 59 63 61 84 62 51 63 35 64 36 65
REMARK SMILES IDX 44 66 37 67 38 68 42 69 45 70 39 71 40 72 43 73 41 74 67 75
REMARK SMILES IDX 68 76 76 77 69 78 70 79 74 80 77 81 71 82 72 83 75 84 73 85
REMARK SMILES IDX 52 86 53 87 61 88 54 89 55 90 59 91 62 92 56 93 57 94 60 95
REMARK SMILES IDX 58 96
REMARK H PARENT 82 49 50 60
REMARK Flexibility Score: inf
ROOT
ATOM      1  C   UNL A   1      34.952  33.395  28.112  1.00  0.00     0.188 C 
ENDROOT
BRANCH   1   2
ATOM      2  C   UNL A   1      34.177  32.074  28.296  1.00  0.00     0.188 C 
BRANCH   2   3
ATOM      3  O   UNL A   1      33.383  31.559  27.250  1.00  0.00    -0.376 OA
BRANCH   3   4
ATOM      4  C   UNL A   1      32.973  30.201  27.241  1.00  0.00     0.202 C 
BRANCH   4   5
ATOM      5  C   UNL A   1      31.878  29.647  26.316  1.00  0.00     0.261 C 
BRANCH   5   6
ATOM      6  O   UNL A   1      31.762  28.220  26.262  1.00  0.00    -0.460 OA
BRANCH   6   7
ATOM      7  C   UNL A   1      32.430  27.627  25.245  1.00  0.00     0.338 C 
ATOM      8  O   UNL A   1      33.138  28.174  24.416  1.00  0.00    -0.246 OA
BRANCH   7   9
ATOM      9  C   UNL A   1      32.317  26.159  25.370  1.00  0.00     0.087 C 
ATOM     10  C   UNL A   1      33.071  19.759  24.902  1.00  0.00     0.046 C 
ATOM     11  C   UNL A   1      33.233  21.231  25.170  1.00  0.00    -0.028 A 
ATOM     12  C   UNL A   1      32.083  22.025  25.251  1.00  0.00     0.052 A 
ATOM     13  C   UNL A   1      34.491  21.834  25.362  1.00  0.00     0.047 A 
ATOM     14  C   UNL A   1      32.178  23.406  25.404  1.00  0.00     0.128 A 
ATOM     15  C   UNL A   1      34.608  23.234  25.537  1.00  0.00    -0.021 A 
ATOM     16  Cl  UNL A   1      35.904  20.822  25.362  1.00  0.00    -0.084 Cl
ATOM     17  C   UNL A   1      33.431  24.024  25.497  1.00  0.00     0.022 A 
ATOM     18  O   UNL A   1      30.984  24.067  25.445  1.00  0.00    -0.475 OA
ATOM     19  C   UNL A   1      35.950  23.899  25.750  1.00  0.00     0.047 C 
ATOM     20  C   UNL A   1      33.469  25.484  25.473  1.00  0.00     0.027 C 
ATOM     21  C   UNL A   1      30.962  25.514  25.372  1.00  0.00     0.316 C 
BRANCH  21  22
ATOM     22  C   UNL A   1      30.114  25.924  24.159  1.00  0.00     0.430 C 
ATOM     23  F   UNL A   1      30.851  26.612  23.255  1.00  0.00    -0.167 F 
ATOM     24  F   UNL A   1      29.610  24.847  23.513  1.00  0.00    -0.167 F 
ATOM     25  F   UNL A   1      29.072  26.707  24.516  1.00  0.00    -0.167 F 
ENDBRANCH  21  22
ENDBRANCH   7   9
ENDBRANCH   6   7
ENDBRANCH   5   6
ENDBRANCH   4   5
ENDBRANCH   3   4
ENDBRANCH   2   3
ENDBRANCH   1   2
BRANCH   1  26
ATOM     26  O   UNL A   1      35.150  34.238  29.222  1.00  0.00    -0.376 OA
BRANCH  26  27
ATOM     27  C   UNL A   1      34.215  34.244  30.289  1.00  0.00     0.202 C 
BRANCH  27  28
ATOM     28  C   UNL A   1      34.467  33.681  31.702  1.00  0.00     0.261 C 
BRANCH  28  29
ATOM     29  O   UNL A   1      34.888  32.318  31.814  1.00  0.00    -0.460 OA
BRANCH  29  30
ATOM     30  C   UNL A   1      35.950  32.102  32.632  1.00  0.00     0.338 C 
ATOM     31  O   UNL A   1      36.020  32.309  33.828  1.00  0.00    -0.246 OA
BRANCH  30  32
ATOM     32  C   UNL A   1      36.987  31.368  31.880  1.00  0.00     0.060 A 
ATOM     33  C   UNL A   1      38.006  30.725  32.597  1.00  0.00     0.016 A 
ATOM     34  C   UNL A   1      36.970  31.337  30.486  1.00  0.00     0.016 A 
ATOM     35  C   UNL A   1      39.017  30.047  31.918  1.00  0.00     0.010 A 
ATOM     36  C   UNL A   1      38.003  30.684  29.806  1.00  0.00     0.010 A 
ATOM     37  C   UNL A   1      39.041  30.054  30.517  1.00  0.00    -0.014 A 
BRANCH  37  38
ATOM     38  C   UNL A   1      40.252  29.578  29.807  1.00  0.00     0.031 A 
ATOM     39  C   UNL A   1      41.388  30.544  29.612  1.00  0.00     0.074 A 
ATOM     40  C   UNL A   1      40.365  28.307  29.383  1.00  0.00     0.049 A 
ATOM     41  N   UNL A   1      42.525  30.374  28.989  1.00  0.00    -0.248 NA
ATOM     42  C   UNL A   1      41.220  31.880  30.207  1.00  0.00     0.031 C 
ATOM     43  C   UNL A   1      39.364  27.260  29.572  1.00  0.00     0.029 A 
ATOM     44  N   UNL A   1      41.381  27.684  28.700  1.00  0.00    -0.354 N 
ATOM     45  C   UNL A   1      43.209  31.575  29.124  1.00  0.00     0.074 A 
ATOM     46  C   UNL A   1      42.348  32.478  29.856  1.00  0.00     0.031 C 
ATOM     47  C   UNL A   1      39.814  26.123  29.013  1.00  0.00     0.029 A 
ATOM     48  C   UNL A   1      41.118  26.371  28.395  1.00  0.00     0.049 A 
ATOM     49  H   UNL A   1      42.220  28.136  28.453  1.00  0.00     0.167 HD
ATOM     50  C   UNL A   1      44.450  31.892  28.690  1.00  0.00     0.037 A 
ATOM     51  C   UNL A   1      41.838  25.483  27.680  1.00  0.00     0.037 A 
ATOM     52  C   UNL A   1      45.304  30.998  27.955  1.00  0.00     0.049 A 
ATOM     53  C   UNL A   1      43.169  25.902  27.101  1.00  0.00     0.074 A 
ATOM     54  C   UNL A   1      46.574  31.236  27.458  1.00  0.00     0.029 A 
ATOM     55  N   UNL A   1      44.974  29.697  27.607  1.00  0.00    -0.354 N 
ATOM     56  N   UNL A   1      43.810  27.037  27.233  1.00  0.00    -0.248 NA
ATOM     57  C   UNL A   1      43.875  24.914  26.271  1.00  0.00     0.031 C 
ATOM     58  C   UNL A   1      46.990  30.097  26.765  1.00  0.00     0.029 A 
ATOM     59  C   UNL A   1      46.006  29.129  26.880  1.00  0.00     0.049 A 
ATOM     60  H   UNL A   1      44.131  29.245  27.842  1.00  0.00     0.167 HD
ATOM     61  C   UNL A   1      45.003  26.889  26.534  1.00  0.00     0.074 A 
ATOM     62  C   UNL A   1      45.004  25.549  25.988  1.00  0.00     0.031 C 
ATOM     63  C   UNL A   1      46.004  27.786  26.356  1.00  0.00     0.037 A 
BRANCH  50  64
ATOM     64  C   UNL A   1      44.966  33.267  28.988  1.00  0.00     0.064 A 
ATOM     65  C   UNL A   1      44.668  34.356  28.155  1.00  0.00     0.173 A 
ATOM     66  C   UNL A   1      45.699  33.515  30.158  1.00  0.00     0.173 A 
ATOM     67  F   UNL A   1      43.985  34.169  27.017  1.00  0.00    -0.203 F 
ATOM     68  C   UNL A   1      45.090  35.642  28.481  1.00  0.00     0.198 A 
ATOM     69  C   UNL A   1      46.096  34.806  30.495  1.00  0.00     0.198 A 
ATOM     70  F   UNL A   1      46.008  32.507  30.988  1.00  0.00    -0.203 F 
ATOM     71  F   UNL A   1      44.820  36.664  27.658  1.00  0.00    -0.200 F 
ATOM     72  C   UNL A   1      45.792  35.867  29.656  1.00  0.00     0.200 A 
ATOM     73  F   UNL A   1      46.760  35.023  31.638  1.00  0.00    -0.200 F 
ATOM     74  F   UNL A   1      46.179  37.109  29.979  1.00  0.00    -0.200 F 
ENDBRANCH  50  64
BRANCH  51  75
ATOM     75  C   UNL A   1      41.321  24.105  27.457  1.00  0.00     0.064 A 
ATOM     76  C   UNL A   1      41.933  22.999  28.064  1.00  0.00     0.173 A 
ATOM     77  C   UNL A   1      40.228  23.861  26.613  1.00  0.00     0.173 A 
ATOM     78  F   UNL A   1      43.001  23.175  28.855  1.00  0.00    -0.203 F 
ATOM     79  C   UNL A   1      41.480  21.702  27.823  1.00  0.00     0.198 A 
ATOM     80  C   UNL A   1      39.757  22.567  26.397  1.00  0.00     0.198 A 
ATOM     81  F   UNL A   1      39.611  24.882  25.998  1.00  0.00    -0.203 F 
ATOM     82  F   UNL A   1      42.115  20.661  28.376  1.00  0.00    -0.200 F 
ATOM     83  C   UNL A   1      40.388  21.488  26.996  1.00  0.00     0.200 A 
ATOM     84  F   UNL A   1      38.695  22.366  25.604  1.00  0.00    -0.200 F 
ATOM     85  F   UNL A   1      39.952  20.242  26.767  1.00  0.00    -0.200 F 
ENDBRANCH  51  75
BRANCH  63  86
ATOM     86  C   UNL A   1      47.209  27.353  25.570  1.00  0.00     0.064 A 
ATOM     87  C   UNL A   1      47.330  27.627  24.200  1.00  0.00     0.173 A 
ATOM     88  C   UNL A   1      48.296  26.740  26.214  1.00  0.00     0.173 A 
ATOM     89  F   UNL A   1      46.318  28.203  23.535  1.00  0.00    -0.203 F 
ATOM     90  C   UNL A   1      48.488  27.292  23.502  1.00  0.00     0.198 A 
ATOM     91  C   UNL A   1      49.464  26.437  25.520  1.00  0.00     0.198 A 
ATOM     92  F   UNL A   1      48.239  26.466  27.526  1.00  0.00    -0.203 F 
ATOM     93  F   UNL A   1      48.567  27.534  22.186  1.00  0.00    -0.200 F 
ATOM     94  C   UNL A   1      49.557  26.709  24.164  1.00  0.00     0.200 A 
ATOM     95  F   UNL A   1      50.504  25.893  26.167  1.00  0.00    -0.200 F 
ATOM     96  F   UNL A   1      50.680  26.409  23.495  1.00  0.00    -0.200 F 
ENDBRANCH  63  86
ENDBRANCH  37  38
ENDBRANCH  30  32
ENDBRANCH  29  30
ENDBRANCH  28  29
ENDBRANCH  27  28
ENDBRANCH  26  27
ENDBRANCH   1  26
TORSDOF 18
ENDMDL
