MODEL 1
REMARK VINA RESULT:     -10.6      0.000      0.000
REMARK SMILES CC(C)[C@@H](CNC(=O)Cc1ccc(F)cc1F)C(=O)OCCOCCOCCOC(=O)c1ccc(-c2c3nc(c(-c4c(F)c(F)c(F)c(F)c4F)c4ccc([nH]4)c(-c4c(F)c(F)c(F)c(F)c4F)c4nc(c(-c5c(F)c(F)c(F)c(F)c5F)c5ccc2[nH]5)C=C4)C=C3)cc1
REMARK SMILES IDX 24 1 23 2 22 3 21 4 20 5 18 6 19 7 4 8 2 9 1 10 3 11 5 12
REMARK SMILES IDX 6 13 7 14 8 16 9 17 10 18 11 19 16 20 12 21 15 22 17 23
REMARK SMILES IDX 13 24 14 25 25 26 26 27 27 28 28 29 29 30 30 31 31 32 32 33
REMARK SMILES IDX 33 34 94 35 34 36 93 37 35 38 36 39 37 40 87 41 38 42 92 43
REMARK SMILES IDX 86 44 88 45 39 46 91 47 85 48 84 49 40 51 72 52 52 53 71 54
REMARK SMILES IDX 53 55 56 56 70 57 89 58 54 59 55 60 69 62 90 63 57 64 41 65
REMARK SMILES IDX 42 66 50 67 43 68 44 69 48 70 51 71 45 72 46 73 49 74 47 75
REMARK SMILES IDX 73 76 74 77 82 78 75 79 76 80 80 81 83 82 77 83 78 84 81 85
REMARK SMILES IDX 79 86 58 87 59 88 67 89 60 90 61 91 65 92 68 93 62 94 63 95
REMARK SMILES IDX 66 96 64 97
REMARK H PARENT 6 15 88 50 56 61
REMARK Flexibility Score: inf
ROOT
ATOM      1  C   UNL A   1      33.157  29.320  25.113  1.00  0.00     0.188 C 
ENDROOT
BRANCH   1   2
ATOM      2  O   UNL A   1      32.691  28.255  24.300  1.00  0.00    -0.376 OA
BRANCH   2   3
ATOM      3  C   UNL A   1      31.964  28.700  23.163  1.00  0.00     0.202 C 
BRANCH   3   4
ATOM      4  C   UNL A   1      30.766  27.850  22.692  1.00  0.00     0.261 C 
BRANCH   4   5
ATOM      5  O   UNL A   1      30.665  26.413  22.890  1.00  0.00    -0.463 OA
BRANCH   5   6
ATOM      6  C   UNL A   1      30.252  25.888  24.061  1.00  0.00     0.311 C 
ATOM      7  O   UNL A   1      29.381  26.382  24.767  1.00  0.00    -0.252 OA
BRANCH   6   8
ATOM      8  C   UNL A   1      31.023  24.639  24.502  1.00  0.00     0.121 C 
BRANCH   8   9
ATOM      9  C   UNL A   1      30.849  24.098  25.956  1.00  0.00    -0.001 C 
ATOM     10  C   UNL A   1      30.668  22.567  25.973  1.00  0.00     0.008 C 
ATOM     11  C   UNL A   1      32.051  24.377  26.864  1.00  0.00     0.008 C 
ENDBRANCH   8   9
BRANCH   8  12
ATOM     12  C   UNL A   1      30.761  23.573  23.417  1.00  0.00     0.131 C 
BRANCH  12  13
ATOM     13  N   UNL A   1      31.775  23.566  22.379  1.00  0.00    -0.355 N 
ATOM     14  C   UNL A   1      33.040  23.046  22.419  1.00  0.00     0.224 C 
ATOM     15  H   UNL A   1      31.518  23.995  21.531  1.00  0.00     0.163 HD
ATOM     16  O   UNL A   1      33.822  23.372  21.524  1.00  0.00    -0.275 OA
BRANCH  14  17
ATOM     17  C   UNL A   1      33.429  22.049  23.502  1.00  0.00     0.138 C 
BRANCH  17  18
ATOM     18  C   UNL A   1      34.606  22.440  24.363  1.00  0.00    -0.003 A 
ATOM     19  C   UNL A   1      34.859  23.788  24.672  1.00  0.00     0.010 A 
ATOM     20  C   UNL A   1      35.478  21.472  24.875  1.00  0.00     0.129 A 
ATOM     21  C   UNL A   1      35.999  24.149  25.398  1.00  0.00     0.040 A 
ATOM     22  C   UNL A   1      36.598  21.820  25.624  1.00  0.00     0.078 A 
ATOM     23  F   UNL A   1      35.257  20.175  24.625  1.00  0.00    -0.207 F 
ATOM     24  C   UNL A   1      36.865  23.162  25.852  1.00  0.00     0.126 A 
ATOM     25  F   UNL A   1      37.986  23.514  26.497  1.00  0.00    -0.207 F 
ENDBRANCH  17  18
ENDBRANCH  14  17
ENDBRANCH  12  13
ENDBRANCH   8  12
ENDBRANCH   6   8
ENDBRANCH   5   6
ENDBRANCH   4   5
ENDBRANCH   3   4
ENDBRANCH   2   3
ENDBRANCH   1   2
BRANCH   1  26
ATOM     26  C   UNL A   1      32.727  29.143  26.548  1.00  0.00     0.188 C 
BRANCH  26  27
ATOM     27  O   UNL A   1      32.162  30.248  27.216  1.00  0.00    -0.376 OA
BRANCH  27  28
ATOM     28  C   UNL A   1      31.502  31.287  26.522  1.00  0.00     0.202 C 
BRANCH  28  29
ATOM     29  C   UNL A   1      31.739  32.771  26.851  1.00  0.00     0.261 C 
BRANCH  29  30
ATOM     30  O   UNL A   1      33.095  33.233  26.934  1.00  0.00    -0.460 OA
BRANCH  30  31
ATOM     31  C   UNL A   1      33.487  33.840  28.081  1.00  0.00     0.338 C 
ATOM     32  O   UNL A   1      32.869  34.658  28.728  1.00  0.00    -0.246 OA
BRANCH  31  33
ATOM     33  C   UNL A   1      34.707  33.119  28.552  1.00  0.00     0.060 A 
ATOM     34  C   UNL A   1      34.578  31.771  28.922  1.00  0.00     0.016 A 
ATOM     35  C   UNL A   1      35.972  33.712  28.510  1.00  0.00     0.016 A 
ATOM     36  C   UNL A   1      35.704  31.023  29.273  1.00  0.00     0.010 A 
ATOM     37  C   UNL A   1      37.096  32.973  28.900  1.00  0.00     0.010 A 
ATOM     38  C   UNL A   1      36.964  31.634  29.312  1.00  0.00    -0.014 A 
BRANCH  38  39
ATOM     39  C   UNL A   1      38.086  30.948  30.003  1.00  0.00     0.031 A 
ATOM     40  C   UNL A   1      38.324  31.281  31.452  1.00  0.00     0.074 A 
ATOM     41  C   UNL A   1      38.846  30.018  29.396  1.00  0.00     0.049 A 
ATOM     42  N   UNL A   1      39.256  30.854  32.264  1.00  0.00    -0.248 NA
ATOM     43  C   UNL A   1      37.374  32.224  32.067  1.00  0.00     0.031 C 
ATOM     44  C   UNL A   1      38.680  29.555  28.021  1.00  0.00     0.029 A 
ATOM     45  N   UNL A   1      39.915  29.294  29.869  1.00  0.00    -0.354 N 
ATOM     46  C   UNL A   1      39.009  31.481  33.479  1.00  0.00     0.074 A 
ATOM     47  C   UNL A   1      37.860  32.337  33.294  1.00  0.00     0.031 C 
ATOM     48  C   UNL A   1      39.618  28.627  27.759  1.00  0.00     0.029 A 
ATOM     49  C   UNL A   1      40.472  28.456  28.934  1.00  0.00     0.049 A 
ATOM     50  H   UNL A   1      40.250  29.369  30.791  1.00  0.00     0.167 HD
ATOM     51  C   UNL A   1      39.671  31.343  34.649  1.00  0.00     0.037 A 
ATOM     52  C   UNL A   1      41.559  27.658  29.014  1.00  0.00     0.037 A 
ATOM     53  C   UNL A   1      40.809  30.484  34.839  1.00  0.00     0.049 A 
ATOM     54  C   UNL A   1      42.339  27.589  30.305  1.00  0.00     0.074 A 
ATOM     55  C   UNL A   1      41.547  30.279  35.990  1.00  0.00     0.029 A 
ATOM     56  N   UNL A   1      41.373  29.689  33.851  1.00  0.00    -0.354 N 
ATOM     57  N   UNL A   1      42.099  28.183  31.448  1.00  0.00    -0.248 NA
ATOM     58  C   UNL A   1      43.538  26.737  30.317  1.00  0.00     0.031 C 
ATOM     59  C   UNL A   1      42.592  29.403  35.686  1.00  0.00     0.029 A 
ATOM     60  C   UNL A   1      42.465  29.011  34.363  1.00  0.00     0.049 A 
ATOM     61  H   UNL A   1      41.045  29.620  32.927  1.00  0.00     0.167 HD
ATOM     62  C   UNL A   1      43.094  27.757  32.320  1.00  0.00     0.074 A 
ATOM     63  C   UNL A   1      43.938  26.846  31.577  1.00  0.00     0.031 C 
ATOM     64  C   UNL A   1      43.287  28.089  33.620  1.00  0.00     0.037 A 
BRANCH  51  65
ATOM     65  C   UNL A   1      39.202  32.153  35.820  1.00  0.00     0.064 A 
ATOM     66  C   UNL A   1      39.706  33.446  36.035  1.00  0.00     0.173 A 
ATOM     67  C   UNL A   1      38.309  31.630  36.767  1.00  0.00     0.173 A 
ATOM     68  F   UNL A   1      40.564  33.991  35.159  1.00  0.00    -0.203 F 
ATOM     69  C   UNL A   1      39.351  34.175  37.165  1.00  0.00     0.198 A 
ATOM     70  C   UNL A   1      37.932  32.375  37.882  1.00  0.00     0.198 A 
ATOM     71  F   UNL A   1      37.785  30.407  36.598  1.00  0.00    -0.203 F 
ATOM     72  F   UNL A   1      39.876  35.390  37.369  1.00  0.00    -0.200 F 
ATOM     73  C   UNL A   1      38.462  33.641  38.086  1.00  0.00     0.200 A 
ATOM     74  F   UNL A   1      37.053  31.868  38.757  1.00  0.00    -0.200 F 
ATOM     75  F   UNL A   1      38.115  34.346  39.171  1.00  0.00    -0.200 F 
ENDBRANCH  51  65
BRANCH  52  76
ATOM     76  C   UNL A   1      41.980  26.860  27.831  1.00  0.00     0.064 A 
ATOM     77  C   UNL A   1      42.940  27.342  26.929  1.00  0.00     0.173 A 
ATOM     78  C   UNL A   1      41.427  25.596  27.575  1.00  0.00     0.173 A 
ATOM     79  F   UNL A   1      43.508  28.540  27.131  1.00  0.00    -0.203 F 
ATOM     80  C   UNL A   1      43.312  26.605  25.806  1.00  0.00     0.198 A 
ATOM     81  C   UNL A   1      41.822  24.847  26.467  1.00  0.00     0.198 A 
ATOM     82  F   UNL A   1      40.527  25.075  28.422  1.00  0.00    -0.203 F 
ATOM     83  F   UNL A   1      44.208  27.107  24.944  1.00  0.00    -0.200 F 
ATOM     84  C   UNL A   1      42.756  25.356  25.579  1.00  0.00     0.200 A 
ATOM     85  F   UNL A   1      41.303  23.628  26.267  1.00  0.00    -0.200 F 
ATOM     86  F   UNL A   1      43.123  24.643  24.506  1.00  0.00    -0.200 F 
ENDBRANCH  52  76
BRANCH  64  87
ATOM     87  C   UNL A   1      44.427  27.445  34.358  1.00  0.00     0.064 A 
ATOM     88  C   UNL A   1      44.231  26.234  35.041  1.00  0.00     0.173 A 
ATOM     89  C   UNL A   1      45.673  28.074  34.482  1.00  0.00     0.173 A 
ATOM     90  F   UNL A   1      43.052  25.598  34.964  1.00  0.00    -0.203 F 
ATOM     91  C   UNL A   1      45.233  25.689  35.839  1.00  0.00     0.198 A 
ATOM     92  C   UNL A   1      46.684  27.510  35.258  1.00  0.00     0.198 A 
ATOM     93  F   UNL A   1      45.914  29.228  33.843  1.00  0.00    -0.203 F 
ATOM     94  F   UNL A   1      45.005  24.557  36.519  1.00  0.00    -0.200 F 
ATOM     95  C   UNL A   1      46.459  26.327  35.945  1.00  0.00     0.200 A 
ATOM     96  F   UNL A   1      47.877  28.116  35.343  1.00  0.00    -0.200 F 
ATOM     97  F   UNL A   1      47.424  25.801  36.712  1.00  0.00    -0.200 F 
ENDBRANCH  64  87
ENDBRANCH  38  39
ENDBRANCH  31  33
ENDBRANCH  30  31
ENDBRANCH  29  30
ENDBRANCH  28  29
ENDBRANCH  27  28
ENDBRANCH  26  27
ENDBRANCH   1  26
TORSDOF 22
ENDMDL
MODEL 2
REMARK VINA RESULT:     -10.4      1.669      7.707
REMARK SMILES CC(C)[C@@H](CNC(=O)Cc1ccc(F)cc1F)C(=O)OCCOCCOCCOC(=O)c1ccc(-c2c3nc(c(-c4c(F)c(F)c(F)c(F)c4F)c4ccc([nH]4)c(-c4c(F)c(F)c(F)c(F)c4F)c4nc(c(-c5c(F)c(F)c(F)c(F)c5F)c5ccc2[nH]5)C=C4)C=C3)cc1
REMARK SMILES IDX 24 1 23 2 22 3 21 4 20 5 18 6 19 7 4 8 2 9 1 10 3 11 5 12
REMARK SMILES IDX 6 13 7 14 8 16 9 17 10 18 11 19 16 20 12 21 15 22 17 23
REMARK SMILES IDX 13 24 14 25 25 26 26 27 27 28 28 29 29 30 30 31 31 32 32 33
REMARK SMILES IDX 33 34 94 35 34 36 93 37 35 38 36 39 37 40 87 41 38 42 92 43
REMARK SMILES IDX 86 44 88 45 39 46 91 47 85 48 84 49 40 51 72 52 52 53 71 54
REMARK SMILES IDX 53 55 56 56 70 57 89 58 54 59 55 60 69 62 90 63 57 64 41 65
REMARK SMILES IDX 42 66 50 67 43 68 44 69 48 70 51 71 45 72 46 73 49 74 47 75
REMARK SMILES IDX 73 76 74 77 82 78 75 79 76 80 80 81 83 82 77 83 78 84 81 85
REMARK SMILES IDX 79 86 58 87 59 88 67 89 60 90 61 91 65 92 68 93 62 94 63 95
REMARK SMILES IDX 66 96 64 97
REMARK H PARENT 6 15 88 50 56 61
REMARK Flexibility Score: inf
ROOT
ATOM      1  C   UNL A   1      33.247  27.325  24.355  1.00  0.00     0.188 C 
ENDROOT
BRANCH   1   2
ATOM      2  O   UNL A   1      33.060  26.828  25.670  1.00  0.00    -0.376 OA
BRANCH   2   3
ATOM      3  C   UNL A   1      33.787  25.634  25.922  1.00  0.00     0.202 C 
BRANCH   3   4
ATOM      4  C   UNL A   1      34.558  24.993  24.748  1.00  0.00     0.261 C 
BRANCH   4   5
ATOM      5  O   UNL A   1      35.553  23.946  24.908  1.00  0.00    -0.463 OA
BRANCH   5   6
ATOM      6  C   UNL A   1      35.737  22.996  23.969  1.00  0.00     0.311 C 
ATOM      7  O   UNL A   1      35.639  23.192  22.763  1.00  0.00    -0.252 OA
BRANCH   6   8
ATOM      8  C   UNL A   1      36.004  21.595  24.530  1.00  0.00     0.121 C 
BRANCH   8   9
ATOM      9  C   UNL A   1      37.473  21.077  24.645  1.00  0.00    -0.001 C 
ATOM     10  C   UNL A   1      38.250  21.819  25.750  1.00  0.00     0.008 C 
ATOM     11  C   UNL A   1      37.575  19.591  25.001  1.00  0.00     0.008 C 
ENDBRANCH   8   9
BRANCH   8  12
ATOM     12  C   UNL A   1      35.221  21.512  25.857  1.00  0.00     0.131 C 
BRANCH  12  13
ATOM     13  N   UNL A   1      34.405  20.315  25.955  1.00  0.00    -0.355 N 
ATOM     14  C   UNL A   1      33.267  19.995  25.268  1.00  0.00     0.224 C 
ATOM     15  H   UNL A   1      34.713  19.643  26.605  1.00  0.00     0.163 HD
ATOM     16  O   UNL A   1      32.593  19.052  25.684  1.00  0.00    -0.275 OA
BRANCH  14  17
ATOM     17  C   UNL A   1      32.896  20.749  23.998  1.00  0.00     0.138 C 
BRANCH  17  18
ATOM     18  C   UNL A   1      32.146  22.044  24.197  1.00  0.00    -0.003 A 
ATOM     19  C   UNL A   1      31.572  22.362  25.440  1.00  0.00     0.010 A 
ATOM     20  C   UNL A   1      32.002  22.962  23.150  1.00  0.00     0.129 A 
ATOM     21  C   UNL A   1      30.806  23.523  25.593  1.00  0.00     0.040 A 
ATOM     22  C   UNL A   1      31.267  24.134  23.302  1.00  0.00     0.078 A 
ATOM     23  F   UNL A   1      32.557  22.709  21.958  1.00  0.00    -0.207 F 
ATOM     24  C   UNL A   1      30.648  24.388  24.517  1.00  0.00     0.126 A 
ATOM     25  F   UNL A   1      29.868  25.470  24.649  1.00  0.00    -0.207 F 
ENDBRANCH  17  18
ENDBRANCH  14  17
ENDBRANCH  12  13
ENDBRANCH   8  12
ENDBRANCH   6   8
ENDBRANCH   5   6
ENDBRANCH   4   5
ENDBRANCH   3   4
ENDBRANCH   2   3
ENDBRANCH   1   2
BRANCH   1  26
ATOM     26  C   UNL A   1      31.945  27.798  23.758  1.00  0.00     0.188 C 
BRANCH  26  27
ATOM     27  O   UNL A   1      31.733  29.186  23.635  1.00  0.00    -0.376 OA
BRANCH  27  28
ATOM     28  C   UNL A   1      31.050  29.931  24.622  1.00  0.00     0.202 C 
BRANCH  28  29
ATOM     29  C   UNL A   1      31.582  30.069  26.059  1.00  0.00     0.261 C 
BRANCH  29  30
ATOM     30  O   UNL A   1      32.967  30.403  26.233  1.00  0.00    -0.460 OA
BRANCH  30  31
ATOM     31  C   UNL A   1      33.267  31.475  27.007  1.00  0.00     0.338 C 
ATOM     32  O   UNL A   1      32.555  32.426  27.252  1.00  0.00    -0.246 OA
BRANCH  31  33
ATOM     33  C   UNL A   1      34.534  31.146  27.724  1.00  0.00     0.060 A 
ATOM     34  C   UNL A   1      34.806  29.796  28.002  1.00  0.00     0.016 A 
ATOM     35  C   UNL A   1      35.494  32.122  28.004  1.00  0.00     0.016 A 
ATOM     36  C   UNL A   1      36.022  29.425  28.579  1.00  0.00     0.010 A 
ATOM     37  C   UNL A   1      36.697  31.753  28.619  1.00  0.00     0.010 A 
ATOM     38  C   UNL A   1      36.955  30.406  28.937  1.00  0.00    -0.014 A 
BRANCH  38  39
ATOM     39  C   UNL A   1      38.075  30.052  29.846  1.00  0.00     0.031 A 
ATOM     40  C   UNL A   1      39.126  29.107  29.326  1.00  0.00     0.074 A 
ATOM     41  C   UNL A   1      38.201  30.583  31.075  1.00  0.00     0.049 A 
ATOM     42  N   UNL A   1      40.175  28.612  29.929  1.00  0.00    -0.248 NA
ATOM     43  C   UNL A   1      38.969  28.663  27.930  1.00  0.00     0.031 C 
ATOM     44  C   UNL A   1      37.294  31.558  31.674  1.00  0.00     0.029 A 
ATOM     45  N   UNL A   1      39.155  30.372  32.043  1.00  0.00    -0.354 N 
ATOM     46  C   UNL A   1      40.796  27.797  28.991  1.00  0.00     0.074 A 
ATOM     47  C   UNL A   1      39.995  27.839  27.790  1.00  0.00     0.031 C 
ATOM     48  C   UNL A   1      37.732  31.858  32.910  1.00  0.00     0.029 A 
ATOM     49  C   UNL A   1      38.929  31.071  33.204  1.00  0.00     0.049 A 
ATOM     50  H   UNL A   1      39.927  29.775  31.917  1.00  0.00     0.167 HD
ATOM     51  C   UNL A   1      41.940  27.088  29.116  1.00  0.00     0.037 A 
ATOM     52  C   UNL A   1      39.601  31.059  34.375  1.00  0.00     0.037 A 
ATOM     53  C   UNL A   1      42.745  27.052  30.307  1.00  0.00     0.049 A 
ATOM     54  C   UNL A   1      40.827  30.189  34.522  1.00  0.00     0.074 A 
ATOM     55  C   UNL A   1      43.923  26.362  30.528  1.00  0.00     0.029 A 
ATOM     56  N   UNL A   1      42.453  27.736  31.479  1.00  0.00    -0.354 N 
ATOM     57  N   UNL A   1      41.408  29.423  33.632  1.00  0.00    -0.248 NA
ATOM     58  C   UNL A   1      41.491  30.185  35.835  1.00  0.00     0.031 C 
ATOM     59  C   UNL A   1      44.314  26.581  31.851  1.00  0.00     0.029 A 
ATOM     60  C   UNL A   1      43.418  27.462  32.433  1.00  0.00     0.049 A 
ATOM     61  H   UNL A   1      41.677  28.326  31.610  1.00  0.00     0.167 HD
ATOM     62  C   UNL A   1      42.516  28.870  34.263  1.00  0.00     0.074 A 
ATOM     63  C   UNL A   1      42.534  29.396  35.612  1.00  0.00     0.031 C 
ATOM     64  C   UNL A   1      43.437  28.008  33.767  1.00  0.00     0.037 A 
BRANCH  51  65
ATOM     65  C   UNL A   1      42.390  26.271  27.942  1.00  0.00     0.064 A 
ATOM     66  C   UNL A   1      43.320  26.793  27.029  1.00  0.00     0.173 A 
ATOM     67  C   UNL A   1      41.854  25.001  27.680  1.00  0.00     0.173 A 
ATOM     68  F   UNL A   1      43.861  28.004  27.235  1.00  0.00    -0.203 F 
ATOM     69  C   UNL A   1      43.678  26.085  25.887  1.00  0.00     0.198 A 
ATOM     70  C   UNL A   1      42.239  24.283  26.551  1.00  0.00     0.198 A 
ATOM     71  F   UNL A   1      40.976  24.450  28.531  1.00  0.00    -0.203 F 
ATOM     72  F   UNL A   1      44.537  26.622  25.010  1.00  0.00    -0.200 F 
ATOM     73  C   UNL A   1      43.140  24.829  25.650  1.00  0.00     0.200 A 
ATOM     74  F   UNL A   1      41.738  23.058  26.337  1.00  0.00    -0.200 F 
ATOM     75  F   UNL A   1      43.491  24.145  24.553  1.00  0.00    -0.200 F 
ENDBRANCH  51  65
BRANCH  52  76
ATOM     76  C   UNL A   1      39.128  31.898  35.509  1.00  0.00     0.064 A 
ATOM     77  C   UNL A   1      38.306  31.369  36.516  1.00  0.00     0.173 A 
ATOM     78  C   UNL A   1      39.485  33.251  35.609  1.00  0.00     0.173 A 
ATOM     79  F   UNL A   1      37.942  30.079  36.475  1.00  0.00    -0.203 F 
ATOM     80  C   UNL A   1      37.840  32.163  37.562  1.00  0.00     0.198 A 
ATOM     81  C   UNL A   1      39.043  34.038  36.672  1.00  0.00     0.198 A 
ATOM     82  F   UNL A   1      40.293  33.799  34.689  1.00  0.00    -0.203 F 
ATOM     83  F   UNL A   1      37.029  31.637  38.490  1.00  0.00    -0.200 F 
ATOM     84  C   UNL A   1      38.213  33.496  37.641  1.00  0.00     0.200 A 
ATOM     85  F   UNL A   1      39.429  35.318  36.760  1.00  0.00    -0.200 F 
ATOM     86  F   UNL A   1      37.775  34.257  38.653  1.00  0.00    -0.200 F 
ENDBRANCH  52  76
BRANCH  64  87
ATOM     87  C   UNL A   1      44.576  27.595  34.656  1.00  0.00     0.064 A 
ATOM     88  C   UNL A   1      44.445  26.480  35.499  1.00  0.00     0.173 A 
ATOM     89  C   UNL A   1      45.747  28.358  34.756  1.00  0.00     0.173 A 
ATOM     90  F   UNL A   1      43.338  25.723  35.452  1.00  0.00    -0.203 F 
ATOM     91  C   UNL A   1      45.433  26.159  36.425  1.00  0.00     0.198 A 
ATOM     92  C   UNL A   1      46.748  28.016  35.662  1.00  0.00     0.198 A 
ATOM     93  F   UNL A   1      45.925  29.427  33.966  1.00  0.00    -0.203 F 
ATOM     94  F   UNL A   1      45.264  25.118  37.252  1.00  0.00    -0.200 F 
ATOM     95  C   UNL A   1      46.585  26.926  36.504  1.00  0.00     0.200 A 
ATOM     96  F   UNL A   1      47.871  28.746  35.723  1.00  0.00    -0.200 F 
ATOM     97  F   UNL A   1      47.538  26.615  37.394  1.00  0.00    -0.200 F 
ENDBRANCH  64  87
ENDBRANCH  38  39
ENDBRANCH  31  33
ENDBRANCH  30  31
ENDBRANCH  29  30
ENDBRANCH  28  29
ENDBRANCH  27  28
ENDBRANCH  26  27
ENDBRANCH   1  26
TORSDOF 22
ENDMDL
MODEL 3
REMARK VINA RESULT:     -10.3      0.633      2.031
REMARK SMILES CC(C)[C@@H](CNC(=O)Cc1ccc(F)cc1F)C(=O)OCCOCCOCCOC(=O)c1ccc(-c2c3nc(c(-c4c(F)c(F)c(F)c(F)c4F)c4ccc([nH]4)c(-c4c(F)c(F)c(F)c(F)c4F)c4nc(c(-c5c(F)c(F)c(F)c(F)c5F)c5ccc2[nH]5)C=C4)C=C3)cc1
REMARK SMILES IDX 24 1 23 2 22 3 21 4 20 5 18 6 19 7 4 8 2 9 1 10 3 11 5 12
REMARK SMILES IDX 6 13 7 14 8 16 9 17 10 18 11 19 16 20 12 21 15 22 17 23
REMARK SMILES IDX 13 24 14 25 25 26 26 27 27 28 28 29 29 30 30 31 31 32 32 33
REMARK SMILES IDX 33 34 94 35 34 36 93 37 35 38 36 39 37 40 87 41 38 42 92 43
REMARK SMILES IDX 86 44 88 45 39 46 91 47 85 48 84 49 40 51 72 52 52 53 71 54
REMARK SMILES IDX 53 55 56 56 70 57 89 58 54 59 55 60 69 62 90 63 57 64 41 65
REMARK SMILES IDX 42 66 50 67 43 68 44 69 48 70 51 71 45 72 46 73 49 74 47 75
REMARK SMILES IDX 73 76 74 77 82 78 75 79 76 80 80 81 83 82 77 83 78 84 81 85
REMARK SMILES IDX 79 86 58 87 59 88 67 89 60 90 61 91 65 92 68 93 62 94 63 95
REMARK SMILES IDX 66 96 64 97
REMARK H PARENT 6 15 88 50 56 61
REMARK Flexibility Score: inf
ROOT
ATOM      1  C   UNL A   1      32.895  29.013  24.464  1.00  0.00     0.188 C 
ENDROOT
BRANCH   1   2
ATOM      2  O   UNL A   1      32.573  27.813  23.780  1.00  0.00    -0.376 OA
BRANCH   2   3
ATOM      3  C   UNL A   1      31.311  27.866  23.129  1.00  0.00     0.202 C 
BRANCH   3   4
ATOM      4  C   UNL A   1      30.054  27.523  23.956  1.00  0.00     0.261 C 
BRANCH   4   5
ATOM      5  O   UNL A   1      29.778  26.204  24.500  1.00  0.00    -0.463 OA
BRANCH   5   6
ATOM      6  C   UNL A   1      30.558  25.656  25.454  1.00  0.00     0.311 C 
ATOM      7  O   UNL A   1      30.776  26.172  26.545  1.00  0.00    -0.252 OA
BRANCH   6   8
ATOM      8  C   UNL A   1      31.238  24.346  25.041  1.00  0.00     0.121 C 
BRANCH   8   9
ATOM      9  C   UNL A   1      31.250  23.138  26.031  1.00  0.00    -0.001 C 
ATOM     10  C   UNL A   1      32.450  23.210  26.996  1.00  0.00     0.008 C 
ATOM     11  C   UNL A   1      30.009  23.062  26.925  1.00  0.00     0.008 C 
ENDBRANCH   8   9
BRANCH   8  12
ATOM     12  C   UNL A   1      30.670  23.992  23.651  1.00  0.00     0.131 C 
BRANCH  12  13
ATOM     13  N   UNL A   1      31.574  24.337  22.570  1.00  0.00    -0.355 N 
ATOM     14  C   UNL A   1      32.812  23.827  22.292  1.00  0.00     0.224 C 
ATOM     15  H   UNL A   1      31.254  25.034  21.953  1.00  0.00     0.163 HD
ATOM     16  O   UNL A   1      33.515  24.436  21.484  1.00  0.00    -0.275 OA
BRANCH  14  17
ATOM     17  C   UNL A   1      33.264  22.515  22.919  1.00  0.00     0.138 C 
BRANCH  17  18
ATOM     18  C   UNL A   1      34.402  22.615  23.905  1.00  0.00    -0.003 A 
ATOM     19  C   UNL A   1      35.018  23.850  24.175  1.00  0.00     0.010 A 
ATOM     20  C   UNL A   1      34.875  21.482  24.577  1.00  0.00     0.129 A 
ATOM     21  C   UNL A   1      36.127  23.920  25.025  1.00  0.00     0.040 A 
ATOM     22  C   UNL A   1      35.959  21.548  25.448  1.00  0.00     0.078 A 
ATOM     23  F   UNL A   1      34.299  20.291  24.369  1.00  0.00    -0.207 F 
ATOM     24  C   UNL A   1      36.596  22.766  25.639  1.00  0.00     0.126 A 
ATOM     25  F   UNL A   1      37.692  22.826  26.407  1.00  0.00    -0.207 F 
ENDBRANCH  17  18
ENDBRANCH  14  17
ENDBRANCH  12  13
ENDBRANCH   8  12
ENDBRANCH   6   8
ENDBRANCH   5   6
ENDBRANCH   4   5
ENDBRANCH   3   4
ENDBRANCH   2   3
ENDBRANCH   1   2
BRANCH   1  26
ATOM     26  C   UNL A   1      33.168  28.755  25.925  1.00  0.00     0.188 C 
BRANCH  26  27
ATOM     27  O   UNL A   1      32.748  29.719  26.863  1.00  0.00    -0.376 OA
BRANCH  27  28
ATOM     28  C   UNL A   1      31.697  30.623  26.589  1.00  0.00     0.202 C 
BRANCH  28  29
ATOM     29  C   UNL A   1      31.835  32.137  26.830  1.00  0.00     0.261 C 
BRANCH  29  30
ATOM     30  O   UNL A   1      33.154  32.702  26.817  1.00  0.00    -0.460 OA
BRANCH  30  31
ATOM     31  C   UNL A   1      33.562  33.381  27.917  1.00  0.00     0.338 C 
ATOM     32  O   UNL A   1      32.940  34.218  28.537  1.00  0.00    -0.246 OA
BRANCH  31  33
ATOM     33  C   UNL A   1      34.813  32.719  28.391  1.00  0.00     0.060 A 
ATOM     34  C   UNL A   1      34.759  31.352  28.709  1.00  0.00     0.016 A 
ATOM     35  C   UNL A   1      36.039  33.389  28.401  1.00  0.00     0.016 A 
ATOM     36  C   UNL A   1      35.921  30.661  29.059  1.00  0.00     0.010 A 
ATOM     37  C   UNL A   1      37.198  32.705  28.791  1.00  0.00     0.010 A 
ATOM     38  C   UNL A   1      37.140  31.345  29.150  1.00  0.00    -0.014 A 
BRANCH  38  39
ATOM     39  C   UNL A   1      38.287  30.704  29.843  1.00  0.00     0.031 A 
ATOM     40  C   UNL A   1      38.536  31.079  31.279  1.00  0.00     0.074 A 
ATOM     41  C   UNL A   1      39.060  29.777  29.248  1.00  0.00     0.049 A 
ATOM     42  N   UNL A   1      39.488  30.694  32.089  1.00  0.00    -0.248 NA
ATOM     43  C   UNL A   1      37.572  32.014  31.884  1.00  0.00     0.031 C 
ATOM     44  C   UNL A   1      38.888  29.276  27.888  1.00  0.00     0.029 A 
ATOM     45  N   UNL A   1      40.152  29.090  29.724  1.00  0.00    -0.354 N 
ATOM     46  C   UNL A   1      39.242  31.345  33.292  1.00  0.00     0.074 A 
ATOM     47  C   UNL A   1      38.071  32.170  33.101  1.00  0.00     0.031 C 
ATOM     48  C   UNL A   1      39.844  28.363  27.636  1.00  0.00     0.029 A 
ATOM     49  C   UNL A   1      40.717  28.241  28.803  1.00  0.00     0.049 A 
ATOM     50  H   UNL A   1      40.498  29.196  30.640  1.00  0.00     0.167 HD
ATOM     51  C   UNL A   1      39.923  31.252  34.455  1.00  0.00     0.037 A 
ATOM     52  C   UNL A   1      41.823  27.472  28.888  1.00  0.00     0.037 A 
ATOM     53  C   UNL A   1      41.083  30.425  34.651  1.00  0.00     0.049 A 
ATOM     54  C   UNL A   1      42.621  27.453  30.169  1.00  0.00     0.074 A 
ATOM     55  C   UNL A   1      41.841  30.266  35.797  1.00  0.00     0.029 A 
ATOM     56  N   UNL A   1      41.652  29.619  33.676  1.00  0.00    -0.354 N 
ATOM     57  N   UNL A   1      42.382  28.070  31.301  1.00  0.00    -0.248 NA
ATOM     58  C   UNL A   1      43.841  26.630  30.186  1.00  0.00     0.031 C 
ATOM     59  C   UNL A   1      42.902  29.407  35.500  1.00  0.00     0.029 A 
ATOM     60  C   UNL A   1      42.767  28.979  34.189  1.00  0.00     0.049 A 
ATOM     61  H   UNL A   1      41.314  29.518  32.758  1.00  0.00     0.167 HD
ATOM     62  C   UNL A   1      43.399  27.689  32.170  1.00  0.00     0.074 A 
ATOM     63  C   UNL A   1      44.254  26.779  31.438  1.00  0.00     0.031 C 
ATOM     64  C   UNL A   1      43.601  28.058  33.458  1.00  0.00     0.037 A 
BRANCH  51  65
ATOM     65  C   UNL A   1      39.450  32.080  35.612  1.00  0.00     0.064 A 
ATOM     66  C   UNL A   1      38.501  31.567  36.510  1.00  0.00     0.173 A 
ATOM     67  C   UNL A   1      39.881  33.403  35.796  1.00  0.00     0.173 A 
ATOM     68  F   UNL A   1      38.057  30.308  36.377  1.00  0.00    -0.203 F 
ATOM     69  C   UNL A   1      37.984  32.353  37.534  1.00  0.00     0.198 A 
ATOM     70  C   UNL A   1      39.383  34.177  36.841  1.00  0.00     0.198 A 
ATOM     71  F   UNL A   1      40.800  33.934  34.976  1.00  0.00    -0.203 F 
ATOM     72  F   UNL A   1      37.050  31.854  38.354  1.00  0.00    -0.200 F 
ATOM     73  C   UNL A   1      38.428  33.657  37.701  1.00  0.00     0.200 A 
ATOM     74  F   UNL A   1      39.832  35.428  37.018  1.00  0.00    -0.200 F 
ATOM     75  F   UNL A   1      37.934  34.411  38.693  1.00  0.00    -0.200 F 
ENDBRANCH  51  65
BRANCH  52  76
ATOM     76  C   UNL A   1      42.247  26.653  27.719  1.00  0.00     0.064 A 
ATOM     77  C   UNL A   1      41.678  25.396  27.464  1.00  0.00     0.173 A 
ATOM     78  C   UNL A   1      43.233  27.110  26.833  1.00  0.00     0.173 A 
ATOM     79  F   UNL A   1      40.724  24.915  28.274  1.00  0.00    -0.203 F 
ATOM     80  C   UNL A   1      42.096  24.618  26.386  1.00  0.00     0.198 A 
ATOM     81  C   UNL A   1      43.630  26.345  25.737  1.00  0.00     0.198 A 
ATOM     82  F   UNL A   1      43.788  28.318  27.014  1.00  0.00    -0.203 F 
ATOM     83  F   UNL A   1      41.558  23.408  26.188  1.00  0.00    -0.200 F 
ATOM     84  C   UNL A   1      43.069  25.096  25.521  1.00  0.00     0.200 A 
ATOM     85  F   UNL A   1      44.550  26.822  24.888  1.00  0.00    -0.200 F 
ATOM     86  F   UNL A   1      43.462  24.354  24.477  1.00  0.00    -0.200 F 
ENDBRANCH  52  76
BRANCH  64  87
ATOM     87  C   UNL A   1      44.765  27.460  34.196  1.00  0.00     0.064 A 
ATOM     88  C   UNL A   1      46.024  28.081  34.150  1.00  0.00     0.173 A 
ATOM     89  C   UNL A   1      44.666  26.225  34.850  1.00  0.00     0.173 A 
ATOM     90  F   UNL A   1      46.175  29.258  33.526  1.00  0.00    -0.203 F 
ATOM     91  C   UNL A   1      47.144  27.476  34.714  1.00  0.00     0.198 A 
ATOM     92  C   UNL A   1      45.784  25.636  35.439  1.00  0.00     0.198 A 
ATOM     93  F   UNL A   1      43.485  25.595  34.929  1.00  0.00    -0.203 F 
ATOM     94  F   UNL A   1      48.344  28.066  34.616  1.00  0.00    -0.200 F 
ATOM     95  C   UNL A   1      47.023  26.255  35.359  1.00  0.00     0.200 A 
ATOM     96  F   UNL A   1      45.661  24.466  36.082  1.00  0.00    -0.200 F 
ATOM     97  F   UNL A   1      48.100  25.674  35.903  1.00  0.00    -0.200 F 
ENDBRANCH  64  87
ENDBRANCH  38  39
ENDBRANCH  31  33
ENDBRANCH  30  31
ENDBRANCH  29  30
ENDBRANCH  28  29
ENDBRANCH  27  28
ENDBRANCH  26  27
ENDBRANCH   1  26
TORSDOF 22
ENDMDL
