MODEL 1
REMARK VINA RESULT:     -11.8      0.000      0.000
REMARK SMILES CC1(C)S[C@@H](c2cccc3c2sc2ccccc23)[NH2+][C@@H]1C(=O)OCCOCCOCCOC(=O)c1ccc(-c2c3nc(c(-c4c(F)c(F)c(F)c(F)c4F)c4ccc([nH]4)c(-c4c(F)c(F)c(F)c(F)c4F)c4nc(c(-c5c(F)c(F)c(F)c(F)c5F)c5ccc2[nH]5)C=C4)C=C3)cc1
REMARK SMILES IDX 28 1 27 2 26 3 25 4 24 5 23 6 21 7 22 8 20 9 1 10 2 11 3 12
REMARK SMILES IDX 4 13 5 14 19 15 6 18 7 19 11 20 8 21 10 22 12 23 9 24 18 25
REMARK SMILES IDX 13 26 17 27 14 28 16 29 15 30 29 31 30 32 31 33 32 34 33 35
REMARK SMILES IDX 34 36 35 37 36 38 97 39 37 40 96 41 38 42 39 43 40 44 90 45
REMARK SMILES IDX 41 46 95 47 89 48 91 49 42 50 94 51 88 52 87 53 43 55 75 56
REMARK SMILES IDX 55 57 74 58 56 59 59 60 73 61 92 62 57 63 58 64 72 66 93 67
REMARK SMILES IDX 60 68 44 69 45 70 53 71 46 72 47 73 51 74 54 75 48 76 49 77
REMARK SMILES IDX 52 78 50 79 76 80 77 81 85 82 78 83 79 84 83 85 86 86 80 87
REMARK SMILES IDX 81 88 84 89 82 90 61 91 62 92 70 93 63 94 64 95 68 96 71 97
REMARK SMILES IDX 65 98 66 99 69 100 67 101
REMARK H PARENT 19 16 19 17 91 54 59 65
REMARK Flexibility Score: inf
ROOT
ATOM      1  C   UNL A   1      38.528  24.111  26.434  1.00  0.00     0.188 C 
ENDROOT
BRANCH   1   2
ATOM      2  C   UNL A   1      37.077  23.893  25.937  1.00  0.00     0.188 C 
BRANCH   2   3
ATOM      3  O   UNL A   1      36.976  23.704  24.542  1.00  0.00    -0.376 OA
BRANCH   3   4
ATOM      4  C   UNL A   1      36.482  22.464  24.054  1.00  0.00     0.202 C 
BRANCH   4   5
ATOM      5  C   UNL A   1      35.034  22.031  24.336  1.00  0.00     0.261 C 
BRANCH   5   6
ATOM      6  O   UNL A   1      34.105  22.270  23.273  1.00  0.00    -0.459 OA
BRANCH   6   7
ATOM      7  C   UNL A   1      33.285  23.357  23.355  1.00  0.00     0.366 C 
ATOM      8  O   UNL A   1      32.702  23.853  22.405  1.00  0.00    -0.245 OA
BRANCH   7   9
ATOM      9  C   UNL A   1      33.198  23.796  24.847  1.00  0.00     0.310 C 
ATOM     10  C   UNL A   1      32.181  23.547  27.166  1.00  0.00     0.030 C 
ATOM     11  C   UNL A   1      31.933  23.422  25.645  1.00  0.00     0.079 C 
ATOM     12  C   UNL A   1      31.408  22.012  25.375  1.00  0.00     0.030 C 
ATOM     13  S   UNL A   1      30.771  24.746  25.182  1.00  0.00    -0.081 SA
ATOM     14  C   UNL A   1      32.085  25.824  24.508  1.00  0.00     0.276 C 
ATOM     15  N   UNL A   1      33.377  25.263  24.915  1.00  0.00    -0.319 N 
ATOM     16  H   UNL A   1      33.611  25.552  25.865  1.00  0.00     0.348 HD
ATOM     17  H   UNL A   1      34.138  25.584  24.317  1.00  0.00     0.348 HD
BRANCH  14  18
ATOM     18  C   UNL A   1      31.991  27.280  24.896  1.00  0.00     0.038 A 
ATOM     19  C   UNL A   1      32.827  27.832  25.889  1.00  0.00     0.012 A 
ATOM     20  C   UNL A   1      31.104  28.173  24.232  1.00  0.00     0.046 A 
ATOM     21  C   UNL A   1      32.726  29.160  26.272  1.00  0.00     0.001 A 
ATOM     22  C   UNL A   1      30.951  29.505  24.623  1.00  0.00     0.001 A 
ATOM     23  S   UNL A   1      30.103  27.826  22.869  1.00  0.00    -0.135 S 
ATOM     24  C   UNL A   1      31.778  29.987  25.670  1.00  0.00     0.010 A 
ATOM     25  C   UNL A   1      29.905  30.179  23.876  1.00  0.00     0.000 A 
ATOM     26  C   UNL A   1      29.386  29.375  22.863  1.00  0.00     0.036 A 
ATOM     27  C   UNL A   1      29.363  31.482  24.022  1.00  0.00     0.010 A 
ATOM     28  C   UNL A   1      28.388  29.835  21.983  1.00  0.00     0.019 A 
ATOM     29  C   UNL A   1      28.347  31.933  23.174  1.00  0.00     0.001 A 
ATOM     30  C   UNL A   1      27.872  31.119  22.157  1.00  0.00     0.002 A 
ENDBRANCH  14  18
ENDBRANCH   7   9
ENDBRANCH   6   7
ENDBRANCH   5   6
ENDBRANCH   4   5
ENDBRANCH   3   4
ENDBRANCH   2   3
ENDBRANCH   1   2
BRANCH   1  31
ATOM     31  O   UNL A   1      39.460  23.046  26.373  1.00  0.00    -0.376 OA
BRANCH  31  32
ATOM     32  C   UNL A   1      38.986  21.714  26.500  1.00  0.00     0.202 C 
BRANCH  32  33
ATOM     33  C   UNL A   1      39.670  20.579  25.715  1.00  0.00     0.261 C 
BRANCH  33  34
ATOM     34  O   UNL A   1      40.435  19.636  26.493  1.00  0.00    -0.460 OA
BRANCH  34  35
ATOM     35  C   UNL A   1      41.737  19.486  26.134  1.00  0.00     0.338 C 
ATOM     36  O   UNL A   1      42.232  18.565  25.511  1.00  0.00    -0.246 OA
BRANCH  35  37
ATOM     37  C   UNL A   1      42.496  20.718  26.453  1.00  0.00     0.060 A 
ATOM     38  C   UNL A   1      42.495  21.192  27.774  1.00  0.00     0.016 A 
ATOM     39  C   UNL A   1      43.143  21.438  25.450  1.00  0.00     0.016 A 
ATOM     40  C   UNL A   1      43.125  22.398  28.094  1.00  0.00     0.010 A 
ATOM     41  C   UNL A   1      43.749  22.660  25.765  1.00  0.00     0.010 A 
ATOM     42  C   UNL A   1      43.720  23.161  27.081  1.00  0.00    -0.014 A 
BRANCH  42  43
ATOM     43  C   UNL A   1      44.149  24.559  27.349  1.00  0.00     0.031 A 
ATOM     44  C   UNL A   1      43.113  25.555  27.796  1.00  0.00     0.074 A 
ATOM     45  C   UNL A   1      45.426  24.947  27.188  1.00  0.00     0.049 A 
ATOM     46  N   UNL A   1      43.222  26.846  27.982  1.00  0.00    -0.248 NA
ATOM     47  C   UNL A   1      41.770  25.019  28.065  1.00  0.00     0.031 C 
ATOM     48  C   UNL A   1      46.534  24.076  26.806  1.00  0.00     0.029 A 
ATOM     49  N   UNL A   1      45.998  26.191  27.306  1.00  0.00    -0.354 N 
ATOM     50  C   UNL A   1      41.961  27.278  28.374  1.00  0.00     0.074 A 
ATOM     51  C   UNL A   1      41.098  26.117  28.376  1.00  0.00     0.031 C 
ATOM     52  C   UNL A   1      47.651  24.817  26.698  1.00  0.00     0.029 A 
ATOM     53  C   UNL A   1      47.328  26.219  26.962  1.00  0.00     0.049 A 
ATOM     54  H   UNL A   1      45.502  26.987  27.608  1.00  0.00     0.167 HD
ATOM     55  C   UNL A   1      41.561  28.529  28.705  1.00  0.00     0.037 A 
ATOM     56  C   UNL A   1      48.175  27.261  26.843  1.00  0.00     0.037 A 
ATOM     57  C   UNL A   1      42.418  29.685  28.698  1.00  0.00     0.049 A 
ATOM     58  C   UNL A   1      47.683  28.659  27.133  1.00  0.00     0.074 A 
ATOM     59  C   UNL A   1      42.108  30.990  29.037  1.00  0.00     0.029 A 
ATOM     60  N   UNL A   1      43.753  29.676  28.320  1.00  0.00    -0.354 N 
ATOM     61  N   UNL A   1      46.497  29.058  27.527  1.00  0.00    -0.248 NA
ATOM     62  C   UNL A   1      48.651  29.752  26.963  1.00  0.00     0.031 C 
ATOM     63  C   UNL A   1      43.237  31.782  28.806  1.00  0.00     0.029 A 
ATOM     64  C   UNL A   1      44.271  30.960  28.389  1.00  0.00     0.049 A 
ATOM     65  H   UNL A   1      44.257  28.878  28.045  1.00  0.00     0.167 HD
ATOM     66  C   UNL A   1      46.587  30.437  27.684  1.00  0.00     0.074 A 
ATOM     67  C   UNL A   1      47.947  30.806  27.354  1.00  0.00     0.031 C 
ATOM     68  C   UNL A   1      45.630  31.316  28.070  1.00  0.00     0.037 A 
BRANCH  55  69
ATOM     69  C   UNL A   1      40.117  28.721  29.071  1.00  0.00     0.064 A 
ATOM     70  C   UNL A   1      39.655  28.534  30.383  1.00  0.00     0.173 A 
ATOM     71  C   UNL A   1      39.188  29.130  28.102  1.00  0.00     0.173 A 
ATOM     72  F   UNL A   1      40.498  28.130  31.345  1.00  0.00    -0.203 F 
ATOM     73  C   UNL A   1      38.313  28.723  30.703  1.00  0.00     0.198 A 
ATOM     74  C   UNL A   1      37.854  29.350  28.433  1.00  0.00     0.198 A 
ATOM     75  F   UNL A   1      39.577  29.328  26.833  1.00  0.00    -0.203 F 
ATOM     76  F   UNL A   1      37.885  28.489  31.952  1.00  0.00    -0.200 F 
ATOM     77  C   UNL A   1      37.416  29.138  29.731  1.00  0.00     0.200 A 
ATOM     78  F   UNL A   1      36.992  29.766  27.495  1.00  0.00    -0.200 F 
ATOM     79  F   UNL A   1      36.127  29.328  30.044  1.00  0.00    -0.200 F 
ENDBRANCH  55  69
BRANCH  56  80
ATOM     80  C   UNL A   1      49.579  27.035  26.403  1.00  0.00     0.064 A 
ATOM     81  C   UNL A   1      49.920  27.036  25.043  1.00  0.00     0.173 A 
ATOM     82  C   UNL A   1      50.600  26.781  27.330  1.00  0.00     0.173 A 
ATOM     83  F   UNL A   1      48.973  27.243  24.116  1.00  0.00    -0.203 F 
ATOM     84  C   UNL A   1      51.223  26.769  24.626  1.00  0.00     0.198 A 
ATOM     85  C   UNL A   1      51.909  26.546  26.914  1.00  0.00     0.198 A 
ATOM     86  F   UNL A   1      50.327  26.762  28.643  1.00  0.00    -0.203 F 
ATOM     87  F   UNL A   1      51.508  26.720  23.318  1.00  0.00    -0.200 F 
ATOM     88  C   UNL A   1      52.218  26.531  25.562  1.00  0.00     0.200 A 
ATOM     89  F   UNL A   1      52.870  26.325  27.822  1.00  0.00    -0.200 F 
ATOM     90  F   UNL A   1      53.470  26.275  25.161  1.00  0.00    -0.200 F 
ENDBRANCH  56  80
BRANCH  68  91
ATOM     91  C   UNL A   1      46.024  32.761  28.210  1.00  0.00     0.064 A 
ATOM     92  C   UNL A   1      45.856  33.680  27.164  1.00  0.00     0.173 A 
ATOM     93  C   UNL A   1      46.530  33.242  29.428  1.00  0.00     0.173 A 
ATOM     94  F   UNL A   1      45.388  33.272  25.974  1.00  0.00    -0.203 F 
ATOM     95  C   UNL A   1      46.203  35.021  27.323  1.00  0.00     0.198 A 
ATOM     96  C   UNL A   1      46.844  34.588  29.596  1.00  0.00     0.198 A 
ATOM     97  F   UNL A   1      46.703  32.409  30.465  1.00  0.00    -0.203 F 
ATOM     98  F   UNL A   1      46.078  35.870  26.296  1.00  0.00    -0.200 F 
ATOM     99  C   UNL A   1      46.687  35.475  28.542  1.00  0.00     0.200 A 
ATOM    100  F   UNL A   1      47.294  35.028  30.778  1.00  0.00    -0.200 F 
ATOM    101  F   UNL A   1      47.009  36.766  28.698  1.00  0.00    -0.200 F 
ENDBRANCH  68  91
ENDBRANCH  42  43
ENDBRANCH  35  37
ENDBRANCH  34  35
ENDBRANCH  33  34
ENDBRANCH  32  33
ENDBRANCH  31  32
ENDBRANCH   1  31
TORSDOF 18
ENDMDL
MODEL 2
REMARK VINA RESULT:     -11.8      0.778      7.107
REMARK SMILES CC1(C)S[C@@H](c2cccc3c2sc2ccccc23)[NH2+][C@@H]1C(=O)OCCOCCOCCOC(=O)c1ccc(-c2c3nc(c(-c4c(F)c(F)c(F)c(F)c4F)c4ccc([nH]4)c(-c4c(F)c(F)c(F)c(F)c4F)c4nc(c(-c5c(F)c(F)c(F)c(F)c5F)c5ccc2[nH]5)C=C4)C=C3)cc1
REMARK SMILES IDX 28 1 27 2 26 3 25 4 24 5 23 6 21 7 22 8 20 9 1 10 2 11 3 12
REMARK SMILES IDX 4 13 5 14 19 15 6 18 7 19 11 20 8 21 10 22 12 23 9 24 18 25
REMARK SMILES IDX 13 26 17 27 14 28 16 29 15 30 29 31 30 32 31 33 32 34 33 35
REMARK SMILES IDX 34 36 35 37 36 38 97 39 37 40 96 41 38 42 39 43 40 44 90 45
REMARK SMILES IDX 41 46 95 47 89 48 91 49 42 50 94 51 88 52 87 53 43 55 75 56
REMARK SMILES IDX 55 57 74 58 56 59 59 60 73 61 92 62 57 63 58 64 72 66 93 67
REMARK SMILES IDX 60 68 44 69 45 70 53 71 46 72 47 73 51 74 54 75 48 76 49 77
REMARK SMILES IDX 52 78 50 79 76 80 77 81 85 82 78 83 79 84 83 85 86 86 80 87
REMARK SMILES IDX 81 88 84 89 82 90 61 91 62 92 70 93 63 94 64 95 68 96 71 97
REMARK SMILES IDX 65 98 66 99 69 100 67 101
REMARK H PARENT 19 16 19 17 91 54 59 65
REMARK Flexibility Score: inf
ROOT
ATOM      1  C   UNL A   1      39.092  23.165  26.168  1.00  0.00     0.188 C 
ENDROOT
BRANCH   1   2
ATOM      2  C   UNL A   1      37.853  24.081  26.327  1.00  0.00     0.188 C 
BRANCH   2   3
ATOM      3  O   UNL A   1      36.716  23.627  25.624  1.00  0.00    -0.376 OA
BRANCH   3   4
ATOM      4  C   UNL A   1      36.820  23.410  24.224  1.00  0.00     0.202 C 
BRANCH   4   5
ATOM      5  C   UNL A   1      35.741  22.616  23.470  1.00  0.00     0.261 C 
BRANCH   5   6
ATOM      6  O   UNL A   1      34.790  23.406  22.749  1.00  0.00    -0.459 OA
BRANCH   6   7
ATOM      7  C   UNL A   1      33.484  23.375  23.140  1.00  0.00     0.366 C 
ATOM      8  O   UNL A   1      32.556  23.050  22.417  1.00  0.00    -0.245 OA
BRANCH   7   9
ATOM      9  C   UNL A   1      33.412  23.768  24.645  1.00  0.00     0.310 C 
ATOM     10  C   UNL A   1      32.454  23.415  26.976  1.00  0.00     0.030 C 
ATOM     11  C   UNL A   1      32.179  23.323  25.457  1.00  0.00     0.079 C 
ATOM     12  C   UNL A   1      31.702  21.902  25.157  1.00  0.00     0.030 C 
ATOM     13  S   UNL A   1      30.959  24.614  25.056  1.00  0.00    -0.081 SA
ATOM     14  C   UNL A   1      32.217  25.760  24.388  1.00  0.00     0.276 C 
ATOM     15  N   UNL A   1      33.537  25.238  24.752  1.00  0.00    -0.319 N 
ATOM     16  H   UNL A   1      33.780  25.508  25.705  1.00  0.00     0.348 HD
ATOM     17  H   UNL A   1      34.273  25.604  24.148  1.00  0.00     0.348 HD
BRANCH  14  18
ATOM     18  C   UNL A   1      32.076  27.200  24.819  1.00  0.00     0.038 A 
ATOM     19  C   UNL A   1      32.889  27.746  25.835  1.00  0.00     0.012 A 
ATOM     20  C   UNL A   1      31.167  28.086  24.177  1.00  0.00     0.046 A 
ATOM     21  C   UNL A   1      32.745  29.058  26.258  1.00  0.00     0.001 A 
ATOM     22  C   UNL A   1      30.971  29.400  24.608  1.00  0.00     0.001 A 
ATOM     23  S   UNL A   1      30.185  27.752  22.797  1.00  0.00    -0.135 S 
ATOM     24  C   UNL A   1      31.776  29.874  25.675  1.00  0.00     0.010 A 
ATOM     25  C   UNL A   1      29.910  30.065  23.874  1.00  0.00     0.000 A 
ATOM     26  C   UNL A   1      29.422  29.277  22.833  1.00  0.00     0.036 A 
ATOM     27  C   UNL A   1      29.328  31.346  24.056  1.00  0.00     0.010 A 
ATOM     28  C   UNL A   1      28.416  29.734  21.960  1.00  0.00     0.019 A 
ATOM     29  C   UNL A   1      28.303  31.792  23.216  1.00  0.00     0.001 A 
ATOM     30  C   UNL A   1      27.860  30.996  22.170  1.00  0.00     0.002 A 
ENDBRANCH  14  18
ENDBRANCH   7   9
ENDBRANCH   6   7
ENDBRANCH   5   6
ENDBRANCH   4   5
ENDBRANCH   3   4
ENDBRANCH   2   3
ENDBRANCH   1   2
BRANCH   1  31
ATOM     31  O   UNL A   1      39.000  21.792  26.504  1.00  0.00    -0.376 OA
BRANCH  31  32
ATOM     32  C   UNL A   1      38.846  20.841  25.462  1.00  0.00     0.202 C 
BRANCH  32  33
ATOM     33  C   UNL A   1      39.475  19.442  25.602  1.00  0.00     0.261 C 
BRANCH  33  34
ATOM     34  O   UNL A   1      40.469  19.291  26.637  1.00  0.00    -0.460 OA
BRANCH  34  35
ATOM     35  C   UNL A   1      41.765  19.322  26.227  1.00  0.00     0.338 C 
ATOM     36  O   UNL A   1      42.372  18.455  25.628  1.00  0.00    -0.246 OA
BRANCH  35  37
ATOM     37  C   UNL A   1      42.335  20.671  26.452  1.00  0.00     0.060 A 
ATOM     38  C   UNL A   1      42.331  21.201  27.752  1.00  0.00     0.016 A 
ATOM     39  C   UNL A   1      42.804  21.435  25.385  1.00  0.00     0.016 A 
ATOM     40  C   UNL A   1      42.778  22.504  27.986  1.00  0.00     0.010 A 
ATOM     41  C   UNL A   1      43.226  22.750  25.616  1.00  0.00     0.010 A 
ATOM     42  C   UNL A   1      43.189  23.302  26.911  1.00  0.00    -0.014 A 
BRANCH  42  43
ATOM     43  C   UNL A   1      43.405  24.760  27.098  1.00  0.00     0.031 A 
ATOM     44  C   UNL A   1      44.758  25.334  26.772  1.00  0.00     0.074 A 
ATOM     45  C   UNL A   1      42.431  25.564  27.560  1.00  0.00     0.049 A 
ATOM     46  N   UNL A   1      45.218  26.545  26.957  1.00  0.00    -0.248 NA
ATOM     47  C   UNL A   1      45.724  24.410  26.158  1.00  0.00     0.031 C 
ATOM     48  C   UNL A   1      41.066  25.148  27.868  1.00  0.00     0.029 A 
ATOM     49  N   UNL A   1      42.455  26.903  27.871  1.00  0.00    -0.354 N 
ATOM     50  C   UNL A   1      46.529  26.524  26.497  1.00  0.00     0.074 A 
ATOM     51  C   UNL A   1      46.798  25.176  26.047  1.00  0.00     0.031 C 
ATOM     52  C   UNL A   1      40.388  26.206  28.348  1.00  0.00     0.029 A 
ATOM     53  C   UNL A   1      41.282  27.362  28.419  1.00  0.00     0.049 A 
ATOM     54  H   UNL A   1      43.240  27.478  27.716  1.00  0.00     0.167 HD
ATOM     55  C   UNL A   1      47.425  27.539  26.451  1.00  0.00     0.037 A 
ATOM     56  C   UNL A   1      40.980  28.565  28.946  1.00  0.00     0.037 A 
ATOM     57  C   UNL A   1      47.159  28.879  26.903  1.00  0.00     0.049 A 
ATOM     58  C   UNL A   1      42.023  29.656  28.963  1.00  0.00     0.074 A 
ATOM     59  C   UNL A   1      47.997  29.980  26.878  1.00  0.00     0.029 A 
ATOM     60  N   UNL A   1      45.966  29.298  27.474  1.00  0.00    -0.354 N 
ATOM     61  N   UNL A   1      43.252  29.638  28.504  1.00  0.00    -0.248 NA
ATOM     62  C   UNL A   1      41.635  30.937  29.572  1.00  0.00     0.031 C 
ATOM     63  C   UNL A   1      47.335  31.048  27.490  1.00  0.00     0.029 A 
ATOM     64  C   UNL A   1      46.058  30.633  27.834  1.00  0.00     0.049 A 
ATOM     65  H   UNL A   1      45.173  28.731  27.604  1.00  0.00     0.167 HD
ATOM     66  C   UNL A   1      43.768  30.908  28.737  1.00  0.00     0.074 A 
ATOM     67  C   UNL A   1      42.717  31.676  29.367  1.00  0.00     0.031 C 
ATOM     68  C   UNL A   1      45.001  31.394  28.450  1.00  0.00     0.037 A 
BRANCH  55  69
ATOM     69  C   UNL A   1      48.796  27.229  25.922  1.00  0.00     0.064 A 
ATOM     70  C   UNL A   1      49.113  27.364  24.561  1.00  0.00     0.173 A 
ATOM     71  C   UNL A   1      49.818  26.824  26.794  1.00  0.00     0.173 A 
ATOM     72  F   UNL A   1      48.170  27.736  23.682  1.00  0.00    -0.203 F 
ATOM     73  C   UNL A   1      50.392  27.078  24.092  1.00  0.00     0.198 A 
ATOM     74  C   UNL A   1      51.104  26.571  26.327  1.00  0.00     0.198 A 
ATOM     75  F   UNL A   1      49.571  26.683  28.106  1.00  0.00    -0.203 F 
ATOM     76  F   UNL A   1      50.657  27.165  22.780  1.00  0.00    -0.200 F 
ATOM     77  C   UNL A   1      51.388  26.689  24.975  1.00  0.00     0.200 A 
ATOM     78  F   UNL A   1      52.069  26.210  27.183  1.00  0.00    -0.200 F 
ATOM     79  F   UNL A   1      52.621  26.424  24.522  1.00  0.00    -0.200 F 
ENDBRANCH  55  69
BRANCH  56  80
ATOM     80  C   UNL A   1      39.632  28.806  29.529  1.00  0.00     0.064 A 
ATOM     81  C   UNL A   1      38.584  29.309  28.744  1.00  0.00     0.173 A 
ATOM     82  C   UNL A   1      39.373  28.572  30.887  1.00  0.00     0.173 A 
ATOM     83  F   UNL A   1      38.790  29.580  27.447  1.00  0.00    -0.203 F 
ATOM     84  C   UNL A   1      37.337  29.589  29.301  1.00  0.00     0.198 A 
ATOM     85  C   UNL A   1      38.116  28.822  31.435  1.00  0.00     0.198 A 
ATOM     86  F   UNL A   1      40.342  28.098  31.684  1.00  0.00    -0.203 F 
ATOM     87  F   UNL A   1      36.371  30.122  28.540  1.00  0.00    -0.200 F 
ATOM     88  C   UNL A   1      37.102  29.339  30.644  1.00  0.00     0.200 A 
ATOM     89  F   UNL A   1      37.891  28.570  32.732  1.00  0.00    -0.200 F 
ATOM     90  F   UNL A   1      35.903  29.607  31.178  1.00  0.00    -0.200 F 
ENDBRANCH  56  80
BRANCH  68  91
ATOM     91  C   UNL A   1      45.274  32.839  28.765  1.00  0.00     0.064 A 
ATOM     92  C   UNL A   1      45.876  33.235  29.968  1.00  0.00     0.173 A 
ATOM     93  C   UNL A   1      44.973  33.837  27.825  1.00  0.00     0.173 A 
ATOM     94  F   UNL A   1      46.174  32.324  30.907  1.00  0.00    -0.203 F 
ATOM     95  C   UNL A   1      46.145  34.578  30.229  1.00  0.00     0.198 A 
ATOM     96  C   UNL A   1      45.273  35.174  28.074  1.00  0.00     0.198 A 
ATOM     97  F   UNL A   1      44.404  33.515  26.654  1.00  0.00    -0.203 F 
ATOM     98  F   UNL A   1      46.677  34.937  31.404  1.00  0.00    -0.200 F 
ATOM     99  C   UNL A   1      45.851  35.545  29.278  1.00  0.00     0.200 A 
ATOM    100  F   UNL A   1      45.005  36.104  27.146  1.00  0.00    -0.200 F 
ATOM    101  F   UNL A   1      46.120  36.833  29.525  1.00  0.00    -0.200 F 
ENDBRANCH  68  91
ENDBRANCH  42  43
ENDBRANCH  35  37
ENDBRANCH  34  35
ENDBRANCH  33  34
ENDBRANCH  32  33
ENDBRANCH  31  32
ENDBRANCH   1  31
TORSDOF 18
ENDMDL
MODEL 3
REMARK VINA RESULT:     -11.7      5.864     11.360
REMARK SMILES CC1(C)S[C@@H](c2cccc3c2sc2ccccc23)[NH2+][C@@H]1C(=O)OCCOCCOCCOC(=O)c1ccc(-c2c3nc(c(-c4c(F)c(F)c(F)c(F)c4F)c4ccc([nH]4)c(-c4c(F)c(F)c(F)c(F)c4F)c4nc(c(-c5c(F)c(F)c(F)c(F)c5F)c5ccc2[nH]5)C=C4)C=C3)cc1
REMARK SMILES IDX 28 1 27 2 26 3 25 4 24 5 23 6 21 7 22 8 20 9 1 10 2 11 3 12
REMARK SMILES IDX 4 13 5 14 19 15 6 18 7 19 11 20 8 21 10 22 12 23 9 24 18 25
REMARK SMILES IDX 13 26 17 27 14 28 16 29 15 30 29 31 30 32 31 33 32 34 33 35
REMARK SMILES IDX 34 36 35 37 36 38 97 39 37 40 96 41 38 42 39 43 40 44 90 45
REMARK SMILES IDX 41 46 95 47 89 48 91 49 42 50 94 51 88 52 87 53 43 55 75 56
REMARK SMILES IDX 55 57 74 58 56 59 59 60 73 61 92 62 57 63 58 64 72 66 93 67
REMARK SMILES IDX 60 68 44 69 45 70 53 71 46 72 47 73 51 74 54 75 48 76 49 77
REMARK SMILES IDX 52 78 50 79 76 80 77 81 85 82 78 83 79 84 83 85 86 86 80 87
REMARK SMILES IDX 81 88 84 89 82 90 61 91 62 92 70 93 63 94 64 95 68 96 71 97
REMARK SMILES IDX 65 98 66 99 69 100 67 101
REMARK H PARENT 19 16 19 17 91 54 59 65
REMARK Flexibility Score: inf
ROOT
ATOM      1  C   UNL A   1      34.843  30.381  28.219  1.00  0.00     0.188 C 
ENDROOT
BRANCH   1   2
ATOM      2  C   UNL A   1      35.389  29.289  27.266  1.00  0.00     0.188 C 
BRANCH   2   3
ATOM      3  O   UNL A   1      34.397  28.407  26.784  1.00  0.00    -0.376 OA
BRANCH   3   4
ATOM      4  C   UNL A   1      33.118  28.415  27.402  1.00  0.00     0.202 C 
BRANCH   4   5
ATOM      5  C   UNL A   1      31.860  28.024  26.609  1.00  0.00     0.261 C 
BRANCH   5   6
ATOM      6  O   UNL A   1      31.351  26.713  26.872  1.00  0.00    -0.459 OA
BRANCH   6   7
ATOM      7  C   UNL A   1      31.238  25.836  25.834  1.00  0.00     0.366 C 
ATOM      8  O   UNL A   1      30.281  25.098  25.657  1.00  0.00    -0.245 OA
BRANCH   7   9
ATOM      9  C   UNL A   1      32.491  25.988  24.922  1.00  0.00     0.310 C 
ATOM     10  C   UNL A   1      33.518  26.439  22.638  1.00  0.00     0.030 C 
ATOM     11  C   UNL A   1      32.304  25.855  23.398  1.00  0.00     0.079 C 
ATOM     12  C   UNL A   1      31.047  26.531  22.852  1.00  0.00     0.030 C 
ATOM     13  S   UNL A   1      32.340  24.050  23.155  1.00  0.00    -0.081 SA
ATOM     14  C   UNL A   1      33.063  23.725  24.803  1.00  0.00     0.276 C 
ATOM     15  N   UNL A   1      33.509  25.006  25.357  1.00  0.00    -0.319 N 
ATOM     16  H   UNL A   1      34.427  25.257  24.990  1.00  0.00     0.348 HD
ATOM     17  H   UNL A   1      33.599  24.973  26.372  1.00  0.00     0.348 HD
BRANCH  14  18
ATOM     18  C   UNL A   1      34.184  22.714  24.830  1.00  0.00     0.038 A 
ATOM     19  C   UNL A   1      35.533  23.114  24.944  1.00  0.00     0.012 A 
ATOM     20  C   UNL A   1      33.927  21.315  24.810  1.00  0.00     0.046 A 
ATOM     21  C   UNL A   1      36.569  22.194  24.940  1.00  0.00     0.001 A 
ATOM     22  C   UNL A   1      34.952  20.367  24.764  1.00  0.00     0.001 A 
ATOM     23  S   UNL A   1      32.387  20.536  24.858  1.00  0.00    -0.135 S 
ATOM     24  C   UNL A   1      36.290  20.833  24.820  1.00  0.00     0.010 A 
ATOM     25  C   UNL A   1      34.441  19.014  24.628  1.00  0.00     0.000 A 
ATOM     26  C   UNL A   1      33.050  18.972  24.700  1.00  0.00     0.036 A 
ATOM     27  C   UNL A   1      35.126  17.786  24.444  1.00  0.00     0.010 A 
ATOM     28  C   UNL A   1      32.336  17.760  24.635  1.00  0.00     0.019 A 
ATOM     29  C   UNL A   1      34.422  16.582  24.342  1.00  0.00     0.001 A 
ATOM     30  C   UNL A   1      33.039  16.570  24.447  1.00  0.00     0.002 A 
ENDBRANCH  14  18
ENDBRANCH   7   9
ENDBRANCH   6   7
ENDBRANCH   5   6
ENDBRANCH   4   5
ENDBRANCH   3   4
ENDBRANCH   2   3
ENDBRANCH   1   2
BRANCH   1  31
ATOM     31  O   UNL A   1      34.414  31.624  27.690  1.00  0.00    -0.376 OA
BRANCH  31  32
ATOM     32  C   UNL A   1      33.022  31.891  27.616  1.00  0.00     0.202 C 
BRANCH  32  33
ATOM     33  C   UNL A   1      32.532  33.310  27.271  1.00  0.00     0.261 C 
BRANCH  33  34
ATOM     34  O   UNL A   1      33.441  34.390  27.570  1.00  0.00    -0.460 OA
BRANCH  34  35
ATOM     35  C   UNL A   1      33.345  34.921  28.816  1.00  0.00     0.338 C 
ATOM     36  O   UNL A   1      32.388  35.489  29.307  1.00  0.00    -0.246 OA
BRANCH  35  37
ATOM     37  C   UNL A   1      34.540  34.560  29.615  1.00  0.00     0.060 A 
ATOM     38  C   UNL A   1      35.794  34.531  28.983  1.00  0.00     0.016 A 
ATOM     39  C   UNL A   1      34.420  34.186  30.952  1.00  0.00     0.016 A 
ATOM     40  C   UNL A   1      36.928  34.108  29.682  1.00  0.00     0.010 A 
ATOM     41  C   UNL A   1      35.552  33.736  31.643  1.00  0.00     0.010 A 
ATOM     42  C   UNL A   1      36.806  33.667  31.005  1.00  0.00    -0.014 A 
BRANCH  42  43
ATOM     43  C   UNL A   1      37.934  32.965  31.670  1.00  0.00     0.031 A 
ATOM     44  C   UNL A   1      38.543  31.772  30.983  1.00  0.00     0.074 A 
ATOM     45  C   UNL A   1      38.406  33.362  32.865  1.00  0.00     0.049 A 
ATOM     46  N   UNL A   1      39.454  30.936  31.412  1.00  0.00    -0.248 NA
ATOM     47  C   UNL A   1      38.050  31.482  29.627  1.00  0.00     0.031 C 
ATOM     48  C   UNL A   1      37.941  34.526  33.614  1.00  0.00     0.029 A 
ATOM     49  N   UNL A   1      39.374  32.808  33.667  1.00  0.00    -0.354 N 
ATOM     50  C   UNL A   1      39.632  30.014  30.388  1.00  0.00     0.074 A 
ATOM     51  C   UNL A   1      38.718  30.379  29.327  1.00  0.00     0.031 C 
ATOM     52  C   UNL A   1      38.607  34.586  34.780  1.00  0.00     0.029 A 
ATOM     53  C   UNL A   1      39.516  33.443  34.877  1.00  0.00     0.049 A 
ATOM     54  H   UNL A   1      39.915  32.029  33.400  1.00  0.00     0.167 HD
ATOM     55  C   UNL A   1      40.482  28.962  30.336  1.00  0.00     0.037 A 
ATOM     56  C   UNL A   1      40.268  33.118  35.948  1.00  0.00     0.037 A 
ATOM     57  C   UNL A   1      41.388  28.596  31.393  1.00  0.00     0.049 A 
ATOM     58  C   UNL A   1      41.144  31.890  35.900  1.00  0.00     0.074 A 
ATOM     59  C   UNL A   1      42.303  27.558  31.424  1.00  0.00     0.029 A 
ATOM     60  N   UNL A   1      41.484  29.250  32.612  1.00  0.00    -0.354 N 
ATOM     61  N   UNL A   1      41.326  31.037  34.920  1.00  0.00    -0.248 NA
ATOM     62  C   UNL A   1      41.921  31.581  37.109  1.00  0.00     0.031 C 
ATOM     63  C   UNL A   1      42.908  27.546  32.685  1.00  0.00     0.029 A 
ATOM     64  C   UNL A   1      42.421  28.618  33.414  1.00  0.00     0.049 A 
ATOM     65  H   UNL A   1      40.965  30.045  32.869  1.00  0.00     0.167 HD
ATOM     66  C   UNL A   1      42.260  30.115  35.381  1.00  0.00     0.074 A 
ATOM     67  C   UNL A   1      42.616  30.519  36.725  1.00  0.00     0.031 C 
ATOM     68  C   UNL A   1      42.779  29.035  34.747  1.00  0.00     0.037 A 
BRANCH  55  69
ATOM     69  C   UNL A   1      40.450  28.104  29.103  1.00  0.00     0.064 A 
ATOM     70  C   UNL A   1      41.199  28.422  27.960  1.00  0.00     0.173 A 
ATOM     71  C   UNL A   1      39.684  26.929  29.077  1.00  0.00     0.173 A 
ATOM     72  F   UNL A   1      41.938  29.542  27.927  1.00  0.00    -0.203 F 
ATOM     73  C   UNL A   1      41.160  27.611  26.829  1.00  0.00     0.198 A 
ATOM     74  C   UNL A   1      39.673  26.102  27.958  1.00  0.00     0.198 A 
ATOM     75  F   UNL A   1      38.952  26.574  30.145  1.00  0.00    -0.203 F 
ATOM     76  F   UNL A   1      41.844  27.962  25.731  1.00  0.00    -0.200 F 
ATOM     77  C   UNL A   1      40.404  26.448  26.832  1.00  0.00     0.200 A 
ATOM     78  F   UNL A   1      38.954  24.971  27.967  1.00  0.00    -0.200 F 
ATOM     79  F   UNL A   1      40.376  25.664  25.745  1.00  0.00    -0.200 F 
ENDBRANCH  55  69
BRANCH  56  80
ATOM     80  C   UNL A   1      40.213  33.954  37.179  1.00  0.00     0.064 A 
ATOM     81  C   UNL A   1      39.259  33.709  38.177  1.00  0.00     0.173 A 
ATOM     82  C   UNL A   1      41.088  35.033  37.366  1.00  0.00     0.173 A 
ATOM     83  F   UNL A   1      38.378  32.708  38.030  1.00  0.00    -0.203 F 
ATOM     84  C   UNL A   1      39.169  34.525  39.303  1.00  0.00     0.198 A 
ATOM     85  C   UNL A   1      41.018  35.829  38.508  1.00  0.00     0.198 A 
ATOM     86  F   UNL A   1      42.015  35.316  36.438  1.00  0.00    -0.203 F 
ATOM     87  F   UNL A   1      38.211  34.302  40.214  1.00  0.00    -0.200 F 
ATOM     88  C   UNL A   1      40.053  35.580  39.472  1.00  0.00     0.200 A 
ATOM     89  F   UNL A   1      41.881  36.842  38.671  1.00  0.00    -0.200 F 
ATOM     90  F   UNL A   1      39.966  36.363  40.555  1.00  0.00    -0.200 F 
ENDBRANCH  56  80
BRANCH  68  91
ATOM     91  C   UNL A   1      43.825  28.234  35.471  1.00  0.00     0.064 A 
ATOM     92  C   UNL A   1      45.196  28.482  35.306  1.00  0.00     0.173 A 
ATOM     93  C   UNL A   1      43.447  27.237  36.384  1.00  0.00     0.173 A 
ATOM     94  F   UNL A   1      45.614  29.415  34.437  1.00  0.00    -0.203 F 
ATOM     95  C   UNL A   1      46.148  27.745  36.008  1.00  0.00     0.198 A 
ATOM     96  C   UNL A   1      44.399  26.525  37.109  1.00  0.00     0.198 A 
ATOM     97  F   UNL A   1      42.149  26.963  36.588  1.00  0.00    -0.203 F 
ATOM     98  F   UNL A   1      47.452  27.967  35.798  1.00  0.00    -0.200 F 
ATOM     99  C   UNL A   1      45.749  26.774  36.915  1.00  0.00     0.200 A 
ATOM    100  F   UNL A   1      44.010  25.601  37.998  1.00  0.00    -0.200 F 
ATOM    101  F   UNL A   1      46.665  26.075  37.598  1.00  0.00    -0.200 F 
ENDBRANCH  68  91
ENDBRANCH  42  43
ENDBRANCH  35  37
ENDBRANCH  34  35
ENDBRANCH  33  34
ENDBRANCH  32  33
ENDBRANCH  31  32
ENDBRANCH   1  31
TORSDOF 18
ENDMDL
