MODEL 1
REMARK VINA RESULT:     -10.4      0.000      0.000
REMARK SMILES O=C(OCCOCCOCCOC(=O)[C@@H]1CC[C@H](CNC(=O)c2cccn2C2CC2)O1)c1ccc(-c2c3nc(c(-c4c(F)c(F)c(F)c(F)c4F)c4ccc([nH]4)c(-c4c(F)c(F)c(F)c(F)c4F)c4nc(c(-c5c(F)c(F)c(F)c(F)c5F)c5ccc2[nH]5)C=C4)C=C3)cc1
REMARK SMILES IDX 8 1 7 2 6 3 5 4 4 5 3 6 2 7 1 8 32 9 33 10 94 11 34 12 93 13
REMARK SMILES IDX 35 14 36 15 37 16 87 17 38 18 92 19 86 20 88 21 39 22 91 23
REMARK SMILES IDX 85 24 84 25 40 27 72 28 52 29 71 30 53 31 56 32 70 33 89 34
REMARK SMILES IDX 54 35 55 36 69 38 90 39 57 40 41 41 42 42 50 43 43 44 44 45
REMARK SMILES IDX 48 46 51 47 45 48 46 49 49 50 47 51 73 52 74 53 82 54 75 55
REMARK SMILES IDX 76 56 80 57 83 58 77 59 78 60 81 61 79 62 58 63 59 64 67 65
REMARK SMILES IDX 60 66 61 67 65 68 68 69 62 70 63 71 66 72 64 73 9 74 10 75
REMARK SMILES IDX 11 76 12 77 13 78 14 79 15 80 16 81 31 82 17 83 18 84 19 85
REMARK SMILES IDX 20 86 21 87 22 89 23 90 24 91 27 92 25 93 26 94 28 95 29 96
REMARK SMILES IDX 30 97
REMARK H PARENT 88 26 56 37 20 88
REMARK Flexibility Score: inf
ROOT
ATOM      1  C   UNL A   1      32.408  28.982  22.506  1.00  0.00     0.188 C 
ENDROOT
BRANCH   1   2
ATOM      2  C   UNL A   1      33.460  28.086  23.178  1.00  0.00     0.188 C 
BRANCH   2   3
ATOM      3  O   UNL A   1      33.967  28.717  24.364  1.00  0.00    -0.376 OA
BRANCH   3   4
ATOM      4  C   UNL A   1      33.417  28.219  25.573  1.00  0.00     0.202 C 
BRANCH   4   5
ATOM      5  C   UNL A   1      34.334  28.429  26.794  1.00  0.00     0.261 C 
BRANCH   5   6
ATOM      6  O   UNL A   1      34.511  29.821  27.150  1.00  0.00    -0.460 OA
BRANCH   6   7
ATOM      7  C   UNL A   1      35.512  30.504  27.743  1.00  0.00     0.338 C 
ATOM      8  O   UNL A   1      35.362  31.697  27.975  1.00  0.00    -0.246 OA
BRANCH   7   9
ATOM      9  C   UNL A   1      36.824  29.887  28.080  1.00  0.00     0.060 A 
ATOM     10  C   UNL A   1      37.943  29.940  27.256  1.00  0.00     0.016 A 
ATOM     11  C   UNL A   1      36.961  29.297  29.349  1.00  0.00     0.016 A 
ATOM     12  C   UNL A   1      39.156  29.399  27.643  1.00  0.00     0.010 A 
ATOM     13  C   UNL A   1      38.181  28.751  29.758  1.00  0.00     0.010 A 
ATOM     14  C   UNL A   1      39.275  28.796  28.891  1.00  0.00    -0.014 A 
BRANCH  14  15
ATOM     15  C   UNL A   1      40.584  28.189  29.197  1.00  0.00     0.031 A 
ATOM     16  C   UNL A   1      40.771  26.776  28.683  1.00  0.00     0.074 A 
ATOM     17  C   UNL A   1      41.386  28.911  30.023  1.00  0.00     0.049 A 
ATOM     18  N   UNL A   1      41.526  25.822  29.144  1.00  0.00    -0.248 NA
ATOM     19  C   UNL A   1      39.937  26.332  27.540  1.00  0.00     0.031 C 
ATOM     20  C   UNL A   1      41.026  30.240  30.539  1.00  0.00     0.029 A 
ATOM     21  N   UNL A   1      42.606  28.684  30.622  1.00  0.00    -0.354 N 
ATOM     22  C   UNL A   1      41.386  24.737  28.267  1.00  0.00     0.074 A 
ATOM     23  C   UNL A   1      40.311  25.063  27.374  1.00  0.00     0.031 C 
ATOM     24  C   UNL A   1      41.957  30.675  31.402  1.00  0.00     0.029 A 
ATOM     25  C   UNL A   1      43.036  29.712  31.487  1.00  0.00     0.049 A 
ATOM     26  H   UNL A   1      43.135  27.869  30.459  1.00  0.00     0.167 HD
ATOM     27  C   UNL A   1      42.236  23.675  28.226  1.00  0.00     0.037 A 
ATOM     28  C   UNL A   1      44.163  29.794  32.255  1.00  0.00     0.037 A 
ATOM     29  C   UNL A   1      43.266  23.741  29.211  1.00  0.00     0.049 A 
ATOM     30  C   UNL A   1      44.924  28.548  32.031  1.00  0.00     0.074 A 
ATOM     31  C   UNL A   1      43.394  23.358  30.521  1.00  0.00     0.029 A 
ATOM     32  N   UNL A   1      44.406  24.421  28.865  1.00  0.00    -0.354 N 
ATOM     33  N   UNL A   1      45.624  28.277  30.969  1.00  0.00    -0.248 NA
ATOM     34  C   UNL A   1      44.830  27.475  33.028  1.00  0.00     0.031 C 
ATOM     35  C   UNL A   1      44.538  24.038  31.015  1.00  0.00     0.029 A 
ATOM     36  C   UNL A   1      45.000  24.890  30.014  1.00  0.00     0.049 A 
ATOM     37  H   UNL A   1      44.741  24.551  27.949  1.00  0.00     0.167 HD
ATOM     38  C   UNL A   1      45.800  26.909  31.043  1.00  0.00     0.074 A 
ATOM     39  C   UNL A   1      45.535  26.531  32.410  1.00  0.00     0.031 C 
ATOM     40  C   UNL A   1      45.709  26.147  29.923  1.00  0.00     0.037 A 
BRANCH  27  41
ATOM     41  C   UNL A   1      42.351  22.620  27.164  1.00  0.00     0.064 A 
ATOM     42  C   UNL A   1      41.708  21.377  27.353  1.00  0.00     0.173 A 
ATOM     43  C   UNL A   1      43.291  22.681  26.123  1.00  0.00     0.173 A 
ATOM     44  F   UNL A   1      40.791  21.221  28.320  1.00  0.00    -0.203 F 
ATOM     45  C   UNL A   1      42.033  20.254  26.591  1.00  0.00     0.198 A 
ATOM     46  C   UNL A   1      43.580  21.567  25.330  1.00  0.00     0.198 A 
ATOM     47  F   UNL A   1      44.012  23.790  25.910  1.00  0.00    -0.203 F 
ATOM     48  F   UNL A   1      41.467  19.071  26.870  1.00  0.00    -0.200 F 
ATOM     49  C   UNL A   1      42.972  20.349  25.582  1.00  0.00     0.200 A 
ATOM     50  F   UNL A   1      44.497  21.666  24.358  1.00  0.00    -0.200 F 
ATOM     51  F   UNL A   1      43.314  19.265  24.874  1.00  0.00    -0.200 F 
ENDBRANCH  27  41
BRANCH  28  52
ATOM     52  C   UNL A   1      44.690  30.788  33.265  1.00  0.00     0.064 A 
ATOM     53  C   UNL A   1      44.510  30.713  34.655  1.00  0.00     0.173 A 
ATOM     54  C   UNL A   1      45.431  31.923  32.842  1.00  0.00     0.173 A 
ATOM     55  F   UNL A   1      43.671  29.832  35.207  1.00  0.00    -0.203 F 
ATOM     56  C   UNL A   1      45.141  31.595  35.547  1.00  0.00     0.198 A 
ATOM     57  C   UNL A   1      46.045  32.813  33.727  1.00  0.00     0.198 A 
ATOM     58  F   UNL A   1      45.578  32.221  31.545  1.00  0.00    -0.203 F 
ATOM     59  F   UNL A   1      44.974  31.432  36.867  1.00  0.00    -0.200 F 
ATOM     60  C   UNL A   1      45.924  32.632  35.085  1.00  0.00     0.200 A 
ATOM     61  F   UNL A   1      46.760  33.840  33.245  1.00  0.00    -0.200 F 
ATOM     62  F   UNL A   1      46.535  33.464  35.937  1.00  0.00    -0.200 F 
ENDBRANCH  28  52
BRANCH  40  63
ATOM     63  C   UNL A   1      45.891  26.956  28.661  1.00  0.00     0.064 A 
ATOM     64  C   UNL A   1      44.786  27.445  27.957  1.00  0.00     0.173 A 
ATOM     65  C   UNL A   1      47.147  27.118  28.054  1.00  0.00     0.173 A 
ATOM     66  F   UNL A   1      43.552  27.311  28.467  1.00  0.00    -0.203 F 
ATOM     67  C   UNL A   1      44.940  28.066  26.714  1.00  0.00     0.198 A 
ATOM     68  C   UNL A   1      47.306  27.752  26.827  1.00  0.00     0.198 A 
ATOM     69  F   UNL A   1      48.245  26.657  28.651  1.00  0.00    -0.203 F 
ATOM     70  F   UNL A   1      43.862  28.517  26.057  1.00  0.00    -0.200 F 
ATOM     71  C   UNL A   1      46.199  28.221  26.152  1.00  0.00     0.200 A 
ATOM     72  F   UNL A   1      48.535  27.905  26.308  1.00  0.00    -0.200 F 
ATOM     73  F   UNL A   1      46.343  28.825  24.964  1.00  0.00    -0.200 F 
ENDBRANCH  40  63
ENDBRANCH  14  15
ENDBRANCH   7   9
ENDBRANCH   6   7
ENDBRANCH   5   6
ENDBRANCH   4   5
ENDBRANCH   3   4
ENDBRANCH   2   3
ENDBRANCH   1   2
BRANCH   1  74
ATOM     74  O   UNL A   1      31.171  29.162  23.202  1.00  0.00    -0.376 OA
BRANCH  74  75
ATOM     75  C   UNL A   1      30.009  28.643  22.563  1.00  0.00     0.202 C 
BRANCH  75  76
ATOM     76  C   UNL A   1      29.363  27.525  23.398  1.00  0.00     0.261 C 
BRANCH  76  77
ATOM     77  O   UNL A   1      30.170  27.142  24.525  1.00  0.00    -0.461 OA
BRANCH  77  78
ATOM     78  C   UNL A   1      30.574  25.839  24.520  1.00  0.00     0.335 C 
ATOM     79  O   UNL A   1      30.577  25.107  23.535  1.00  0.00    -0.249 OA
BRANCH  78  80
ATOM     80  C   UNL A   1      30.995  25.360  25.917  1.00  0.00     0.228 C 
ATOM     81  C   UNL A   1      32.442  24.896  25.861  1.00  0.00     0.047 C 
ATOM     82  O   UNL A   1      30.238  24.298  26.525  1.00  0.00    -0.361 OA
ATOM     83  C   UNL A   1      32.503  23.832  26.924  1.00  0.00     0.037 C 
ATOM     84  C   UNL A   1      31.122  23.207  26.855  1.00  0.00     0.138 C 
BRANCH  84  85
ATOM     85  C   UNL A   1      30.932  22.110  25.792  1.00  0.00     0.148 C 
BRANCH  85  86
ATOM     86  N   UNL A   1      31.914  21.043  25.850  1.00  0.00    -0.348 N 
ATOM     87  C   UNL A   1      33.048  20.812  25.117  1.00  0.00     0.268 C 
ATOM     88  H   UNL A   1      31.732  20.364  26.538  1.00  0.00     0.163 HD
ATOM     89  O   UNL A   1      33.728  19.845  25.457  1.00  0.00    -0.268 OA
BRANCH  87  90
ATOM     90  C   UNL A   1      33.429  21.720  24.064  1.00  0.00     0.107 A 
ATOM     91  C   UNL A   1      32.642  22.104  22.979  1.00  0.00     0.033 A 
ATOM     92  N   UNL A   1      34.570  22.500  23.998  1.00  0.00    -0.340 N 
ATOM     93  C   UNL A   1      33.317  23.107  22.253  1.00  0.00     0.020 A 
ATOM     94  C   UNL A   1      34.496  23.345  22.915  1.00  0.00     0.086 A 
BRANCH  92  95
ATOM     95  C   UNL A   1      35.789  22.473  24.791  1.00  0.00     0.087 C 
ATOM     96  C   UNL A   1      36.864  23.531  24.872  1.00  0.00     0.027 C 
ATOM     97  C   UNL A   1      35.940  23.347  26.023  1.00  0.00     0.027 C 
ENDBRANCH  92  95
ENDBRANCH  87  90
ENDBRANCH  85  86
ENDBRANCH  84  85
ENDBRANCH  78  80
ENDBRANCH  77  78
ENDBRANCH  76  77
ENDBRANCH  75  76
ENDBRANCH  74  75
ENDBRANCH   1  74
TORSDOF 21
ENDMDL
MODEL 2
REMARK VINA RESULT:     -10.4      2.299      8.287
REMARK SMILES O=C(OCCOCCOCCOC(=O)[C@@H]1CC[C@H](CNC(=O)c2cccn2C2CC2)O1)c1ccc(-c2c3nc(c(-c4c(F)c(F)c(F)c(F)c4F)c4ccc([nH]4)c(-c4c(F)c(F)c(F)c(F)c4F)c4nc(c(-c5c(F)c(F)c(F)c(F)c5F)c5ccc2[nH]5)C=C4)C=C3)cc1
REMARK SMILES IDX 8 1 7 2 6 3 5 4 4 5 3 6 2 7 1 8 32 9 33 10 94 11 34 12 93 13
REMARK SMILES IDX 35 14 36 15 37 16 87 17 38 18 92 19 86 20 88 21 39 22 91 23
REMARK SMILES IDX 85 24 84 25 40 27 72 28 52 29 71 30 53 31 56 32 70 33 89 34
REMARK SMILES IDX 54 35 55 36 69 38 90 39 57 40 41 41 42 42 50 43 43 44 44 45
REMARK SMILES IDX 48 46 51 47 45 48 46 49 49 50 47 51 73 52 74 53 82 54 75 55
REMARK SMILES IDX 76 56 80 57 83 58 77 59 78 60 81 61 79 62 58 63 59 64 67 65
REMARK SMILES IDX 60 66 61 67 65 68 68 69 62 70 63 71 66 72 64 73 9 74 10 75
REMARK SMILES IDX 11 76 12 77 13 78 14 79 15 80 16 81 31 82 17 83 18 84 19 85
REMARK SMILES IDX 20 86 21 87 22 89 23 90 24 91 27 92 25 93 26 94 28 95 29 96
REMARK SMILES IDX 30 97
REMARK H PARENT 88 26 56 37 20 88
REMARK Flexibility Score: inf
ROOT
ATOM      1  C   UNL A   1      32.870  28.811  22.715  1.00  0.00     0.188 C 
ENDROOT
BRANCH   1   2
ATOM      2  C   UNL A   1      31.370  28.954  23.018  1.00  0.00     0.188 C 
BRANCH   2   3
ATOM      3  O   UNL A   1      31.177  29.436  24.357  1.00  0.00    -0.376 OA
BRANCH   3   4
ATOM      4  C   UNL A   1      32.346  29.416  25.161  1.00  0.00     0.202 C 
BRANCH   4   5
ATOM      5  C   UNL A   1      32.079  29.774  26.636  1.00  0.00     0.261 C 
BRANCH   5   6
ATOM      6  O   UNL A   1      33.261  29.711  27.469  1.00  0.00    -0.460 OA
BRANCH   6   7
ATOM      7  C   UNL A   1      34.098  30.648  27.959  1.00  0.00     0.338 C 
ATOM      8  O   UNL A   1      33.702  31.802  28.065  1.00  0.00    -0.246 OA
BRANCH   7   9
ATOM      9  C   UNL A   1      35.511  30.359  28.325  1.00  0.00     0.060 A 
ATOM     10  C   UNL A   1      35.914  29.912  29.579  1.00  0.00     0.016 A 
ATOM     11  C   UNL A   1      36.481  30.457  27.311  1.00  0.00     0.016 A 
ATOM     12  C   UNL A   1      37.236  29.602  29.849  1.00  0.00     0.010 A 
ATOM     13  C   UNL A   1      37.819  30.142  27.566  1.00  0.00     0.010 A 
ATOM     14  C   UNL A   1      38.191  29.725  28.846  1.00  0.00    -0.014 A 
BRANCH  14  15
ATOM     15  C   UNL A   1      39.584  29.437  29.237  1.00  0.00     0.031 A 
ATOM     16  C   UNL A   1      40.339  30.609  29.831  1.00  0.00     0.074 A 
ATOM     17  C   UNL A   1      40.052  28.213  28.877  1.00  0.00     0.049 A 
ATOM     18  N   UNL A   1      41.616  30.855  29.831  1.00  0.00    -0.248 NA
ATOM     19  C   UNL A   1      39.554  31.708  30.441  1.00  0.00     0.031 C 
ATOM     20  C   UNL A   1      39.228  27.200  28.201  1.00  0.00     0.029 A 
ATOM     21  N   UNL A   1      41.279  27.589  28.955  1.00  0.00    -0.354 N 
ATOM     22  C   UNL A   1      41.801  32.031  30.570  1.00  0.00     0.074 A 
ATOM     23  C   UNL A   1      40.495  32.575  30.816  1.00  0.00     0.031 C 
ATOM     24  C   UNL A   1      39.971  26.129  27.882  1.00  0.00     0.029 A 
ATOM     25  C   UNL A   1      41.324  26.307  28.369  1.00  0.00     0.049 A 
ATOM     26  H   UNL A   1      42.061  28.006  29.385  1.00  0.00     0.167 HD
ATOM     27  C   UNL A   1      43.002  32.445  31.059  1.00  0.00     0.037 A 
ATOM     28  C   UNL A   1      42.372  25.440  28.242  1.00  0.00     0.037 A 
ATOM     29  C   UNL A   1      44.082  31.586  30.696  1.00  0.00     0.049 A 
ATOM     30  C   UNL A   1      43.546  26.097  28.854  1.00  0.00     0.074 A 
ATOM     31  C   UNL A   1      44.936  31.484  29.628  1.00  0.00     0.029 A 
ATOM     32  N   UNL A   1      44.328  30.522  31.525  1.00  0.00    -0.354 N 
ATOM     33  N   UNL A   1      43.755  26.219  30.132  1.00  0.00    -0.248 NA
ATOM     34  C   UNL A   1      44.526  26.751  27.979  1.00  0.00     0.031 C 
ATOM     35  C   UNL A   1      45.530  30.198  29.726  1.00  0.00     0.029 A 
ATOM     36  C   UNL A   1      44.935  29.527  30.792  1.00  0.00     0.049 A 
ATOM     37  H   UNL A   1      44.106  30.477  32.483  1.00  0.00     0.167 HD
ATOM     38  C   UNL A   1      44.717  27.208  30.205  1.00  0.00     0.074 A 
ATOM     39  C   UNL A   1      45.319  27.297  28.896  1.00  0.00     0.031 C 
ATOM     40  C   UNL A   1      44.645  28.161  31.168  1.00  0.00     0.037 A 
BRANCH  27  41
ATOM     41  C   UNL A   1      43.269  33.510  32.083  1.00  0.00     0.064 A 
ATOM     42  C   UNL A   1      43.787  34.756  31.664  1.00  0.00     0.173 A 
ATOM     43  C   UNL A   1      43.310  33.253  33.462  1.00  0.00     0.173 A 
ATOM     44  F   UNL A   1      43.788  35.095  30.365  1.00  0.00    -0.203 F 
ATOM     45  C   UNL A   1      44.363  35.656  32.561  1.00  0.00     0.198 A 
ATOM     46  C   UNL A   1      43.844  34.176  34.364  1.00  0.00     0.198 A 
ATOM     47  F   UNL A   1      42.917  32.070  33.954  1.00  0.00    -0.203 F 
ATOM     48  F   UNL A   1      44.928  36.782  32.107  1.00  0.00    -0.200 F 
ATOM     49  C   UNL A   1      44.395  35.363  33.911  1.00  0.00     0.200 A 
ATOM     50  F   UNL A   1      43.878  33.883  35.671  1.00  0.00    -0.200 F 
ATOM     51  F   UNL A   1      44.981  36.206  34.771  1.00  0.00    -0.200 F 
ENDBRANCH  27  41
BRANCH  28  52
ATOM     52  C   UNL A   1      42.565  24.096  27.578  1.00  0.00     0.064 A 
ATOM     53  C   UNL A   1      42.441  22.849  28.209  1.00  0.00     0.173 A 
ATOM     54  C   UNL A   1      42.909  24.013  26.202  1.00  0.00     0.173 A 
ATOM     55  F   UNL A   1      42.326  22.742  29.536  1.00  0.00    -0.203 F 
ATOM     56  C   UNL A   1      42.499  21.636  27.503  1.00  0.00     0.198 A 
ATOM     57  C   UNL A   1      42.985  22.807  25.501  1.00  0.00     0.198 A 
ATOM     58  F   UNL A   1      43.198  25.106  25.485  1.00  0.00    -0.203 F 
ATOM     59  F   UNL A   1      42.315  20.480  28.158  1.00  0.00    -0.200 F 
ATOM     60  C   UNL A   1      42.750  21.615  26.147  1.00  0.00     0.200 A 
ATOM     61  F   UNL A   1      43.279  22.818  24.193  1.00  0.00    -0.200 F 
ATOM     62  F   UNL A   1      42.793  20.459  25.474  1.00  0.00    -0.200 F 
ENDBRANCH  28  52
BRANCH  40  63
ATOM     63  C   UNL A   1      43.774  27.743  32.328  1.00  0.00     0.064 A 
ATOM     64  C   UNL A   1      44.259  26.881  33.316  1.00  0.00     0.173 A 
ATOM     65  C   UNL A   1      42.407  28.065  32.388  1.00  0.00     0.173 A 
ATOM     66  F   UNL A   1      45.551  26.516  33.313  1.00  0.00    -0.203 F 
ATOM     67  C   UNL A   1      43.417  26.375  34.310  1.00  0.00     0.198 A 
ATOM     68  C   UNL A   1      41.570  27.579  33.386  1.00  0.00     0.198 A 
ATOM     69  F   UNL A   1      41.865  28.860  31.469  1.00  0.00    -0.203 F 
ATOM     70  F   UNL A   1      43.907  25.541  35.238  1.00  0.00    -0.200 F 
ATOM     71  C   UNL A   1      42.075  26.725  34.345  1.00  0.00     0.200 A 
ATOM     72  F   UNL A   1      40.278  27.942  33.410  1.00  0.00    -0.200 F 
ATOM     73  F   UNL A   1      41.271  26.245  35.304  1.00  0.00    -0.200 F 
ENDBRANCH  40  63
ENDBRANCH  14  15
ENDBRANCH   7   9
ENDBRANCH   6   7
ENDBRANCH   5   6
ENDBRANCH   4   5
ENDBRANCH   3   4
ENDBRANCH   2   3
ENDBRANCH   1   2
BRANCH   1  74
ATOM     74  O   UNL A   1      33.314  27.543  22.224  1.00  0.00    -0.376 OA
BRANCH  74  75
ATOM     75  C   UNL A   1      32.648  26.398  22.751  1.00  0.00     0.202 C 
BRANCH  75  76
ATOM     76  C   UNL A   1      33.195  26.020  24.137  1.00  0.00     0.261 C 
BRANCH  76  77
ATOM     77  O   UNL A   1      33.363  24.600  24.295  1.00  0.00    -0.461 OA
BRANCH  77  78
ATOM     78  C   UNL A   1      34.194  24.235  25.313  1.00  0.00     0.335 C 
ATOM     79  O   UNL A   1      33.859  24.122  26.488  1.00  0.00    -0.249 OA
BRANCH  78  80
ATOM     80  C   UNL A   1      35.635  24.015  24.831  1.00  0.00     0.228 C 
ATOM     81  C   UNL A   1      35.601  23.490  23.405  1.00  0.00     0.047 C 
ATOM     82  O   UNL A   1      36.473  23.121  25.586  1.00  0.00    -0.361 OA
ATOM     83  C   UNL A   1      36.845  22.648  23.318  1.00  0.00     0.037 C 
ATOM     84  C   UNL A   1      36.965  22.078  24.720  1.00  0.00     0.138 C 
BRANCH  84  85
ATOM     85  C   UNL A   1      36.145  20.807  25.002  1.00  0.00     0.148 C 
BRANCH  85  86
ATOM     86  N   UNL A   1      35.147  20.957  26.044  1.00  0.00    -0.348 N 
ATOM     87  C   UNL A   1      33.786  20.794  26.030  1.00  0.00     0.268 C 
ATOM     88  H   UNL A   1      35.512  21.224  26.918  1.00  0.00     0.163 HD
ATOM     89  O   UNL A   1      33.212  20.921  27.110  1.00  0.00    -0.268 OA
BRANCH  87  90
ATOM     90  C   UNL A   1      33.114  20.416  24.812  1.00  0.00     0.107 A 
ATOM     91  C   UNL A   1      32.535  21.282  23.885  1.00  0.00     0.033 A 
ATOM     92  N   UNL A   1      33.043  19.156  24.246  1.00  0.00    -0.340 N 
ATOM     93  C   UNL A   1      32.104  20.539  22.767  1.00  0.00     0.020 A 
ATOM     94  C   UNL A   1      32.447  19.231  23.009  1.00  0.00     0.086 A 
BRANCH  92  95
ATOM     95  C   UNL A   1      33.385  17.849  24.787  1.00  0.00     0.087 C 
ATOM     96  C   UNL A   1      33.395  16.522  24.064  1.00  0.00     0.027 C 
ATOM     97  C   UNL A   1      34.690  17.167  24.416  1.00  0.00     0.027 C 
ENDBRANCH  92  95
ENDBRANCH  87  90
ENDBRANCH  85  86
ENDBRANCH  84  85
ENDBRANCH  78  80
ENDBRANCH  77  78
ENDBRANCH  76  77
ENDBRANCH  75  76
ENDBRANCH  74  75
ENDBRANCH   1  74
TORSDOF 21
ENDMDL
MODEL 3
REMARK VINA RESULT:     -10.4      3.805      6.041
REMARK SMILES O=C(OCCOCCOCCOC(=O)[C@@H]1CC[C@H](CNC(=O)c2cccn2C2CC2)O1)c1ccc(-c2c3nc(c(-c4c(F)c(F)c(F)c(F)c4F)c4ccc([nH]4)c(-c4c(F)c(F)c(F)c(F)c4F)c4nc(c(-c5c(F)c(F)c(F)c(F)c5F)c5ccc2[nH]5)C=C4)C=C3)cc1
REMARK SMILES IDX 8 1 7 2 6 3 5 4 4 5 3 6 2 7 1 8 32 9 33 10 94 11 34 12 93 13
REMARK SMILES IDX 35 14 36 15 37 16 87 17 38 18 92 19 86 20 88 21 39 22 91 23
REMARK SMILES IDX 85 24 84 25 40 27 72 28 52 29 71 30 53 31 56 32 70 33 89 34
REMARK SMILES IDX 54 35 55 36 69 38 90 39 57 40 41 41 42 42 50 43 43 44 44 45
REMARK SMILES IDX 48 46 51 47 45 48 46 49 49 50 47 51 73 52 74 53 82 54 75 55
REMARK SMILES IDX 76 56 80 57 83 58 77 59 78 60 81 61 79 62 58 63 59 64 67 65
REMARK SMILES IDX 60 66 61 67 65 68 68 69 62 70 63 71 66 72 64 73 9 74 10 75
REMARK SMILES IDX 11 76 12 77 13 78 14 79 15 80 16 81 31 82 17 83 18 84 19 85
REMARK SMILES IDX 20 86 21 87 22 89 23 90 24 91 27 92 25 93 26 94 28 95 29 96
REMARK SMILES IDX 30 97
REMARK H PARENT 88 26 56 37 20 88
REMARK Flexibility Score: inf
ROOT
ATOM      1  C   UNL A   1      34.145  29.305  26.946  1.00  0.00     0.188 C 
ENDROOT
BRANCH   1   2
ATOM      2  C   UNL A   1      33.435  30.599  27.375  1.00  0.00     0.188 C 
BRANCH   2   3
ATOM      3  O   UNL A   1      32.086  30.614  26.884  1.00  0.00    -0.376 OA
BRANCH   3   4
ATOM      4  C   UNL A   1      31.459  31.885  26.931  1.00  0.00     0.202 C 
BRANCH   4   5
ATOM      5  C   UNL A   1      32.457  33.060  26.899  1.00  0.00     0.261 C 
BRANCH   5   6
ATOM      6  O   UNL A   1      32.156  34.100  27.859  1.00  0.00    -0.460 OA
BRANCH   6   7
ATOM      7  C   UNL A   1      32.904  34.778  28.753  1.00  0.00     0.338 C 
ATOM      8  O   UNL A   1      32.570  35.912  29.071  1.00  0.00    -0.246 OA
BRANCH   7   9
ATOM      9  C   UNL A   1      34.162  34.233  29.334  1.00  0.00     0.060 A 
ATOM     10  C   UNL A   1      34.203  33.337  30.397  1.00  0.00     0.016 A 
ATOM     11  C   UNL A   1      35.373  34.576  28.707  1.00  0.00     0.016 A 
ATOM     12  C   UNL A   1      35.399  32.816  30.861  1.00  0.00     0.010 A 
ATOM     13  C   UNL A   1      36.588  34.054  29.159  1.00  0.00     0.010 A 
ATOM     14  C   UNL A   1      36.593  33.180  30.249  1.00  0.00    -0.014 A 
BRANCH  14  15
ATOM     15  C   UNL A   1      37.824  32.630  30.847  1.00  0.00     0.031 A 
ATOM     16  C   UNL A   1      38.308  31.331  30.235  1.00  0.00     0.074 A 
ATOM     17  C   UNL A   1      38.274  33.271  31.958  1.00  0.00     0.049 A 
ATOM     18  N   UNL A   1      39.007  30.374  30.771  1.00  0.00    -0.248 NA
ATOM     19  C   UNL A   1      37.885  31.011  28.851  1.00  0.00     0.031 C 
ATOM     20  C   UNL A   1      37.633  34.474  32.510  1.00  0.00     0.029 A 
ATOM     21  N   UNL A   1      39.294  33.043  32.855  1.00  0.00    -0.354 N 
ATOM     22  C   UNL A   1      39.244  29.431  29.762  1.00  0.00     0.074 A 
ATOM     23  C   UNL A   1      38.433  29.814  28.641  1.00  0.00     0.031 C 
ATOM     24  C   UNL A   1      38.229  34.836  33.657  1.00  0.00     0.029 A 
ATOM     25  C   UNL A   1      39.344  33.952  33.932  1.00  0.00     0.049 A 
ATOM     26  H   UNL A   1      39.938  32.304  32.752  1.00  0.00     0.167 HD
ATOM     27  C   UNL A   1      40.187  28.453  29.837  1.00  0.00     0.037 A 
ATOM     28  C   UNL A   1      40.192  33.996  35.002  1.00  0.00     0.037 A 
ATOM     29  C   UNL A   1      40.885  28.440  31.081  1.00  0.00     0.049 A 
ATOM     30  C   UNL A   1      41.123  32.858  34.854  1.00  0.00     0.074 A 
ATOM     31  C   UNL A   1      40.683  27.868  32.311  1.00  0.00     0.029 A 
ATOM     32  N   UNL A   1      41.990  29.246  31.176  1.00  0.00    -0.354 N 
ATOM     33  N   UNL A   1      42.120  32.806  34.020  1.00  0.00    -0.248 NA
ATOM     34  C   UNL A   1      40.877  31.639  35.634  1.00  0.00     0.031 C 
ATOM     35  C   UNL A   1      41.557  28.544  33.203  1.00  0.00     0.029 A 
ATOM     36  C   UNL A   1      42.180  29.573  32.499  1.00  0.00     0.049 A 
ATOM     37  H   UNL A   1      42.552  29.541  30.423  1.00  0.00     0.167 HD
ATOM     38  C   UNL A   1      42.423  31.460  33.967  1.00  0.00     0.074 A 
ATOM     39  C   UNL A   1      41.830  30.856  35.135  1.00  0.00     0.031 C 
ATOM     40  C   UNL A   1      42.738  30.877  32.782  1.00  0.00     0.037 A 
BRANCH  27  41
ATOM     41  C   UNL A   1      40.715  27.587  28.730  1.00  0.00     0.064 A 
ATOM     42  C   UNL A   1      41.606  28.142  27.785  1.00  0.00     0.173 A 
ATOM     43  C   UNL A   1      40.160  26.340  28.403  1.00  0.00     0.173 A 
ATOM     44  F   UNL A   1      42.191  29.328  28.010  1.00  0.00    -0.203 F 
ATOM     45  C   UNL A   1      41.873  27.517  26.566  1.00  0.00     0.198 A 
ATOM     46  C   UNL A   1      40.466  25.694  27.202  1.00  0.00     0.198 A 
ATOM     47  F   UNL A   1      39.244  25.765  29.194  1.00  0.00    -0.203 F 
ATOM     48  F   UNL A   1      42.649  28.126  25.659  1.00  0.00    -0.200 F 
ATOM     49  C   UNL A   1      41.299  26.294  26.274  1.00  0.00     0.200 A 
ATOM     50  F   UNL A   1      39.900  24.512  26.923  1.00  0.00    -0.200 F 
ATOM     51  F   UNL A   1      41.522  25.710  25.090  1.00  0.00    -0.200 F 
ENDBRANCH  27  41
BRANCH  28  52
ATOM     52  C   UNL A   1      40.298  34.856  36.240  1.00  0.00     0.064 A 
ATOM     53  C   UNL A   1      39.376  34.879  37.298  1.00  0.00     0.173 A 
ATOM     54  C   UNL A   1      41.391  35.746  36.410  1.00  0.00     0.173 A 
ATOM     55  F   UNL A   1      38.193  34.264  37.212  1.00  0.00    -0.203 F 
ATOM     56  C   UNL A   1      39.603  35.601  38.482  1.00  0.00     0.198 A 
ATOM     57  C   UNL A   1      41.610  36.479  37.579  1.00  0.00     0.198 A 
ATOM     58  F   UNL A   1      42.288  35.948  35.437  1.00  0.00    -0.203 F 
ATOM     59  F   UNL A   1      38.709  35.534  39.479  1.00  0.00    -0.200 F 
ATOM     60  C   UNL A   1      40.728  36.384  38.631  1.00  0.00     0.200 A 
ATOM     61  F   UNL A   1      42.689  37.269  37.674  1.00  0.00    -0.200 F 
ATOM     62  F   UNL A   1      40.949  37.061  39.764  1.00  0.00    -0.200 F 
ENDBRANCH  28  52
BRANCH  40  63
ATOM     63  C   UNL A   1      43.173  31.882  31.744  1.00  0.00     0.064 A 
ATOM     64  C   UNL A   1      44.494  32.337  31.693  1.00  0.00     0.173 A 
ATOM     65  C   UNL A   1      42.254  32.520  30.893  1.00  0.00     0.173 A 
ATOM     66  F   UNL A   1      45.424  31.786  32.489  1.00  0.00    -0.203 F 
ATOM     67  C   UNL A   1      44.870  33.372  30.833  1.00  0.00     0.198 A 
ATOM     68  C   UNL A   1      42.627  33.537  30.022  1.00  0.00     0.198 A 
ATOM     69  F   UNL A   1      40.972  32.161  30.900  1.00  0.00    -0.203 F 
ATOM     70  F   UNL A   1      46.141  33.795  30.813  1.00  0.00    -0.200 F 
ATOM     71  C   UNL A   1      43.937  33.970  29.997  1.00  0.00     0.200 A 
ATOM     72  F   UNL A   1      41.712  34.091  29.211  1.00  0.00    -0.200 F 
ATOM     73  F   UNL A   1      44.301  34.956  29.166  1.00  0.00    -0.200 F 
ENDBRANCH  40  63
ENDBRANCH  14  15
ENDBRANCH   7   9
ENDBRANCH   6   7
ENDBRANCH   5   6
ENDBRANCH   4   5
ENDBRANCH   3   4
ENDBRANCH   2   3
ENDBRANCH   1   2
BRANCH   1  74
ATOM     74  O   UNL A   1      33.574  28.588  25.847  1.00  0.00    -0.376 OA
BRANCH  74  75
ATOM     75  C   UNL A   1      33.782  27.179  25.840  1.00  0.00     0.202 C 
BRANCH  75  76
ATOM     76  C   UNL A   1      33.523  26.581  24.448  1.00  0.00     0.261 C 
BRANCH  76  77
ATOM     77  O   UNL A   1      34.350  25.435  24.177  1.00  0.00    -0.461 OA
BRANCH  77  78
ATOM     78  C   UNL A   1      34.237  24.423  25.084  1.00  0.00     0.335 C 
ATOM     79  O   UNL A   1      33.191  24.074  25.622  1.00  0.00    -0.249 OA
BRANCH  78  80
ATOM     80  C   UNL A   1      35.594  23.780  25.402  1.00  0.00     0.228 C 
ATOM     81  C   UNL A   1      36.262  23.374  24.098  1.00  0.00     0.047 C 
ATOM     82  O   UNL A   1      35.611  22.622  26.258  1.00  0.00    -0.361 OA
ATOM     83  C   UNL A   1      37.093  22.183  24.493  1.00  0.00     0.037 C 
ATOM     84  C   UNL A   1      36.251  21.527  25.572  1.00  0.00     0.138 C 
BRANCH  84  85
ATOM     85  C   UNL A   1      35.149  20.573  25.078  1.00  0.00     0.148 C 
BRANCH  85  86
ATOM     86  N   UNL A   1      33.807  20.944  25.489  1.00  0.00    -0.348 N 
ATOM     87  C   UNL A   1      32.577  20.503  25.079  1.00  0.00     0.268 C 
ATOM     88  H   UNL A   1      33.776  21.637  26.187  1.00  0.00     0.163 HD
ATOM     89  O   UNL A   1      31.607  20.962  25.679  1.00  0.00    -0.268 OA
BRANCH  87  90
ATOM     90  C   UNL A   1      32.473  19.498  24.051  1.00  0.00     0.107 A 
ATOM     91  C   UNL A   1      32.268  19.725  22.690  1.00  0.00     0.033 A 
ATOM     92  N   UNL A   1      32.704  18.140  24.175  1.00  0.00    -0.340 N 
ATOM     93  C   UNL A   1      32.365  18.500  21.999  1.00  0.00     0.020 A 
ATOM     94  C   UNL A   1      32.652  17.540  22.938  1.00  0.00     0.086 A 
BRANCH  92  95
ATOM     95  C   UNL A   1      32.871  17.307  25.357  1.00  0.00     0.087 C 
ATOM     96  C   UNL A   1      32.599  15.828  25.493  1.00  0.00     0.027 C 
ATOM     97  C   UNL A   1      34.008  16.306  25.454  1.00  0.00     0.027 C 
ENDBRANCH  92  95
ENDBRANCH  87  90
ENDBRANCH  85  86
ENDBRANCH  84  85
ENDBRANCH  78  80
ENDBRANCH  77  78
ENDBRANCH  76  77
ENDBRANCH  75  76
ENDBRANCH  74  75
ENDBRANCH   1  74
TORSDOF 21
ENDMDL
