MODEL 1
REMARK VINA RESULT:     -13.0      0.000      0.000
REMARK SMILES Cc1ccc(C(=O)NC2(CC(=O)OCCOCCOCCOC(=O)c3ccc(-c4c5nc(c(-c6c(F)c(F)c(F)c(F)c6F)c6ccc([nH]6)c(-c6c(F)c(F)c(F)c(F)c6F)c6nc(c(-c7c(F)c(F)c(F)c(F)c7F)c7ccc4[nH]7)C=C6)C=C5)cc3)CCC2)cc1
REMARK SMILES IDX 17 1 16 2 15 3 14 4 13 5 11 6 12 7 10 8 9 9 88 10 90 11
REMARK SMILES IDX 89 12 8 13 6 14 7 15 5 17 1 18 2 19 3 20 92 21 4 22 91 23
REMARK SMILES IDX 18 24 19 25 20 26 21 27 22 28 23 29 24 30 25 31 26 32 87 33
REMARK SMILES IDX 27 34 86 35 28 36 29 37 30 38 80 39 31 40 85 41 79 42 81 43
REMARK SMILES IDX 32 44 84 45 78 46 77 47 33 49 65 50 45 51 64 52 46 53 49 54
REMARK SMILES IDX 63 55 82 56 47 57 48 58 62 60 83 61 50 62 34 63 35 64 43 65
REMARK SMILES IDX 36 66 37 67 41 68 44 69 38 70 39 71 42 72 40 73 66 74 67 75
REMARK SMILES IDX 75 76 68 77 69 78 73 79 76 80 70 81 71 82 74 83 72 84 51 85
REMARK SMILES IDX 52 86 60 87 53 88 54 89 58 90 61 91 55 92 56 93 59 94 57 95
REMARK H PARENT 8 16 81 48 49 59
REMARK Flexibility Score: inf
ROOT
ATOM      1  C   UNL A   1      35.157  32.415  27.921  1.00  0.00     0.188 C 
ENDROOT
BRANCH   1   2
ATOM      2  O   UNL A   1      35.099  31.031  27.688  1.00  0.00    -0.376 OA
BRANCH   2   3
ATOM      3  C   UNL A   1      33.836  30.389  27.542  1.00  0.00     0.202 C 
BRANCH   3   4
ATOM      4  C   UNL A   1      32.936  30.177  26.147  1.00  0.00     0.261 C 
BRANCH   4   5
ATOM      5  O   UNL A   1      33.056  29.521  24.548  1.00  0.00    -0.463 OA
BRANCH   5   6
ATOM      6  C   UNL A   1      32.838  28.573  23.513  1.00  0.00     0.308 C 
ATOM      7  O   UNL A   1      33.543  28.261  22.535  1.00  0.00    -0.252 OA
BRANCH   6   8
ATOM      8  C   UNL A   1      31.862  27.538  23.817  1.00  0.00     0.151 C 
BRANCH   8   9
ATOM      9  C   UNL A   1      30.982  27.788  22.637  1.00  0.00     0.051 C 
ATOM     10  C   UNL A   1      30.736  29.363  22.380  1.00  0.00     0.029 C 
ATOM     11  C   UNL A   1      29.397  27.983  23.174  1.00  0.00     0.029 C 
ATOM     12  C   UNL A   1      29.797  29.387  23.632  1.00  0.00     0.005 C 
BRANCH   9  13
ATOM     13  N   UNL A   1      31.602  26.665  21.276  1.00  0.00    -0.346 N 
ATOM     14  C   UNL A   1      32.669  25.255  21.149  1.00  0.00     0.251 C 
ATOM     15  O   UNL A   1      33.165  25.260  20.014  1.00  0.00    -0.269 OA
ATOM     16  H   UNL A   1      31.240  26.928  20.398  1.00  0.00     0.164 HD
BRANCH  14  17
ATOM     17  C   UNL A   1      33.238  23.804  22.251  1.00  0.00     0.039 A 
ATOM     18  C   UNL A   1      35.140  20.900  25.464  1.00  0.00     0.044 C 
ATOM     19  C   UNL A   1      34.344  21.726  24.483  1.00  0.00    -0.051 A 
ATOM     20  C   UNL A   1      33.105  21.634  23.830  1.00  0.00     0.004 A 
ATOM     21  C   UNL A   1      34.953  22.859  24.117  1.00  0.00     0.004 A 
ATOM     22  C   UNL A   1      32.540  22.690  22.799  1.00  0.00     0.014 A 
ATOM     23  C   UNL A   1      34.446  23.662  23.022  1.00  0.00     0.014 A 
ENDBRANCH  14  17
ENDBRANCH   9  13
ENDBRANCH   8   9
ENDBRANCH   6   8
ENDBRANCH   5   6
ENDBRANCH   4   5
ENDBRANCH   3   4
ENDBRANCH   2   3
ENDBRANCH   1   2
BRANCH   1  24
ATOM     24  C   UNL A   1      34.455  32.843  29.194  1.00  0.00     0.188 C 
BRANCH  24  25
ATOM     25  O   UNL A   1      35.304  32.843  30.322  1.00  0.00    -0.376 OA
BRANCH  25  26
ATOM     26  C   UNL A   1      34.863  32.350  31.569  1.00  0.00     0.202 C 
BRANCH  26  27
ATOM     27  C   UNL A   1      35.736  33.106  32.534  1.00  0.00     0.261 C 
BRANCH  27  28
ATOM     28  O   UNL A   1      37.090  32.545  32.313  1.00  0.00    -0.460 OA
BRANCH  28  29
ATOM     29  C   UNL A   1      37.435  31.467  33.098  1.00  0.00     0.338 C 
ATOM     30  O   UNL A   1      37.530  31.536  34.303  1.00  0.00    -0.246 OA
BRANCH  29  31
ATOM     31  C   UNL A   1      37.915  30.212  32.288  1.00  0.00     0.060 A 
ATOM     32  C   UNL A   1      38.934  29.498  32.868  1.00  0.00     0.016 A 
ATOM     33  C   UNL A   1      37.728  29.803  30.953  1.00  0.00     0.016 A 
ATOM     34  C   UNL A   1      39.797  28.605  32.075  1.00  0.00     0.010 A 
ATOM     35  C   UNL A   1      38.683  28.857  30.188  1.00  0.00     0.010 A 
ATOM     36  C   UNL A   1      39.887  28.321  30.716  1.00  0.00    -0.014 A 
BRANCH  36  37
ATOM     37  C   UNL A   1      41.331  27.735  29.916  1.00  0.00     0.031 A 
ATOM     38  C   UNL A   1      42.100  28.821  29.232  1.00  0.00     0.074 A 
ATOM     39  C   UNL A   1      41.999  26.632  29.232  1.00  0.00     0.049 A 
ATOM     40  N   UNL A   1      43.177  28.626  28.520  1.00  0.00    -0.248 NA
ATOM     41  C   UNL A   1      41.806  30.236  29.398  1.00  0.00     0.031 C 
ATOM     42  C   UNL A   1      43.208  26.016  29.865  1.00  0.00     0.029 A 
ATOM     43  N   UNL A   1      41.753  25.540  28.359  1.00  0.00    -0.354 N 
ATOM     44  C   UNL A   1      43.960  29.647  28.955  1.00  0.00     0.074 A 
ATOM     45  C   UNL A   1      43.012  30.732  29.085  1.00  0.00     0.031 C 
ATOM     46  C   UNL A   1      43.422  24.727  29.479  1.00  0.00     0.029 A 
ATOM     47  C   UNL A   1      42.373  24.287  28.557  1.00  0.00     0.049 A 
ATOM     48  H   UNL A   1      41.136  25.658  27.600  1.00  0.00     0.167 HD
ATOM     49  C   UNL A   1      45.104  29.312  29.633  1.00  0.00     0.037 A 
ATOM     50  C   UNL A   1      42.373  23.145  27.761  1.00  0.00     0.037 A 
ATOM     51  C   UNL A   1      45.628  27.929  29.386  1.00  0.00     0.049 A 
ATOM     52  C   UNL A   1      43.578  23.333  26.913  1.00  0.00     0.074 A 
ATOM     53  C   UNL A   1      46.254  26.962  30.173  1.00  0.00     0.029 A 
ATOM     54  N   UNL A   1      45.407  27.268  28.162  1.00  0.00    -0.354 N 
ATOM     55  N   UNL A   1      44.209  24.456  27.037  1.00  0.00    -0.248 NA
ATOM     56  C   UNL A   1      44.208  22.458  25.936  1.00  0.00     0.031 C 
ATOM     57  C   UNL A   1      46.530  25.810  29.377  1.00  0.00     0.029 A 
ATOM     58  C   UNL A   1      46.088  26.058  28.088  1.00  0.00     0.049 A 
ATOM     59  H   UNL A   1      44.838  27.621  27.441  1.00  0.00     0.167 HD
ATOM     60  C   UNL A   1      45.403  24.385  26.455  1.00  0.00     0.074 A 
ATOM     61  C   UNL A   1      45.278  23.213  25.596  1.00  0.00     0.031 C 
ATOM     62  C   UNL A   1      46.295  25.341  26.817  1.00  0.00     0.037 A 
BRANCH  49  63
ATOM     63  C   UNL A   1      45.675  30.236  30.711  1.00  0.00     0.064 A 
ATOM     64  C   UNL A   1      45.115  30.260  32.003  1.00  0.00     0.173 A 
ATOM     65  C   UNL A   1      46.743  31.152  30.534  1.00  0.00     0.173 A 
ATOM     66  F   UNL A   1      44.055  29.507  32.319  1.00  0.00    -0.203 F 
ATOM     67  C   UNL A   1      45.622  31.065  33.030  1.00  0.00     0.198 A 
ATOM     68  C   UNL A   1      47.316  31.871  31.584  1.00  0.00     0.198 A 
ATOM     69  F   UNL A   1      47.237  31.471  29.332  1.00  0.00    -0.203 F 
ATOM     70  F   UNL A   1      45.003  31.089  34.217  1.00  0.00    -0.200 F 
ATOM     71  C   UNL A   1      46.754  31.828  32.836  1.00  0.00     0.200 A 
ATOM     72  F   UNL A   1      48.402  32.624  31.354  1.00  0.00    -0.200 F 
ATOM     73  F   UNL A   1      47.281  32.542  33.837  1.00  0.00    -0.200 F 
ENDBRANCH  49  63
BRANCH  50  74
ATOM     74  C   UNL A   1      41.178  22.285  27.350  1.00  0.00     0.064 A 
ATOM     75  C   UNL A   1      39.950  22.878  26.969  1.00  0.00     0.173 A 
ATOM     76  C   UNL A   1      41.241  20.904  27.112  1.00  0.00     0.173 A 
ATOM     77  F   UNL A   1      39.692  24.156  27.300  1.00  0.00    -0.203 F 
ATOM     78  C   UNL A   1      38.986  22.213  26.174  1.00  0.00     0.198 A 
ATOM     79  C   UNL A   1      40.276  20.228  26.327  1.00  0.00     0.198 A 
ATOM     80  F   UNL A   1      42.284  20.201  27.574  1.00  0.00    -0.203 F 
ATOM     81  F   UNL A   1      37.942  22.893  25.666  1.00  0.00    -0.200 F 
ATOM     82  C   UNL A   1      39.172  20.894  25.820  1.00  0.00     0.200 A 
ATOM     83  F   UNL A   1      40.462  18.939  26.003  1.00  0.00    -0.200 F 
ATOM     84  F   UNL A   1      38.325  20.284  24.973  1.00  0.00    -0.200 F 
ENDBRANCH  50  74
BRANCH  62  85
ATOM     85  C   UNL A   1      47.451  25.720  25.987  1.00  0.00     0.064 A 
ATOM     86  C   UNL A   1      47.381  26.529  24.857  1.00  0.00     0.173 A 
ATOM     87  C   UNL A   1      48.736  25.325  26.418  1.00  0.00     0.173 A 
ATOM     88  F   UNL A   1      46.214  26.794  24.256  1.00  0.00    -0.203 F 
ATOM     89  C   UNL A   1      48.535  27.072  24.308  1.00  0.00     0.198 A 
ATOM     90  C   UNL A   1      49.882  25.813  25.829  1.00  0.00     0.198 A 
ATOM     91  F   UNL A   1      48.932  24.497  27.450  1.00  0.00    -0.203 F 
ATOM     92  F   UNL A   1      48.434  27.952  23.305  1.00  0.00    -0.200 F 
ATOM     93  C   UNL A   1      49.781  26.728  24.807  1.00  0.00     0.200 A 
ATOM     94  F   UNL A   1      51.074  25.422  26.296  1.00  0.00    -0.200 F 
ATOM     95  F   UNL A   1      50.889  27.276  24.298  1.00  0.00    -0.200 F 
ENDBRANCH  62  85
ENDBRANCH  36  37
ENDBRANCH  29  31
ENDBRANCH  28  29
ENDBRANCH  27  28
ENDBRANCH  26  27
ENDBRANCH  25  26
ENDBRANCH  24  25
ENDBRANCH   1  24
TORSDOF 20
ENDMDL
MODEL 2
REMARK VINA RESULT:     -12.6      3.359      9.367
REMARK SMILES Cc1ccc(C(=O)NC2(CC(=O)OCCOCCOCCOC(=O)c3ccc(-c4c5nc(c(-c6c(F)c(F)c(F)c(F)c6F)c6ccc([nH]6)c(-c6c(F)c(F)c(F)c(F)c6F)c6nc(c(-c7c(F)c(F)c(F)c(F)c7F)c7ccc4[nH]7)C=C6)C=C5)cc3)CCC2)cc1
REMARK SMILES IDX 17 1 16 2 15 3 14 4 13 5 11 6 12 7 10 8 9 9 88 10 90 11
REMARK SMILES IDX 89 12 8 13 6 14 7 15 5 17 1 18 2 19 3 20 92 21 4 22 91 23
REMARK SMILES IDX 18 24 19 25 20 26 21 27 22 28 23 29 24 30 25 31 26 32 87 33
REMARK SMILES IDX 27 34 86 35 28 36 29 37 30 38 80 39 31 40 85 41 79 42 81 43
REMARK SMILES IDX 32 44 84 45 78 46 77 47 33 49 65 50 45 51 64 52 46 53 49 54
REMARK SMILES IDX 63 55 82 56 47 57 48 58 62 60 83 61 50 62 34 63 35 64 43 65
REMARK SMILES IDX 36 66 37 67 41 68 44 69 38 70 39 71 42 72 40 73 66 74 67 75
REMARK SMILES IDX 75 76 68 77 69 78 73 79 76 80 70 81 71 82 74 83 72 84 51 85
REMARK SMILES IDX 52 86 60 87 53 88 54 89 58 90 61 91 55 92 56 93 59 94 57 95
REMARK H PARENT 8 16 81 48 49 59
REMARK Flexibility Score: inf
ROOT
ATOM      1  C   UNL A   1      32.424  22.765  22.001  1.00  0.00     0.188 C 
ENDROOT
BRANCH   1   2
ATOM      2  O   UNL A   1      33.314  23.641  21.359  1.00  0.00    -0.376 OA
BRANCH   2   3
ATOM      3  C   UNL A   1      32.859  24.918  20.921  1.00  0.00     0.202 C 
BRANCH   3   4
ATOM      4  C   UNL A   1      32.809  26.352  21.782  1.00  0.00     0.261 C 
BRANCH   4   5
ATOM      5  O   UNL A   1      33.456  27.097  23.207  1.00  0.00    -0.463 OA
BRANCH   5   6
ATOM      6  C   UNL A   1      33.627  28.126  24.170  1.00  0.00     0.308 C 
ATOM      7  O   UNL A   1      33.407  29.350  24.101  1.00  0.00    -0.252 OA
BRANCH   6   8
ATOM      8  C   UNL A   1      33.694  27.675  25.552  1.00  0.00     0.151 C 
BRANCH   8   9
ATOM      9  C   UNL A   1      32.356  28.198  25.961  1.00  0.00     0.051 C 
ATOM     10  C   UNL A   1      32.394  29.775  26.303  1.00  0.00     0.029 C 
ATOM     11  C   UNL A   1      32.262  28.190  27.643  1.00  0.00     0.029 C 
ATOM     12  C   UNL A   1      33.150  29.437  27.631  1.00  0.00     0.005 C 
BRANCH   9  13
ATOM     13  N   UNL A   1      31.126  27.496  24.741  1.00  0.00    -0.346 N 
ATOM     14  C   UNL A   1      29.800  28.117  23.741  1.00  0.00     0.251 C 
ATOM     15  O   UNL A   1      28.990  27.194  23.575  1.00  0.00    -0.269 OA
ATOM     16  H   UNL A   1      31.245  26.525  24.624  1.00  0.00     0.164 HD
BRANCH  14  17
ATOM     17  C   UNL A   1      29.307  29.758  22.900  1.00  0.00     0.039 A 
ATOM     18  C   UNL A   1      27.472  33.262  20.305  1.00  0.00     0.044 C 
ATOM     19  C   UNL A   1      28.024  32.275  21.305  1.00  0.00    -0.051 A 
ATOM     20  C   UNL A   1      28.509  32.309  22.622  1.00  0.00     0.004 A 
ATOM     21  C   UNL A   1      28.080  31.020  20.846  1.00  0.00     0.004 A 
ATOM     22  C   UNL A   1      29.063  31.062  23.419  1.00  0.00     0.014 A 
ATOM     23  C   UNL A   1      28.784  29.985  21.577  1.00  0.00     0.014 A 
ENDBRANCH  14  17
ENDBRANCH   9  13
ENDBRANCH   8   9
ENDBRANCH   6   8
ENDBRANCH   5   6
ENDBRANCH   4   5
ENDBRANCH   3   4
ENDBRANCH   2   3
ENDBRANCH   1   2
BRANCH   1  24
ATOM     24  C   UNL A   1      32.989  22.148  23.265  1.00  0.00     0.188 C 
BRANCH  24  25
ATOM     25  O   UNL A   1      32.031  22.016  24.294  1.00  0.00    -0.376 OA
BRANCH  25  26
ATOM     26  C   UNL A   1      32.022  20.889  25.145  1.00  0.00     0.202 C 
BRANCH  26  27
ATOM     27  C   UNL A   1      32.817  19.888  24.350  1.00  0.00     0.261 C 
BRANCH  27  28
ATOM     28  O   UNL A   1      33.781  19.332  25.329  1.00  0.00    -0.460 OA
BRANCH  28  29
ATOM     29  C   UNL A   1      35.092  19.258  24.915  1.00  0.00     0.338 C 
ATOM     30  O   UNL A   1      35.665  18.206  24.736  1.00  0.00    -0.246 OA
BRANCH  29  31
ATOM     31  C   UNL A   1      35.845  20.634  24.917  1.00  0.00     0.060 A 
ATOM     32  C   UNL A   1      37.179  20.571  24.603  1.00  0.00     0.016 A 
ATOM     33  C   UNL A   1      35.525  21.901  25.443  1.00  0.00     0.016 A 
ATOM     34  C   UNL A   1      38.115  21.640  24.993  1.00  0.00     0.010 A 
ATOM     35  C   UNL A   1      36.569  22.976  25.828  1.00  0.00     0.010 A 
ATOM     36  C   UNL A   1      37.976  22.805  25.742  1.00  0.00    -0.014 A 
BRANCH  36  37
ATOM     37  C   UNL A   1      39.283  23.597  26.598  1.00  0.00     0.031 A 
ATOM     38  C   UNL A   1      40.151  22.641  27.353  1.00  0.00     0.074 A 
ATOM     39  C   UNL A   1      39.760  24.796  27.282  1.00  0.00     0.049 A 
ATOM     40  N   UNL A   1      41.152  22.996  28.113  1.00  0.00    -0.248 NA
ATOM     41  C   UNL A   1      40.057  21.196  27.214  1.00  0.00     0.031 C 
ATOM     42  C   UNL A   1      40.908  25.555  26.694  1.00  0.00     0.029 A 
ATOM     43  N   UNL A   1      39.322  25.865  28.109  1.00  0.00    -0.354 N 
ATOM     44  C   UNL A   1      42.087  22.079  27.750  1.00  0.00     0.074 A 
ATOM     45  C   UNL A   1      41.299  20.874  27.603  1.00  0.00     0.031 C 
ATOM     46  C   UNL A   1      40.928  26.869  27.053  1.00  0.00     0.029 A 
ATOM     47  C   UNL A   1      39.780  27.185  27.905  1.00  0.00     0.049 A 
ATOM     48  H   UNL A   1      38.686  25.681  28.838  1.00  0.00     0.167 HD
ATOM     49  C   UNL A   1      43.212  22.550  27.123  1.00  0.00     0.037 A 
ATOM     50  C   UNL A   1      39.584  28.334  28.666  1.00  0.00     0.037 A 
ATOM     51  C   UNL A   1      43.532  23.996  27.354  1.00  0.00     0.049 A 
ATOM     52  C   UNL A   1      40.755  28.329  29.580  1.00  0.00     0.074 A 
ATOM     53  C   UNL A   1      44.066  25.020  26.573  1.00  0.00     0.029 A 
ATOM     54  N   UNL A   1      43.158  24.649  28.545  1.00  0.00    -0.354 N 
ATOM     55  N   UNL A   1      41.535  27.298  29.522  1.00  0.00    -0.248 NA
ATOM     56  C   UNL A   1      41.207  29.303  30.562  1.00  0.00     0.031 C 
ATOM     57  C   UNL A   1      44.142  26.217  27.347  1.00  0.00     0.029 A 
ATOM     58  C   UNL A   1      43.666  25.941  28.618  1.00  0.00     0.049 A 
ATOM     59  H   UNL A   1      42.602  24.238  29.246  1.00  0.00     0.167 HD
ATOM     60  C   UNL A   1      42.675  27.543  30.163  1.00  0.00     0.074 A 
ATOM     61  C   UNL A   1      42.349  28.707  30.979  1.00  0.00     0.031 C 
ATOM     62  C   UNL A   1      43.705  26.708  29.876  1.00  0.00     0.037 A 
BRANCH  49  63
ATOM     63  C   UNL A   1      43.959  21.687  26.104  1.00  0.00     0.064 A 
ATOM     64  C   UNL A   1      45.240  22.058  25.654  1.00  0.00     0.173 A 
ATOM     65  C   UNL A   1      43.460  20.506  25.497  1.00  0.00     0.173 A 
ATOM     66  F   UNL A   1      45.829  23.184  26.073  1.00  0.00    -0.203 F 
ATOM     67  C   UNL A   1      45.975  21.284  24.747  1.00  0.00     0.198 A 
ATOM     68  C   UNL A   1      44.234  19.680  24.680  1.00  0.00     0.198 A 
ATOM     69  F   UNL A   1      42.181  20.126  25.587  1.00  0.00    -0.203 F 
ATOM     70  F   UNL A   1      47.161  21.727  24.310  1.00  0.00    -0.200 F 
ATOM     71  C   UNL A   1      45.495  20.070  24.303  1.00  0.00     0.200 A 
ATOM     72  F   UNL A   1      43.725  18.517  24.245  1.00  0.00    -0.200 F 
ATOM     73  F   UNL A   1      46.227  19.297  23.493  1.00  0.00    -0.200 F 
ENDBRANCH  49  63
BRANCH  50  74
ATOM     74  C   UNL A   1      38.264  29.035  28.988  1.00  0.00     0.064 A 
ATOM     75  C   UNL A   1      37.685  28.939  30.277  1.00  0.00     0.173 A 
ATOM     76  C   UNL A   1      37.640  29.971  28.151  1.00  0.00     0.173 A 
ATOM     77  F   UNL A   1      38.073  27.962  31.116  1.00  0.00    -0.203 F 
ATOM     78  C   UNL A   1      36.752  29.880  30.774  1.00  0.00     0.198 A 
ATOM     79  C   UNL A   1      36.698  30.910  28.638  1.00  0.00     0.198 A 
ATOM     80  F   UNL A   1      37.992  30.040  26.860  1.00  0.00    -0.203 F 
ATOM     81  F   UNL A   1      36.399  29.862  32.072  1.00  0.00    -0.200 F 
ATOM     82  C   UNL A   1      36.289  30.892  29.961  1.00  0.00     0.200 A 
ATOM     83  F   UNL A   1      36.243  31.880  27.830  1.00  0.00    -0.200 F 
ATOM     84  F   UNL A   1      35.494  31.858  30.452  1.00  0.00    -0.200 F 
ENDBRANCH  50  74
BRANCH  62  85
ATOM     85  C   UNL A   1      44.854  26.507  30.776  1.00  0.00     0.064 A 
ATOM     86  C   UNL A   1      45.924  27.389  30.899  1.00  0.00     0.173 A 
ATOM     87  C   UNL A   1      44.827  25.402  31.653  1.00  0.00     0.173 A 
ATOM     88  F   UNL A   1      46.148  28.350  29.994  1.00  0.00    -0.203 F 
ATOM     89  C   UNL A   1      46.807  27.278  31.964  1.00  0.00     0.198 A 
ATOM     90  C   UNL A   1      45.745  25.257  32.669  1.00  0.00     0.198 A 
ATOM     91  F   UNL A   1      43.887  24.451  31.590  1.00  0.00    -0.203 F 
ATOM     92  F   UNL A   1      47.749  28.214  32.136  1.00  0.00    -0.200 F 
ATOM     93  C   UNL A   1      46.705  26.224  32.858  1.00  0.00     0.200 A 
ATOM     94  F   UNL A   1      45.654  24.200  33.485  1.00  0.00    -0.200 F 
ATOM     95  F   UNL A   1      47.536  26.136  33.901  1.00  0.00    -0.200 F 
ENDBRANCH  62  85
ENDBRANCH  36  37
ENDBRANCH  29  31
ENDBRANCH  28  29
ENDBRANCH  27  28
ENDBRANCH  26  27
ENDBRANCH  25  26
ENDBRANCH  24  25
ENDBRANCH   1  24
TORSDOF 20
ENDMDL
MODEL 3
REMARK VINA RESULT:     -12.6      1.665      2.600
REMARK SMILES Cc1ccc(C(=O)NC2(CC(=O)OCCOCCOCCOC(=O)c3ccc(-c4c5nc(c(-c6c(F)c(F)c(F)c(F)c6F)c6ccc([nH]6)c(-c6c(F)c(F)c(F)c(F)c6F)c6nc(c(-c7c(F)c(F)c(F)c(F)c7F)c7ccc4[nH]7)C=C6)C=C5)cc3)CCC2)cc1
REMARK SMILES IDX 17 1 16 2 15 3 14 4 13 5 11 6 12 7 10 8 9 9 88 10 90 11
REMARK SMILES IDX 89 12 8 13 6 14 7 15 5 17 1 18 2 19 3 20 92 21 4 22 91 23
REMARK SMILES IDX 18 24 19 25 20 26 21 27 22 28 23 29 24 30 25 31 26 32 87 33
REMARK SMILES IDX 27 34 86 35 28 36 29 37 30 38 80 39 31 40 85 41 79 42 81 43
REMARK SMILES IDX 32 44 84 45 78 46 77 47 33 49 65 50 45 51 64 52 46 53 49 54
REMARK SMILES IDX 63 55 82 56 47 57 48 58 62 60 83 61 50 62 34 63 35 64 43 65
REMARK SMILES IDX 36 66 37 67 41 68 44 69 38 70 39 71 42 72 40 73 66 74 67 75
REMARK SMILES IDX 75 76 68 77 69 78 73 79 76 80 70 81 71 82 74 83 72 84 51 85
REMARK SMILES IDX 52 86 60 87 53 88 54 89 58 90 61 91 55 92 56 93 59 94 57 95
REMARK H PARENT 8 16 81 48 49 59
REMARK Flexibility Score: inf
ROOT
ATOM      1  C   UNL A   1      34.229  31.656  28.331  1.00  0.00     0.188 C 
ENDROOT
BRANCH   1   2
ATOM      2  O   UNL A   1      33.885  30.965  27.159  1.00  0.00    -0.376 OA
BRANCH   2   3
ATOM      3  C   UNL A   1      32.514  30.717  26.859  1.00  0.00     0.202 C 
BRANCH   3   4
ATOM      4  C   UNL A   1      31.867  29.534  25.867  1.00  0.00     0.261 C 
BRANCH   4   5
ATOM      5  O   UNL A   1      31.773  27.812  25.701  1.00  0.00    -0.463 OA
BRANCH   5   6
ATOM      6  C   UNL A   1      31.140  26.541  25.694  1.00  0.00     0.308 C 
ATOM      7  O   UNL A   1      30.535  25.930  26.594  1.00  0.00    -0.252 OA
BRANCH   6   8
ATOM      8  C   UNL A   1      30.790  26.030  24.377  1.00  0.00     0.151 C 
BRANCH   8   9
ATOM      9  C   UNL A   1      32.156  25.543  24.021  1.00  0.00     0.051 C 
ATOM     10  C   UNL A   1      33.067  26.701  23.360  1.00  0.00     0.029 C 
ATOM     11  C   UNL A   1      32.166  25.092  22.398  1.00  0.00     0.029 C 
ATOM     12  C   UNL A   1      32.213  26.583  22.055  1.00  0.00     0.005 C 
BRANCH   9  13
ATOM     13  N   UNL A   1      32.756  24.552  25.489  1.00  0.00    -0.346 N 
ATOM     14  C   UNL A   1      32.874  22.840  25.932  1.00  0.00     0.251 C 
ATOM     15  O   UNL A   1      32.807  22.765  27.167  1.00  0.00    -0.269 OA
ATOM     16  H   UNL A   1      33.096  25.137  26.206  1.00  0.00     0.164 HD
BRANCH  14  17
ATOM     17  C   UNL A   1      33.056  21.157  25.050  1.00  0.00     0.039 A 
ATOM     18  C   UNL A   1      34.245  16.851  23.493  1.00  0.00     0.044 C 
ATOM     19  C   UNL A   1      33.659  18.150  23.990  1.00  0.00    -0.051 A 
ATOM     20  C   UNL A   1      32.396  18.761  24.028  1.00  0.00     0.004 A 
ATOM     21  C   UNL A   1      34.560  18.963  24.554  1.00  0.00     0.004 A 
ATOM     22  C   UNL A   1      32.098  20.198  24.615  1.00  0.00     0.014 A 
ATOM     23  C   UNL A   1      34.228  20.335  24.884  1.00  0.00     0.014 A 
ENDBRANCH  14  17
ENDBRANCH   9  13
ENDBRANCH   8   9
ENDBRANCH   6   8
ENDBRANCH   5   6
ENDBRANCH   4   5
ENDBRANCH   3   4
ENDBRANCH   2   3
ENDBRANCH   1   2
BRANCH   1  24
ATOM     24  C   UNL A   1      35.269  32.737  28.111  1.00  0.00     0.188 C 
BRANCH  24  25
ATOM     25  O   UNL A   1      35.162  33.804  29.030  1.00  0.00    -0.376 OA
BRANCH  25  26
ATOM     26  C   UNL A   1      34.640  33.604  30.326  1.00  0.00     0.202 C 
BRANCH  26  27
ATOM     27  C   UNL A   1      35.855  33.148  31.088  1.00  0.00     0.261 C 
BRANCH  27  28
ATOM     28  O   UNL A   1      35.402  31.927  31.795  1.00  0.00    -0.460 OA
BRANCH  28  29
ATOM     29  C   UNL A   1      36.371  31.227  32.479  1.00  0.00     0.338 C 
ATOM     30  O   UNL A   1      36.856  31.621  33.516  1.00  0.00    -0.246 OA
BRANCH  29  31
ATOM     31  C   UNL A   1      36.953  30.001  31.692  1.00  0.00     0.060 A 
ATOM     32  C   UNL A   1      37.973  29.333  32.323  1.00  0.00     0.016 A 
ATOM     33  C   UNL A   1      36.856  29.591  30.348  1.00  0.00     0.016 A 
ATOM     34  C   UNL A   1      38.919  28.488  31.574  1.00  0.00     0.010 A 
ATOM     35  C   UNL A   1      37.895  28.696  29.631  1.00  0.00     0.010 A 
ATOM     36  C   UNL A   1      39.094  28.216  30.220  1.00  0.00    -0.014 A 
BRANCH  36  37
ATOM     37  C   UNL A   1      40.605  27.705  29.496  1.00  0.00     0.031 A 
ATOM     38  C   UNL A   1      41.457  28.852  29.054  1.00  0.00     0.074 A 
ATOM     39  C   UNL A   1      41.324  26.689  28.734  1.00  0.00     0.049 A 
ATOM     40  N   UNL A   1      42.600  28.726  28.435  1.00  0.00    -0.248 NA
ATOM     41  C   UNL A   1      41.168  30.238  29.388  1.00  0.00     0.031 C 
ATOM     42  C   UNL A   1      42.450  25.954  29.392  1.00  0.00     0.029 A 
ATOM     43  N   UNL A   1      41.153  25.737  27.694  1.00  0.00    -0.354 N 
ATOM     44  C   UNL A   1      43.349  29.654  29.087  1.00  0.00     0.074 A 
ATOM     45  C   UNL A   1      42.408  30.737  29.273  1.00  0.00     0.031 C 
ATOM     46  C   UNL A   1      42.685  24.726  28.851  1.00  0.00     0.029 A 
ATOM     47  C   UNL A   1      41.730  24.450  27.775  1.00  0.00     0.049 A 
ATOM     48  H   UNL A   1      40.621  25.978  26.901  1.00  0.00     0.167 HD
ATOM     49  C   UNL A   1      44.410  29.193  29.823  1.00  0.00     0.037 A 
ATOM     50  C   UNL A   1      41.797  23.431  26.829  1.00  0.00     0.037 A 
ATOM     51  C   UNL A   1      44.936  27.844  29.437  1.00  0.00     0.049 A 
ATOM     52  C   UNL A   1      43.086  23.700  26.142  1.00  0.00     0.074 A 
ATOM     53  C   UNL A   1      45.462  26.758  30.138  1.00  0.00     0.029 A 
ATOM     54  N   UNL A   1      44.834  27.366  28.115  1.00  0.00    -0.354 N 
ATOM     55  N   UNL A   1      43.717  24.776  26.488  1.00  0.00    -0.248 NA
ATOM     56  C   UNL A   1      43.801  22.951  25.120  1.00  0.00     0.031 C 
ATOM     57  C   UNL A   1      45.802  25.720  29.218  1.00  0.00     0.029 A 
ATOM     58  C   UNL A   1      45.500  26.159  27.940  1.00  0.00     0.049 A 
ATOM     59  H   UNL A   1      44.348  27.833  27.398  1.00  0.00     0.167 HD
ATOM     60  C   UNL A   1      44.964  24.751  26.025  1.00  0.00     0.074 A 
ATOM     61  C   UNL A   1      44.913  23.714  25.001  1.00  0.00     0.031 C 
ATOM     62  C   UNL A   1      45.828  25.620  26.608  1.00  0.00     0.037 A 
BRANCH  49  63
ATOM     63  C   UNL A   1      44.879  29.940  31.073  1.00  0.00     0.064 A 
ATOM     64  C   UNL A   1      44.194  29.792  32.294  1.00  0.00     0.173 A 
ATOM     65  C   UNL A   1      45.967  30.849  31.134  1.00  0.00     0.173 A 
ATOM     66  F   UNL A   1      43.102  29.026  32.395  1.00  0.00    -0.203 F 
ATOM     67  C   UNL A   1      44.604  30.430  33.471  1.00  0.00     0.198 A 
ATOM     68  C   UNL A   1      46.439  31.396  32.328  1.00  0.00     0.198 A 
ATOM     69  F   UNL A   1      46.580  31.324  30.045  1.00  0.00    -0.203 F 
ATOM     70  F   UNL A   1      43.871  30.299  34.584  1.00  0.00    -0.200 F 
ATOM     71  C   UNL A   1      45.756  31.188  33.500  1.00  0.00     0.200 A 
ATOM     72  F   UNL A   1      47.549  32.151  32.315  1.00  0.00    -0.200 F 
ATOM     73  F   UNL A   1      46.187  31.740  34.640  1.00  0.00    -0.200 F 
ENDBRANCH  49  63
BRANCH  50  74
ATOM     74  C   UNL A   1      40.638  22.673  26.182  1.00  0.00     0.064 A 
ATOM     75  C   UNL A   1      40.722  21.279  25.943  1.00  0.00     0.173 A 
ATOM     76  C   UNL A   1      39.360  23.210  25.970  1.00  0.00     0.173 A 
ATOM     77  F   UNL A   1      41.921  20.670  25.940  1.00  0.00    -0.203 F 
ATOM     78  C   UNL A   1      39.583  20.455  25.780  1.00  0.00     0.198 A 
ATOM     79  C   UNL A   1      38.216  22.395  25.795  1.00  0.00     0.198 A 
ATOM     80  F   UNL A   1      39.189  24.539  26.006  1.00  0.00    -0.203 F 
ATOM     81  F   UNL A   1      39.712  19.116  25.770  1.00  0.00    -0.200 F 
ATOM     82  C   UNL A   1      38.323  21.015  25.745  1.00  0.00     0.200 A 
ATOM     83  F   UNL A   1      36.997  22.954  25.747  1.00  0.00    -0.200 F 
ATOM     84  F   UNL A   1      37.228  20.237  25.706  1.00  0.00    -0.200 F 
ENDBRANCH  50  74
BRANCH  62  85
ATOM     85  C   UNL A   1      47.071  26.076  25.961  1.00  0.00     0.064 A 
ATOM     86  C   UNL A   1      48.348  25.660  26.323  1.00  0.00     0.173 A 
ATOM     87  C   UNL A   1      46.963  26.912  24.829  1.00  0.00     0.173 A 
ATOM     88  F   UNL A   1      48.578  25.034  27.485  1.00  0.00    -0.203 F 
ATOM     89  C   UNL A   1      49.430  25.903  25.488  1.00  0.00     0.198 A 
ATOM     90  C   UNL A   1      48.050  27.209  24.037  1.00  0.00     0.198 A 
ATOM     91  F   UNL A   1      45.799  27.430  24.419  1.00  0.00    -0.203 F 
ATOM     92  F   UNL A   1      50.625  25.381  25.792  1.00  0.00    -0.200 F 
ATOM     93  C   UNL A   1      49.276  26.661  24.338  1.00  0.00     0.200 A 
ATOM     94  F   UNL A   1      47.883  27.987  22.962  1.00  0.00    -0.200 F 
ATOM     95  F   UNL A   1      50.312  26.869  23.519  1.00  0.00    -0.200 F 
ENDBRANCH  62  85
ENDBRANCH  36  37
ENDBRANCH  29  31
ENDBRANCH  28  29
ENDBRANCH  27  28
ENDBRANCH  26  27
ENDBRANCH  25  26
ENDBRANCH  24  25
ENDBRANCH   1  24
TORSDOF 20
ENDMDL
