MODEL 1
REMARK VINA RESULT:     -11.0      0.000      0.000
REMARK SMILES C[C@@H]1[C@@H](C(=O)OCCOCCOCCOC(=O)c2ccc(-c3c4nc(c(-c5c(F)c(F)c(F)c(F)c5F)c5ccc([nH]5)c(-c5c(F)c(F)c(F)c(F)c5F)c5nc(c(-c6c(F)c(F)c(F)c(F)c6F)c6ccc3[nH]6)C=C5)C=C4)cc2)CCN1C(=O)Nc1nccs1
REMARK SMILES IDX 10 1 9 2 8 3 7 4 6 5 4 6 5 7 3 8 1 9 2 10 83 11 81 12 82 13
REMARK SMILES IDX 84 14 85 15 86 16 87 18 88 19 91 20 89 21 90 22 11 23 12 24
REMARK SMILES IDX 13 25 14 26 15 27 16 28 17 29 18 30 19 31 80 32 20 33 79 34
REMARK SMILES IDX 21 35 22 36 23 37 73 38 24 39 78 40 72 41 74 42 25 43 77 44
REMARK SMILES IDX 71 45 70 46 26 48 58 49 38 50 57 51 39 52 42 53 56 54 75 55
REMARK SMILES IDX 40 56 41 57 55 59 76 60 43 61 27 62 28 63 36 64 29 65 30 66
REMARK SMILES IDX 34 67 37 68 31 69 32 70 35 71 33 72 59 73 60 74 68 75 61 76
REMARK SMILES IDX 62 77 66 78 69 79 63 80 64 81 67 82 65 83 44 84 45 85 53 86
REMARK SMILES IDX 46 87 47 88 51 89 54 90 48 91 49 92 52 93 50 94
REMARK H PARENT 86 17 74 47 42 58
REMARK Flexibility Score: inf
ROOT
ATOM      1  C   UNL A   1      33.245  22.201  27.520  1.00  0.00     0.188 C 
ENDROOT
BRANCH   1   2
ATOM      2  O   UNL A   1      32.052  22.959  27.628  1.00  0.00    -0.376 OA
BRANCH   2   3
ATOM      3  C   UNL A   1      31.756  23.956  26.658  1.00  0.00     0.202 C 
BRANCH   3   4
ATOM      4  C   UNL A   1      32.779  25.044  26.315  1.00  0.00     0.261 C 
BRANCH   4   5
ATOM      5  O   UNL A   1      32.273  26.061  25.437  1.00  0.00    -0.463 OA
BRANCH   5   6
ATOM      6  C   UNL A   1      33.189  26.595  24.583  1.00  0.00     0.311 C 
ATOM      7  O   UNL A   1      33.909  25.939  23.842  1.00  0.00    -0.252 OA
BRANCH   6   8
ATOM      8  C   UNL A   1      33.150  28.113  24.629  1.00  0.00     0.123 C 
ATOM      9  C   UNL A   1      31.751  29.990  25.582  1.00  0.00     0.032 C 
ATOM     10  C   UNL A   1      31.731  28.572  24.993  1.00  0.00     0.098 C 
ATOM     11  N   UNL A   1      31.033  28.533  23.702  1.00  0.00    -0.321 N 
ATOM     12  C   UNL A   1      33.373  28.727  23.254  1.00  0.00     0.039 C 
ATOM     13  C   UNL A   1      31.994  28.660  22.609  1.00  0.00     0.122 C 
BRANCH  11  14
ATOM     14  C   UNL A   1      29.816  27.974  23.401  1.00  0.00     0.323 C 
ATOM     15  O   UNL A   1      29.640  26.754  23.509  1.00  0.00    -0.248 OA
ATOM     16  N   UNL A   1      28.717  28.707  23.126  1.00  0.00    -0.283 N 
ATOM     17  H   UNL A   1      27.871  28.323  23.452  1.00  0.00     0.174 HD
BRANCH  16  18
ATOM     18  C   UNL A   1      28.591  29.892  22.473  1.00  0.00     0.190 A 
ATOM     19  N   UNL A   1      28.594  30.149  21.191  1.00  0.00    -0.228 NA
ATOM     20  S   UNL A   1      28.336  31.236  23.503  1.00  0.00    -0.105 S 
ATOM     21  C   UNL A   1      28.402  31.495  20.983  1.00  0.00     0.125 A 
ATOM     22  C   UNL A   1      28.255  32.252  22.123  1.00  0.00     0.088 A 
ENDBRANCH  16  18
ENDBRANCH  11  14
ENDBRANCH   6   8
ENDBRANCH   5   6
ENDBRANCH   4   5
ENDBRANCH   3   4
ENDBRANCH   2   3
ENDBRANCH   1   2
BRANCH   1  23
ATOM     23  C   UNL A   1      33.674  21.606  26.164  1.00  0.00     0.188 C 
BRANCH  23  24
ATOM     24  O   UNL A   1      34.726  20.675  26.156  1.00  0.00    -0.376 OA
BRANCH  24  25
ATOM     25  C   UNL A   1      35.534  20.497  25.003  1.00  0.00     0.202 C 
BRANCH  25  26
ATOM     26  C   UNL A   1      37.057  20.715  24.910  1.00  0.00     0.261 C 
BRANCH  26  27
ATOM     27  O   UNL A   1      37.641  21.762  25.688  1.00  0.00    -0.460 OA
BRANCH  27  28
ATOM     28  C   UNL A   1      38.900  21.522  26.123  1.00  0.00     0.338 C 
ATOM     29  O   UNL A   1      39.553  20.497  25.994  1.00  0.00    -0.246 OA
BRANCH  28  30
ATOM     30  C   UNL A   1      39.472  22.772  26.647  1.00  0.00     0.060 A 
ATOM     31  C   UNL A   1      38.936  23.990  26.212  1.00  0.00     0.016 A 
ATOM     32  C   UNL A   1      40.565  22.740  27.513  1.00  0.00     0.016 A 
ATOM     33  C   UNL A   1      39.505  25.189  26.637  1.00  0.00     0.010 A 
ATOM     34  C   UNL A   1      41.154  23.941  27.914  1.00  0.00     0.010 A 
ATOM     35  C   UNL A   1      40.641  25.168  27.459  1.00  0.00    -0.014 A 
BRANCH  35  36
ATOM     36  C   UNL A   1      41.387  26.424  27.700  1.00  0.00     0.031 A 
ATOM     37  C   UNL A   1      40.751  27.486  28.550  1.00  0.00     0.074 A 
ATOM     38  C   UNL A   1      42.615  26.607  27.185  1.00  0.00     0.049 A 
ATOM     39  N   UNL A   1      41.201  28.669  28.876  1.00  0.00    -0.248 NA
ATOM     40  C   UNL A   1      39.418  27.176  29.091  1.00  0.00     0.031 C 
ATOM     41  C   UNL A   1      43.326  25.646  26.347  1.00  0.00     0.029 A 
ATOM     42  N   UNL A   1      43.488  27.658  27.310  1.00  0.00    -0.354 N 
ATOM     43  C   UNL A   1      40.191  29.263  29.622  1.00  0.00     0.074 A 
ATOM     44  C   UNL A   1      39.112  28.304  29.714  1.00  0.00     0.031 C 
ATOM     45  C   UNL A   1      44.548  26.136  26.068  1.00  0.00     0.029 A 
ATOM     46  C   UNL A   1      44.697  27.449  26.692  1.00  0.00     0.049 A 
ATOM     47  H   UNL A   1      43.269  28.486  27.797  1.00  0.00     0.167 HD
ATOM     48  C   UNL A   1      40.160  30.506  30.157  1.00  0.00     0.037 A 
ATOM     49  C   UNL A   1      45.796  28.229  26.653  1.00  0.00     0.037 A 
ATOM     50  C   UNL A   1      41.234  31.458  30.053  1.00  0.00     0.049 A 
ATOM     51  C   UNL A   1      45.745  29.598  27.292  1.00  0.00     0.074 A 
ATOM     52  C   UNL A   1      41.288  32.756  30.529  1.00  0.00     0.029 A 
ATOM     53  N   UNL A   1      42.447  31.210  29.428  1.00  0.00    -0.354 N 
ATOM     54  N   UNL A   1      44.782  30.155  27.985  1.00  0.00    -0.248 NA
ATOM     55  C   UNL A   1      46.926  30.455  27.113  1.00  0.00     0.031 C 
ATOM     56  C   UNL A   1      42.518  33.308  30.157  1.00  0.00     0.029 A 
ATOM     57  C   UNL A   1      43.252  32.336  29.496  1.00  0.00     0.049 A 
ATOM     58  H   UNL A   1      42.699  30.361  29.000  1.00  0.00     0.167 HD
ATOM     59  C   UNL A   1      45.236  31.427  28.317  1.00  0.00     0.074 A 
ATOM     60  C   UNL A   1      46.581  31.538  27.795  1.00  0.00     0.031 C 
ATOM     61  C   UNL A   1      44.590  32.424  28.969  1.00  0.00     0.037 A 
BRANCH  48  62
ATOM     62  C   UNL A   1      38.897  30.927  30.848  1.00  0.00     0.064 A 
ATOM     63  C   UNL A   1      38.735  30.807  32.237  1.00  0.00     0.173 A 
ATOM     64  C   UNL A   1      37.838  31.477  30.109  1.00  0.00     0.173 A 
ATOM     65  F   UNL A   1      39.709  30.268  32.984  1.00  0.00    -0.203 F 
ATOM     66  C   UNL A   1      37.551  31.200  32.855  1.00  0.00     0.198 A 
ATOM     67  C   UNL A   1      36.668  31.896  30.734  1.00  0.00     0.198 A 
ATOM     68  F   UNL A   1      37.941  31.612  28.778  1.00  0.00    -0.203 F 
ATOM     69  F   UNL A   1      37.400  31.032  34.176  1.00  0.00    -0.200 F 
ATOM     70  C   UNL A   1      36.522  31.750  32.105  1.00  0.00     0.200 A 
ATOM     71  F   UNL A   1      35.679  32.436  30.008  1.00  0.00    -0.200 F 
ATOM     72  F   UNL A   1      35.385  32.133  32.703  1.00  0.00    -0.200 F 
ENDBRANCH  48  62
BRANCH  49  73
ATOM     73  C   UNL A   1      47.050  27.747  26.011  1.00  0.00     0.064 A 
ATOM     74  C   UNL A   1      47.202  27.805  24.617  1.00  0.00     0.173 A 
ATOM     75  C   UNL A   1      48.102  27.192  26.754  1.00  0.00     0.173 A 
ATOM     76  F   UNL A   1      46.216  28.305  23.857  1.00  0.00    -0.203 F 
ATOM     77  C   UNL A   1      48.342  27.303  23.992  1.00  0.00     0.198 A 
ATOM     78  C   UNL A   1      49.257  26.725  26.131  1.00  0.00     0.198 A 
ATOM     79  F   UNL A   1      48.009  27.106  28.089  1.00  0.00    -0.203 F 
ATOM     80  F   UNL A   1      48.429  27.316  22.654  1.00  0.00    -0.200 F 
ATOM     81  C   UNL A   1      49.373  26.770  24.750  1.00  0.00     0.200 A 
ATOM     82  F   UNL A   1      50.257  26.223  26.868  1.00  0.00    -0.200 F 
ATOM     83  F   UNL A   1      50.469  26.288  24.149  1.00  0.00    -0.200 F 
ENDBRANCH  49  73
BRANCH  61  84
ATOM     84  C   UNL A   1      45.327  33.720  29.156  1.00  0.00     0.064 A 
ATOM     85  C   UNL A   1      46.150  33.939  30.271  1.00  0.00     0.173 A 
ATOM     86  C   UNL A   1      45.251  34.731  28.186  1.00  0.00     0.173 A 
ATOM     87  F   UNL A   1      46.247  33.007  31.231  1.00  0.00    -0.203 F 
ATOM     88  C   UNL A   1      46.850  35.133  30.421  1.00  0.00     0.198 A 
ATOM     89  C   UNL A   1      45.976  35.911  28.325  1.00  0.00     0.198 A 
ATOM     90  F   UNL A   1      44.487  34.566  27.096  1.00  0.00    -0.203 F 
ATOM     91  F   UNL A   1      47.595  35.338  31.516  1.00  0.00    -0.200 F 
ATOM     92  C   UNL A   1      46.769  36.115  29.444  1.00  0.00     0.200 A 
ATOM     93  F   UNL A   1      45.909  36.853  27.373  1.00  0.00    -0.200 F 
ATOM     94  F   UNL A   1      47.451  37.260  29.585  1.00  0.00    -0.200 F 
ENDBRANCH  61  84
ENDBRANCH  35  36
ENDBRANCH  28  30
ENDBRANCH  27  28
ENDBRANCH  26  27
ENDBRANCH  25  26
ENDBRANCH  24  25
ENDBRANCH  23  24
ENDBRANCH   1  23
TORSDOF 19
ENDMDL
MODEL 2
REMARK VINA RESULT:     -10.3      0.907      7.402
REMARK SMILES C[C@@H]1[C@@H](C(=O)OCCOCCOCCOC(=O)c2ccc(-c3c4nc(c(-c5c(F)c(F)c(F)c(F)c5F)c5ccc([nH]5)c(-c5c(F)c(F)c(F)c(F)c5F)c5nc(c(-c6c(F)c(F)c(F)c(F)c6F)c6ccc3[nH]6)C=C5)C=C4)cc2)CCN1C(=O)Nc1nccs1
REMARK SMILES IDX 10 1 9 2 8 3 7 4 6 5 4 6 5 7 3 8 1 9 2 10 83 11 81 12 82 13
REMARK SMILES IDX 84 14 85 15 86 16 87 18 88 19 91 20 89 21 90 22 11 23 12 24
REMARK SMILES IDX 13 25 14 26 15 27 16 28 17 29 18 30 19 31 80 32 20 33 79 34
REMARK SMILES IDX 21 35 22 36 23 37 73 38 24 39 78 40 72 41 74 42 25 43 77 44
REMARK SMILES IDX 71 45 70 46 26 48 58 49 38 50 57 51 39 52 42 53 56 54 75 55
REMARK SMILES IDX 40 56 41 57 55 59 76 60 43 61 27 62 28 63 36 64 29 65 30 66
REMARK SMILES IDX 34 67 37 68 31 69 32 70 35 71 33 72 59 73 60 74 68 75 61 76
REMARK SMILES IDX 62 77 66 78 69 79 63 80 64 81 67 82 65 83 44 84 45 85 53 86
REMARK SMILES IDX 46 87 47 88 51 89 54 90 48 91 49 92 52 93 50 94
REMARK H PARENT 86 17 74 47 42 58
REMARK Flexibility Score: inf
ROOT
ATOM      1  C   UNL A   1      33.145  22.468  27.147  1.00  0.00     0.188 C 
ENDROOT
BRANCH   1   2
ATOM      2  O   UNL A   1      31.779  22.651  27.478  1.00  0.00    -0.376 OA
BRANCH   2   3
ATOM      3  C   UNL A   1      30.836  22.947  26.456  1.00  0.00     0.202 C 
BRANCH   3   4
ATOM      4  C   UNL A   1      30.724  24.363  25.880  1.00  0.00     0.261 C 
BRANCH   4   5
ATOM      5  O   UNL A   1      31.387  24.531  24.618  1.00  0.00    -0.463 OA
BRANCH   5   6
ATOM      6  C   UNL A   1      32.454  25.377  24.634  1.00  0.00     0.311 C 
ATOM      7  O   UNL A   1      33.165  25.575  25.610  1.00  0.00    -0.252 OA
BRANCH   6   8
ATOM      8  C   UNL A   1      32.679  25.990  23.262  1.00  0.00     0.123 C 
ATOM      9  C   UNL A   1      33.716  28.033  22.195  1.00  0.00     0.032 C 
ATOM     10  C   UNL A   1      32.962  27.491  23.418  1.00  0.00     0.098 C 
ATOM     11  N   UNL A   1      31.617  28.068  23.524  1.00  0.00    -0.321 N 
ATOM     12  C   UNL A   1      31.414  25.960  22.416  1.00  0.00     0.039 C 
ATOM     13  C   UNL A   1      30.640  27.184  22.893  1.00  0.00     0.122 C 
BRANCH  11  14
ATOM     14  C   UNL A   1      31.139  28.970  24.442  1.00  0.00     0.323 C 
ATOM     15  O   UNL A   1      31.388  28.833  25.647  1.00  0.00    -0.248 OA
ATOM     16  N   UNL A   1      30.517  30.116  24.094  1.00  0.00    -0.283 N 
ATOM     17  H   UNL A   1      30.700  30.882  24.686  1.00  0.00     0.174 HD
BRANCH  16  18
ATOM     18  C   UNL A   1      29.680  30.383  23.057  1.00  0.00     0.190 A 
ATOM     19  N   UNL A   1      29.777  30.058  21.795  1.00  0.00    -0.228 NA
ATOM     20  S   UNL A   1      28.261  31.230  23.504  1.00  0.00    -0.105 S 
ATOM     21  C   UNL A   1      28.675  30.514  21.109  1.00  0.00     0.125 A 
ATOM     22  C   UNL A   1      27.746  31.188  21.868  1.00  0.00     0.088 A 
ENDBRANCH  16  18
ENDBRANCH  11  14
ENDBRANCH   6   8
ENDBRANCH   5   6
ENDBRANCH   4   5
ENDBRANCH   3   4
ENDBRANCH   2   3
ENDBRANCH   1   2
BRANCH   1  23
ATOM     23  C   UNL A   1      33.548  21.588  25.947  1.00  0.00     0.188 C 
BRANCH  23  24
ATOM     24  O   UNL A   1      34.667  20.750  26.090  1.00  0.00    -0.376 OA
BRANCH  24  25
ATOM     25  C   UNL A   1      35.547  20.517  25.001  1.00  0.00     0.202 C 
BRANCH  25  26
ATOM     26  C   UNL A   1      37.018  20.967  24.901  1.00  0.00     0.261 C 
BRANCH  26  27
ATOM     27  O   UNL A   1      37.561  21.752  25.965  1.00  0.00    -0.460 OA
BRANCH  27  28
ATOM     28  C   UNL A   1      38.902  21.657  26.125  1.00  0.00     0.338 C 
ATOM     29  O   UNL A   1      39.644  20.778  25.709  1.00  0.00    -0.246 OA
BRANCH  28  30
ATOM     30  C   UNL A   1      39.400  22.894  26.744  1.00  0.00     0.060 A 
ATOM     31  C   UNL A   1      38.759  24.102  26.441  1.00  0.00     0.016 A 
ATOM     32  C   UNL A   1      40.526  22.869  27.567  1.00  0.00     0.016 A 
ATOM     33  C   UNL A   1      39.254  25.298  26.957  1.00  0.00     0.010 A 
ATOM     34  C   UNL A   1      41.039  24.071  28.058  1.00  0.00     0.010 A 
ATOM     35  C   UNL A   1      40.419  25.291  27.736  1.00  0.00    -0.014 A 
BRANCH  35  36
ATOM     36  C   UNL A   1      41.079  26.574  28.069  1.00  0.00     0.031 A 
ATOM     37  C   UNL A   1      42.474  26.815  27.566  1.00  0.00     0.074 A 
ATOM     38  C   UNL A   1      40.442  27.512  28.790  1.00  0.00     0.049 A 
ATOM     39  N   UNL A   1      43.256  27.846  27.750  1.00  0.00    -0.248 NA
ATOM     40  C   UNL A   1      43.072  25.739  26.760  1.00  0.00     0.031 C 
ATOM     41  C   UNL A   1      39.092  27.384  29.329  1.00  0.00     0.029 A 
ATOM     42  N   UNL A   1      40.843  28.767  29.175  1.00  0.00    -0.354 N 
ATOM     43  C   UNL A   1      44.453  27.526  27.123  1.00  0.00     0.074 A 
ATOM     44  C   UNL A   1      44.288  26.212  26.538  1.00  0.00     0.031 C 
ATOM     45  C   UNL A   1      38.758  28.535  29.940  1.00  0.00     0.029 A 
ATOM     46  C   UNL A   1      39.877  29.472  29.850  1.00  0.00     0.049 A 
ATOM     47  H   UNL A   1      41.740  29.128  28.986  1.00  0.00     0.167 HD
ATOM     48  C   UNL A   1      45.593  28.253  27.063  1.00  0.00     0.037 A 
ATOM     49  C   UNL A   1      39.898  30.734  30.324  1.00  0.00     0.037 A 
ATOM     50  C   UNL A   1      45.753  29.556  27.655  1.00  0.00     0.049 A 
ATOM     51  C   UNL A   1      41.174  31.536  30.211  1.00  0.00     0.074 A 
ATOM     52  C   UNL A   1      46.878  30.360  27.683  1.00  0.00     0.029 A 
ATOM     53  N   UNL A   1      44.752  30.243  28.323  1.00  0.00    -0.354 N 
ATOM     54  N   UNL A   1      42.304  31.221  29.627  1.00  0.00    -0.248 NA
ATOM     55  C   UNL A   1      41.182  32.859  30.854  1.00  0.00     0.031 C 
ATOM     56  C   UNL A   1      46.570  31.518  28.403  1.00  0.00     0.029 A 
ATOM     57  C   UNL A   1      45.237  31.459  28.777  1.00  0.00     0.049 A 
ATOM     58  H   UNL A   1      43.833  29.917  28.455  1.00  0.00     0.167 HD
ATOM     59  C   UNL A   1      43.157  32.299  29.837  1.00  0.00     0.074 A 
ATOM     60  C   UNL A   1      42.396  33.298  30.557  1.00  0.00     0.031 C 
ATOM     61  C   UNL A   1      44.460  32.440  29.492  1.00  0.00     0.037 A 
BRANCH  48  62
ATOM     62  C   UNL A   1      46.777  27.626  26.388  1.00  0.00     0.064 A 
ATOM     63  C   UNL A   1      47.048  27.830  25.027  1.00  0.00     0.173 A 
ATOM     64  C   UNL A   1      47.663  26.821  27.121  1.00  0.00     0.173 A 
ATOM     65  F   UNL A   1      46.220  28.572  24.278  1.00  0.00    -0.203 F 
ATOM     66  C   UNL A   1      48.150  27.232  24.420  1.00  0.00     0.198 A 
ATOM     67  C   UNL A   1      48.780  26.250  26.520  1.00  0.00     0.198 A 
ATOM     68  F   UNL A   1      47.448  26.594  28.426  1.00  0.00    -0.203 F 
ATOM     69  F   UNL A   1      48.364  27.401  23.109  1.00  0.00    -0.200 F 
ATOM     70  C   UNL A   1      49.019  26.450  25.168  1.00  0.00     0.200 A 
ATOM     71  F   UNL A   1      49.622  25.503  27.247  1.00  0.00    -0.200 F 
ATOM     72  F   UNL A   1      50.082  25.880  24.584  1.00  0.00    -0.200 F 
ENDBRANCH  48  62
BRANCH  49  73
ATOM     73  C   UNL A   1      38.681  31.341  30.931  1.00  0.00     0.064 A 
ATOM     74  C   UNL A   1      37.774  32.058  30.136  1.00  0.00     0.173 A 
ATOM     75  C   UNL A   1      38.410  31.255  32.304  1.00  0.00     0.173 A 
ATOM     76  F   UNL A   1      37.998  32.191  28.820  1.00  0.00    -0.203 F 
ATOM     77  C   UNL A   1      36.661  32.687  30.693  1.00  0.00     0.198 A 
ATOM     78  C   UNL A   1      37.277  31.852  32.854  1.00  0.00     0.198 A 
ATOM     79  F   UNL A   1      39.245  30.587  33.112  1.00  0.00    -0.203 F 
ATOM     80  F   UNL A   1      35.849  33.417  29.916  1.00  0.00    -0.200 F 
ATOM     81  C   UNL A   1      36.410  32.576  32.051  1.00  0.00     0.200 A 
ATOM     82  F   UNL A   1      37.030  31.731  34.166  1.00  0.00    -0.200 F 
ATOM     83  F   UNL A   1      35.340  33.180  32.588  1.00  0.00    -0.200 F 
ENDBRANCH  49  73
BRANCH  61  84
ATOM     84  C   UNL A   1      45.146  33.717  29.887  1.00  0.00     0.064 A 
ATOM     85  C   UNL A   1      45.110  34.852  29.063  1.00  0.00     0.173 A 
ATOM     86  C   UNL A   1      45.801  33.824  31.124  1.00  0.00     0.173 A 
ATOM     87  F   UNL A   1      44.505  34.797  27.867  1.00  0.00    -0.203 F 
ATOM     88  C   UNL A   1      45.726  36.038  29.451  1.00  0.00     0.198 A 
ATOM     89  C   UNL A   1      46.389  35.021  31.521  1.00  0.00     0.198 A 
ATOM     90  F   UNL A   1      45.854  32.771  31.953  1.00  0.00    -0.203 F 
ATOM     91  F   UNL A   1      45.716  37.096  28.627  1.00  0.00    -0.200 F 
ATOM     92  C   UNL A   1      46.358  36.125  30.682  1.00  0.00     0.200 A 
ATOM     93  F   UNL A   1      46.987  35.107  32.717  1.00  0.00    -0.200 F 
ATOM     94  F   UNL A   1      46.943  37.271  31.058  1.00  0.00    -0.200 F 
ENDBRANCH  61  84
ENDBRANCH  35  36
ENDBRANCH  28  30
ENDBRANCH  27  28
ENDBRANCH  26  27
ENDBRANCH  25  26
ENDBRANCH  24  25
ENDBRANCH  23  24
ENDBRANCH   1  23
TORSDOF 19
ENDMDL
MODEL 3
REMARK VINA RESULT:     -10.3      2.760      8.415
REMARK SMILES C[C@@H]1[C@@H](C(=O)OCCOCCOCCOC(=O)c2ccc(-c3c4nc(c(-c5c(F)c(F)c(F)c(F)c5F)c5ccc([nH]5)c(-c5c(F)c(F)c(F)c(F)c5F)c5nc(c(-c6c(F)c(F)c(F)c(F)c6F)c6ccc3[nH]6)C=C5)C=C4)cc2)CCN1C(=O)Nc1nccs1
REMARK SMILES IDX 10 1 9 2 8 3 7 4 6 5 4 6 5 7 3 8 1 9 2 10 83 11 81 12 82 13
REMARK SMILES IDX 84 14 85 15 86 16 87 18 88 19 91 20 89 21 90 22 11 23 12 24
REMARK SMILES IDX 13 25 14 26 15 27 16 28 17 29 18 30 19 31 80 32 20 33 79 34
REMARK SMILES IDX 21 35 22 36 23 37 73 38 24 39 78 40 72 41 74 42 25 43 77 44
REMARK SMILES IDX 71 45 70 46 26 48 58 49 38 50 57 51 39 52 42 53 56 54 75 55
REMARK SMILES IDX 40 56 41 57 55 59 76 60 43 61 27 62 28 63 36 64 29 65 30 66
REMARK SMILES IDX 34 67 37 68 31 69 32 70 35 71 33 72 59 73 60 74 68 75 61 76
REMARK SMILES IDX 62 77 66 78 69 79 63 80 64 81 67 82 65 83 44 84 45 85 53 86
REMARK SMILES IDX 46 87 47 88 51 89 54 90 48 91 49 92 52 93 50 94
REMARK H PARENT 86 17 74 47 42 58
REMARK Flexibility Score: inf
ROOT
ATOM      1  C   UNL A   1      40.364  22.603  26.492  1.00  0.00     0.188 C 
ENDROOT
BRANCH   1   2
ATOM      2  O   UNL A   1      39.155  22.100  25.949  1.00  0.00    -0.376 OA
BRANCH   2   3
ATOM      3  C   UNL A   1      38.000  22.928  25.902  1.00  0.00     0.202 C 
BRANCH   3   4
ATOM      4  C   UNL A   1      37.010  22.827  24.737  1.00  0.00     0.261 C 
BRANCH   4   5
ATOM      5  O   UNL A   1      35.730  23.415  25.010  1.00  0.00    -0.463 OA
BRANCH   5   6
ATOM      6  C   UNL A   1      34.815  23.301  24.008  1.00  0.00     0.311 C 
ATOM      7  O   UNL A   1      35.091  23.035  22.846  1.00  0.00    -0.252 OA
BRANCH   6   8
ATOM      8  C   UNL A   1      33.403  23.486  24.541  1.00  0.00     0.123 C 
ATOM      9  C   UNL A   1      31.020  23.633  23.712  1.00  0.00     0.032 C 
ATOM     10  C   UNL A   1      32.489  23.955  23.400  1.00  0.00     0.098 C 
ATOM     11  N   UNL A   1      32.729  25.402  23.362  1.00  0.00    -0.321 N 
ATOM     12  C   UNL A   1      33.322  24.627  25.544  1.00  0.00     0.039 C 
ATOM     13  C   UNL A   1      33.207  25.865  24.663  1.00  0.00     0.122 C 
BRANCH  11  14
ATOM     14  C   UNL A   1      33.002  26.199  22.278  1.00  0.00     0.323 C 
ATOM     15  O   UNL A   1      34.042  26.041  21.627  1.00  0.00    -0.248 OA
ATOM     16  N   UNL A   1      32.113  27.078  21.769  1.00  0.00    -0.283 N 
ATOM     17  H   UNL A   1      32.142  27.174  20.789  1.00  0.00     0.174 HD
BRANCH  16  18
ATOM     18  C   UNL A   1      31.184  27.851  22.391  1.00  0.00     0.190 A 
ATOM     19  N   UNL A   1      29.882  27.851  22.279  1.00  0.00    -0.228 NA
ATOM     20  S   UNL A   1      31.836  28.949  23.531  1.00  0.00    -0.105 S 
ATOM     21  C   UNL A   1      29.340  28.787  23.130  1.00  0.00     0.125 A 
ATOM     22  C   UNL A   1      30.249  29.494  23.883  1.00  0.00     0.088 A 
ENDBRANCH  16  18
ENDBRANCH  11  14
ENDBRANCH   6   8
ENDBRANCH   5   6
ENDBRANCH   4   5
ENDBRANCH   3   4
ENDBRANCH   2   3
ENDBRANCH   1   2
BRANCH   1  23
ATOM     23  C   UNL A   1      41.579  21.675  26.688  1.00  0.00     0.188 C 
BRANCH  23  24
ATOM     24  O   UNL A   1      41.640  20.498  25.923  1.00  0.00    -0.376 OA
BRANCH  24  25
ATOM     25  C   UNL A   1      42.273  19.332  26.427  1.00  0.00     0.202 C 
BRANCH  25  26
ATOM     26  C   UNL A   1      43.234  18.405  25.654  1.00  0.00     0.261 C 
BRANCH  26  27
ATOM     27  O   UNL A   1      44.549  18.883  25.364  1.00  0.00    -0.460 OA
BRANCH  27  28
ATOM     28  C   UNL A   1      44.658  19.615  24.231  1.00  0.00     0.338 C 
ATOM     29  O   UNL A   1      44.343  19.287  23.095  1.00  0.00    -0.246 OA
BRANCH  28  30
ATOM     30  C   UNL A   1      45.065  20.983  24.582  1.00  0.00     0.060 A 
ATOM     31  C   UNL A   1      45.589  21.222  25.858  1.00  0.00     0.016 A 
ATOM     32  C   UNL A   1      44.874  22.031  23.680  1.00  0.00     0.016 A 
ATOM     33  C   UNL A   1      45.915  22.521  26.242  1.00  0.00     0.010 A 
ATOM     34  C   UNL A   1      45.173  23.336  24.077  1.00  0.00     0.010 A 
ATOM     35  C   UNL A   1      45.672  23.588  25.366  1.00  0.00    -0.014 A 
BRANCH  35  36
ATOM     36  C   UNL A   1      45.781  24.978  25.865  1.00  0.00     0.031 A 
ATOM     37  C   UNL A   1      47.083  25.705  25.686  1.00  0.00     0.074 A 
ATOM     38  C   UNL A   1      44.735  25.586  26.451  1.00  0.00     0.049 A 
ATOM     39  N   UNL A   1      47.419  26.912  26.062  1.00  0.00    -0.248 NA
ATOM     40  C   UNL A   1      48.156  24.963  25.006  1.00  0.00     0.031 C 
ATOM     41  C   UNL A   1      43.428  24.976  26.677  1.00  0.00     0.029 A 
ATOM     42  N   UNL A   1      44.604  26.860  26.944  1.00  0.00    -0.354 N 
ATOM     43  C   UNL A   1      48.753  27.058  25.705  1.00  0.00     0.074 A 
ATOM     44  C   UNL A   1      49.160  25.824  25.068  1.00  0.00     0.031 C 
ATOM     45  C   UNL A   1      42.612  25.893  27.228  1.00  0.00     0.029 A 
ATOM     46  C   UNL A   1      43.343  27.146  27.407  1.00  0.00     0.049 A 
ATOM     47  H   UNL A   1      45.345  27.509  26.965  1.00  0.00     0.167 HD
ATOM     48  C   UNL A   1      49.569  28.117  25.914  1.00  0.00     0.037 A 
ATOM     49  C   UNL A   1      42.843  28.295  27.904  1.00  0.00     0.037 A 
ATOM     50  C   UNL A   1      49.159  29.339  26.557  1.00  0.00     0.049 A 
ATOM     51  C   UNL A   1      43.769  29.474  28.092  1.00  0.00     0.074 A 
ATOM     52  C   UNL A   1      49.918  30.458  26.850  1.00  0.00     0.029 A 
ATOM     53  N   UNL A   1      47.873  29.598  27.005  1.00  0.00    -0.354 N 
ATOM     54  N   UNL A   1      45.032  29.600  27.763  1.00  0.00    -0.248 NA
ATOM     55  C   UNL A   1      43.203  30.660  28.752  1.00  0.00     0.031 C 
ATOM     56  C   UNL A   1      49.100  31.379  27.512  1.00  0.00     0.029 A 
ATOM     57  C   UNL A   1      47.819  30.856  27.583  1.00  0.00     0.049 A 
ATOM     58  H   UNL A   1      47.111  28.980  26.925  1.00  0.00     0.167 HD
ATOM     59  C   UNL A   1      45.411  30.871  28.180  1.00  0.00     0.074 A 
ATOM     60  C   UNL A   1      44.232  31.495  28.740  1.00  0.00     0.031 C 
ATOM     61  C   UNL A   1      46.632  31.459  28.133  1.00  0.00     0.037 A 
BRANCH  48  62
ATOM     62  C   UNL A   1      51.004  27.975  25.501  1.00  0.00     0.064 A 
ATOM     63  C   UNL A   1      51.426  28.231  24.187  1.00  0.00     0.173 A 
ATOM     64  C   UNL A   1      51.974  27.594  26.440  1.00  0.00     0.173 A 
ATOM     65  F   UNL A   1      50.534  28.577  23.248  1.00  0.00    -0.203 F 
ATOM     66  C   UNL A   1      52.763  28.086  23.825  1.00  0.00     0.198 A 
ATOM     67  C   UNL A   1      53.314  27.479  26.082  1.00  0.00     0.198 A 
ATOM     68  F   UNL A   1      51.622  27.336  27.709  1.00  0.00    -0.203 F 
ATOM     69  F   UNL A   1      53.136  28.289  22.555  1.00  0.00    -0.200 F 
ATOM     70  C   UNL A   1      53.706  27.719  24.774  1.00  0.00     0.200 A 
ATOM     71  F   UNL A   1      54.224  27.133  27.003  1.00  0.00    -0.200 F 
ATOM     72  F   UNL A   1      54.994  27.585  24.425  1.00  0.00    -0.200 F 
ENDBRANCH  48  62
BRANCH  49  73
ATOM     73  C   UNL A   1      41.398  28.414  28.243  1.00  0.00     0.064 A 
ATOM     74  C   UNL A   1      40.924  27.985  29.493  1.00  0.00     0.173 A 
ATOM     75  C   UNL A   1      40.458  28.917  27.333  1.00  0.00     0.173 A 
ATOM     76  F   UNL A   1      41.779  27.473  30.392  1.00  0.00    -0.203 F 
ATOM     77  C   UNL A   1      39.567  28.030  29.808  1.00  0.00     0.198 A 
ATOM     78  C   UNL A   1      39.106  28.997  27.663  1.00  0.00     0.198 A 
ATOM     79  F   UNL A   1      40.853  29.336  26.123  1.00  0.00    -0.203 F 
ATOM     80  F   UNL A   1      39.140  27.555  30.986  1.00  0.00    -0.200 F 
ATOM     81  C   UNL A   1      38.660  28.544  28.895  1.00  0.00     0.200 A 
ATOM     82  F   UNL A   1      38.233  29.508  26.784  1.00  0.00    -0.200 F 
ATOM     83  F   UNL A   1      37.355  28.588  29.198  1.00  0.00    -0.200 F 
ENDBRANCH  49  73
BRANCH  61  84
ATOM     84  C   UNL A   1      46.754  32.845  28.699  1.00  0.00     0.064 A 
ATOM     85  C   UNL A   1      47.125  33.059  30.035  1.00  0.00     0.173 A 
ATOM     86  C   UNL A   1      46.550  33.970  27.886  1.00  0.00     0.173 A 
ATOM     87  F   UNL A   1      47.322  32.016  30.856  1.00  0.00    -0.203 F 
ATOM     88  C   UNL A   1      47.262  34.348  30.543  1.00  0.00     0.198 A 
ATOM     89  C   UNL A   1      46.717  35.257  28.389  1.00  0.00     0.198 A 
ATOM     90  F   UNL A   1      46.204  33.820  26.599  1.00  0.00    -0.203 F 
ATOM     91  F   UNL A   1      47.575  34.528  31.834  1.00  0.00    -0.200 F 
ATOM     92  C   UNL A   1      47.066  35.446  29.718  1.00  0.00     0.200 A 
ATOM     93  F   UNL A   1      46.542  36.316  27.587  1.00  0.00    -0.200 F 
ATOM     94  F   UNL A   1      47.208  36.686  30.206  1.00  0.00    -0.200 F 
ENDBRANCH  61  84
ENDBRANCH  35  36
ENDBRANCH  28  30
ENDBRANCH  27  28
ENDBRANCH  26  27
ENDBRANCH  25  26
ENDBRANCH  24  25
ENDBRANCH  23  24
ENDBRANCH   1  23
TORSDOF 19
ENDMDL
