MODEL 1
REMARK VINA RESULT:     -10.2      0.000      0.000
REMARK SMILES C=C[C@@H]1[C@@H](O)C[C@@H]2[C@@]3(CC[C@@]4(C)[C@@H]([C@H](C)CCC=C(C)C)CC[C@@]24C)C[C@@]13CCC(=O)OCCOCCOCCOC(=O)c1ccc(-c2c3nc(c(-c4c(F)c(F)c(F)c(F)c4F)c4ccc([nH]4)c(-c4c(F)c(F)c(F)c(F)c4F)c4nc(c(-c5c(F)c(F)c(F)c(F)c5F)c5ccc2[nH]5)C=C4)C=C3)cc1
REMARK SMILES IDX 34 1 33 2 32 3 30 4 31 5 29 6 28 7 27 8 3 9 4 10 6 11 8 12
REMARK SMILES IDX 26 13 7 14 9 15 24 16 10 17 11 18 23 19 25 20 12 21 13 22
REMARK SMILES IDX 22 23 2 24 1 25 5 26 14 28 15 29 16 30 17 31 18 32 19 33
REMARK SMILES IDX 20 34 21 35 35 36 36 37 37 38 38 39 39 40 40 41 41 42 42 43
REMARK SMILES IDX 43 44 44 45 45 46 106 47 46 48 105 49 47 50 48 51 49 52
REMARK SMILES IDX 99 53 50 54 104 55 98 56 100 57 51 58 103 59 97 60 96 61
REMARK SMILES IDX 52 63 84 64 64 65 83 66 65 67 68 68 82 69 101 70 66 71 67 72
REMARK SMILES IDX 81 74 102 75 69 76 53 77 54 78 62 79 55 80 56 81 60 82 63 83
REMARK SMILES IDX 57 84 58 85 61 86 59 87 85 88 86 89 94 90 87 91 88 92 92 93
REMARK SMILES IDX 95 94 89 95 90 96 93 97 91 98 70 99 71 100 79 101 72 102
REMARK SMILES IDX 73 103 77 104 80 105 74 106 75 107 78 108 76 109
REMARK H PARENT 5 27 100 62 68 73
REMARK Flexibility Score: inf
ROOT
ATOM      1  C   UNL A   1      45.997  27.494  25.080  1.00  0.00     0.202 C 
ENDROOT
BRANCH   1   2
ATOM      2  C   UNL A   1      46.838  28.149  23.945  1.00  0.00     0.261 C 
BRANCH   2   3
ATOM      3  O   UNL A   1      48.247  28.196  23.814  1.00  0.00    -0.463 OA
BRANCH   3   4
ATOM      4  C   UNL A   1      48.631  27.441  22.720  1.00  0.00     0.305 C 
ATOM      5  O   UNL A   1      48.073  27.377  21.629  1.00  0.00    -0.252 OA
BRANCH   4   6
ATOM      6  C   UNL A   1      49.782  26.582  23.062  1.00  0.00     0.123 C 
BRANCH   6   7
ATOM      7  C   UNL A   1      50.957  27.472  23.461  1.00  0.00     0.020 C 
BRANCH   7   8
ATOM      8  C   UNL A   1      52.188  27.374  22.535  1.00  0.00    -0.014 C 
ATOM      9  C   UNL A   1      53.460  26.710  23.172  1.00  0.00     0.047 C 
ATOM     10  C   UNL A   1      54.728  27.569  22.926  1.00  0.00     0.122 C 
ATOM     11  C   UNL A   1      54.812  28.090  21.481  1.00  0.00     0.037 C 
ATOM     12  C   UNL A   1      52.293  28.335  21.236  1.00  0.00    -0.019 C 
ATOM     13  C   UNL A   1      52.009  26.841  21.149  1.00  0.00     0.016 C 
ATOM     14  C   UNL A   1      53.675  29.082  21.204  1.00  0.00     0.005 C 
ATOM     15  C   UNL A   1      51.138  29.046  20.516  1.00  0.00     0.008 C 
ATOM     16  C   UNL A   1      53.912  30.046  19.960  1.00  0.00    -0.023 C 
ATOM     17  C   UNL A   1      51.488  30.302  19.694  1.00  0.00     0.008 C 
ATOM     18  C   UNL A   1      52.795  31.167  19.952  1.00  0.00    -0.024 C 
ATOM     19  C   UNL A   1      55.176  30.917  20.031  1.00  0.00     0.008 C 
ATOM     20  C   UNL A   1      54.020  29.179  18.679  1.00  0.00     0.012 C 
ATOM     21  C   UNL A   1      52.784  32.057  18.637  1.00  0.00     0.012 C 
ATOM     22  C   UNL A   1      53.393  32.346  21.175  1.00  0.00    -0.002 C 
ATOM     23  C   UNL A   1      54.926  32.114  20.946  1.00  0.00     0.005 C 
BRANCH   9  24
ATOM     24  C   UNL A   1      53.300  26.129  24.573  1.00  0.00    -0.028 C 
ATOM     25  C   UNL A   1      53.152  24.845  24.928  1.00  0.00     0.004 C 
ENDBRANCH   9  24
BRANCH  10  26
ATOM     26  O   UNL A   1      55.915  26.795  23.155  1.00  0.00    -0.392 OA
ATOM     27  H   UNL A   1      56.586  27.350  23.583  1.00  0.00     0.210 HD
ENDBRANCH  10  26
BRANCH  22  28
ATOM     28  C   UNL A   1      53.185  33.164  22.812  1.00  0.00    -0.010 C 
ATOM     29  C   UNL A   1      52.326  32.312  23.772  1.00  0.00     0.008 C 
BRANCH  28  30
ATOM     30  C   UNL A   1      53.170  34.781  23.550  1.00  0.00     0.008 C 
BRANCH  30  31
ATOM     31  C   UNL A   1      52.051  35.926  23.942  1.00  0.00     0.027 C 
BRANCH  31  32
ATOM     32  C   UNL A   1      50.654  35.731  24.520  1.00  0.00    -0.028 C 
ATOM     33  C   UNL A   1      50.292  34.927  25.562  1.00  0.00    -0.080 C 
ATOM     34  C   UNL A   1      48.879  34.387  25.611  1.00  0.00     0.039 C 
ATOM     35  C   UNL A   1      51.134  34.300  26.657  1.00  0.00     0.039 C 
ENDBRANCH  31  32
ENDBRANCH  30  31
ENDBRANCH  28  30
ENDBRANCH  22  28
ENDBRANCH   7   8
ENDBRANCH   6   7
ENDBRANCH   4   6
ENDBRANCH   3   4
ENDBRANCH   2   3
ENDBRANCH   1   2
BRANCH   1  36
ATOM     36  O   UNL A   1      46.671  27.020  26.221  1.00  0.00    -0.376 OA
BRANCH  36  37
ATOM     37  C   UNL A   1      46.694  25.615  26.338  1.00  0.00     0.188 C 
BRANCH  37  38
ATOM     38  C   UNL A   1      47.072  24.914  25.039  1.00  0.00     0.188 C 
BRANCH  38  39
ATOM     39  O   UNL A   1      46.144  24.050  24.378  1.00  0.00    -0.376 OA
BRANCH  39  40
ATOM     40  C   UNL A   1      46.221  22.644  24.606  1.00  0.00     0.202 C 
BRANCH  40  41
ATOM     41  C   UNL A   1      45.206  22.055  25.585  1.00  0.00     0.261 C 
BRANCH  41  42
ATOM     42  O   UNL A   1      44.444  23.057  26.254  1.00  0.00    -0.460 OA
BRANCH  42  43
ATOM     43  C   UNL A   1      43.186  23.261  25.757  1.00  0.00     0.338 C 
ATOM     44  O   UNL A   1      42.552  22.539  25.029  1.00  0.00    -0.246 OA
BRANCH  43  45
ATOM     45  C   UNL A   1      42.622  24.404  26.530  1.00  0.00     0.060 A 
ATOM     46  C   UNL A   1      43.143  25.696  26.292  1.00  0.00     0.016 A 
ATOM     47  C   UNL A   1      41.454  24.235  27.278  1.00  0.00     0.016 A 
ATOM     48  C   UNL A   1      42.483  26.815  26.791  1.00  0.00     0.010 A 
ATOM     49  C   UNL A   1      40.839  25.344  27.840  1.00  0.00     0.010 A 
ATOM     50  C   UNL A   1      41.384  26.625  27.636  1.00  0.00    -0.014 A 
BRANCH  50  51
ATOM     51  C   UNL A   1      41.105  27.644  28.663  1.00  0.00     0.031 A 
ATOM     52  C   UNL A   1      41.983  27.573  29.881  1.00  0.00     0.074 A 
ATOM     53  C   UNL A   1      40.100  28.524  28.558  1.00  0.00     0.049 A 
ATOM     54  N   UNL A   1      41.862  28.179  31.029  1.00  0.00    -0.248 NA
ATOM     55  C   UNL A   1      43.138  26.655  29.807  1.00  0.00     0.031 C 
ATOM     56  C   UNL A   1      39.217  28.667  27.406  1.00  0.00     0.029 A 
ATOM     57  N   UNL A   1      39.643  29.455  29.455  1.00  0.00    -0.354 N 
ATOM     58  C   UNL A   1      42.889  27.676  31.815  1.00  0.00     0.074 A 
ATOM     59  C   UNL A   1      43.629  26.724  31.029  1.00  0.00     0.031 C 
ATOM     60  C   UNL A   1      38.313  29.629  27.672  1.00  0.00     0.029 A 
ATOM     61  C   UNL A   1      38.531  30.135  29.024  1.00  0.00     0.049 A 
ATOM     62  H   UNL A   1      40.073  29.621  30.326  1.00  0.00     0.167 HD
ATOM     63  C   UNL A   1      43.171  27.975  33.100  1.00  0.00     0.037 A 
ATOM     64  C   UNL A   1      37.763  31.030  29.676  1.00  0.00     0.037 A 
ATOM     65  C   UNL A   1      42.421  28.926  33.863  1.00  0.00     0.049 A 
ATOM     66  C   UNL A   1      38.105  31.342  31.116  1.00  0.00     0.074 A 
ATOM     67  C   UNL A   1      42.620  29.329  35.168  1.00  0.00     0.029 A 
ATOM     68  N   UNL A   1      41.320  29.620  33.381  1.00  0.00    -0.354 N 
ATOM     69  N   UNL A   1      39.086  30.878  31.856  1.00  0.00    -0.248 NA
ATOM     70  C   UNL A   1      37.220  32.278  31.821  1.00  0.00     0.031 C 
ATOM     71  C   UNL A   1      41.599  30.223  35.497  1.00  0.00     0.029 A 
ATOM     72  C   UNL A   1      40.812  30.434  34.374  1.00  0.00     0.049 A 
ATOM     73  H   UNL A   1      40.956  29.542  32.470  1.00  0.00     0.167 HD
ATOM     74  C   UNL A   1      38.948  31.481  33.099  1.00  0.00     0.074 A 
ATOM     75  C   UNL A   1      37.805  32.365  33.006  1.00  0.00     0.031 C 
ATOM     76  C   UNL A   1      39.685  31.316  34.226  1.00  0.00     0.037 A 
BRANCH  63  77
ATOM     77  C   UNL A   1      44.285  27.225  33.761  1.00  0.00     0.064 A 
ATOM     78  C   UNL A   1      44.060  26.059  34.506  1.00  0.00     0.173 A 
ATOM     79  C   UNL A   1      45.606  27.677  33.625  1.00  0.00     0.173 A 
ATOM     80  F   UNL A   1      42.811  25.611  34.702  1.00  0.00    -0.203 F 
ATOM     81  C   UNL A   1      45.120  25.372  35.093  1.00  0.00     0.198 A 
ATOM     82  C   UNL A   1      46.664  26.971  34.185  1.00  0.00     0.198 A 
ATOM     83  F   UNL A   1      45.869  28.802  32.941  1.00  0.00    -0.203 F 
ATOM     84  F   UNL A   1      44.881  24.283  35.836  1.00  0.00    -0.200 F 
ATOM     85  C   UNL A   1      46.421  25.821  34.920  1.00  0.00     0.200 A 
ATOM     86  F   UNL A   1      47.921  27.404  34.013  1.00  0.00    -0.200 F 
ATOM     87  F   UNL A   1      47.441  25.147  35.467  1.00  0.00    -0.200 F 
ENDBRANCH  63  77
BRANCH  64  88
ATOM     88  C   UNL A   1      36.577  31.656  29.023  1.00  0.00     0.064 A 
ATOM     89  C   UNL A   1      36.555  33.026  28.715  1.00  0.00     0.173 A 
ATOM     90  C   UNL A   1      35.413  30.919  28.754  1.00  0.00     0.173 A 
ATOM     91  F   UNL A   1      37.629  33.787  28.970  1.00  0.00    -0.203 F 
ATOM     92  C   UNL A   1      35.407  33.638  28.211  1.00  0.00     0.198 A 
ATOM     93  C   UNL A   1      34.281  31.523  28.207  1.00  0.00     0.198 A 
ATOM     94  F   UNL A   1      35.369  29.607  29.028  1.00  0.00    -0.203 F 
ATOM     95  F   UNL A   1      35.392  34.963  28.009  1.00  0.00    -0.200 F 
ATOM     96  C   UNL A   1      34.273  32.886  27.954  1.00  0.00     0.200 A 
ATOM     97  F   UNL A   1      33.194  30.786  27.945  1.00  0.00    -0.200 F 
ATOM     98  F   UNL A   1      33.166  33.474  27.480  1.00  0.00    -0.200 F 
ENDBRANCH  64  88
BRANCH  76  99
ATOM     99  C   UNL A   1      39.313  32.147  35.418  1.00  0.00     0.064 A 
ATOM    100  C   UNL A   1      38.480  31.655  36.432  1.00  0.00     0.173 A 
ATOM    101  C   UNL A   1      39.853  33.434  35.570  1.00  0.00     0.173 A 
ATOM    102  F   UNL A   1      37.935  30.434  36.327  1.00  0.00    -0.203 F 
ATOM    103  C   UNL A   1      38.175  32.435  37.543  1.00  0.00     0.198 A 
ATOM    104  C   UNL A   1      39.577  34.194  36.700  1.00  0.00     0.198 A 
ATOM    105  F   UNL A   1      40.667  33.941  34.632  1.00  0.00    -0.203 F 
ATOM    106  F   UNL A   1      37.334  31.969  38.475  1.00  0.00    -0.200 F 
ATOM    107  C   UNL A   1      38.731  33.699  37.680  1.00  0.00     0.200 A 
ATOM    108  F   UNL A   1      40.133  35.405  36.841  1.00  0.00    -0.200 F 
ATOM    109  F   UNL A   1      38.446  34.443  38.758  1.00  0.00    -0.200 F 
ENDBRANCH  76  99
ENDBRANCH  50  51
ENDBRANCH  43  45
ENDBRANCH  42  43
ENDBRANCH  41  42
ENDBRANCH  40  41
ENDBRANCH  39  40
ENDBRANCH  38  39
ENDBRANCH  37  38
ENDBRANCH  36  37
ENDBRANCH   1  36
TORSDOF 25
ENDMDL
MODEL 2
REMARK VINA RESULT:      -9.7      8.451     13.778
REMARK SMILES C=C[C@@H]1[C@@H](O)C[C@@H]2[C@@]3(CC[C@@]4(C)[C@@H]([C@H](C)CCC=C(C)C)CC[C@@]24C)C[C@@]13CCC(=O)OCCOCCOCCOC(=O)c1ccc(-c2c3nc(c(-c4c(F)c(F)c(F)c(F)c4F)c4ccc([nH]4)c(-c4c(F)c(F)c(F)c(F)c4F)c4nc(c(-c5c(F)c(F)c(F)c(F)c5F)c5ccc2[nH]5)C=C4)C=C3)cc1
REMARK SMILES IDX 34 1 33 2 32 3 30 4 31 5 29 6 28 7 27 8 3 9 4 10 6 11 8 12
REMARK SMILES IDX 26 13 7 14 9 15 24 16 10 17 11 18 23 19 25 20 12 21 13 22
REMARK SMILES IDX 22 23 2 24 1 25 5 26 14 28 15 29 16 30 17 31 18 32 19 33
REMARK SMILES IDX 20 34 21 35 35 36 36 37 37 38 38 39 39 40 40 41 41 42 42 43
REMARK SMILES IDX 43 44 44 45 45 46 106 47 46 48 105 49 47 50 48 51 49 52
REMARK SMILES IDX 99 53 50 54 104 55 98 56 100 57 51 58 103 59 97 60 96 61
REMARK SMILES IDX 52 63 84 64 64 65 83 66 65 67 68 68 82 69 101 70 66 71 67 72
REMARK SMILES IDX 81 74 102 75 69 76 53 77 54 78 62 79 55 80 56 81 60 82 63 83
REMARK SMILES IDX 57 84 58 85 61 86 59 87 85 88 86 89 94 90 87 91 88 92 92 93
REMARK SMILES IDX 95 94 89 95 90 96 93 97 91 98 70 99 71 100 79 101 72 102
REMARK SMILES IDX 73 103 77 104 80 105 74 106 75 107 78 108 76 109
REMARK H PARENT 5 27 100 62 68 73
REMARK Flexibility Score: inf
ROOT
ATOM      1  C   UNL A   1      44.315  41.185  25.664  1.00  0.00     0.202 C 
ENDROOT
BRANCH   1   2
ATOM      2  C   UNL A   1      45.725  40.588  25.380  1.00  0.00     0.261 C 
BRANCH   2   3
ATOM      3  O   UNL A   1      46.528  40.748  24.226  1.00  0.00    -0.463 OA
BRANCH   3   4
ATOM      4  C   UNL A   1      46.286  41.989  23.665  1.00  0.00     0.305 C 
ATOM      5  O   UNL A   1      45.568  42.241  22.703  1.00  0.00    -0.252 OA
BRANCH   4   6
ATOM      6  C   UNL A   1      47.120  43.021  24.311  1.00  0.00     0.123 C 
BRANCH   6   7
ATOM      7  C   UNL A   1      47.009  44.315  23.509  1.00  0.00     0.020 C 
BRANCH   7   8
ATOM      8  C   UNL A   1      48.331  44.804  22.879  1.00  0.00    -0.014 C 
ATOM      9  C   UNL A   1      49.210  45.731  23.791  1.00  0.00     0.047 C 
ATOM     10  C   UNL A   1      49.666  47.003  23.029  1.00  0.00     0.122 C 
ATOM     11  C   UNL A   1      50.156  46.689  21.605  1.00  0.00     0.037 C 
ATOM     12  C   UNL A   1      48.510  44.780  21.270  1.00  0.00    -0.019 C 
ATOM     13  C   UNL A   1      49.221  43.809  22.204  1.00  0.00     0.016 C 
ATOM     14  C   UNL A   1      48.996  46.178  20.741  1.00  0.00     0.005 C 
ATOM     15  C   UNL A   1      47.722  43.929  20.264  1.00  0.00     0.008 C 
ATOM     16  C   UNL A   1      49.231  46.281  19.170  1.00  0.00    -0.023 C 
ATOM     17  C   UNL A   1      47.650  44.440  18.812  1.00  0.00     0.008 C 
ATOM     18  C   UNL A   1      47.873  45.963  18.421  1.00  0.00    -0.024 C 
ATOM     19  C   UNL A   1      49.518  47.692  18.636  1.00  0.00     0.008 C 
ATOM     20  C   UNL A   1      50.443  45.389  18.795  1.00  0.00     0.012 C 
ATOM     21  C   UNL A   1      48.026  45.810  16.848  1.00  0.00     0.012 C 
ATOM     22  C   UNL A   1      46.969  47.516  18.542  1.00  0.00    -0.002 C 
ATOM     23  C   UNL A   1      48.210  48.474  18.519  1.00  0.00     0.005 C 
BRANCH   9  24
ATOM     24  C   UNL A   1      48.727  45.940  25.222  1.00  0.00    -0.028 C 
ATOM     25  C   UNL A   1      49.412  46.423  26.268  1.00  0.00     0.004 C 
ENDBRANCH   9  24
BRANCH  10  26
ATOM     26  O   UNL A   1      50.759  47.636  23.711  1.00  0.00    -0.392 OA
ATOM     27  H   UNL A   1      50.444  48.441  24.151  1.00  0.00     0.210 HD
ENDBRANCH  10  26
BRANCH  22  28
ATOM     28  C   UNL A   1      45.539  48.462  19.215  1.00  0.00    -0.010 C 
ATOM     29  C   UNL A   1      45.322  48.176  20.717  1.00  0.00     0.008 C 
BRANCH  28  30
ATOM     30  C   UNL A   1      44.006  49.192  18.694  1.00  0.00     0.008 C 
BRANCH  30  31
ATOM     31  C   UNL A   1      42.877  48.939  17.519  1.00  0.00     0.027 C 
BRANCH  31  32
ATOM     32  C   UNL A   1      42.093  47.668  17.213  1.00  0.00    -0.028 C 
ATOM     33  C   UNL A   1      42.594  46.426  16.948  1.00  0.00    -0.080 C 
ATOM     34  C   UNL A   1      41.778  45.476  16.098  1.00  0.00     0.039 C 
ATOM     35  C   UNL A   1      43.968  45.844  17.221  1.00  0.00     0.039 C 
ENDBRANCH  31  32
ENDBRANCH  30  31
ENDBRANCH  28  30
ENDBRANCH  22  28
ENDBRANCH   7   8
ENDBRANCH   6   7
ENDBRANCH   4   6
ENDBRANCH   3   4
ENDBRANCH   2   3
ENDBRANCH   1   2
BRANCH   1  36
ATOM     36  O   UNL A   1      43.224  40.301  25.753  1.00  0.00    -0.376 OA
BRANCH  36  37
ATOM     37  C   UNL A   1      42.354  40.563  26.832  1.00  0.00     0.188 C 
BRANCH  37  38
ATOM     38  C   UNL A   1      43.089  40.849  28.135  1.00  0.00     0.188 C 
BRANCH  38  39
ATOM     39  O   UNL A   1      42.937  39.985  29.265  1.00  0.00    -0.376 OA
BRANCH  39  40
ATOM     40  C   UNL A   1      44.051  39.208  29.700  1.00  0.00     0.202 C 
BRANCH  40  41
ATOM     41  C   UNL A   1      44.107  38.870  31.189  1.00  0.00     0.261 C 
BRANCH  41  42
ATOM     42  O   UNL A   1      44.003  37.470  31.437  1.00  0.00    -0.460 OA
BRANCH  42  43
ATOM     43  C   UNL A   1      45.194  36.812  31.574  1.00  0.00     0.338 C 
ATOM     44  O   UNL A   1      46.117  37.095  32.296  1.00  0.00    -0.246 OA
BRANCH  43  45
ATOM     45  C   UNL A   1      45.018  35.501  30.887  1.00  0.00     0.060 A 
ATOM     46  C   UNL A   1      44.601  35.504  29.537  1.00  0.00     0.016 A 
ATOM     47  C   UNL A   1      45.489  34.329  31.484  1.00  0.00     0.016 A 
ATOM     48  C   UNL A   1      44.672  34.335  28.784  1.00  0.00     0.010 A 
ATOM     49  C   UNL A   1      45.486  33.147  30.757  1.00  0.00     0.010 A 
ATOM     50  C   UNL A   1      45.031  33.145  29.427  1.00  0.00    -0.014 A 
BRANCH  50  51
ATOM     51  C   UNL A   1      44.492  31.876  28.904  1.00  0.00     0.031 A 
ATOM     52  C   UNL A   1      43.085  31.563  29.330  1.00  0.00     0.074 A 
ATOM     53  C   UNL A   1      45.220  31.028  28.165  1.00  0.00     0.049 A 
ATOM     54  N   UNL A   1      42.410  30.453  29.215  1.00  0.00    -0.248 NA
ATOM     55  C   UNL A   1      42.350  32.643  30.020  1.00  0.00     0.031 C 
ATOM     56  C   UNL A   1      46.582  31.265  27.699  1.00  0.00     0.029 A 
ATOM     57  N   UNL A   1      44.912  29.777  27.695  1.00  0.00    -0.354 N 
ATOM     58  C   UNL A   1      41.205  30.693  29.861  1.00  0.00     0.074 A 
ATOM     59  C   UNL A   1      41.227  32.043  30.361  1.00  0.00     0.031 C 
ATOM     60  C   UNL A   1      46.997  30.184  27.013  1.00  0.00     0.029 A 
ATOM     61  C   UNL A   1      45.948  29.169  27.030  1.00  0.00     0.049 A 
ATOM     62  H   UNL A   1      44.031  29.356  27.822  1.00  0.00     0.167 HD
ATOM     63  C   UNL A   1      40.175  29.839  30.037  1.00  0.00     0.037 A 
ATOM     64  C   UNL A   1      46.036  27.919  26.535  1.00  0.00     0.037 A 
ATOM     65  C   UNL A   1      40.176  28.500  29.529  1.00  0.00     0.049 A 
ATOM     66  C   UNL A   1      44.866  26.986  26.750  1.00  0.00     0.074 A 
ATOM     67  C   UNL A   1      39.185  27.546  29.626  1.00  0.00     0.029 A 
ATOM     68  N   UNL A   1      41.231  27.931  28.831  1.00  0.00    -0.354 N 
ATOM     69  N   UNL A   1      43.718  27.217  27.347  1.00  0.00    -0.248 NA
ATOM     70  C   UNL A   1      45.010  25.613  26.251  1.00  0.00     0.031 C 
ATOM     71  C   UNL A   1      39.665  26.373  29.039  1.00  0.00     0.029 A 
ATOM     72  C   UNL A   1      40.924  26.623  28.510  1.00  0.00     0.049 A 
ATOM     73  H   UNL A   1      42.071  28.388  28.601  1.00  0.00     0.167 HD
ATOM     74  C   UNL A   1      43.001  26.031  27.273  1.00  0.00     0.074 A 
ATOM     75  C   UNL A   1      43.831  25.089  26.551  1.00  0.00     0.031 C 
ATOM     76  C   UNL A   1      41.774  25.731  27.767  1.00  0.00     0.037 A 
BRANCH  63  77
ATOM     77  C   UNL A   1      39.013  30.311  30.852  1.00  0.00     0.064 A 
ATOM     78  C   UNL A   1      37.848  30.823  30.265  1.00  0.00     0.173 A 
ATOM     79  C   UNL A   1      39.064  30.228  32.251  1.00  0.00     0.173 A 
ATOM     80  F   UNL A   1      37.767  30.963  28.932  1.00  0.00    -0.203 F 
ATOM     81  C   UNL A   1      36.775  31.236  31.050  1.00  0.00     0.198 A 
ATOM     82  C   UNL A   1      37.979  30.611  33.031  1.00  0.00     0.198 A 
ATOM     83  F   UNL A   1      40.168  29.768  32.862  1.00  0.00    -0.203 F 
ATOM     84  F   UNL A   1      35.686  31.761  30.471  1.00  0.00    -0.200 F 
ATOM     85  C   UNL A   1      36.836  31.117  32.431  1.00  0.00     0.200 A 
ATOM     86  F   UNL A   1      38.039  30.491  34.364  1.00  0.00    -0.200 F 
ATOM     87  F   UNL A   1      35.794  31.495  33.183  1.00  0.00    -0.200 F 
ENDBRANCH  63  77
BRANCH  64  88
ATOM     88  C   UNL A   1      47.271  27.443  25.844  1.00  0.00     0.064 A 
ATOM     89  C   UNL A   1      48.376  26.976  26.573  1.00  0.00     0.173 A 
ATOM     90  C   UNL A   1      47.402  27.508  24.449  1.00  0.00     0.173 A 
ATOM     91  F   UNL A   1      48.319  26.912  27.911  1.00  0.00    -0.203 F 
ATOM     92  C   UNL A   1      49.572  26.639  25.938  1.00  0.00     0.198 A 
ATOM     93  C   UNL A   1      48.583  27.128  23.812  1.00  0.00     0.198 A 
ATOM     94  F   UNL A   1      46.382  27.948  23.696  1.00  0.00    -0.203 F 
ATOM     95  F   UNL A   1      50.637  26.279  26.669  1.00  0.00    -0.200 F 
ATOM     96  C   UNL A   1      49.674  26.711  24.558  1.00  0.00     0.200 A 
ATOM     97  F   UNL A   1      48.668  27.183  22.476  1.00  0.00    -0.200 F 
ATOM     98  F   UNL A   1      50.825  26.398  23.949  1.00  0.00    -0.200 F 
ENDBRANCH  64  88
BRANCH  76  99
ATOM     99  C   UNL A   1      41.238  24.358  27.490  1.00  0.00     0.064 A 
ATOM    100  C   UNL A   1      41.746  23.222  28.134  1.00  0.00     0.173 A 
ATOM    101  C   UNL A   1      40.157  24.193  26.610  1.00  0.00     0.173 A 
ATOM    102  F   UNL A   1      42.783  23.330  28.978  1.00  0.00    -0.203 F 
ATOM    103  C   UNL A   1      41.211  21.963  27.883  1.00  0.00     0.198 A 
ATOM    104  C   UNL A   1      39.600  22.938  26.391  1.00  0.00     0.198 A 
ATOM    105  F   UNL A   1      39.628  25.253  25.982  1.00  0.00    -0.203 F 
ATOM    106  F   UNL A   1      41.745  20.881  28.466  1.00  0.00    -0.200 F 
ATOM    107  C   UNL A   1      40.133  21.823  27.020  1.00  0.00     0.200 A 
ATOM    108  F   UNL A   1      38.545  22.810  25.576  1.00  0.00    -0.200 F 
ATOM    109  F   UNL A   1      39.611  20.611  26.789  1.00  0.00    -0.200 F 
ENDBRANCH  76  99
ENDBRANCH  50  51
ENDBRANCH  43  45
ENDBRANCH  42  43
ENDBRANCH  41  42
ENDBRANCH  40  41
ENDBRANCH  39  40
ENDBRANCH  38  39
ENDBRANCH  37  38
ENDBRANCH  36  37
ENDBRANCH   1  36
TORSDOF 25
ENDMDL
MODEL 3
REMARK VINA RESULT:      -9.6      5.133     12.665
REMARK SMILES C=C[C@@H]1[C@@H](O)C[C@@H]2[C@@]3(CC[C@@]4(C)[C@@H]([C@H](C)CCC=C(C)C)CC[C@@]24C)C[C@@]13CCC(=O)OCCOCCOCCOC(=O)c1ccc(-c2c3nc(c(-c4c(F)c(F)c(F)c(F)c4F)c4ccc([nH]4)c(-c4c(F)c(F)c(F)c(F)c4F)c4nc(c(-c5c(F)c(F)c(F)c(F)c5F)c5ccc2[nH]5)C=C4)C=C3)cc1
REMARK SMILES IDX 34 1 33 2 32 3 30 4 31 5 29 6 28 7 27 8 3 9 4 10 6 11 8 12
REMARK SMILES IDX 26 13 7 14 9 15 24 16 10 17 11 18 23 19 25 20 12 21 13 22
REMARK SMILES IDX 22 23 2 24 1 25 5 26 14 28 15 29 16 30 17 31 18 32 19 33
REMARK SMILES IDX 20 34 21 35 35 36 36 37 37 38 38 39 39 40 40 41 41 42 42 43
REMARK SMILES IDX 43 44 44 45 45 46 106 47 46 48 105 49 47 50 48 51 49 52
REMARK SMILES IDX 99 53 50 54 104 55 98 56 100 57 51 58 103 59 97 60 96 61
REMARK SMILES IDX 52 63 84 64 64 65 83 66 65 67 68 68 82 69 101 70 66 71 67 72
REMARK SMILES IDX 81 74 102 75 69 76 53 77 54 78 62 79 55 80 56 81 60 82 63 83
REMARK SMILES IDX 57 84 58 85 61 86 59 87 85 88 86 89 94 90 87 91 88 92 92 93
REMARK SMILES IDX 95 94 89 95 90 96 93 97 91 98 70 99 71 100 79 101 72 102
REMARK SMILES IDX 73 103 77 104 80 105 74 106 75 107 78 108 76 109
REMARK H PARENT 5 27 100 62 68 73
REMARK Flexibility Score: inf
ROOT
ATOM      1  C   UNL A   1      40.641  22.795  27.782  1.00  0.00     0.202 C 
ENDROOT
BRANCH   1   2
ATOM      2  C   UNL A   1      39.373  23.352  27.073  1.00  0.00     0.261 C 
BRANCH   2   3
ATOM      3  O   UNL A   1      38.138  23.728  27.652  1.00  0.00    -0.463 OA
BRANCH   3   4
ATOM      4  C   UNL A   1      37.207  23.941  26.651  1.00  0.00     0.305 C 
ATOM      5  O   UNL A   1      37.411  24.412  25.536  1.00  0.00    -0.252 OA
BRANCH   4   6
ATOM      6  C   UNL A   1      35.848  23.631  27.133  1.00  0.00     0.123 C 
BRANCH   6   7
ATOM      7  C   UNL A   1      35.433  22.266  26.587  1.00  0.00     0.020 C 
BRANCH   7   8
ATOM      8  C   UNL A   1      34.661  22.310  25.251  1.00  0.00    -0.014 C 
ATOM      9  C   UNL A   1      35.539  22.153  23.959  1.00  0.00     0.047 C 
ATOM     10  C   UNL A   1      35.205  23.248  22.912  1.00  0.00     0.122 C 
ATOM     11  C   UNL A   1      33.690  23.463  22.754  1.00  0.00     0.037 C 
ATOM     12  C   UNL A   1      33.186  22.975  25.197  1.00  0.00    -0.019 C 
ATOM     13  C   UNL A   1      33.429  21.475  25.100  1.00  0.00     0.016 C 
ATOM     14  C   UNL A   1      33.095  24.039  24.045  1.00  0.00     0.005 C 
ATOM     15  C   UNL A   1      32.226  23.191  26.376  1.00  0.00     0.008 C 
ATOM     16  C   UNL A   1      31.682  24.754  23.873  1.00  0.00    -0.023 C 
ATOM     17  C   UNL A   1      31.163  24.298  26.225  1.00  0.00     0.008 C 
ATOM     18  C   UNL A   1      31.319  25.512  25.214  1.00  0.00    -0.024 C 
ATOM     19  C   UNL A   1      31.652  25.924  22.877  1.00  0.00     0.008 C 
ATOM     20  C   UNL A   1      30.655  23.702  23.381  1.00  0.00     0.012 C 
ATOM     21  C   UNL A   1      29.835  26.077  25.252  1.00  0.00     0.012 C 
ATOM     22  C   UNL A   1      32.276  27.033  25.094  1.00  0.00    -0.002 C 
ATOM     23  C   UNL A   1      32.236  27.174  23.534  1.00  0.00     0.005 C 
BRANCH   9  24
ATOM     24  C   UNL A   1      37.020  21.851  24.171  1.00  0.00    -0.028 C 
ATOM     25  C   UNL A   1      37.579  20.737  24.663  1.00  0.00     0.004 C 
ENDBRANCH   9  24
BRANCH  10  26
ATOM     26  O   UNL A   1      35.708  22.880  21.619  1.00  0.00    -0.392 OA
ATOM     27  H   UNL A   1      35.262  23.407  20.937  1.00  0.00     0.210 HD
ENDBRANCH  10  26
BRANCH  22  28
ATOM     28  C   UNL A   1      33.651  28.085  25.721  1.00  0.00    -0.010 C 
ATOM     29  C   UNL A   1      34.812  27.235  26.280  1.00  0.00     0.008 C 
BRANCH  28  30
ATOM     30  C   UNL A   1      33.950  29.705  26.389  1.00  0.00     0.008 C 
BRANCH  30  31
ATOM     31  C   UNL A   1      33.054  30.977  26.934  1.00  0.00     0.027 C 
BRANCH  31  32
ATOM     32  C   UNL A   1      33.304  31.862  28.150  1.00  0.00    -0.028 C 
ATOM     33  C   UNL A   1      34.503  32.335  28.600  1.00  0.00    -0.080 C 
ATOM     34  C   UNL A   1      34.656  32.651  30.072  1.00  0.00     0.039 C 
ATOM     35  C   UNL A   1      35.839  32.455  27.892  1.00  0.00     0.039 C 
ENDBRANCH  31  32
ENDBRANCH  30  31
ENDBRANCH  28  30
ENDBRANCH  22  28
ENDBRANCH   7   8
ENDBRANCH   6   7
ENDBRANCH   4   6
ENDBRANCH   3   4
ENDBRANCH   2   3
ENDBRANCH   1   2
BRANCH   1  36
ATOM     36  O   UNL A   1      41.573  22.073  27.013  1.00  0.00    -0.376 OA
BRANCH  36  37
ATOM     37  C   UNL A   1      41.697  20.716  27.377  1.00  0.00     0.188 C 
BRANCH  37  38
ATOM     38  C   UNL A   1      41.029  19.769  26.389  1.00  0.00     0.188 C 
BRANCH  38  39
ATOM     39  O   UNL A   1      41.794  18.785  25.688  1.00  0.00    -0.376 OA
BRANCH  39  40
ATOM     40  C   UNL A   1      42.986  18.279  26.284  1.00  0.00     0.202 C 
BRANCH  40  41
ATOM     41  C   UNL A   1      44.212  18.177  25.378  1.00  0.00     0.261 C 
BRANCH  41  42
ATOM     42  O   UNL A   1      44.276  19.234  24.422  1.00  0.00    -0.460 OA
BRANCH  42  43
ATOM     43  C   UNL A   1      45.483  19.871  24.338  1.00  0.00     0.338 C 
ATOM     44  O   UNL A   1      46.485  19.487  23.788  1.00  0.00    -0.246 OA
BRANCH  43  45
ATOM     45  C   UNL A   1      45.241  21.269  24.792  1.00  0.00     0.060 A 
ATOM     46  C   UNL A   1      44.704  22.191  23.865  1.00  0.00     0.016 A 
ATOM     47  C   UNL A   1      45.310  21.586  26.151  1.00  0.00     0.016 A 
ATOM     48  C   UNL A   1      44.225  23.421  24.305  1.00  0.00     0.010 A 
ATOM     49  C   UNL A   1      44.904  22.842  26.579  1.00  0.00     0.010 A 
ATOM     50  C   UNL A   1      44.410  23.772  25.647  1.00  0.00    -0.014 A 
BRANCH  50  51
ATOM     51  C   UNL A   1      44.550  25.200  25.986  1.00  0.00     0.031 A 
ATOM     52  C   UNL A   1      45.941  25.751  25.841  1.00  0.00     0.074 A 
ATOM     53  C   UNL A   1      43.535  25.937  26.456  1.00  0.00     0.049 A 
ATOM     54  N   UNL A   1      46.430  26.889  26.247  1.00  0.00    -0.248 NA
ATOM     55  C   UNL A   1      46.930  24.875  25.178  1.00  0.00     0.031 C 
ATOM     56  C   UNL A   1      42.158  25.482  26.611  1.00  0.00     0.029 A 
ATOM     57  N   UNL A   1      43.521  27.230  26.913  1.00  0.00    -0.354 N 
ATOM     58  C   UNL A   1      47.782  26.835  25.935  1.00  0.00     0.074 A 
ATOM     59  C   UNL A   1      48.045  25.568  25.304  1.00  0.00     0.031 C 
ATOM     60  C   UNL A   1      41.430  26.484  27.138  1.00  0.00     0.029 A 
ATOM     61  C   UNL A   1      42.298  27.629  27.394  1.00  0.00     0.049 A 
ATOM     62  H   UNL A   1      44.311  27.817  26.896  1.00  0.00     0.167 HD
ATOM     63  C   UNL A   1      48.726  27.767  26.181  1.00  0.00     0.037 A 
ATOM     64  C   UNL A   1      41.948  28.777  28.007  1.00  0.00     0.037 A 
ATOM     65  C   UNL A   1      48.440  29.021  26.810  1.00  0.00     0.049 A 
ATOM     66  C   UNL A   1      43.030  29.800  28.269  1.00  0.00     0.074 A 
ATOM     67  C   UNL A   1      49.309  30.055  27.096  1.00  0.00     0.029 A 
ATOM     68  N   UNL A   1      47.183  29.403  27.254  1.00  0.00    -0.354 N 
ATOM     69  N   UNL A   1      44.306  29.757  27.960  1.00  0.00    -0.248 NA
ATOM     70  C   UNL A   1      42.634  31.017  28.989  1.00  0.00     0.031 C 
ATOM     71  C   UNL A   1      48.586  31.041  27.772  1.00  0.00     0.029 A 
ATOM     72  C   UNL A   1      47.256  30.652  27.837  1.00  0.00     0.049 A 
ATOM     73  H   UNL A   1      46.364  28.864  27.168  1.00  0.00     0.167 HD
ATOM     74  C   UNL A   1      44.855  30.945  28.426  1.00  0.00     0.074 A 
ATOM     75  C   UNL A   1      43.769  31.700  29.014  1.00  0.00     0.031 C 
ATOM     76  C   UNL A   1      46.140  31.376  28.388  1.00  0.00     0.037 A 
BRANCH  63  77
ATOM     77  C   UNL A   1      50.141  27.433  25.826  1.00  0.00     0.064 A 
ATOM     78  C   UNL A   1      51.060  26.972  26.779  1.00  0.00     0.173 A 
ATOM     79  C   UNL A   1      50.576  27.562  24.499  1.00  0.00     0.173 A 
ATOM     80  F   UNL A   1      50.705  26.873  28.069  1.00  0.00    -0.203 F 
ATOM     81  C   UNL A   1      52.365  26.651  26.414  1.00  0.00     0.198 A 
ATOM     82  C   UNL A   1      51.869  27.210  24.132  1.00  0.00     0.198 A 
ATOM     83  F   UNL A   1      49.740  28.023  23.555  1.00  0.00    -0.203 F 
ATOM     84  F   UNL A   1      53.240  26.251  27.347  1.00  0.00    -0.200 F 
ATOM     85  C   UNL A   1      52.764  26.757  25.090  1.00  0.00     0.200 A 
ATOM     86  F   UNL A   1      52.251  27.310  22.852  1.00  0.00    -0.200 F 
ATOM     87  F   UNL A   1      54.014  26.428  24.737  1.00  0.00    -0.200 F 
ENDBRANCH  63  77
BRANCH  64  88
ATOM     88  C   UNL A   1      40.549  29.015  28.468  1.00  0.00     0.064 A 
ATOM     89  C   UNL A   1      40.192  28.862  29.818  1.00  0.00     0.173 A 
ATOM     90  C   UNL A   1      39.523  29.333  27.565  1.00  0.00     0.173 A 
ATOM     91  F   UNL A   1      41.125  28.537  30.724  1.00  0.00    -0.203 F 
ATOM     92  C   UNL A   1      38.865  28.970  30.234  1.00  0.00     0.198 A 
ATOM     93  C   UNL A   1      38.203  29.486  27.990  1.00  0.00     0.198 A 
ATOM     94  F   UNL A   1      39.798  29.490  26.262  1.00  0.00    -0.203 F 
ATOM     95  F   UNL A   1      38.546  28.734  31.514  1.00  0.00    -0.200 F 
ATOM     96  C   UNL A   1      37.872  29.287  29.321  1.00  0.00     0.200 A 
ATOM     97  F   UNL A   1      37.251  29.810  27.104  1.00  0.00    -0.200 F 
ATOM     98  F   UNL A   1      36.596  29.381  29.718  1.00  0.00    -0.200 F 
ENDBRANCH  64  88
BRANCH  76  99
ATOM     99  C   UNL A   1      46.424  32.740  28.943  1.00  0.00     0.064 A 
ATOM    100  C   UNL A   1      46.324  33.895  28.155  1.00  0.00     0.173 A 
ATOM    101  C   UNL A   1      46.741  32.890  30.302  1.00  0.00     0.173 A 
ATOM    102  F   UNL A   1      46.031  33.800  26.850  1.00  0.00    -0.203 F 
ATOM    103  C   UNL A   1      46.563  35.151  28.702  1.00  0.00     0.198 A 
ATOM    104  C   UNL A   1      46.940  34.150  30.853  1.00  0.00     0.198 A 
ATOM    105  F   UNL A   1      46.833  31.814  31.098  1.00  0.00    -0.203 F 
ATOM    106  F   UNL A   1      46.517  36.239  27.922  1.00  0.00    -0.200 F 
ATOM    107  C   UNL A   1      46.861  35.279  30.052  1.00  0.00     0.200 A 
ATOM    108  F   UNL A   1      47.205  34.272  32.161  1.00  0.00    -0.200 F 
ATOM    109  F   UNL A   1      47.078  36.491  30.579  1.00  0.00    -0.200 F 
ENDBRANCH  76  99
ENDBRANCH  50  51
ENDBRANCH  43  45
ENDBRANCH  42  43
ENDBRANCH  41  42
ENDBRANCH  40  41
ENDBRANCH  39  40
ENDBRANCH  38  39
ENDBRANCH  37  38
ENDBRANCH  36  37
ENDBRANCH   1  36
TORSDOF 25
ENDMDL
