MODEL 1
REMARK VINA RESULT:     -11.9      0.000      0.000
REMARK SMILES O=C(Nc1cccc(C(=O)OCCOCCOCCOC(=O)c2ccc(-c3c4nc(c(-c5c(F)c(F)c(F)c(F)c5F)c5ccc([nH]5)c(-c5c(F)c(F)c(F)c(F)c5F)c5nc(c(-c6c(F)c(F)c(F)c(F)c6F)c6ccc3[nH]6)C=C5)C=C4)cc2)c1)c1ccc(N2C(=O)CCC2=O)cc1
REMARK SMILES IDX 15 1 14 2 13 3 12 4 11 5 9 6 10 7 8 8 4 9 5 10 86 11 6 12
REMARK SMILES IDX 7 13 3 14 1 15 2 16 87 18 88 19 99 20 89 21 98 22 90 23
REMARK SMILES IDX 91 24 92 25 96 26 93 27 94 28 95 29 97 30 16 31 17 32 18 33
REMARK SMILES IDX 19 34 20 35 21 36 22 37 23 38 24 39 85 40 25 41 84 42 26 43
REMARK SMILES IDX 27 44 28 45 78 46 29 47 83 48 77 49 79 50 30 51 82 52 76 53
REMARK SMILES IDX 75 54 31 56 63 57 43 58 62 59 44 60 47 61 61 62 80 63 45 64
REMARK SMILES IDX 46 65 60 67 81 68 48 69 32 70 33 71 41 72 34 73 35 74 39 75
REMARK SMILES IDX 42 76 36 77 37 78 40 79 38 80 64 81 65 82 73 83 66 84 67 85
REMARK SMILES IDX 71 86 74 87 68 88 69 89 72 90 70 91 49 92 50 93 58 94 51 95
REMARK SMILES IDX 52 96 56 97 59 98 53 99 54 100 57 101 55 102
REMARK H PARENT 3 17 79 55 47 66
REMARK Flexibility Score: inf
ROOT
ATOM      1  C   UNL A   1      35.480  32.028  28.389  1.00  0.00     0.188 C 
ENDROOT
BRANCH   1   2
ATOM      2  O   UNL A   1      34.801  31.180  27.485  1.00  0.00    -0.376 OA
BRANCH   2   3
ATOM      3  C   UNL A   1      33.387  31.061  27.522  1.00  0.00     0.202 C 
BRANCH   3   4
ATOM      4  C   UNL A   1      32.653  29.737  27.260  1.00  0.00     0.261 C 
BRANCH   4   5
ATOM      5  O   UNL A   1      31.958  29.659  26.013  1.00  0.00    -0.460 OA
BRANCH   5   6
ATOM      6  C   UNL A   1      32.414  28.735  25.130  1.00  0.00     0.338 C 
ATOM      7  O   UNL A   1      33.556  28.579  24.751  1.00  0.00    -0.246 OA
BRANCH   6   8
ATOM      8  C   UNL A   1      31.309  27.800  24.800  1.00  0.00     0.062 A 
ATOM      9  C   UNL A   1      29.868  25.969  25.449  1.00  0.00     0.042 A 
ATOM     10  C   UNL A   1      29.178  26.089  24.242  1.00  0.00     0.026 A 
ATOM     11  C   UNL A   1      31.010  26.739  25.651  1.00  0.00     0.041 A 
ATOM     12  C   UNL A   1      29.537  27.089  23.329  1.00  0.00     0.003 A 
ATOM     13  C   UNL A   1      30.569  27.980  23.632  1.00  0.00     0.016 A 
BRANCH   9  14
ATOM     14  N   UNL A   1      29.344  25.130  26.454  1.00  0.00    -0.322 N 
ATOM     15  O   UNL A   1      29.155  23.210  27.667  1.00  0.00    -0.269 OA
ATOM     16  C   UNL A   1      29.803  23.889  26.875  1.00  0.00     0.255 C 
ATOM     17  H   UNL A   1      28.545  25.469  26.919  1.00  0.00     0.170 HD
BRANCH  16  18
ATOM     18  C   UNL A   1      31.127  23.395  26.416  1.00  0.00     0.040 A 
ATOM     19  C   UNL A   1      32.303  23.828  27.036  1.00  0.00     0.016 A 
ATOM     20  C   UNL A   1      31.192  22.630  25.251  1.00  0.00     0.016 A 
ATOM     21  C   UNL A   1      33.541  23.581  26.431  1.00  0.00     0.027 A 
ATOM     22  C   UNL A   1      32.436  22.398  24.646  1.00  0.00     0.027 A 
ATOM     23  C   UNL A   1      33.627  22.885  25.214  1.00  0.00     0.052 A 
BRANCH  23  24
ATOM     24  N   UNL A   1      34.883  22.693  24.572  1.00  0.00    -0.251 N 
ATOM     25  C   UNL A   1      35.862  21.839  25.022  1.00  0.00     0.234 C 
ATOM     26  C   UNL A   1      35.259  23.333  23.413  1.00  0.00     0.234 C 
ATOM     27  O   UNL A   1      35.837  21.078  25.982  1.00  0.00    -0.274 OA
ATOM     28  C   UNL A   1      37.023  21.877  24.074  1.00  0.00     0.111 C 
ATOM     29  C   UNL A   1      36.668  22.950  23.077  1.00  0.00     0.111 C 
ATOM     30  O   UNL A   1      34.637  24.154  22.750  1.00  0.00    -0.274 OA
ENDBRANCH  23  24
ENDBRANCH  16  18
ENDBRANCH   9  14
ENDBRANCH   6   8
ENDBRANCH   5   6
ENDBRANCH   4   5
ENDBRANCH   3   4
ENDBRANCH   2   3
ENDBRANCH   1   2
BRANCH   1  31
ATOM     31  C   UNL A   1      35.770  33.499  28.027  1.00  0.00     0.188 C 
BRANCH  31  32
ATOM     32  O   UNL A   1      34.708  34.417  28.034  1.00  0.00    -0.376 OA
BRANCH  32  33
ATOM     33  C   UNL A   1      33.703  34.329  29.028  1.00  0.00     0.202 C 
BRANCH  33  34
ATOM     34  C   UNL A   1      33.038  35.523  29.747  1.00  0.00     0.261 C 
BRANCH  34  35
ATOM     35  O   UNL A   1      32.278  35.270  30.934  1.00  0.00    -0.460 OA
BRANCH  35  36
ATOM     36  C   UNL A   1      32.717  35.889  32.061  1.00  0.00     0.338 C 
ATOM     37  O   UNL A   1      32.191  36.813  32.654  1.00  0.00    -0.246 OA
BRANCH  36  38
ATOM     38  C   UNL A   1      33.869  35.137  32.598  1.00  0.00     0.060 A 
ATOM     39  C   UNL A   1      35.153  35.694  32.500  1.00  0.00     0.016 A 
ATOM     40  C   UNL A   1      33.686  33.879  33.172  1.00  0.00     0.016 A 
ATOM     41  C   UNL A   1      36.261  34.992  32.977  1.00  0.00     0.010 A 
ATOM     42  C   UNL A   1      34.800  33.167  33.624  1.00  0.00     0.010 A 
ATOM     43  C   UNL A   1      36.094  33.709  33.514  1.00  0.00    -0.014 A 
BRANCH  43  44
ATOM     44  C   UNL A   1      37.275  32.868  33.826  1.00  0.00     0.031 A 
ATOM     45  C   UNL A   1      38.042  33.139  35.090  1.00  0.00     0.074 A 
ATOM     46  C   UNL A   1      37.674  31.890  32.994  1.00  0.00     0.049 A 
ATOM     47  N   UNL A   1      39.160  32.610  35.517  1.00  0.00    -0.248 NA
ATOM     48  C   UNL A   1      37.470  34.151  35.992  1.00  0.00     0.031 C 
ATOM     49  C   UNL A   1      36.996  31.501  31.761  1.00  0.00     0.029 A 
ATOM     50  N   UNL A   1      38.767  31.058  33.056  1.00  0.00    -0.354 N 
ATOM     51  C   UNL A   1      39.433  33.234  36.727  1.00  0.00     0.074 A 
ATOM     52  C   UNL A   1      38.378  34.198  36.955  1.00  0.00     0.031 C 
ATOM     53  C   UNL A   1      37.702  30.524  31.166  1.00  0.00     0.029 A 
ATOM     54  C   UNL A   1      38.901  30.248  31.956  1.00  0.00     0.049 A 
ATOM     55  H   UNL A   1      39.392  31.045  33.816  1.00  0.00     0.167 HD
ATOM     56  C   UNL A   1      40.470  33.020  37.572  1.00  0.00     0.037 A 
ATOM     57  C   UNL A   1      39.899  29.410  31.610  1.00  0.00     0.037 A 
ATOM     58  C   UNL A   1      41.522  32.064  37.339  1.00  0.00     0.049 A 
ATOM     59  C   UNL A   1      41.086  29.248  32.527  1.00  0.00     0.074 A 
ATOM     60  C   UNL A   1      42.599  31.752  38.150  1.00  0.00     0.029 A 
ATOM     61  N   UNL A   1      41.637  31.277  36.202  1.00  0.00    -0.354 N 
ATOM     62  N   UNL A   1      41.323  29.813  33.686  1.00  0.00    -0.248 NA
ATOM     63  C   UNL A   1      42.146  28.328  32.087  1.00  0.00     0.031 C 
ATOM     64  C   UNL A   1      43.402  30.829  37.473  1.00  0.00     0.029 A 
ATOM     65  C   UNL A   1      42.788  30.509  36.273  1.00  0.00     0.049 A 
ATOM     66  H   UNL A   1      40.996  31.266  35.455  1.00  0.00     0.167 HD
ATOM     67  C   UNL A   1      42.537  29.298  34.125  1.00  0.00     0.074 A 
ATOM     68  C   UNL A   1      42.982  28.363  33.114  1.00  0.00     0.031 C 
ATOM     69  C   UNL A   1      43.221  29.576  35.263  1.00  0.00     0.037 A 
BRANCH  56  70
ATOM     70  C   UNL A   1      40.539  33.863  38.813  1.00  0.00     0.064 A 
ATOM     71  C   UNL A   1      39.911  33.480  40.008  1.00  0.00     0.173 A 
ATOM     72  C   UNL A   1      41.271  35.061  38.813  1.00  0.00     0.173 A 
ATOM     73  F   UNL A   1      39.189  32.351  40.060  1.00  0.00    -0.203 F 
ATOM     74  C   UNL A   1      39.988  34.280  41.146  1.00  0.00     0.198 A 
ATOM     75  C   UNL A   1      41.374  35.840  39.962  1.00  0.00     0.198 A 
ATOM     76  F   UNL A   1      41.896  35.473  37.700  1.00  0.00    -0.203 F 
ATOM     77  F   UNL A   1      39.334  33.921  42.260  1.00  0.00    -0.200 F 
ATOM     78  C   UNL A   1      40.724  35.454  41.124  1.00  0.00     0.200 A 
ATOM     79  F   UNL A   1      42.101  36.967  39.943  1.00  0.00    -0.200 F 
ATOM     80  F   UNL A   1      40.803  36.218  42.222  1.00  0.00    -0.200 F 
ENDBRANCH  56  70
BRANCH  57  81
ATOM     81  C   UNL A   1      39.837  28.676  30.316  1.00  0.00     0.064 A 
ATOM     82  C   UNL A   1      39.288  27.389  30.238  1.00  0.00     0.173 A 
ATOM     83  C   UNL A   1      40.347  29.240  29.136  1.00  0.00     0.173 A 
ATOM     84  F   UNL A   1      38.814  26.796  31.342  1.00  0.00    -0.203 F 
ATOM     85  C   UNL A   1      39.269  26.687  29.033  1.00  0.00     0.198 A 
ATOM     86  C   UNL A   1      40.297  28.550  27.927  1.00  0.00     0.198 A 
ATOM     87  F   UNL A   1      40.889  30.466  29.156  1.00  0.00    -0.203 F 
ATOM     88  F   UNL A   1      38.787  25.437  28.999  1.00  0.00    -0.200 F 
ATOM     89  C   UNL A   1      39.766  27.269  27.878  1.00  0.00     0.200 A 
ATOM     90  F   UNL A   1      40.768  29.122  26.811  1.00  0.00    -0.200 F 
ATOM     91  F   UNL A   1      39.743  26.595  26.721  1.00  0.00    -0.200 F 
ENDBRANCH  57  81
BRANCH  69  92
ATOM     92  C   UNL A   1      44.507  28.833  35.504  1.00  0.00     0.064 A 
ATOM     93  C   UNL A   1      45.747  29.350  35.102  1.00  0.00     0.173 A 
ATOM     94  C   UNL A   1      44.500  27.610  36.193  1.00  0.00     0.173 A 
ATOM     95  F   UNL A   1      45.811  30.509  34.429  1.00  0.00    -0.203 F 
ATOM     96  C   UNL A   1      46.930  28.659  35.359  1.00  0.00     0.198 A 
ATOM     97  C   UNL A   1      45.686  26.939  36.479  1.00  0.00     0.198 A 
ATOM     98  F   UNL A   1      43.343  27.072  36.607  1.00  0.00    -0.203 F 
ATOM     99  F   UNL A   1      48.099  29.149  34.923  1.00  0.00    -0.200 F 
ATOM    100  C   UNL A   1      46.900  27.459  36.055  1.00  0.00     0.200 A 
ATOM    101  F   UNL A   1      45.655  25.790  37.168  1.00  0.00    -0.200 F 
ATOM    102  F   UNL A   1      48.038  26.803  36.313  1.00  0.00    -0.200 F 
ENDBRANCH  69  92
ENDBRANCH  43  44
ENDBRANCH  36  38
ENDBRANCH  35  36
ENDBRANCH  34  35
ENDBRANCH  33  34
ENDBRANCH  32  33
ENDBRANCH  31  32
ENDBRANCH   1  31
TORSDOF 20
ENDMDL
MODEL 2
REMARK VINA RESULT:     -11.6      5.042      9.375
REMARK SMILES O=C(Nc1cccc(C(=O)OCCOCCOCCOC(=O)c2ccc(-c3c4nc(c(-c5c(F)c(F)c(F)c(F)c5F)c5ccc([nH]5)c(-c5c(F)c(F)c(F)c(F)c5F)c5nc(c(-c6c(F)c(F)c(F)c(F)c6F)c6ccc3[nH]6)C=C5)C=C4)cc2)c1)c1ccc(N2C(=O)CCC2=O)cc1
REMARK SMILES IDX 15 1 14 2 13 3 12 4 11 5 9 6 10 7 8 8 4 9 5 10 86 11 6 12
REMARK SMILES IDX 7 13 3 14 1 15 2 16 87 18 88 19 99 20 89 21 98 22 90 23
REMARK SMILES IDX 91 24 92 25 96 26 93 27 94 28 95 29 97 30 16 31 17 32 18 33
REMARK SMILES IDX 19 34 20 35 21 36 22 37 23 38 24 39 85 40 25 41 84 42 26 43
REMARK SMILES IDX 27 44 28 45 78 46 29 47 83 48 77 49 79 50 30 51 82 52 76 53
REMARK SMILES IDX 75 54 31 56 63 57 43 58 62 59 44 60 47 61 61 62 80 63 45 64
REMARK SMILES IDX 46 65 60 67 81 68 48 69 32 70 33 71 41 72 34 73 35 74 39 75
REMARK SMILES IDX 42 76 36 77 37 78 40 79 38 80 64 81 65 82 73 83 66 84 67 85
REMARK SMILES IDX 71 86 74 87 68 88 69 89 72 90 70 91 49 92 50 93 58 94 51 95
REMARK SMILES IDX 52 96 56 97 59 98 53 99 54 100 57 101 55 102
REMARK H PARENT 3 17 79 55 47 66
REMARK Flexibility Score: inf
ROOT
ATOM      1  C   UNL A   1      34.673  32.745  28.954  1.00  0.00     0.188 C 
ENDROOT
BRANCH   1   2
ATOM      2  O   UNL A   1      34.396  32.141  27.706  1.00  0.00    -0.376 OA
BRANCH   2   3
ATOM      3  C   UNL A   1      33.767  30.871  27.637  1.00  0.00     0.202 C 
BRANCH   3   4
ATOM      4  C   UNL A   1      32.445  30.633  26.891  1.00  0.00     0.261 C 
BRANCH   4   5
ATOM      5  O   UNL A   1      32.110  29.262  26.663  1.00  0.00    -0.460 OA
BRANCH   5   6
ATOM      6  C   UNL A   1      32.376  28.778  25.423  1.00  0.00     0.338 C 
ATOM      7  O   UNL A   1      33.377  28.960  24.761  1.00  0.00    -0.246 OA
BRANCH   6   8
ATOM      8  C   UNL A   1      31.303  27.828  25.038  1.00  0.00     0.062 A 
ATOM      9  C   UNL A   1      29.904  25.933  25.590  1.00  0.00     0.042 A 
ATOM     10  C   UNL A   1      29.230  26.083  24.377  1.00  0.00     0.026 A 
ATOM     11  C   UNL A   1      31.021  26.726  25.841  1.00  0.00     0.041 A 
ATOM     12  C   UNL A   1      29.575  27.128  23.510  1.00  0.00     0.003 A 
ATOM     13  C   UNL A   1      30.577  28.034  23.866  1.00  0.00     0.016 A 
BRANCH   9  14
ATOM     14  N   UNL A   1      29.388  25.041  26.552  1.00  0.00    -0.322 N 
ATOM     15  O   UNL A   1      29.176  23.045  27.631  1.00  0.00    -0.269 OA
ATOM     16  C   UNL A   1      29.818  23.759  26.866  1.00  0.00     0.255 C 
ATOM     17  H   UNL A   1      28.618  25.371  27.070  1.00  0.00     0.170 HD
BRANCH  16  18
ATOM     18  C   UNL A   1      31.107  23.258  26.322  1.00  0.00     0.040 A 
ATOM     19  C   UNL A   1      32.292  23.398  27.053  1.00  0.00     0.016 A 
ATOM     20  C   UNL A   1      31.149  22.801  25.004  1.00  0.00     0.016 A 
ATOM     21  C   UNL A   1      33.525  23.180  26.428  1.00  0.00     0.027 A 
ATOM     22  C   UNL A   1      32.390  22.597  24.384  1.00  0.00     0.027 A 
ATOM     23  C   UNL A   1      33.597  22.801  25.077  1.00  0.00     0.052 A 
BRANCH  23  24
ATOM     24  N   UNL A   1      34.855  22.643  24.431  1.00  0.00    -0.251 N 
ATOM     25  C   UNL A   1      35.264  23.372  23.339  1.00  0.00     0.234 C 
ATOM     26  C   UNL A   1      35.819  21.748  24.837  1.00  0.00     0.234 C 
ATOM     27  O   UNL A   1      34.684  24.284  22.762  1.00  0.00    -0.274 OA
ATOM     28  C   UNL A   1      36.653  22.954  22.960  1.00  0.00     0.111 C 
ATOM     29  C   UNL A   1      36.971  21.802  23.880  1.00  0.00     0.111 C 
ATOM     30  O   UNL A   1      35.787  20.950  25.764  1.00  0.00    -0.274 OA
ENDBRANCH  23  24
ENDBRANCH  16  18
ENDBRANCH   9  14
ENDBRANCH   6   8
ENDBRANCH   5   6
ENDBRANCH   4   5
ENDBRANCH   3   4
ENDBRANCH   2   3
ENDBRANCH   1   2
BRANCH   1  31
ATOM     31  C   UNL A   1      34.007  34.079  29.352  1.00  0.00     0.188 C 
BRANCH  31  32
ATOM     32  O   UNL A   1      34.430  34.719  30.527  1.00  0.00    -0.376 OA
BRANCH  32  33
ATOM     33  C   UNL A   1      34.204  34.110  31.786  1.00  0.00     0.202 C 
BRANCH  33  34
ATOM     34  C   UNL A   1      35.296  33.619  32.761  1.00  0.00     0.261 C 
BRANCH  34  35
ATOM     35  O   UNL A   1      35.736  32.260  32.667  1.00  0.00    -0.460 OA
BRANCH  35  36
ATOM     36  C   UNL A   1      36.856  31.951  33.370  1.00  0.00     0.338 C 
ATOM     37  O   UNL A   1      36.996  31.944  34.580  1.00  0.00    -0.246 OA
BRANCH  36  38
ATOM     38  C   UNL A   1      37.873  31.421  32.438  1.00  0.00     0.060 A 
ATOM     39  C   UNL A   1      39.056  30.874  32.957  1.00  0.00     0.016 A 
ATOM     40  C   UNL A   1      37.670  31.488  31.060  1.00  0.00     0.016 A 
ATOM     41  C   UNL A   1      40.042  30.390  32.096  1.00  0.00     0.010 A 
ATOM     42  C   UNL A   1      38.670  31.029  30.200  1.00  0.00     0.010 A 
ATOM     43  C   UNL A   1      39.868  30.494  30.710  1.00  0.00    -0.014 A 
BRANCH  43  44
ATOM     44  C   UNL A   1      40.988  30.185  29.789  1.00  0.00     0.031 A 
ATOM     45  C   UNL A   1      41.074  28.808  29.190  1.00  0.00     0.074 A 
ATOM     46  C   UNL A   1      41.928  31.103  29.499  1.00  0.00     0.049 A 
ATOM     47  N   UNL A   1      42.013  28.278  28.450  1.00  0.00    -0.248 NA
ATOM     48  C   UNL A   1      39.946  27.907  29.474  1.00  0.00     0.031 C 
ATOM     49  C   UNL A   1      41.937  32.481  29.981  1.00  0.00     0.029 A 
ATOM     50  N   UNL A   1      43.070  31.001  28.743  1.00  0.00    -0.354 N 
ATOM     51  C   UNL A   1      41.598  26.977  28.192  1.00  0.00     0.074 A 
ATOM     52  C   UNL A   1      40.336  26.792  28.875  1.00  0.00     0.031 C 
ATOM     53  C   UNL A   1      43.047  33.091  29.531  1.00  0.00     0.029 A 
ATOM     54  C   UNL A   1      43.845  32.134  28.765  1.00  0.00     0.049 A 
ATOM     55  H   UNL A   1      43.310  30.192  28.235  1.00  0.00     0.167 HD
ATOM     56  C   UNL A   1      42.215  26.027  27.450  1.00  0.00     0.037 A 
ATOM     57  C   UNL A   1      45.074  32.358  28.257  1.00  0.00     0.037 A 
ATOM     58  C   UNL A   1      43.475  26.213  26.778  1.00  0.00     0.049 A 
ATOM     59  C   UNL A   1      45.779  31.257  27.505  1.00  0.00     0.074 A 
ATOM     60  C   UNL A   1      44.166  25.320  25.978  1.00  0.00     0.029 A 
ATOM     61  N   UNL A   1      44.241  27.368  26.842  1.00  0.00    -0.354 N 
ATOM     62  N   UNL A   1      45.368  30.042  27.233  1.00  0.00    -0.248 NA
ATOM     63  C   UNL A   1      47.122  31.560  26.987  1.00  0.00     0.031 C 
ATOM     64  C   UNL A   1      45.381  25.909  25.615  1.00  0.00     0.029 A 
ATOM     65  C   UNL A   1      45.416  27.196  26.127  1.00  0.00     0.049 A 
ATOM     66  H   UNL A   1      43.988  28.189  27.323  1.00  0.00     0.167 HD
ATOM     67  C   UNL A   1      46.383  29.449  26.491  1.00  0.00     0.074 A 
ATOM     68  C   UNL A   1      47.425  30.443  26.343  1.00  0.00     0.031 C 
ATOM     69  C   UNL A   1      46.446  28.194  25.980  1.00  0.00     0.037 A 
BRANCH  56  70
ATOM     70  C   UNL A   1      41.553  24.681  27.358  1.00  0.00     0.064 A 
ATOM     71  C   UNL A   1      42.062  23.556  28.022  1.00  0.00     0.173 A 
ATOM     72  C   UNL A   1      40.372  24.525  26.615  1.00  0.00     0.173 A 
ATOM     73  F   UNL A   1      43.193  23.648  28.737  1.00  0.00    -0.203 F 
ATOM     74  C   UNL A   1      41.432  22.317  27.921  1.00  0.00     0.198 A 
ATOM     75  C   UNL A   1      39.726  23.294  26.543  1.00  0.00     0.198 A 
ATOM     76  F   UNL A   1      39.838  25.569  25.964  1.00  0.00    -0.203 F 
ATOM     77  F   UNL A   1      41.967  21.244  28.519  1.00  0.00    -0.200 F 
ATOM     78  C   UNL A   1      40.262  22.189  27.188  1.00  0.00     0.200 A 
ATOM     79  F   UNL A   1      38.586  23.176  25.848  1.00  0.00    -0.200 F 
ATOM     80  F   UNL A   1      39.653  20.999  27.097  1.00  0.00    -0.200 F 
ENDBRANCH  56  70
BRANCH  57  81
ATOM     81  C   UNL A   1      45.736  33.674  28.469  1.00  0.00     0.064 A 
ATOM     82  C   UNL A   1      46.531  33.913  29.598  1.00  0.00     0.173 A 
ATOM     83  C   UNL A   1      45.567  34.727  27.556  1.00  0.00     0.173 A 
ATOM     84  F   UNL A   1      46.699  32.949  30.514  1.00  0.00    -0.203 F 
ATOM     85  C   UNL A   1      47.116  35.160  29.815  1.00  0.00     0.198 A 
ATOM     86  C   UNL A   1      46.179  35.962  27.758  1.00  0.00     0.198 A 
ATOM     87  F   UNL A   1      44.811  34.554  26.462  1.00  0.00    -0.203 F 
ATOM     88  F   UNL A   1      47.827  35.376  30.931  1.00  0.00    -0.200 F 
ATOM     89  C   UNL A   1      46.946  36.181  28.893  1.00  0.00     0.200 A 
ATOM     90  F   UNL A   1      46.022  36.941  26.858  1.00  0.00    -0.200 F 
ATOM     91  F   UNL A   1      47.512  37.377  29.101  1.00  0.00    -0.200 F 
ENDBRANCH  57  81
BRANCH  69  92
ATOM     92  C   UNL A   1      47.663  27.828  25.174  1.00  0.00     0.064 A 
ATOM     93  C   UNL A   1      48.859  27.422  25.783  1.00  0.00     0.173 A 
ATOM     94  C   UNL A   1      47.612  27.834  23.772  1.00  0.00     0.173 A 
ATOM     95  F   UNL A   1      48.967  27.410  27.120  1.00  0.00    -0.203 F 
ATOM     96  C   UNL A   1      49.967  27.061  25.018  1.00  0.00     0.198 A 
ATOM     97  C   UNL A   1      48.709  27.440  23.010  1.00  0.00     0.198 A 
ATOM     98  F   UNL A   1      46.490  28.206  23.136  1.00  0.00    -0.203 F 
ATOM     99  F   UNL A   1      51.115  26.724  25.622  1.00  0.00    -0.200 F 
ATOM    100  C   UNL A   1      49.888  27.061  23.633  1.00  0.00     0.200 A 
ATOM    101  F   UNL A   1      48.623  27.423  21.673  1.00  0.00    -0.200 F 
ATOM    102  F   UNL A   1      50.950  26.701  22.900  1.00  0.00    -0.200 F 
ENDBRANCH  69  92
ENDBRANCH  43  44
ENDBRANCH  36  38
ENDBRANCH  35  36
ENDBRANCH  34  35
ENDBRANCH  33  34
ENDBRANCH  32  33
ENDBRANCH  31  32
ENDBRANCH   1  31
TORSDOF 20
ENDMDL
MODEL 3
REMARK VINA RESULT:     -11.2      0.661      2.091
REMARK SMILES O=C(Nc1cccc(C(=O)OCCOCCOCCOC(=O)c2ccc(-c3c4nc(c(-c5c(F)c(F)c(F)c(F)c5F)c5ccc([nH]5)c(-c5c(F)c(F)c(F)c(F)c5F)c5nc(c(-c6c(F)c(F)c(F)c(F)c6F)c6ccc3[nH]6)C=C5)C=C4)cc2)c1)c1ccc(N2C(=O)CCC2=O)cc1
REMARK SMILES IDX 15 1 14 2 13 3 12 4 11 5 9 6 10 7 8 8 4 9 5 10 86 11 6 12
REMARK SMILES IDX 7 13 3 14 1 15 2 16 87 18 88 19 99 20 89 21 98 22 90 23
REMARK SMILES IDX 91 24 92 25 96 26 93 27 94 28 95 29 97 30 16 31 17 32 18 33
REMARK SMILES IDX 19 34 20 35 21 36 22 37 23 38 24 39 85 40 25 41 84 42 26 43
REMARK SMILES IDX 27 44 28 45 78 46 29 47 83 48 77 49 79 50 30 51 82 52 76 53
REMARK SMILES IDX 75 54 31 56 63 57 43 58 62 59 44 60 47 61 61 62 80 63 45 64
REMARK SMILES IDX 46 65 60 67 81 68 48 69 32 70 33 71 41 72 34 73 35 74 39 75
REMARK SMILES IDX 42 76 36 77 37 78 40 79 38 80 64 81 65 82 73 83 66 84 67 85
REMARK SMILES IDX 71 86 74 87 68 88 69 89 72 90 70 91 49 92 50 93 58 94 51 95
REMARK SMILES IDX 52 96 56 97 59 98 53 99 54 100 57 101 55 102
REMARK H PARENT 3 17 79 55 47 66
REMARK Flexibility Score: inf
ROOT
ATOM      1  C   UNL A   1      35.173  31.714  27.724  1.00  0.00     0.188 C 
ENDROOT
BRANCH   1   2
ATOM      2  O   UNL A   1      33.921  31.707  27.066  1.00  0.00    -0.376 OA
BRANCH   2   3
ATOM      3  C   UNL A   1      32.873  30.858  27.506  1.00  0.00     0.202 C 
BRANCH   3   4
ATOM      4  C   UNL A   1      31.980  30.062  26.541  1.00  0.00     0.261 C 
BRANCH   4   5
ATOM      5  O   UNL A   1      32.439  30.008  25.189  1.00  0.00    -0.460 OA
BRANCH   5   6
ATOM      6  C   UNL A   1      32.834  28.790  24.738  1.00  0.00     0.338 C 
ATOM      7  O   UNL A   1      33.967  28.361  24.673  1.00  0.00    -0.246 OA
BRANCH   6   8
ATOM      8  C   UNL A   1      31.631  27.962  24.476  1.00  0.00     0.062 A 
ATOM      9  C   UNL A   1      30.141  26.182  25.156  1.00  0.00     0.042 A 
ATOM     10  C   UNL A   1      29.327  26.448  24.054  1.00  0.00     0.026 A 
ATOM     11  C   UNL A   1      31.353  26.855  25.275  1.00  0.00     0.041 A 
ATOM     12  C   UNL A   1      29.652  27.494  23.181  1.00  0.00     0.003 A 
ATOM     13  C   UNL A   1      30.776  28.287  23.423  1.00  0.00     0.016 A 
BRANCH   9  14
ATOM     14  N   UNL A   1      29.674  25.299  26.151  1.00  0.00    -0.322 N 
ATOM     15  O   UNL A   1      29.637  23.371  27.366  1.00  0.00    -0.269 OA
ATOM     16  C   UNL A   1      30.237  24.107  26.587  1.00  0.00     0.255 C 
ATOM     17  H   UNL A   1      28.837  25.563  26.597  1.00  0.00     0.170 HD
BRANCH  16  18
ATOM     18  C   UNL A   1      31.611  23.738  26.159  1.00  0.00     0.040 A 
ATOM     19  C   UNL A   1      31.850  23.263  24.864  1.00  0.00     0.016 A 
ATOM     20  C   UNL A   1      32.629  23.709  27.112  1.00  0.00     0.016 A 
ATOM     21  C   UNL A   1      33.078  22.663  24.559  1.00  0.00     0.027 A 
ATOM     22  C   UNL A   1      33.850  23.095  26.800  1.00  0.00     0.027 A 
ATOM     23  C   UNL A   1      34.088  22.546  25.527  1.00  0.00     0.052 A 
BRANCH  23  24
ATOM     24  N   UNL A   1      35.310  21.879  25.228  1.00  0.00    -0.251 N 
ATOM     25  C   UNL A   1      36.525  22.508  25.092  1.00  0.00     0.234 C 
ATOM     26  C   UNL A   1      35.418  20.518  25.053  1.00  0.00     0.234 C 
ATOM     27  O   UNL A   1      36.798  23.694  25.240  1.00  0.00    -0.274 OA
ATOM     28  C   UNL A   1      37.582  21.483  24.813  1.00  0.00     0.111 C 
ATOM     29  C   UNL A   1      36.828  20.184  24.673  1.00  0.00     0.111 C 
ATOM     30  O   UNL A   1      34.543  19.664  25.101  1.00  0.00    -0.274 OA
ENDBRANCH  23  24
ENDBRANCH  16  18
ENDBRANCH   9  14
ENDBRANCH   6   8
ENDBRANCH   5   6
ENDBRANCH   4   5
ENDBRANCH   3   4
ENDBRANCH   2   3
ENDBRANCH   1   2
BRANCH   1  31
ATOM     31  C   UNL A   1      35.877  33.042  28.068  1.00  0.00     0.188 C 
BRANCH  31  32
ATOM     32  O   UNL A   1      35.102  34.209  28.169  1.00  0.00    -0.376 OA
BRANCH  32  33
ATOM     33  C   UNL A   1      33.848  34.172  28.826  1.00  0.00     0.202 C 
BRANCH  33  34
ATOM     34  C   UNL A   1      33.151  35.370  29.507  1.00  0.00     0.261 C 
BRANCH  34  35
ATOM     35  O   UNL A   1      32.323  35.121  30.648  1.00  0.00    -0.460 OA
BRANCH  35  36
ATOM     36  C   UNL A   1      32.703  35.733  31.800  1.00  0.00     0.338 C 
ATOM     37  O   UNL A   1      32.126  36.627  32.391  1.00  0.00    -0.246 OA
BRANCH  36  38
ATOM     38  C   UNL A   1      33.862  35.011  32.362  1.00  0.00     0.060 A 
ATOM     39  C   UNL A   1      35.129  35.611  32.313  1.00  0.00     0.016 A 
ATOM     40  C   UNL A   1      33.703  33.739  32.911  1.00  0.00     0.016 A 
ATOM     41  C   UNL A   1      36.244  34.938  32.815  1.00  0.00     0.010 A 
ATOM     42  C   UNL A   1      34.824  33.056  33.388  1.00  0.00     0.010 A 
ATOM     43  C   UNL A   1      36.103  33.641  33.327  1.00  0.00    -0.014 A 
BRANCH  43  44
ATOM     44  C   UNL A   1      37.301  32.835  33.664  1.00  0.00     0.031 A 
ATOM     45  C   UNL A   1      38.025  33.117  34.952  1.00  0.00     0.074 A 
ATOM     46  C   UNL A   1      37.753  31.877  32.836  1.00  0.00     0.049 A 
ATOM     47  N   UNL A   1      39.146  32.619  35.404  1.00  0.00    -0.248 NA
ATOM     48  C   UNL A   1      37.397  34.103  35.845  1.00  0.00     0.031 C 
ATOM     49  C   UNL A   1      37.121  31.480  31.581  1.00  0.00     0.029 A 
ATOM     50  N   UNL A   1      38.868  31.079  32.920  1.00  0.00    -0.354 N 
ATOM     51  C   UNL A   1      39.367  33.240  36.627  1.00  0.00     0.074 A 
ATOM     52  C   UNL A   1      38.277  34.169  36.833  1.00  0.00     0.031 C 
ATOM     53  C   UNL A   1      37.873  30.530  30.997  1.00  0.00     0.029 A 
ATOM     54  C   UNL A   1      39.058  30.284  31.817  1.00  0.00     0.049 A 
ATOM     55  H   UNL A   1      39.473  31.078  33.697  1.00  0.00     0.167 HD
ATOM     56  C   UNL A   1      40.386  33.050  37.498  1.00  0.00     0.037 A 
ATOM     57  C   UNL A   1      40.091  29.480  31.491  1.00  0.00     0.037 A 
ATOM     58  C   UNL A   1      41.474  32.130  37.285  1.00  0.00     0.049 A 
ATOM     59  C   UNL A   1      41.256  29.347  32.439  1.00  0.00     0.074 A 
ATOM     60  C   UNL A   1      42.538  31.844  38.123  1.00  0.00     0.029 A 
ATOM     61  N   UNL A   1      41.644  31.357  36.145  1.00  0.00    -0.354 N 
ATOM     62  N   UNL A   1      41.444  29.908  33.609  1.00  0.00    -0.248 NA
ATOM     63  C   UNL A   1      42.356  28.464  32.020  1.00  0.00     0.031 C 
ATOM     64  C   UNL A   1      43.387  30.952  37.461  1.00  0.00     0.029 A 
ATOM     65  C   UNL A   1      42.817  30.625  36.241  1.00  0.00     0.049 A 
ATOM     66  H   UNL A   1      41.024  31.333  35.381  1.00  0.00     0.167 HD
ATOM     67  C   UNL A   1      42.661  29.427  34.076  1.00  0.00     0.074 A 
ATOM     68  C   UNL A   1      43.163  28.516  33.070  1.00  0.00     0.031 C 
ATOM     69  C   UNL A   1      43.305  29.716  35.235  1.00  0.00     0.037 A 
BRANCH  56  70
ATOM     70  C   UNL A   1      40.395  33.883  38.747  1.00  0.00     0.064 A 
ATOM     71  C   UNL A   1      41.077  35.108  38.819  1.00  0.00     0.173 A 
ATOM     72  C   UNL A   1      39.685  33.462  39.883  1.00  0.00     0.173 A 
ATOM     73  F   UNL A   1      41.781  35.551  37.767  1.00  0.00    -0.203 F 
ATOM     74  C   UNL A   1      41.073  35.863  39.990  1.00  0.00     0.198 A 
ATOM     75  C   UNL A   1      39.654  34.236  41.040  1.00  0.00     0.198 A 
ATOM     76  F   UNL A   1      39.011  32.302  39.868  1.00  0.00    -0.203 F 
ATOM     77  F   UNL A   1      41.776  37.002  40.053  1.00  0.00    -0.200 F 
ATOM     78  C   UNL A   1      40.356  35.430  41.095  1.00  0.00     0.200 A 
ATOM     79  F   UNL A   1      38.948  33.824  42.101  1.00  0.00    -0.200 F 
ATOM     80  F   UNL A   1      40.347  36.162  42.218  1.00  0.00    -0.200 F 
ENDBRANCH  56  70
BRANCH  57  81
ATOM     81  C   UNL A   1      40.087  28.758  30.190  1.00  0.00     0.064 A 
ATOM     82  C   UNL A   1      40.672  29.319  29.047  1.00  0.00     0.173 A 
ATOM     83  C   UNL A   1      39.478  27.500  30.059  1.00  0.00     0.173 A 
ATOM     84  F   UNL A   1      41.241  30.531  29.113  1.00  0.00    -0.203 F 
ATOM     85  C   UNL A   1      40.631  28.660  27.819  1.00  0.00     0.198 A 
ATOM     86  C   UNL A   1      39.466  26.828  28.839  1.00  0.00     0.198 A 
ATOM     87  F   UNL A   1      38.898  26.920  31.120  1.00  0.00    -0.203 F 
ATOM     88  F   UNL A   1      41.150  29.245  26.731  1.00  0.00    -0.200 F 
ATOM     89  C   UNL A   1      40.035  27.412  27.717  1.00  0.00     0.200 A 
ATOM     90  F   UNL A   1      38.900  25.617  28.749  1.00  0.00    -0.200 F 
ATOM     91  F   UNL A   1      39.999  26.778  26.538  1.00  0.00    -0.200 F 
ENDBRANCH  57  81
BRANCH  69  92
ATOM     92  C   UNL A   1      44.607  29.010  35.505  1.00  0.00     0.064 A 
ATOM     93  C   UNL A   1      44.656  27.769  36.156  1.00  0.00     0.173 A 
ATOM     94  C   UNL A   1      45.818  29.562  35.057  1.00  0.00     0.173 A 
ATOM     95  F   UNL A   1      43.531  27.203  36.616  1.00  0.00    -0.203 F 
ATOM     96  C   UNL A   1      45.870  27.119  36.371  1.00  0.00     0.198 A 
ATOM     97  C   UNL A   1      47.025  28.894  35.242  1.00  0.00     0.198 A 
ATOM     98  F   UNL A   1      45.830  30.743  34.421  1.00  0.00    -0.203 F 
ATOM     99  F   UNL A   1      45.897  25.958  37.039  1.00  0.00    -0.200 F 
ATOM    100  C   UNL A   1      47.052  27.677  35.906  1.00  0.00     0.200 A 
ATOM    101  F   UNL A   1      48.163  29.426  34.775  1.00  0.00    -0.200 F 
ATOM    102  F   UNL A   1      48.216  27.044  36.102  1.00  0.00    -0.200 F 
ENDBRANCH  69  92
ENDBRANCH  43  44
ENDBRANCH  36  38
ENDBRANCH  35  36
ENDBRANCH  34  35
ENDBRANCH  33  34
ENDBRANCH  32  33
ENDBRANCH  31  32
ENDBRANCH   1  31
TORSDOF 20
ENDMDL
