MODEL 1
REMARK VINA RESULT:     -10.5      0.000      0.000
REMARK SMILES CC[C@H](C)[C@@H](NC(=O)/C=C/c1csc(C)n1)C(=O)OCCOCCOCCOC(=O)c1ccc(-c2c3nc(c(-c4c(F)c(F)c(F)c(F)c4F)c4ccc([nH]4)c(-c4c(F)c(F)c(F)c(F)c4F)c4nc(c(-c5c(F)c(F)c(F)c(F)c5F)c5ccc2[nH]5)C=C4)C=C3)cc1
REMARK SMILES IDX 23 1 22 2 21 3 20 4 19 5 17 6 18 7 5 8 3 9 4 10 2 11 1 12
REMARK SMILES IDX 6 13 7 14 8 16 9 17 10 18 11 19 12 20 16 21 13 22 14 23
REMARK SMILES IDX 15 24 24 25 25 26 26 27 27 28 28 29 29 30 30 31 31 32 32 33
REMARK SMILES IDX 93 34 33 35 92 36 34 37 35 38 36 39 86 40 37 41 91 42 85 43
REMARK SMILES IDX 87 44 38 45 90 46 84 47 83 48 39 50 71 51 51 52 70 53 52 54
REMARK SMILES IDX 55 55 69 56 88 57 53 58 54 59 68 61 89 62 56 63 40 64 41 65
REMARK SMILES IDX 49 66 42 67 43 68 47 69 50 70 44 71 45 72 48 73 46 74 72 75
REMARK SMILES IDX 73 76 81 77 74 78 75 79 79 80 82 81 76 82 77 83 80 84 78 85
REMARK SMILES IDX 57 86 58 87 66 88 59 89 60 90 64 91 67 92 61 93 62 94 65 95
REMARK SMILES IDX 63 96
REMARK H PARENT 6 15 87 49 55 60
REMARK Flexibility Score: inf
ROOT
ATOM      1  C   UNL A   1      34.650  31.554  27.805  1.00  0.00     0.188 C 
ENDROOT
BRANCH   1   2
ATOM      2  O   UNL A   1      33.781  30.493  27.484  1.00  0.00    -0.376 OA
BRANCH   2   3
ATOM      3  C   UNL A   1      34.335  29.208  27.237  1.00  0.00     0.202 C 
BRANCH   3   4
ATOM      4  C   UNL A   1      33.640  28.118  26.398  1.00  0.00     0.261 C 
BRANCH   4   5
ATOM      5  O   UNL A   1      33.955  26.712  26.471  1.00  0.00    -0.462 OA
BRANCH   5   6
ATOM      6  C   UNL A   1      33.898  25.948  25.350  1.00  0.00     0.329 C 
ATOM      7  O   UNL A   1      33.998  26.338  24.191  1.00  0.00    -0.250 OA
BRANCH   6   8
ATOM      8  C   UNL A   1      33.495  24.501  25.600  1.00  0.00     0.195 C 
BRANCH   8   9
ATOM      9  C   UNL A   1      34.712  23.557  25.871  1.00  0.00     0.019 C 
ATOM     10  C   UNL A   1      34.525  22.766  27.178  1.00  0.00     0.010 C 
BRANCH   9  11
ATOM     11  C   UNL A   1      34.932  22.550  24.709  1.00  0.00     0.002 C 
ATOM     12  C   UNL A   1      35.157  23.170  23.336  1.00  0.00     0.004 C 
ENDBRANCH   9  11
ENDBRANCH   8   9
BRANCH   8  13
ATOM     13  N   UNL A   1      32.417  24.412  26.624  1.00  0.00    -0.339 N 
ATOM     14  C   UNL A   1      31.055  24.533  26.453  1.00  0.00     0.244 C 
ATOM     15  H   UNL A   1      32.717  24.244  27.547  1.00  0.00     0.164 HD
ATOM     16  O   UNL A   1      30.296  23.763  27.033  1.00  0.00    -0.270 OA
BRANCH  14  17
ATOM     17  C   UNL A   1      30.511  25.750  25.801  1.00  0.00     0.073 C 
ATOM     18  C   UNL A   1      30.224  25.852  24.489  1.00  0.00     0.035 C 
BRANCH  18  19
ATOM     19  C   UNL A   1      29.869  27.077  23.816  1.00  0.00     0.074 A 
ATOM     20  C   UNL A   1      30.747  28.120  23.597  1.00  0.00     0.095 A 
ATOM     21  N   UNL A   1      28.546  27.350  23.492  1.00  0.00    -0.242 NA
ATOM     22  S   UNL A   1      29.906  29.476  22.965  1.00  0.00    -0.127 S 
ATOM     23  C   UNL A   1      28.430  28.604  23.096  1.00  0.00     0.090 A 
ATOM     24  C   UNL A   1      27.137  29.300  22.823  1.00  0.00     0.079 C 
ENDBRANCH  18  19
ENDBRANCH  14  17
ENDBRANCH   8  13
ENDBRANCH   6   8
ENDBRANCH   5   6
ENDBRANCH   4   5
ENDBRANCH   3   4
ENDBRANCH   2   3
ENDBRANCH   1   2
BRANCH   1  25
ATOM     25  C   UNL A   1      34.020  32.880  28.228  1.00  0.00     0.188 C 
BRANCH  25  26
ATOM     26  O   UNL A   1      34.753  33.662  29.153  1.00  0.00    -0.376 OA
BRANCH  26  27
ATOM     27  C   UNL A   1      34.144  34.292  30.279  1.00  0.00     0.202 C 
BRANCH  27  28
ATOM     28  C   UNL A   1      34.364  33.723  31.683  1.00  0.00     0.261 C 
BRANCH  28  29
ATOM     29  O   UNL A   1      34.872  32.377  31.739  1.00  0.00    -0.460 OA
BRANCH  29  30
ATOM     30  C   UNL A   1      35.893  32.116  32.585  1.00  0.00     0.338 C 
ATOM     31  O   UNL A   1      35.928  32.324  33.785  1.00  0.00    -0.246 OA
BRANCH  30  32
ATOM     32  C   UNL A   1      36.897  31.306  31.851  1.00  0.00     0.060 A 
ATOM     33  C   UNL A   1      37.817  30.557  32.596  1.00  0.00     0.016 A 
ATOM     34  C   UNL A   1      36.896  31.225  30.454  1.00  0.00     0.016 A 
ATOM     35  C   UNL A   1      38.790  29.793  31.949  1.00  0.00     0.010 A 
ATOM     36  C   UNL A   1      37.869  30.462  29.805  1.00  0.00     0.010 A 
ATOM     37  C   UNL A   1      38.855  29.788  30.549  1.00  0.00    -0.014 A 
BRANCH  37  38
ATOM     38  C   UNL A   1      40.088  29.323  29.866  1.00  0.00     0.031 A 
ATOM     39  C   UNL A   1      41.214  30.312  29.713  1.00  0.00     0.074 A 
ATOM     40  C   UNL A   1      40.232  28.066  29.410  1.00  0.00     0.049 A 
ATOM     41  N   UNL A   1      42.356  30.192  29.088  1.00  0.00    -0.248 NA
ATOM     42  C   UNL A   1      41.015  31.625  30.353  1.00  0.00     0.031 C 
ATOM     43  C   UNL A   1      39.250  26.995  29.546  1.00  0.00     0.029 A 
ATOM     44  N   UNL A   1      41.275  27.486  28.729  1.00  0.00    -0.354 N 
ATOM     45  C   UNL A   1      43.000  31.413  29.243  1.00  0.00     0.074 A 
ATOM     46  C   UNL A   1      42.112  32.272  29.994  1.00  0.00     0.031 C 
ATOM     47  C   UNL A   1      39.733  25.887  28.956  1.00  0.00     0.029 A 
ATOM     48  C   UNL A   1      41.040  26.183  28.368  1.00  0.00     0.049 A 
ATOM     49  H   UNL A   1      42.111  27.960  28.519  1.00  0.00     0.167 HD
ATOM     50  C   UNL A   1      44.225  31.786  28.808  1.00  0.00     0.037 A 
ATOM     51  C   UNL A   1      41.785  25.339  27.625  1.00  0.00     0.037 A 
ATOM     52  C   UNL A   1      45.116  30.929  28.071  1.00  0.00     0.049 A 
ATOM     53  C   UNL A   1      43.113  25.806  27.076  1.00  0.00     0.074 A 
ATOM     54  C   UNL A   1      46.386  31.209  27.602  1.00  0.00     0.029 A 
ATOM     55  N   UNL A   1      44.823  29.629  27.690  1.00  0.00    -0.354 N 
ATOM     56  N   UNL A   1      43.722  26.955  27.238  1.00  0.00    -0.248 NA
ATOM     57  C   UNL A   1      43.855  24.853  26.237  1.00  0.00     0.031 C 
ATOM     58  C   UNL A   1      46.839  30.099  26.883  1.00  0.00     0.029 A 
ATOM     59  C   UNL A   1      45.879  29.103  26.963  1.00  0.00     0.049 A 
ATOM     60  H   UNL A   1      43.990  29.151  27.903  1.00  0.00     0.167 HD
ATOM     61  C   UNL A   1      44.930  26.850  26.555  1.00  0.00     0.074 A 
ATOM     62  C   UNL A   1      44.972  25.520  25.986  1.00  0.00     0.031 C 
ATOM     63  C   UNL A   1      45.916  27.770  26.415  1.00  0.00     0.037 A 
BRANCH  50  64
ATOM     64  C   UNL A   1      44.660  33.194  29.084  1.00  0.00     0.064 A 
ATOM     65  C   UNL A   1      44.397  34.244  28.192  1.00  0.00     0.173 A 
ATOM     66  C   UNL A   1      45.331  33.502  30.278  1.00  0.00     0.173 A 
ATOM     67  F   UNL A   1      43.775  34.000  27.028  1.00  0.00    -0.203 F 
ATOM     68  C   UNL A   1      44.812  35.543  28.471  1.00  0.00     0.198 A 
ATOM     69  C   UNL A   1      45.715  34.808  30.570  1.00  0.00     0.198 A 
ATOM     70  F   UNL A   1      45.609  32.536  31.167  1.00  0.00    -0.203 F 
ATOM     71  F   UNL A   1      44.596  36.520  27.579  1.00  0.00    -0.200 F 
ATOM     72  C   UNL A   1      45.463  35.826  29.663  1.00  0.00     0.200 A 
ATOM     73  F   UNL A   1      46.332  35.079  31.728  1.00  0.00    -0.200 F 
ATOM     74  F   UNL A   1      45.855  37.078  29.934  1.00  0.00    -0.200 F 
ENDBRANCH  50  64
BRANCH  51  75
ATOM     75  C   UNL A   1      41.294  23.965  27.330  1.00  0.00     0.064 A 
ATOM     76  C   UNL A   1      40.179  23.755  26.506  1.00  0.00     0.173 A 
ATOM     77  C   UNL A   1      41.898  22.836  27.904  1.00  0.00     0.173 A 
ATOM     78  F   UNL A   1      39.544  24.803  25.959  1.00  0.00    -0.203 F 
ATOM     79  C   UNL A   1      39.675  22.474  26.285  1.00  0.00     0.198 A 
ATOM     80  C   UNL A   1      41.413  21.553  27.657  1.00  0.00     0.198 A 
ATOM     81  F   UNL A   1      42.962  22.980  28.708  1.00  0.00    -0.203 F 
ATOM     82  F   UNL A   1      38.572  22.309  25.541  1.00  0.00    -0.200 F 
ATOM     83  C   UNL A   1      40.296  21.374  26.856  1.00  0.00     0.200 A 
ATOM     84  F   UNL A   1      42.023  20.493  28.204  1.00  0.00    -0.200 F 
ATOM     85  F   UNL A   1      39.811  20.143  26.646  1.00  0.00    -0.200 F 
ENDBRANCH  51  75
BRANCH  63  86
ATOM     86  C   UNL A   1      47.151  27.364  25.660  1.00  0.00     0.064 A 
ATOM     87  C   UNL A   1      47.311  27.638  24.295  1.00  0.00     0.173 A 
ATOM     88  C   UNL A   1      48.212  26.733  26.330  1.00  0.00     0.173 A 
ATOM     89  F   UNL A   1      46.323  28.229  23.604  1.00  0.00    -0.203 F 
ATOM     90  C   UNL A   1      48.474  27.272  23.620  1.00  0.00     0.198 A 
ATOM     91  C   UNL A   1      49.387  26.401  25.661  1.00  0.00     0.198 A 
ATOM     92  F   UNL A   1      48.118  26.457  27.639  1.00  0.00    -0.203 F 
ATOM     93  F   UNL A   1      48.584  27.499  22.304  1.00  0.00    -0.200 F 
ATOM     94  C   UNL A   1      49.514  26.662  24.306  1.00  0.00     0.200 A 
ATOM     95  F   UNL A   1      50.398  25.829  26.330  1.00  0.00    -0.200 F 
ATOM     96  F   UNL A   1      50.637  26.321  23.659  1.00  0.00    -0.200 F 
ENDBRANCH  63  86
ENDBRANCH  37  38
ENDBRANCH  30  32
ENDBRANCH  29  30
ENDBRANCH  28  29
ENDBRANCH  27  28
ENDBRANCH  26  27
ENDBRANCH  25  26
ENDBRANCH   1  25
TORSDOF 22
ENDMDL
MODEL 2
REMARK VINA RESULT:     -10.5      4.249      6.589
REMARK SMILES CC[C@H](C)[C@@H](NC(=O)/C=C/c1csc(C)n1)C(=O)OCCOCCOCCOC(=O)c1ccc(-c2c3nc(c(-c4c(F)c(F)c(F)c(F)c4F)c4ccc([nH]4)c(-c4c(F)c(F)c(F)c(F)c4F)c4nc(c(-c5c(F)c(F)c(F)c(F)c5F)c5ccc2[nH]5)C=C4)C=C3)cc1
REMARK SMILES IDX 23 1 22 2 21 3 20 4 19 5 17 6 18 7 5 8 3 9 4 10 2 11 1 12
REMARK SMILES IDX 6 13 7 14 8 16 9 17 10 18 11 19 12 20 16 21 13 22 14 23
REMARK SMILES IDX 15 24 24 25 25 26 26 27 27 28 28 29 29 30 30 31 31 32 32 33
REMARK SMILES IDX 93 34 33 35 92 36 34 37 35 38 36 39 86 40 37 41 91 42 85 43
REMARK SMILES IDX 87 44 38 45 90 46 84 47 83 48 39 50 71 51 51 52 70 53 52 54
REMARK SMILES IDX 55 55 69 56 88 57 53 58 54 59 68 61 89 62 56 63 40 64 41 65
REMARK SMILES IDX 49 66 42 67 43 68 47 69 50 70 44 71 45 72 48 73 46 74 72 75
REMARK SMILES IDX 73 76 81 77 74 78 75 79 79 80 82 81 76 82 77 83 80 84 78 85
REMARK SMILES IDX 57 86 58 87 66 88 59 89 60 90 64 91 67 92 61 93 62 94 65 95
REMARK SMILES IDX 63 96
REMARK H PARENT 6 15 87 49 55 60
REMARK Flexibility Score: inf
ROOT
ATOM      1  C   UNL A   1      33.028  28.444  25.587  1.00  0.00     0.188 C 
ENDROOT
BRANCH   1   2
ATOM      2  O   UNL A   1      32.969  27.424  26.557  1.00  0.00    -0.376 OA
BRANCH   2   3
ATOM      3  C   UNL A   1      31.697  26.916  26.935  1.00  0.00     0.202 C 
BRANCH   3   4
ATOM      4  C   UNL A   1      30.681  26.312  25.946  1.00  0.00     0.261 C 
BRANCH   4   5
ATOM      5  O   UNL A   1      30.635  24.917  25.580  1.00  0.00    -0.462 OA
BRANCH   5   6
ATOM      6  C   UNL A   1      31.037  24.530  24.342  1.00  0.00     0.329 C 
ATOM      7  O   UNL A   1      30.402  23.852  23.543  1.00  0.00    -0.250 OA
BRANCH   6   8
ATOM      8  C   UNL A   1      32.494  24.849  24.032  1.00  0.00     0.195 C 
BRANCH   8   9
ATOM      9  C   UNL A   1      33.491  23.764  24.557  1.00  0.00     0.019 C 
ATOM     10  C   UNL A   1      33.842  22.749  23.455  1.00  0.00     0.010 C 
BRANCH   9  11
ATOM     11  C   UNL A   1      34.807  24.396  25.087  1.00  0.00     0.002 C 
ATOM     12  C   UNL A   1      35.544  23.587  26.145  1.00  0.00     0.004 C 
ENDBRANCH   9  11
ENDBRANCH   8   9
BRANCH   8  13
ATOM     13  N   UNL A   1      32.675  25.196  22.595  1.00  0.00    -0.339 N 
ATOM     14  C   UNL A   1      32.893  26.433  22.030  1.00  0.00     0.244 C 
ATOM     15  H   UNL A   1      32.633  24.442  21.964  1.00  0.00     0.164 HD
ATOM     16  O   UNL A   1      33.722  26.558  21.134  1.00  0.00    -0.270 OA
BRANCH  14  17
ATOM     17  C   UNL A   1      31.940  27.537  22.308  1.00  0.00     0.073 C 
ATOM     18  C   UNL A   1      30.605  27.391  22.401  1.00  0.00     0.035 C 
BRANCH  18  19
ATOM     19  C   UNL A   1      29.660  28.477  22.490  1.00  0.00     0.074 A 
ATOM     20  C   UNL A   1      28.528  28.453  23.278  1.00  0.00     0.095 A 
ATOM     21  N   UNL A   1      29.752  29.567  21.633  1.00  0.00    -0.242 NA
ATOM     22  S   UNL A   1      27.552  29.828  22.952  1.00  0.00    -0.127 S 
ATOM     23  C   UNL A   1      28.669  30.314  21.738  1.00  0.00     0.090 A 
ATOM     24  C   UNL A   1      28.342  31.476  20.860  1.00  0.00     0.079 C 
ENDBRANCH  18  19
ENDBRANCH  14  17
ENDBRANCH   8  13
ENDBRANCH   6   8
ENDBRANCH   5   6
ENDBRANCH   4   5
ENDBRANCH   3   4
ENDBRANCH   2   3
ENDBRANCH   1   2
BRANCH   1  25
ATOM     25  C   UNL A   1      33.194  29.880  26.082  1.00  0.00     0.188 C 
BRANCH  25  26
ATOM     26  O   UNL A   1      32.102  30.435  26.793  1.00  0.00    -0.376 OA
BRANCH  26  27
ATOM     27  C   UNL A   1      31.491  31.670  26.422  1.00  0.00     0.202 C 
BRANCH  27  28
ATOM     28  C   UNL A   1      31.835  32.951  27.187  1.00  0.00     0.261 C 
BRANCH  28  29
ATOM     29  O   UNL A   1      33.212  33.363  27.128  1.00  0.00    -0.460 OA
BRANCH  29  30
ATOM     30  C   UNL A   1      33.775  33.873  28.246  1.00  0.00     0.338 C 
ATOM     31  O   UNL A   1      33.299  34.708  28.996  1.00  0.00    -0.246 OA
BRANCH  30  32
ATOM     32  C   UNL A   1      34.985  33.072  28.553  1.00  0.00     0.060 A 
ATOM     33  C   UNL A   1      34.840  31.687  28.712  1.00  0.00     0.016 A 
ATOM     34  C   UNL A   1      36.256  33.655  28.617  1.00  0.00     0.016 A 
ATOM     35  C   UNL A   1      35.948  30.895  29.017  1.00  0.00     0.010 A 
ATOM     36  C   UNL A   1      37.364  32.863  28.925  1.00  0.00     0.010 A 
ATOM     37  C   UNL A   1      37.207  31.489  29.182  1.00  0.00    -0.014 A 
BRANCH  37  38
ATOM     38  C   UNL A   1      38.288  30.752  29.881  1.00  0.00     0.031 A 
ATOM     39  C   UNL A   1      38.506  31.055  31.340  1.00  0.00     0.074 A 
ATOM     40  C   UNL A   1      39.047  29.828  29.266  1.00  0.00     0.049 A 
ATOM     41  N   UNL A   1      39.430  30.620  32.158  1.00  0.00    -0.248 NA
ATOM     42  C   UNL A   1      37.548  31.988  31.959  1.00  0.00     0.031 C 
ATOM     43  C   UNL A   1      38.903  29.394  27.880  1.00  0.00     0.029 A 
ATOM     44  N   UNL A   1      40.103  29.089  29.745  1.00  0.00    -0.354 N 
ATOM     45  C   UNL A   1      39.174  31.238  33.375  1.00  0.00     0.074 A 
ATOM     46  C   UNL A   1      38.031  32.101  33.186  1.00  0.00     0.031 C 
ATOM     47  C   UNL A   1      39.845  28.470  27.615  1.00  0.00     0.029 A 
ATOM     48  C   UNL A   1      40.681  28.278  28.800  1.00  0.00     0.049 A 
ATOM     49  H   UNL A   1      40.416  29.138  30.677  1.00  0.00     0.167 HD
ATOM     50  C   UNL A   1      39.828  31.094  34.552  1.00  0.00     0.037 A 
ATOM     51  C   UNL A   1      41.775  27.493  28.881  1.00  0.00     0.037 A 
ATOM     52  C   UNL A   1      40.958  30.226  34.747  1.00  0.00     0.049 A 
ATOM     53  C   UNL A   1      42.540  27.414  30.181  1.00  0.00     0.074 A 
ATOM     54  C   UNL A   1      41.677  29.997  35.906  1.00  0.00     0.029 A 
ATOM     55  N   UNL A   1      41.538  29.452  33.754  1.00  0.00    -0.354 N 
ATOM     56  N   UNL A   1      42.285  27.988  31.332  1.00  0.00    -0.248 NA
ATOM     57  C   UNL A   1      43.748  26.576  30.189  1.00  0.00     0.031 C 
ATOM     58  C   UNL A   1      42.731  29.131  35.600  1.00  0.00     0.029 A 
ATOM     59  C   UNL A   1      42.628  28.767  34.267  1.00  0.00     0.049 A 
ATOM     60  H   UNL A   1      41.224  29.397  32.823  1.00  0.00     0.167 HD
ATOM     61  C   UNL A   1      43.276  27.553  32.207  1.00  0.00     0.074 A 
ATOM     62  C   UNL A   1      44.130  26.658  31.456  1.00  0.00     0.031 C 
ATOM     63  C   UNL A   1      43.461  27.865  33.513  1.00  0.00     0.037 A 
BRANCH  50  64
ATOM     64  C   UNL A   1      39.358  31.922  35.711  1.00  0.00     0.064 A 
ATOM     65  C   UNL A   1      38.394  31.455  36.617  1.00  0.00     0.173 A 
ATOM     66  C   UNL A   1      39.903  33.197  35.931  1.00  0.00     0.173 A 
ATOM     67  F   UNL A   1      37.829  30.252  36.440  1.00  0.00    -0.203 F 
ATOM     68  C   UNL A   1      37.974  32.244  37.684  1.00  0.00     0.198 A 
ATOM     69  C   UNL A   1      39.504  33.969  37.019  1.00  0.00     0.198 A 
ATOM     70  F   UNL A   1      40.828  33.692  35.095  1.00  0.00    -0.203 F 
ATOM     71  F   UNL A   1      37.013  31.799  38.506  1.00  0.00    -0.200 F 
ATOM     72  C   UNL A   1      38.534  33.496  37.889  1.00  0.00     0.200 A 
ATOM     73  F   UNL A   1      40.058  35.173  37.221  1.00  0.00    -0.200 F 
ATOM     74  F   UNL A   1      38.135  34.251  38.922  1.00  0.00    -0.200 F 
ENDBRANCH  50  64
BRANCH  51  75
ATOM     75  C   UNL A   1      42.238  26.726  27.692  1.00  0.00     0.064 A 
ATOM     76  C   UNL A   1      41.750  25.439  27.425  1.00  0.00     0.173 A 
ATOM     77  C   UNL A   1      43.211  27.244  26.824  1.00  0.00     0.173 A 
ATOM     78  F   UNL A   1      40.842  24.885  28.242  1.00  0.00    -0.203 F 
ATOM     79  C   UNL A   1      42.234  24.691  26.352  1.00  0.00     0.198 A 
ATOM     80  C   UNL A   1      43.671  26.509  25.733  1.00  0.00     0.198 A 
ATOM     81  F   UNL A   1      43.719  28.467  27.038  1.00  0.00    -0.203 F 
ATOM     82  F   UNL A   1      41.793  23.441  26.157  1.00  0.00    -0.200 F 
ATOM     83  C   UNL A   1      43.189  25.229  25.504  1.00  0.00     0.200 A 
ATOM     84  F   UNL A   1      44.588  27.037  24.911  1.00  0.00    -0.200 F 
ATOM     85  F   UNL A   1      43.656  24.511  24.474  1.00  0.00    -0.200 F 
ENDBRANCH  51  75
BRANCH  63  86
ATOM     86  C   UNL A   1      44.597  27.199  34.238  1.00  0.00     0.064 A 
ATOM     87  C   UNL A   1      44.474  25.917  34.794  1.00  0.00     0.173 A 
ATOM     88  C   UNL A   1      45.846  27.835  34.333  1.00  0.00     0.173 A 
ATOM     89  F   UNL A   1      43.300  25.269  34.741  1.00  0.00    -0.203 F 
ATOM     90  C   UNL A   1      45.547  25.309  35.442  1.00  0.00     0.198 A 
ATOM     91  C   UNL A   1      46.926  27.210  34.949  1.00  0.00     0.198 A 
ATOM     92  F   UNL A   1      46.024  29.057  33.808  1.00  0.00    -0.203 F 
ATOM     93  F   UNL A   1      45.391  24.105  36.009  1.00  0.00    -0.200 F 
ATOM     94  C   UNL A   1      46.774  25.952  35.510  1.00  0.00     0.200 A 
ATOM     95  F   UNL A   1      48.116  27.826  34.998  1.00  0.00    -0.200 F 
ATOM     96  F   UNL A   1      47.809  25.362  36.123  1.00  0.00    -0.200 F 
ENDBRANCH  63  86
ENDBRANCH  37  38
ENDBRANCH  30  32
ENDBRANCH  29  30
ENDBRANCH  28  29
ENDBRANCH  27  28
ENDBRANCH  26  27
ENDBRANCH  25  26
ENDBRANCH   1  25
TORSDOF 22
ENDMDL
MODEL 3
REMARK VINA RESULT:     -10.3      3.128      7.961
REMARK SMILES CC[C@H](C)[C@@H](NC(=O)/C=C/c1csc(C)n1)C(=O)OCCOCCOCCOC(=O)c1ccc(-c2c3nc(c(-c4c(F)c(F)c(F)c(F)c4F)c4ccc([nH]4)c(-c4c(F)c(F)c(F)c(F)c4F)c4nc(c(-c5c(F)c(F)c(F)c(F)c5F)c5ccc2[nH]5)C=C4)C=C3)cc1
REMARK SMILES IDX 23 1 22 2 21 3 20 4 19 5 17 6 18 7 5 8 3 9 4 10 2 11 1 12
REMARK SMILES IDX 6 13 7 14 8 16 9 17 10 18 11 19 12 20 16 21 13 22 14 23
REMARK SMILES IDX 15 24 24 25 25 26 26 27 27 28 28 29 29 30 30 31 31 32 32 33
REMARK SMILES IDX 93 34 33 35 92 36 34 37 35 38 36 39 86 40 37 41 91 42 85 43
REMARK SMILES IDX 87 44 38 45 90 46 84 47 83 48 39 50 71 51 51 52 70 53 52 54
REMARK SMILES IDX 55 55 69 56 88 57 53 58 54 59 68 61 89 62 56 63 40 64 41 65
REMARK SMILES IDX 49 66 42 67 43 68 47 69 50 70 44 71 45 72 48 73 46 74 72 75
REMARK SMILES IDX 73 76 81 77 74 78 75 79 79 80 82 81 76 82 77 83 80 84 78 85
REMARK SMILES IDX 57 86 58 87 66 88 59 89 60 90 64 91 67 92 61 93 62 94 65 95
REMARK SMILES IDX 63 96
REMARK H PARENT 6 15 87 49 55 60
REMARK Flexibility Score: inf
ROOT
ATOM      1  C   UNL A   1      34.090  22.219  27.514  1.00  0.00     0.188 C 
ENDROOT
BRANCH   1   2
ATOM      2  O   UNL A   1      32.775  22.625  27.812  1.00  0.00    -0.376 OA
BRANCH   2   3
ATOM      3  C   UNL A   1      31.803  22.606  26.774  1.00  0.00     0.202 C 
BRANCH   3   4
ATOM      4  C   UNL A   1      30.618  23.587  26.686  1.00  0.00     0.261 C 
BRANCH   4   5
ATOM      5  O   UNL A   1      30.729  25.014  26.871  1.00  0.00    -0.462 OA
BRANCH   5   6
ATOM      6  C   UNL A   1      30.468  25.851  25.833  1.00  0.00     0.329 C 
ATOM      7  O   UNL A   1      29.414  25.945  25.214  1.00  0.00    -0.250 OA
BRANCH   6   8
ATOM      8  C   UNL A   1      31.688  26.599  25.313  1.00  0.00     0.195 C 
BRANCH   8   9
ATOM      9  C   UNL A   1      32.996  26.283  26.111  1.00  0.00     0.019 C 
ATOM     10  C   UNL A   1      33.900  25.306  25.337  1.00  0.00     0.010 C 
BRANCH   9  11
ATOM     11  C   UNL A   1      33.808  27.569  26.423  1.00  0.00     0.002 C 
ATOM     12  C   UNL A   1      32.980  28.808  26.739  1.00  0.00     0.004 C 
ENDBRANCH   9  11
ENDBRANCH   8   9
BRANCH   8  13
ATOM     13  N   UNL A   1      31.824  26.447  23.838  1.00  0.00    -0.339 N 
ATOM     14  C   UNL A   1      32.231  27.380  22.910  1.00  0.00     0.244 C 
ATOM     15  H   UNL A   1      31.593  25.561  23.476  1.00  0.00     0.164 HD
ATOM     16  O   UNL A   1      33.000  27.054  22.011  1.00  0.00    -0.270 OA
BRANCH  14  17
ATOM     17  C   UNL A   1      31.530  28.687  22.839  1.00  0.00     0.073 C 
ATOM     18  C   UNL A   1      30.194  28.835  22.761  1.00  0.00     0.035 C 
BRANCH  18  19
ATOM     19  C   UNL A   1      29.517  30.083  22.510  1.00  0.00     0.074 A 
ATOM     20  C   UNL A   1      29.009  30.900  23.500  1.00  0.00     0.095 A 
ATOM     21  N   UNL A   1      29.180  30.458  21.215  1.00  0.00    -0.242 NA
ATOM     22  S   UNL A   1      28.093  32.173  22.803  1.00  0.00    -0.127 S 
ATOM     23  C   UNL A   1      28.377  31.506  21.244  1.00  0.00     0.090 A 
ATOM     24  C   UNL A   1      27.683  32.086  20.057  1.00  0.00     0.079 C 
ENDBRANCH  18  19
ENDBRANCH  14  17
ENDBRANCH   8  13
ENDBRANCH   6   8
ENDBRANCH   5   6
ENDBRANCH   4   5
ENDBRANCH   3   4
ENDBRANCH   2   3
ENDBRANCH   1   2
BRANCH   1  25
ATOM     25  C   UNL A   1      34.290  21.296  26.313  1.00  0.00     0.188 C 
BRANCH  25  26
ATOM     26  O   UNL A   1      34.736  21.905  25.115  1.00  0.00    -0.376 OA
BRANCH  26  27
ATOM     27  C   UNL A   1      36.100  21.869  24.697  1.00  0.00     0.202 C 
BRANCH  27  28
ATOM     28  C   UNL A   1      37.215  21.755  25.740  1.00  0.00     0.261 C 
BRANCH  28  29
ATOM     29  O   UNL A   1      38.490  21.310  25.245  1.00  0.00    -0.460 OA
BRANCH  29  30
ATOM     30  C   UNL A   1      39.473  21.065  26.141  1.00  0.00     0.338 C 
ATOM     31  O   UNL A   1      40.030  20.002  26.351  1.00  0.00    -0.246 OA
BRANCH  30  32
ATOM     32  C   UNL A   1      39.937  22.369  26.675  1.00  0.00     0.060 A 
ATOM     33  C   UNL A   1      39.404  23.540  26.121  1.00  0.00     0.016 A 
ATOM     34  C   UNL A   1      40.830  22.447  27.750  1.00  0.00     0.016 A 
ATOM     35  C   UNL A   1      39.823  24.790  26.580  1.00  0.00     0.010 A 
ATOM     36  C   UNL A   1      41.251  23.696  28.209  1.00  0.00     0.010 A 
ATOM     37  C   UNL A   1      40.792  24.873  27.589  1.00  0.00    -0.014 A 
BRANCH  37  38
ATOM     38  C   UNL A   1      41.528  26.143  27.807  1.00  0.00     0.031 A 
ATOM     39  C   UNL A   1      40.809  27.247  28.537  1.00  0.00     0.074 A 
ATOM     40  C   UNL A   1      42.796  26.322  27.398  1.00  0.00     0.049 A 
ATOM     41  N   UNL A   1      41.188  28.475  28.782  1.00  0.00    -0.248 NA
ATOM     42  C   UNL A   1      39.470  26.917  29.056  1.00  0.00     0.031 C 
ATOM     43  C   UNL A   1      43.627  25.321  26.737  1.00  0.00     0.029 A 
ATOM     44  N   UNL A   1      43.604  27.432  27.480  1.00  0.00    -0.354 N 
ATOM     45  C   UNL A   1      40.131  29.064  29.464  1.00  0.00     0.074 A 
ATOM     46  C   UNL A   1      39.084  28.074  29.569  1.00  0.00     0.031 C 
ATOM     47  C   UNL A   1      44.827  25.864  26.464  1.00  0.00     0.029 A 
ATOM     48  C   UNL A   1      44.834  27.263  26.894  1.00  0.00     0.049 A 
ATOM     49  H   UNL A   1      43.327  28.269  27.917  1.00  0.00     0.167 HD
ATOM     50  C   UNL A   1      40.042  30.317  29.968  1.00  0.00     0.037 A 
ATOM     51  C   UNL A   1      45.835  28.146  26.706  1.00  0.00     0.037 A 
ATOM     52  C   UNL A   1      41.087  31.301  29.877  1.00  0.00     0.049 A 
ATOM     53  C   UNL A   1      45.680  29.565  27.201  1.00  0.00     0.074 A 
ATOM     54  C   UNL A   1      41.100  32.592  30.372  1.00  0.00     0.029 A 
ATOM     55  N   UNL A   1      42.302  31.102  29.239  1.00  0.00    -0.354 N 
ATOM     56  N   UNL A   1      44.685  30.112  27.859  1.00  0.00    -0.248 NA
ATOM     57  C   UNL A   1      46.789  30.489  26.925  1.00  0.00     0.031 C 
ATOM     58  C   UNL A   1      42.298  33.197  29.981  1.00  0.00     0.029 A 
ATOM     59  C   UNL A   1      43.061  32.261  29.301  1.00  0.00     0.049 A 
ATOM     60  H   UNL A   1      42.584  30.265  28.806  1.00  0.00     0.167 HD
ATOM     61  C   UNL A   1      45.064  31.428  28.105  1.00  0.00     0.074 A 
ATOM     62  C   UNL A   1      46.385  31.593  27.536  1.00  0.00     0.031 C 
ATOM     63  C   UNL A   1      44.382  32.409  28.745  1.00  0.00     0.037 A 
BRANCH  50  64
ATOM     64  C   UNL A   1      38.754  30.707  30.631  1.00  0.00     0.064 A 
ATOM     65  C   UNL A   1      38.585  30.644  32.022  1.00  0.00     0.173 A 
ATOM     66  C   UNL A   1      37.679  31.175  29.860  1.00  0.00     0.173 A 
ATOM     67  F   UNL A   1      39.576  30.186  32.803  1.00  0.00    -0.203 F 
ATOM     68  C   UNL A   1      37.379  31.010  32.614  1.00  0.00     0.198 A 
ATOM     69  C   UNL A   1      36.487  31.572  30.458  1.00  0.00     0.198 A 
ATOM     70  F   UNL A   1      37.787  31.255  28.525  1.00  0.00    -0.203 F 
ATOM     71  F   UNL A   1      37.223  30.891  33.940  1.00  0.00    -0.200 F 
ATOM     72  C   UNL A   1      36.334  31.481  31.834  1.00  0.00     0.200 A 
ATOM     73  F   UNL A   1      35.484  32.039  29.702  1.00  0.00    -0.200 F 
ATOM     74  F   UNL A   1      35.177  31.841  32.405  1.00  0.00    -0.200 F 
ENDBRANCH  50  64
BRANCH  51  75
ATOM     75  C   UNL A   1      47.077  27.733  25.997  1.00  0.00     0.064 A 
ATOM     76  C   UNL A   1      47.139  27.709  24.597  1.00  0.00     0.173 A 
ATOM     77  C   UNL A   1      48.212  27.307  26.704  1.00  0.00     0.173 A 
ATOM     78  F   UNL A   1      46.070  28.074  23.874  1.00  0.00    -0.203 F 
ATOM     79  C   UNL A   1      48.277  27.255  23.931  1.00  0.00     0.198 A 
ATOM     80  C   UNL A   1      49.362  26.885  26.038  1.00  0.00     0.198 A 
ATOM     81  F   UNL A   1      48.205  27.301  28.045  1.00  0.00    -0.203 F 
ATOM     82  F   UNL A   1      48.285  27.186  22.593  1.00  0.00    -0.200 F 
ATOM     83  C   UNL A   1      49.389  26.849  24.652  1.00  0.00     0.200 A 
ATOM     84  F   UNL A   1      50.437  26.502  26.740  1.00  0.00    -0.200 F 
ATOM     85  F   UNL A   1      50.482  26.411  24.013  1.00  0.00    -0.200 F 
ENDBRANCH  51  75
BRANCH  63  86
ATOM     86  C   UNL A   1      45.063  33.738  28.917  1.00  0.00     0.064 A 
ATOM     87  C   UNL A   1      44.862  34.797  28.021  1.00  0.00     0.173 A 
ATOM     88  C   UNL A   1      45.893  33.969  30.027  1.00  0.00     0.173 A 
ATOM     89  F   UNL A   1      44.088  34.627  26.937  1.00  0.00    -0.203 F 
ATOM     90  C   UNL A   1      45.486  36.028  28.212  1.00  0.00     0.198 A 
ATOM     91  C   UNL A   1      46.486  35.211  30.235  1.00  0.00     0.198 A 
ATOM     92  F   UNL A   1      46.111  32.994  30.923  1.00  0.00    -0.203 F 
ATOM     93  F   UNL A   1      45.318  37.009  27.315  1.00  0.00    -0.200 F 
ATOM     94  C   UNL A   1      46.290  36.236  29.323  1.00  0.00     0.200 A 
ATOM     95  F   UNL A   1      47.247  35.415  31.319  1.00  0.00    -0.200 F 
ATOM     96  F   UNL A   1      46.880  37.424  29.512  1.00  0.00    -0.200 F 
ENDBRANCH  63  86
ENDBRANCH  37  38
ENDBRANCH  30  32
ENDBRANCH  29  30
ENDBRANCH  28  29
ENDBRANCH  27  28
ENDBRANCH  26  27
ENDBRANCH  25  26
ENDBRANCH   1  25
TORSDOF 22
ENDMDL
