MODEL 1
REMARK VINA RESULT:     -11.3      0.000      0.000
REMARK SMILES CCNC(=O)N1[C@@H](C(=O)OCCOCCOCCOC(=O)c2ccc(-c3c4nc(c(-c5c(F)c(F)c(F)c(F)c5F)c5ccc([nH]5)c(-c5c(F)c(F)c(F)c(F)c5F)c5nc(c(-c6c(F)c(F)c(F)c(F)c6F)c6ccc3[nH]6)C=C5)C=C4)cc2)CC[C@@H]2CCCC[C@H]21
REMARK SMILES IDX 14 1 13 2 12 3 11 4 10 5 8 6 9 7 7 8 6 9 92 10 85 11 87 12
REMARK SMILES IDX 91 13 86 14 88 15 90 16 89 17 4 18 3 19 5 21 2 22 1 23 15 24
REMARK SMILES IDX 16 25 17 26 18 27 19 28 20 29 21 30 22 31 23 32 84 33 24 34
REMARK SMILES IDX 83 35 25 36 26 37 27 38 77 39 28 40 82 41 76 42 78 43 29 44
REMARK SMILES IDX 81 45 75 46 74 47 30 49 62 50 42 51 61 52 43 53 46 54 60 55
REMARK SMILES IDX 79 56 44 57 45 58 59 60 80 61 47 62 31 63 32 64 40 65 33 66
REMARK SMILES IDX 34 67 38 68 41 69 35 70 36 71 39 72 37 73 63 74 64 75 72 76
REMARK SMILES IDX 65 77 66 78 70 79 73 80 67 81 68 82 71 83 69 84 48 85 49 86
REMARK SMILES IDX 57 87 50 88 51 89 55 90 58 91 52 92 53 93 56 94 54 95
REMARK H PARENT 3 20 78 48 46 59
REMARK Flexibility Score: inf
ROOT
ATOM      1  C   UNL A   1      38.700  22.265  25.846  1.00  0.00     0.188 C 
ENDROOT
BRANCH   1   2
ATOM      2  O   UNL A   1      37.307  22.117  25.938  1.00  0.00    -0.376 OA
BRANCH   2   3
ATOM      3  C   UNL A   1      36.503  21.965  24.783  1.00  0.00     0.202 C 
BRANCH   3   4
ATOM      4  C   UNL A   1      35.630  23.044  24.117  1.00  0.00     0.261 C 
BRANCH   4   5
ATOM      5  O   UNL A   1      35.220  24.205  24.857  1.00  0.00    -0.462 OA
BRANCH   5   6
ATOM      6  C   UNL A   1      33.977  24.122  25.410  1.00  0.00     0.329 C 
ATOM      7  O   UNL A   1      33.545  23.122  25.978  1.00  0.00    -0.250 OA
BRANCH   6   8
ATOM      8  C   UNL A   1      33.127  25.390  25.264  1.00  0.00     0.197 C 
ATOM      9  N   UNL A   1      32.410  25.586  23.986  1.00  0.00    -0.308 N 
ATOM     10  C   UNL A   1      31.501  26.758  23.957  1.00  0.00     0.091 C 
ATOM     11  C   UNL A   1      33.792  26.673  25.774  1.00  0.00     0.038 C 
ATOM     12  C   UNL A   1      32.095  28.038  24.602  1.00  0.00     0.012 C 
ATOM     13  C   UNL A   1      30.934  27.129  22.572  1.00  0.00     0.025 C 
ATOM     14  C   UNL A   1      32.728  27.747  25.957  1.00  0.00     0.008 C 
ATOM     15  C   UNL A   1      31.013  29.117  24.751  1.00  0.00     0.006 C 
ATOM     16  C   UNL A   1      29.891  28.246  22.666  1.00  0.00     0.002 C 
ATOM     17  C   UNL A   1      30.425  29.478  23.394  1.00  0.00     0.000 C 
BRANCH   9  18
ATOM     18  C   UNL A   1      32.990  25.119  22.828  1.00  0.00     0.318 C 
ATOM     19  N   UNL A   1      32.558  23.910  22.355  1.00  0.00    -0.338 N 
ATOM     20  H   UNL A   1      32.962  23.635  21.500  1.00  0.00     0.165 HD
ATOM     21  O   UNL A   1      33.806  25.758  22.169  1.00  0.00    -0.249 OA
BRANCH  19  22
ATOM     22  C   UNL A   1      31.602  22.963  22.908  1.00  0.00     0.114 C 
ATOM     23  C   UNL A   1      32.133  21.564  23.125  1.00  0.00     0.027 C 
ENDBRANCH  19  22
ENDBRANCH   9  18
ENDBRANCH   6   8
ENDBRANCH   5   6
ENDBRANCH   4   5
ENDBRANCH   3   4
ENDBRANCH   2   3
ENDBRANCH   1   2
BRANCH   1  24
ATOM     24  C   UNL A   1      39.543  21.012  26.096  1.00  0.00     0.188 C 
BRANCH  24  25
ATOM     25  O   UNL A   1      40.426  20.930  27.192  1.00  0.00    -0.376 OA
BRANCH  25  26
ATOM     26  C   UNL A   1      41.732  20.431  26.946  1.00  0.00     0.202 C 
BRANCH  26  27
ATOM     27  C   UNL A   1      42.770  21.264  26.159  1.00  0.00     0.261 C 
BRANCH  27  28
ATOM     28  O   UNL A   1      42.269  22.345  25.349  1.00  0.00    -0.460 OA
BRANCH  28  29
ATOM     29  C   UNL A   1      43.067  23.439  25.239  1.00  0.00     0.338 C 
ATOM     30  O   UNL A   1      44.000  23.594  24.463  1.00  0.00    -0.246 OA
BRANCH  29  31
ATOM     31  C   UNL A   1      42.487  24.552  26.034  1.00  0.00     0.060 A 
ATOM     32  C   UNL A   1      42.865  25.878  25.744  1.00  0.00     0.016 A 
ATOM     33  C   UNL A   1      41.579  24.297  27.057  1.00  0.00     0.016 A 
ATOM     34  C   UNL A   1      42.352  26.948  26.484  1.00  0.00     0.010 A 
ATOM     35  C   UNL A   1      41.106  25.362  27.831  1.00  0.00     0.010 A 
ATOM     36  C   UNL A   1      41.514  26.686  27.571  1.00  0.00    -0.014 A 
BRANCH  36  37
ATOM     37  C   UNL A   1      41.276  27.715  28.616  1.00  0.00     0.031 A 
ATOM     38  C   UNL A   1      42.138  27.655  29.846  1.00  0.00     0.074 A 
ATOM     39  C   UNL A   1      40.297  28.631  28.524  1.00  0.00     0.049 A 
ATOM     40  N   UNL A   1      41.985  28.239  31.006  1.00  0.00    -0.248 NA
ATOM     41  C   UNL A   1      43.329  26.794  29.757  1.00  0.00     0.031 C 
ATOM     42  C   UNL A   1      39.447  28.855  27.361  1.00  0.00     0.029 A 
ATOM     43  N   UNL A   1      39.832  29.522  29.463  1.00  0.00    -0.354 N 
ATOM     44  C   UNL A   1      43.036  27.786  31.792  1.00  0.00     0.074 A 
ATOM     45  C   UNL A   1      43.813  26.873  30.985  1.00  0.00     0.031 C 
ATOM     46  C   UNL A   1      38.533  29.795  27.667  1.00  0.00     0.029 A 
ATOM     47  C   UNL A   1      38.702  30.195  29.065  1.00  0.00     0.049 A 
ATOM     48  H   UNL A   1      40.266  29.665  30.335  1.00  0.00     0.167 HD
ATOM     49  C   UNL A   1      43.321  28.099  33.078  1.00  0.00     0.037 A 
ATOM     50  C   UNL A   1      37.874  30.996  29.767  1.00  0.00     0.037 A 
ATOM     51  C   UNL A   1      42.543  29.007  33.876  1.00  0.00     0.049 A 
ATOM     52  C   UNL A   1      38.156  31.261  31.228  1.00  0.00     0.074 A 
ATOM     53  C   UNL A   1      42.748  29.395  35.187  1.00  0.00     0.029 A 
ATOM     54  N   UNL A   1      41.403  29.664  33.436  1.00  0.00    -0.354 N 
ATOM     55  N   UNL A   1      39.140  30.825  31.978  1.00  0.00    -0.248 NA
ATOM     56  C   UNL A   1      37.206  32.127  31.945  1.00  0.00     0.031 C 
ATOM     57  C   UNL A   1      41.699  30.239  35.561  1.00  0.00     0.029 A 
ATOM     58  C   UNL A   1      40.883  30.439  34.458  1.00  0.00     0.049 A 
ATOM     59  H   UNL A   1      41.021  29.590  32.531  1.00  0.00     0.167 HD
ATOM     60  C   UNL A   1      38.956  31.400  33.230  1.00  0.00     0.074 A 
ATOM     61  C   UNL A   1      37.762  32.211  33.145  1.00  0.00     0.031 C 
ATOM     62  C   UNL A   1      39.713  31.273  34.348  1.00  0.00     0.037 A 
BRANCH  49  63
ATOM     63  C   UNL A   1      44.495  27.416  33.715  1.00  0.00     0.064 A 
ATOM     64  C   UNL A   1      44.373  26.177  34.361  1.00  0.00     0.173 A 
ATOM     65  C   UNL A   1      45.770  28.002  33.658  1.00  0.00     0.173 A 
ATOM     66  F   UNL A   1      43.175  25.582  34.460  1.00  0.00    -0.203 F 
ATOM     67  C   UNL A   1      45.477  25.564  34.951  1.00  0.00     0.198 A 
ATOM     68  C   UNL A   1      46.876  27.370  34.216  1.00  0.00     0.198 A 
ATOM     69  F   UNL A   1      45.943  29.186  33.051  1.00  0.00    -0.203 F 
ATOM     70  F   UNL A   1      45.326  24.408  35.610  1.00  0.00    -0.200 F 
ATOM     71  C   UNL A   1      46.727  26.157  34.871  1.00  0.00     0.200 A 
ATOM     72  F   UNL A   1      48.086  27.938  34.123  1.00  0.00    -0.200 F 
ATOM     73  F   UNL A   1      47.791  25.562  35.430  1.00  0.00    -0.200 F 
ENDBRANCH  49  63
BRANCH  50  74
ATOM     74  C   UNL A   1      36.674  31.587  29.115  1.00  0.00     0.064 A 
ATOM     75  C   UNL A   1      36.635  32.947  28.774  1.00  0.00     0.173 A 
ATOM     76  C   UNL A   1      35.529  30.819  28.852  1.00  0.00     0.173 A 
ATOM     77  F   UNL A   1      37.690  33.732  29.034  1.00  0.00    -0.203 F 
ATOM     78  C   UNL A   1      35.494  33.519  28.214  1.00  0.00     0.198 A 
ATOM     79  C   UNL A   1      34.400  31.385  28.262  1.00  0.00     0.198 A 
ATOM     80  F   UNL A   1      35.507  29.515  29.165  1.00  0.00    -0.203 F 
ATOM     81  F   UNL A   1      35.466  34.832  27.951  1.00  0.00    -0.200 F 
ATOM     82  C   UNL A   1      34.379  32.737  27.952  1.00  0.00     0.200 A 
ATOM     83  F   UNL A   1      33.330  30.623  28.001  1.00  0.00    -0.200 F 
ATOM     84  F   UNL A   1      33.283  33.286  27.413  1.00  0.00    -0.200 F 
ENDBRANCH  50  74
BRANCH  62  85
ATOM     85  C   UNL A   1      39.342  32.091  35.552  1.00  0.00     0.064 A 
ATOM     86  C   UNL A   1      39.800  33.404  35.735  1.00  0.00     0.173 A 
ATOM     87  C   UNL A   1      38.437  31.575  36.495  1.00  0.00     0.173 A 
ATOM     88  F   UNL A   1      40.673  33.942  34.871  1.00  0.00    -0.203 F 
ATOM     89  C   UNL A   1      39.374  34.164  36.823  1.00  0.00     0.198 A 
ATOM     90  C   UNL A   1      37.989  32.349  37.561  1.00  0.00     0.198 A 
ATOM     91  F   UNL A   1      37.961  30.328  36.362  1.00  0.00    -0.203 F 
ATOM     92  F   UNL A   1      39.849  35.406  36.997  1.00  0.00    -0.200 F 
ATOM     93  C   UNL A   1      38.461  33.641  37.727  1.00  0.00     0.200 A 
ATOM     94  F   UNL A   1      37.092  31.847  38.421  1.00  0.00    -0.200 F 
ATOM     95  F   UNL A   1      38.037  34.383  38.759  1.00  0.00    -0.200 F 
ENDBRANCH  62  85
ENDBRANCH  36  37
ENDBRANCH  29  31
ENDBRANCH  28  29
ENDBRANCH  27  28
ENDBRANCH  26  27
ENDBRANCH  25  26
ENDBRANCH  24  25
ENDBRANCH   1  24
TORSDOF 19
ENDMDL
MODEL 2
REMARK VINA RESULT:     -11.0      4.662      6.936
REMARK SMILES CCNC(=O)N1[C@@H](C(=O)OCCOCCOCCOC(=O)c2ccc(-c3c4nc(c(-c5c(F)c(F)c(F)c(F)c5F)c5ccc([nH]5)c(-c5c(F)c(F)c(F)c(F)c5F)c5nc(c(-c6c(F)c(F)c(F)c(F)c6F)c6ccc3[nH]6)C=C5)C=C4)cc2)CC[C@@H]2CCCC[C@H]21
REMARK SMILES IDX 14 1 13 2 12 3 11 4 10 5 8 6 9 7 7 8 6 9 92 10 85 11 87 12
REMARK SMILES IDX 91 13 86 14 88 15 90 16 89 17 4 18 3 19 5 21 2 22 1 23 15 24
REMARK SMILES IDX 16 25 17 26 18 27 19 28 20 29 21 30 22 31 23 32 84 33 24 34
REMARK SMILES IDX 83 35 25 36 26 37 27 38 77 39 28 40 82 41 76 42 78 43 29 44
REMARK SMILES IDX 81 45 75 46 74 47 30 49 62 50 42 51 61 52 43 53 46 54 60 55
REMARK SMILES IDX 79 56 44 57 45 58 59 60 80 61 47 62 31 63 32 64 40 65 33 66
REMARK SMILES IDX 34 67 38 68 41 69 35 70 36 71 39 72 37 73 63 74 64 75 72 76
REMARK SMILES IDX 65 77 66 78 70 79 73 80 67 81 68 82 71 83 69 84 48 85 49 86
REMARK SMILES IDX 57 87 50 88 51 89 55 90 58 91 52 92 53 93 56 94 54 95
REMARK H PARENT 3 20 78 48 46 59
REMARK Flexibility Score: inf
ROOT
ATOM      1  C   UNL A   1      37.046  22.984  25.491  1.00  0.00     0.188 C 
ENDROOT
BRANCH   1   2
ATOM      2  O   UNL A   1      36.953  23.183  24.104  1.00  0.00    -0.376 OA
BRANCH   2   3
ATOM      3  C   UNL A   1      35.719  23.060  23.422  1.00  0.00     0.202 C 
BRANCH   3   4
ATOM      4  C   UNL A   1      34.549  24.062  23.443  1.00  0.00     0.261 C 
BRANCH   4   5
ATOM      5  O   UNL A   1      33.611  24.106  22.356  1.00  0.00    -0.462 OA
BRANCH   5   6
ATOM      6  C   UNL A   1      33.125  25.346  22.068  1.00  0.00     0.329 C 
ATOM      7  O   UNL A   1      32.658  25.664  20.977  1.00  0.00    -0.250 OA
BRANCH   6   8
ATOM      8  C   UNL A   1      33.212  26.351  23.225  1.00  0.00     0.197 C 
ATOM      9  N   UNL A   1      32.151  26.300  24.251  1.00  0.00    -0.308 N 
ATOM     10  C   UNL A   1      32.365  27.203  25.411  1.00  0.00     0.091 C 
ATOM     11  C   UNL A   1      33.569  27.782  22.807  1.00  0.00     0.038 C 
ATOM     12  C   UNL A   1      32.869  28.619  25.027  1.00  0.00     0.012 C 
ATOM     13  C   UNL A   1      31.166  27.355  26.368  1.00  0.00     0.025 C 
ATOM     14  C   UNL A   1      34.024  28.560  24.035  1.00  0.00     0.008 C 
ATOM     15  C   UNL A   1      33.296  29.395  26.281  1.00  0.00     0.006 C 
ATOM     16  C   UNL A   1      31.530  28.176  27.608  1.00  0.00     0.002 C 
ATOM     17  C   UNL A   1      32.128  29.535  27.249  1.00  0.00     0.000 C 
BRANCH   9  18
ATOM     18  C   UNL A   1      30.878  25.943  23.866  1.00  0.00     0.318 C 
ATOM     19  N   UNL A   1      30.418  24.724  24.283  1.00  0.00    -0.338 N 
ATOM     20  H   UNL A   1      29.487  24.527  24.027  1.00  0.00     0.165 HD
ATOM     21  O   UNL A   1      30.122  26.683  23.243  1.00  0.00    -0.249 OA
BRANCH  19  22
ATOM     22  C   UNL A   1      31.077  23.670  25.040  1.00  0.00     0.114 C 
ATOM     23  C   UNL A   1      30.658  23.560  26.489  1.00  0.00     0.027 C 
ENDBRANCH  19  22
ENDBRANCH   9  18
ENDBRANCH   6   8
ENDBRANCH   5   6
ENDBRANCH   4   5
ENDBRANCH   3   4
ENDBRANCH   2   3
ENDBRANCH   1   2
BRANCH   1  24
ATOM     24  C   UNL A   1      38.421  23.201  26.126  1.00  0.00     0.188 C 
BRANCH  24  25
ATOM     25  O   UNL A   1      39.279  22.117  26.402  1.00  0.00    -0.376 OA
BRANCH  25  26
ATOM     26  C   UNL A   1      39.061  20.911  25.687  1.00  0.00     0.202 C 
BRANCH  26  27
ATOM     27  C   UNL A   1      39.738  19.591  26.123  1.00  0.00     0.261 C 
BRANCH  27  28
ATOM     28  O   UNL A   1      40.922  19.191  25.406  1.00  0.00    -0.460 OA
BRANCH  28  29
ATOM     29  C   UNL A   1      42.069  19.109  26.128  1.00  0.00     0.338 C 
ATOM     30  O   UNL A   1      42.685  18.093  26.420  1.00  0.00    -0.246 OA
BRANCH  29  31
ATOM     31  C   UNL A   1      42.631  20.473  26.313  1.00  0.00     0.060 A 
ATOM     32  C   UNL A   1      42.543  21.090  27.577  1.00  0.00     0.016 A 
ATOM     33  C   UNL A   1      43.239  21.141  25.255  1.00  0.00     0.016 A 
ATOM     34  C   UNL A   1      43.044  22.379  27.782  1.00  0.00     0.010 A 
ATOM     35  C   UNL A   1      43.694  22.450  25.446  1.00  0.00     0.010 A 
ATOM     36  C   UNL A   1      43.570  23.087  26.697  1.00  0.00    -0.014 A 
BRANCH  36  37
ATOM     37  C   UNL A   1      43.734  24.562  26.756  1.00  0.00     0.031 A 
ATOM     38  C   UNL A   1      45.109  25.110  26.493  1.00  0.00     0.074 A 
ATOM     39  C   UNL A   1      42.732  25.392  27.093  1.00  0.00     0.049 A 
ATOM     40  N   UNL A   1      45.597  26.300  26.731  1.00  0.00    -0.248 NA
ATOM     41  C   UNL A   1      46.074  24.171  25.896  1.00  0.00     0.031 C 
ATOM     42  C   UNL A   1      41.339  25.009  27.291  1.00  0.00     0.029 A 
ATOM     43  N   UNL A   1      42.757  26.739  27.367  1.00  0.00    -0.354 N 
ATOM     44  C   UNL A   1      46.930  26.238  26.350  1.00  0.00     0.074 A 
ATOM     45  C   UNL A   1      47.179  24.896  25.876  1.00  0.00     0.031 C 
ATOM     46  C   UNL A   1      40.646  26.089  27.696  1.00  0.00     0.029 A 
ATOM     47  C   UNL A   1      41.560  27.223  27.839  1.00  0.00     0.049 A 
ATOM     48  H   UNL A   1      43.553  27.303  27.237  1.00  0.00     0.167 HD
ATOM     49  C   UNL A   1      47.867  27.215  26.401  1.00  0.00     0.037 A 
ATOM     50  C   UNL A   1      41.257  28.424  28.372  1.00  0.00     0.037 A 
ATOM     51  C   UNL A   1      47.613  28.548  26.875  1.00  0.00     0.049 A 
ATOM     52  C   UNL A   1      42.338  29.473  28.507  1.00  0.00     0.074 A 
ATOM     53  C   UNL A   1      48.490  29.613  26.965  1.00  0.00     0.029 A 
ATOM     54  N   UNL A   1      46.387  28.995  27.348  1.00  0.00    -0.354 N 
ATOM     55  N   UNL A   1      43.602  29.415  28.160  1.00  0.00    -0.248 NA
ATOM     56  C   UNL A   1      41.950  30.756  29.114  1.00  0.00     0.031 C 
ATOM     57  C   UNL A   1      47.813  30.687  27.548  1.00  0.00     0.029 A 
ATOM     58  C   UNL A   1      46.493  30.316  27.751  1.00  0.00     0.049 A 
ATOM     59  H   UNL A   1      45.566  28.454  27.392  1.00  0.00     0.167 HD
ATOM     60  C   UNL A   1      44.143  30.660  28.459  1.00  0.00     0.074 A 
ATOM     61  C   UNL A   1      43.074  31.454  29.023  1.00  0.00     0.031 C 
ATOM     62  C   UNL A   1      45.409  31.108  28.275  1.00  0.00     0.037 A 
BRANCH  49  63
ATOM     63  C   UNL A   1      49.262  26.862  25.978  1.00  0.00     0.064 A 
ATOM     64  C   UNL A   1      49.708  27.047  24.661  1.00  0.00     0.173 A 
ATOM     65  C   UNL A   1      50.175  26.350  26.914  1.00  0.00     0.173 A 
ATOM     66  F   UNL A   1      48.871  27.515  23.724  1.00  0.00    -0.203 F 
ATOM     67  C   UNL A   1      51.007  26.706  24.290  1.00  0.00     0.198 A 
ATOM     68  C   UNL A   1      51.483  26.045  26.548  1.00  0.00     0.198 A 
ATOM     69  F   UNL A   1      49.802  26.155  28.187  1.00  0.00    -0.203 F 
ATOM     70  F   UNL A   1      51.394  26.840  23.014  1.00  0.00    -0.200 F 
ATOM     71  C   UNL A   1      51.894  26.214  25.235  1.00  0.00     0.200 A 
ATOM     72  F   UNL A   1      52.343  25.585  27.466  1.00  0.00    -0.200 F 
ATOM     73  F   UNL A   1      53.147  25.896  24.878  1.00  0.00    -0.200 F 
ENDBRANCH  49  63
BRANCH  50  74
ATOM     74  C   UNL A   1      39.877  28.703  28.854  1.00  0.00     0.064 A 
ATOM     75  C   UNL A   1      39.495  28.388  30.167  1.00  0.00     0.173 A 
ATOM     76  C   UNL A   1      38.902  29.253  28.008  1.00  0.00     0.173 A 
ATOM     77  F   UNL A   1      40.380  27.829  31.005  1.00  0.00    -0.203 F 
ATOM     78  C   UNL A   1      38.189  28.595  30.608  1.00  0.00     0.198 A 
ATOM     79  C   UNL A   1      37.605  29.491  28.461  1.00  0.00     0.198 A 
ATOM     80  F   UNL A   1      39.210  29.566  26.741  1.00  0.00    -0.203 F 
ATOM     81  F   UNL A   1      37.839  28.233  31.849  1.00  0.00    -0.200 F 
ATOM     82  C   UNL A   1      37.247  29.152  29.757  1.00  0.00     0.200 A 
ATOM     83  F   UNL A   1      36.701  30.039  27.639  1.00  0.00    -0.200 F 
ATOM     84  F   UNL A   1      35.992  29.352  30.182  1.00  0.00    -0.200 F 
ENDBRANCH  50  74
BRANCH  62  85
ATOM     85  C   UNL A   1      45.707  32.545  28.596  1.00  0.00     0.064 A 
ATOM     86  C   UNL A   1      46.205  32.945  29.844  1.00  0.00     0.173 A 
ATOM     87  C   UNL A   1      45.573  33.525  27.598  1.00  0.00     0.173 A 
ATOM     88  F   UNL A   1      46.343  32.052  30.835  1.00  0.00    -0.203 F 
ATOM     89  C   UNL A   1      46.546  34.275  30.084  1.00  0.00     0.198 A 
ATOM     90  C   UNL A   1      45.946  34.845  27.832  1.00  0.00     0.198 A 
ATOM     91  F   UNL A   1      45.110  33.194  26.384  1.00  0.00    -0.203 F 
ATOM     92  F   UNL A   1      46.990  34.642  31.294  1.00  0.00    -0.200 F 
ATOM     93  C   UNL A   1      46.428  35.220  29.075  1.00  0.00     0.200 A 
ATOM     94  F   UNL A   1      45.848  35.751  26.849  1.00  0.00    -0.200 F 
ATOM     95  F   UNL A   1      46.778  36.493  29.303  1.00  0.00    -0.200 F 
ENDBRANCH  62  85
ENDBRANCH  36  37
ENDBRANCH  29  31
ENDBRANCH  28  29
ENDBRANCH  27  28
ENDBRANCH  26  27
ENDBRANCH  25  26
ENDBRANCH  24  25
ENDBRANCH   1  24
TORSDOF 19
ENDMDL
MODEL 3
REMARK VINA RESULT:     -10.9      4.435      8.367
REMARK SMILES CCNC(=O)N1[C@@H](C(=O)OCCOCCOCCOC(=O)c2ccc(-c3c4nc(c(-c5c(F)c(F)c(F)c(F)c5F)c5ccc([nH]5)c(-c5c(F)c(F)c(F)c(F)c5F)c5nc(c(-c6c(F)c(F)c(F)c(F)c6F)c6ccc3[nH]6)C=C5)C=C4)cc2)CC[C@@H]2CCCC[C@H]21
REMARK SMILES IDX 14 1 13 2 12 3 11 4 10 5 8 6 9 7 7 8 6 9 92 10 85 11 87 12
REMARK SMILES IDX 91 13 86 14 88 15 90 16 89 17 4 18 3 19 5 21 2 22 1 23 15 24
REMARK SMILES IDX 16 25 17 26 18 27 19 28 20 29 21 30 22 31 23 32 84 33 24 34
REMARK SMILES IDX 83 35 25 36 26 37 27 38 77 39 28 40 82 41 76 42 78 43 29 44
REMARK SMILES IDX 81 45 75 46 74 47 30 49 62 50 42 51 61 52 43 53 46 54 60 55
REMARK SMILES IDX 79 56 44 57 45 58 59 60 80 61 47 62 31 63 32 64 40 65 33 66
REMARK SMILES IDX 34 67 38 68 41 69 35 70 36 71 39 72 37 73 63 74 64 75 72 76
REMARK SMILES IDX 65 77 66 78 70 79 73 80 67 81 68 82 71 83 69 84 48 85 49 86
REMARK SMILES IDX 57 87 50 88 51 89 55 90 58 91 52 92 53 93 56 94 54 95
REMARK H PARENT 3 20 78 48 46 59
REMARK Flexibility Score: inf
ROOT
ATOM      1  C   UNL A   1      34.849  22.936  25.777  1.00  0.00     0.188 C 
ENDROOT
BRANCH   1   2
ATOM      2  O   UNL A   1      34.563  23.509  24.527  1.00  0.00    -0.376 OA
BRANCH   2   3
ATOM      3  C   UNL A   1      33.872  22.788  23.525  1.00  0.00     0.202 C 
BRANCH   3   4
ATOM      4  C   UNL A   1      33.253  23.360  22.236  1.00  0.00     0.261 C 
BRANCH   4   5
ATOM      5  O   UNL A   1      33.655  24.649  21.747  1.00  0.00    -0.462 OA
BRANCH   5   6
ATOM      6  C   UNL A   1      32.705  25.621  21.843  1.00  0.00     0.329 C 
ATOM      7  O   UNL A   1      31.757  25.732  21.070  1.00  0.00    -0.250 OA
BRANCH   6   8
ATOM      8  C   UNL A   1      32.909  26.602  23.005  1.00  0.00     0.197 C 
ATOM      9  N   UNL A   1      32.005  26.478  24.167  1.00  0.00    -0.308 N 
ATOM     10  C   UNL A   1      32.339  27.362  25.312  1.00  0.00     0.091 C 
ATOM     11  C   UNL A   1      33.141  28.057  22.585  1.00  0.00     0.038 C 
ATOM     12  C   UNL A   1      32.723  28.809  24.903  1.00  0.00     0.012 C 
ATOM     13  C   UNL A   1      31.280  27.436  26.430  1.00  0.00     0.025 C 
ATOM     14  C   UNL A   1      33.729  28.827  23.760  1.00  0.00     0.008 C 
ATOM     15  C   UNL A   1      33.286  29.575  26.109  1.00  0.00     0.006 C 
ATOM     16  C   UNL A   1      31.778  28.244  27.631  1.00  0.00     0.002 C 
ATOM     17  C   UNL A   1      32.261  29.637  27.232  1.00  0.00     0.000 C 
BRANCH   9  18
ATOM     18  C   UNL A   1      30.707  26.070  23.952  1.00  0.00     0.318 C 
ATOM     19  N   UNL A   1      30.327  24.877  24.503  1.00  0.00    -0.338 N 
ATOM     20  H   UNL A   1      29.380  24.645  24.367  1.00  0.00     0.165 HD
ATOM     21  O   UNL A   1      29.868  26.748  23.365  1.00  0.00    -0.249 OA
BRANCH  19  22
ATOM     22  C   UNL A   1      31.092  23.894  25.256  1.00  0.00     0.114 C 
ATOM     23  C   UNL A   1      30.402  23.347  26.486  1.00  0.00     0.027 C 
ENDBRANCH  19  22
ENDBRANCH   9  18
ENDBRANCH   6   8
ENDBRANCH   5   6
ENDBRANCH   4   5
ENDBRANCH   3   4
ENDBRANCH   2   3
ENDBRANCH   1   2
BRANCH   1  24
ATOM     24  C   UNL A   1      34.653  21.423  25.900  1.00  0.00     0.188 C 
BRANCH  24  25
ATOM     25  O   UNL A   1      35.066  20.546  24.876  1.00  0.00    -0.376 OA
BRANCH  25  26
ATOM     26  C   UNL A   1      36.348  19.949  25.002  1.00  0.00     0.202 C 
BRANCH  26  27
ATOM     27  C   UNL A   1      37.636  20.751  24.707  1.00  0.00     0.261 C 
BRANCH  27  28
ATOM     28  O   UNL A   1      38.092  21.661  25.726  1.00  0.00    -0.460 OA
BRANCH  28  29
ATOM     29  C   UNL A   1      39.329  21.429  26.237  1.00  0.00     0.338 C 
ATOM     30  O   UNL A   1      40.024  20.437  26.061  1.00  0.00    -0.246 OA
BRANCH  29  31
ATOM     31  C   UNL A   1      39.849  22.678  26.852  1.00  0.00     0.060 A 
ATOM     32  C   UNL A   1      39.338  23.921  26.429  1.00  0.00     0.016 A 
ATOM     33  C   UNL A   1      40.830  22.630  27.837  1.00  0.00     0.016 A 
ATOM     34  C   UNL A   1      39.817  25.116  26.973  1.00  0.00     0.010 A 
ATOM     35  C   UNL A   1      41.346  23.827  28.345  1.00  0.00     0.010 A 
ATOM     36  C   UNL A   1      40.868  25.073  27.894  1.00  0.00    -0.014 A 
BRANCH  36  37
ATOM     37  C   UNL A   1      41.674  26.286  28.188  1.00  0.00     0.031 A 
ATOM     38  C   UNL A   1      40.986  27.405  28.919  1.00  0.00     0.074 A 
ATOM     39  C   UNL A   1      42.943  26.433  27.773  1.00  0.00     0.049 A 
ATOM     40  N   UNL A   1      41.347  28.652  29.074  1.00  0.00    -0.248 NA
ATOM     41  C   UNL A   1      39.696  27.069  29.546  1.00  0.00     0.031 C 
ATOM     42  C   UNL A   1      43.755  25.406  27.132  1.00  0.00     0.029 A 
ATOM     43  N   UNL A   1      43.758  27.542  27.802  1.00  0.00    -0.354 N 
ATOM     44  C   UNL A   1      40.313  29.254  29.778  1.00  0.00     0.074 A 
ATOM     45  C   UNL A   1      39.308  28.243  30.013  1.00  0.00     0.031 C 
ATOM     46  C   UNL A   1      44.941  25.941  26.789  1.00  0.00     0.029 A 
ATOM     47  C   UNL A   1      44.946  27.363  27.136  1.00  0.00     0.049 A 
ATOM     48  H   UNL A   1      43.514  28.381  28.255  1.00  0.00     0.167 HD
ATOM     49  C   UNL A   1      40.209  30.542  30.185  1.00  0.00     0.037 A 
ATOM     50  C   UNL A   1      45.899  28.258  26.802  1.00  0.00     0.037 A 
ATOM     51  C   UNL A   1      41.213  31.543  29.947  1.00  0.00     0.049 A 
ATOM     52  C   UNL A   1      45.723  29.710  27.184  1.00  0.00     0.074 A 
ATOM     53  C   UNL A   1      41.207  32.875  30.320  1.00  0.00     0.029 A 
ATOM     54  N   UNL A   1      42.401  31.322  29.265  1.00  0.00    -0.354 N 
ATOM     55  N   UNL A   1      44.742  30.286  27.839  1.00  0.00    -0.248 NA
ATOM     56  C   UNL A   1      46.787  30.641  26.775  1.00  0.00     0.031 C 
ATOM     57  C   UNL A   1      42.363  33.474  29.813  1.00  0.00     0.029 A 
ATOM     58  C   UNL A   1      43.125  32.499  29.189  1.00  0.00     0.049 A 
ATOM     59  H   UNL A   1      42.685  30.457  28.891  1.00  0.00     0.167 HD
ATOM     60  C   UNL A   1      45.093  31.625  27.961  1.00  0.00     0.074 A 
ATOM     61  C   UNL A   1      46.374  31.783  27.308  1.00  0.00     0.031 C 
ATOM     62  C   UNL A   1      44.419  32.633  28.568  1.00  0.00     0.037 A 
BRANCH  49  63
ATOM     63  C   UNL A   1      38.947  30.949  30.886  1.00  0.00     0.064 A 
ATOM     64  C   UNL A   1      38.822  30.894  32.282  1.00  0.00     0.173 A 
ATOM     65  C   UNL A   1      37.851  31.423  30.148  1.00  0.00     0.173 A 
ATOM     66  F   UNL A   1      39.832  30.431  33.033  1.00  0.00    -0.203 F 
ATOM     67  C   UNL A   1      37.637  31.272  32.910  1.00  0.00     0.198 A 
ATOM     68  C   UNL A   1      36.683  31.835  30.781  1.00  0.00     0.198 A 
ATOM     69  F   UNL A   1      37.918  31.498  28.810  1.00  0.00    -0.203 F 
ATOM     70  F   UNL A   1      37.521  31.159  34.241  1.00  0.00    -0.200 F 
ATOM     71  C   UNL A   1      36.573  31.749  32.161  1.00  0.00     0.200 A 
ATOM     72  F   UNL A   1      35.662  32.310  30.056  1.00  0.00    -0.200 F 
ATOM     73  F   UNL A   1      35.437  32.122  32.768  1.00  0.00    -0.200 F 
ENDBRANCH  49  63
BRANCH  50  74
ATOM     74  C   UNL A   1      47.098  27.824  26.034  1.00  0.00     0.064 A 
ATOM     75  C   UNL A   1      48.272  27.430  26.692  1.00  0.00     0.173 A 
ATOM     76  C   UNL A   1      47.110  27.828  24.631  1.00  0.00     0.173 A 
ATOM     77  F   UNL A   1      48.323  27.441  28.033  1.00  0.00    -0.203 F 
ATOM     78  C   UNL A   1      49.416  27.076  25.979  1.00  0.00     0.198 A 
ATOM     79  C   UNL A   1      48.244  27.441  23.919  1.00  0.00     0.198 A 
ATOM     80  F   UNL A   1      46.018  28.203  23.949  1.00  0.00    -0.203 F 
ATOM     81  F   UNL A   1      50.540  26.758  26.635  1.00  0.00    -0.200 F 
ATOM     82  C   UNL A   1      49.399  27.075  24.593  1.00  0.00     0.200 A 
ATOM     83  F   UNL A   1      48.220  27.432  22.579  1.00  0.00    -0.200 F 
ATOM     84  F   UNL A   1      50.498  26.733  23.907  1.00  0.00    -0.200 F 
ENDBRANCH  50  74
BRANCH  62  85
ATOM     85  C   UNL A   1      45.076  33.981  28.645  1.00  0.00     0.064 A 
ATOM     86  C   UNL A   1      44.832  34.988  27.700  1.00  0.00     0.173 A 
ATOM     87  C   UNL A   1      45.899  34.296  29.740  1.00  0.00     0.173 A 
ATOM     88  F   UNL A   1      44.063  34.738  26.630  1.00  0.00    -0.203 F 
ATOM     89  C   UNL A   1      45.395  36.255  27.842  1.00  0.00     0.198 A 
ATOM     90  C   UNL A   1      46.432  35.571  29.896  1.00  0.00     0.198 A 
ATOM     91  F   UNL A   1      46.158  33.372  30.677  1.00  0.00    -0.203 F 
ATOM     92  F   UNL A   1      45.174  37.193  26.911  1.00  0.00    -0.200 F 
ATOM     93  C   UNL A   1      46.184  36.548  28.946  1.00  0.00     0.200 A 
ATOM     94  F   UNL A   1      47.179  35.857  30.972  1.00  0.00    -0.200 F 
ATOM     95  F   UNL A   1      46.706  37.774  29.091  1.00  0.00    -0.200 F 
ENDBRANCH  62  85
ENDBRANCH  36  37
ENDBRANCH  29  31
ENDBRANCH  28  29
ENDBRANCH  27  28
ENDBRANCH  26  27
ENDBRANCH  25  26
ENDBRANCH  24  25
ENDBRANCH   1  24
TORSDOF 19
ENDMDL
