MODEL 1
REMARK VINA RESULT:     -12.5      0.000      0.000
REMARK SMILES COc1cc(S(=O)(=O)Nc2cccc(C(=O)OCCOCCOCCOC(=O)c3ccc(-c4c5nc(c(-c6c(F)c(F)c(F)c(F)c6F)c6ccc([nH]6)c(-c6c(F)c(F)c(F)c(F)c6F)c6nc(c(-c7c(F)c(F)c(F)c(F)c7F)c7ccc4[nH]7)C=C6)C=C5)cc3)c2)c(OC)cc1C
REMARK SMILES IDX 21 1 20 2 19 3 18 4 17 5 15 6 16 7 14 8 10 9 11 10 92 11
REMARK SMILES IDX 12 12 13 13 9 14 6 16 7 17 8 18 5 19 3 20 4 21 97 22 96 23
REMARK SMILES IDX 98 24 93 25 2 26 1 27 94 28 95 29 22 30 23 31 24 32 25 33
REMARK SMILES IDX 26 34 27 35 28 36 29 37 30 38 91 39 31 40 90 41 32 42 33 43
REMARK SMILES IDX 34 44 84 45 35 46 89 47 83 48 85 49 36 50 88 51 82 52 81 53
REMARK SMILES IDX 37 55 69 56 49 57 68 58 50 59 53 60 67 61 86 62 51 63 52 64
REMARK SMILES IDX 66 66 87 67 54 68 38 69 39 70 47 71 40 72 41 73 45 74 48 75
REMARK SMILES IDX 42 76 43 77 46 78 44 79 70 80 71 81 79 82 72 83 73 84 77 85
REMARK SMILES IDX 80 86 74 87 75 88 78 89 76 90 55 91 56 92 64 93 57 94 58 95
REMARK SMILES IDX 62 96 65 97 59 98 60 99 63 100 61 101
REMARK H PARENT 9 15 85 54 53 65
REMARK Flexibility Score: inf
ROOT
ATOM      1  C   UNL A   1      34.173  33.159  28.780  1.00  0.00     0.188 C 
ENDROOT
BRANCH   1   2
ATOM      2  O   UNL A   1      34.498  32.008  27.980  1.00  0.00    -0.376 OA
BRANCH   2   3
ATOM      3  C   UNL A   1      33.640  30.917  27.610  1.00  0.00     0.202 C 
BRANCH   3   4
ATOM      4  C   UNL A   1      32.218  30.849  26.607  1.00  0.00     0.261 C 
BRANCH   4   5
ATOM      5  O   UNL A   1      31.489  29.617  25.550  1.00  0.00    -0.460 OA
BRANCH   5   6
ATOM      6  C   UNL A   1      31.452  28.171  25.355  1.00  0.00     0.338 C 
ATOM      7  O   UNL A   1      31.000  27.327  26.131  1.00  0.00    -0.246 OA
BRANCH   6   8
ATOM      8  C   UNL A   1      31.796  27.319  24.176  1.00  0.00     0.062 A 
ATOM      9  C   UNL A   1      32.933  25.123  23.663  1.00  0.00     0.050 A 
ATOM     10  C   UNL A   1      33.466  25.705  22.528  1.00  0.00     0.027 A 
ATOM     11  C   UNL A   1      32.062  25.916  24.436  1.00  0.00     0.042 A 
ATOM     12  C   UNL A   1      33.231  27.074  22.264  1.00  0.00     0.003 A 
ATOM     13  C   UNL A   1      32.435  27.888  23.095  1.00  0.00     0.016 A 
BRANCH   9  14
ATOM     14  N   UNL A   1      33.238  23.791  24.121  1.00  0.00    -0.279 N 
ATOM     15  H   UNL A   1      34.138  23.644  24.491  1.00  0.00     0.180 HD
BRANCH  14  16
ATOM     16  S   UNL A   1      32.197  22.453  24.085  1.00  0.00     0.265 S 
ATOM     17  O   UNL A   1      31.743  22.287  22.718  1.00  0.00    -0.201 OA
ATOM     18  O   UNL A   1      31.233  22.675  25.147  1.00  0.00    -0.201 OA
BRANCH  16  19
ATOM     19  C   UNL A   1      33.057  20.957  24.506  1.00  0.00     0.133 A 
ATOM     20  C   UNL A   1      33.160  18.535  24.328  1.00  0.00     0.123 A 
ATOM     21  C   UNL A   1      32.445  19.731  24.189  1.00  0.00     0.073 A 
ATOM     22  C   UNL A   1      34.534  18.574  24.573  1.00  0.00    -0.005 A 
ATOM     23  C   UNL A   1      35.099  19.793  24.954  1.00  0.00     0.055 A 
ATOM     24  C   UNL A   1      35.424  17.367  24.540  1.00  0.00     0.048 C 
ATOM     25  C   UNL A   1      34.324  20.949  25.066  1.00  0.00     0.139 A 
BRANCH  20  26
ATOM     26  O   UNL A   1      32.471  17.362  24.168  1.00  0.00    -0.496 OA
ATOM     27  C   UNL A   1      32.275  16.698  25.425  1.00  0.00     0.278 C 
ENDBRANCH  20  26
BRANCH  25  28
ATOM     28  O   UNL A   1      34.733  22.036  25.778  1.00  0.00    -0.495 OA
ATOM     29  C   UNL A   1      34.294  22.081  27.135  1.00  0.00     0.278 C 
ENDBRANCH  25  28
ENDBRANCH  16  19
ENDBRANCH  14  16
ENDBRANCH   9  14
ENDBRANCH   6   8
ENDBRANCH   5   6
ENDBRANCH   4   5
ENDBRANCH   3   4
ENDBRANCH   2   3
ENDBRANCH   1   2
BRANCH   1  30
ATOM     30  C   UNL A   1      33.452  34.369  28.228  1.00  0.00     0.188 C 
BRANCH  30  31
ATOM     31  O   UNL A   1      33.923  35.511  28.897  1.00  0.00    -0.376 OA
BRANCH  31  32
ATOM     32  C   UNL A   1      32.952  36.441  29.309  1.00  0.00     0.202 C 
BRANCH  32  33
ATOM     33  C   UNL A   1      33.039  36.764  30.810  1.00  0.00     0.261 C 
BRANCH  33  34
ATOM     34  O   UNL A   1      33.835  35.769  31.512  1.00  0.00    -0.460 OA
BRANCH  34  35
ATOM     35  C   UNL A   1      33.236  34.972  32.480  1.00  0.00     0.338 C 
ATOM     36  O   UNL A   1      32.107  35.089  32.862  1.00  0.00    -0.246 OA
BRANCH  35  37
ATOM     37  C   UNL A   1      34.313  34.152  33.184  1.00  0.00     0.060 A 
ATOM     38  C   UNL A   1      35.468  34.625  33.839  1.00  0.00     0.016 A 
ATOM     39  C   UNL A   1      34.435  32.912  32.699  1.00  0.00     0.016 A 
ATOM     40  C   UNL A   1      36.762  33.913  33.743  1.00  0.00     0.010 A 
ATOM     41  C   UNL A   1      35.719  32.671  32.237  1.00  0.00     0.010 A 
ATOM     42  C   UNL A   1      36.977  32.879  32.830  1.00  0.00    -0.014 A 
BRANCH  42  43
ATOM     43  C   UNL A   1      38.410  32.116  32.360  1.00  0.00     0.031 A 
ATOM     44  C   UNL A   1      38.776  30.791  31.311  1.00  0.00     0.074 A 
ATOM     45  C   UNL A   1      39.541  32.623  32.898  1.00  0.00     0.049 A 
ATOM     46  N   UNL A   1      39.592  29.794  31.625  1.00  0.00    -0.248 NA
ATOM     47  C   UNL A   1      38.116  30.355  29.998  1.00  0.00     0.031 C 
ATOM     48  C   UNL A   1      40.929  32.379  32.501  1.00  0.00     0.029 A 
ATOM     49  N   UNL A   1      39.659  33.551  33.942  1.00  0.00    -0.354 N 
ATOM     50  C   UNL A   1      39.520  28.842  30.578  1.00  0.00     0.074 A 
ATOM     51  C   UNL A   1      38.307  29.057  29.935  1.00  0.00     0.031 C 
ATOM     52  C   UNL A   1      41.742  32.874  33.453  1.00  0.00     0.029 A 
ATOM     53  C   UNL A   1      40.893  33.303  34.551  1.00  0.00     0.049 A 
ATOM     54  H   UNL A   1      39.004  34.240  34.195  1.00  0.00     0.167 HD
ATOM     55  C   UNL A   1      40.578  28.196  30.008  1.00  0.00     0.037 A 
ATOM     56  C   UNL A   1      40.924  32.849  35.833  1.00  0.00     0.037 A 
ATOM     57  C   UNL A   1      41.732  28.532  30.794  1.00  0.00     0.049 A 
ATOM     58  C   UNL A   1      41.573  31.490  35.873  1.00  0.00     0.074 A 
ATOM     59  C   UNL A   1      42.692  29.518  30.672  1.00  0.00     0.029 A 
ATOM     60  N   UNL A   1      41.708  28.141  32.119  1.00  0.00    -0.354 N 
ATOM     61  N   UNL A   1      41.597  30.660  34.862  1.00  0.00    -0.248 NA
ATOM     62  C   UNL A   1      42.351  31.016  37.009  1.00  0.00     0.031 C 
ATOM     63  C   UNL A   1      43.191  29.775  31.983  1.00  0.00     0.029 A 
ATOM     64  C   UNL A   1      42.565  28.911  32.869  1.00  0.00     0.049 A 
ATOM     65  H   UNL A   1      41.154  27.411  32.476  1.00  0.00     0.167 HD
ATOM     66  C   UNL A   1      42.419  29.607  35.160  1.00  0.00     0.074 A 
ATOM     67  C   UNL A   1      42.855  29.872  36.517  1.00  0.00     0.031 C 
ATOM     68  C   UNL A   1      42.711  28.606  34.279  1.00  0.00     0.037 A 
BRANCH  55  69
ATOM     69  C   UNL A   1      40.600  27.585  28.580  1.00  0.00     0.064 A 
ATOM     70  C   UNL A   1      39.964  26.348  28.343  1.00  0.00     0.173 A 
ATOM     71  C   UNL A   1      41.243  28.100  27.419  1.00  0.00     0.173 A 
ATOM     72  F   UNL A   1      39.220  25.767  29.293  1.00  0.00    -0.203 F 
ATOM     73  C   UNL A   1      40.047  25.661  27.117  1.00  0.00     0.198 A 
ATOM     74  C   UNL A   1      41.392  27.383  26.221  1.00  0.00     0.198 A 
ATOM     75  F   UNL A   1      41.680  29.358  27.329  1.00  0.00    -0.203 F 
ATOM     76  F   UNL A   1      39.397  24.499  26.962  1.00  0.00    -0.200 F 
ATOM     77  C   UNL A   1      40.792  26.159  26.069  1.00  0.00     0.200 A 
ATOM     78  F   UNL A   1      42.101  27.912  25.211  1.00  0.00    -0.200 F 
ATOM     79  F   UNL A   1      40.892  25.493  24.911  1.00  0.00    -0.200 F 
ENDBRANCH  55  69
BRANCH  56  80
ATOM     80  C   UNL A   1      39.800  33.396  36.665  1.00  0.00     0.064 A 
ATOM     81  C   UNL A   1      38.737  32.509  36.975  1.00  0.00     0.173 A 
ATOM     82  C   UNL A   1      39.912  34.539  37.463  1.00  0.00     0.173 A 
ATOM     83  F   UNL A   1      38.562  31.394  36.245  1.00  0.00    -0.203 F 
ATOM     84  C   UNL A   1      37.945  32.669  38.112  1.00  0.00     0.198 A 
ATOM     85  C   UNL A   1      39.075  34.725  38.578  1.00  0.00     0.198 A 
ATOM     86  F   UNL A   1      40.916  35.405  37.272  1.00  0.00    -0.203 F 
ATOM     87  F   UNL A   1      37.079  31.707  38.468  1.00  0.00    -0.200 F 
ATOM     88  C   UNL A   1      38.128  33.768  38.926  1.00  0.00     0.200 A 
ATOM     89  F   UNL A   1      39.304  35.745  39.419  1.00  0.00    -0.200 F 
ATOM     90  F   UNL A   1      37.459  33.865  40.084  1.00  0.00    -0.200 F 
ENDBRANCH  56  80
BRANCH  68  91
ATOM     91  C   UNL A   1      43.185  27.217  34.657  1.00  0.00     0.064 A 
ATOM     92  C   UNL A   1      44.520  26.915  34.966  1.00  0.00     0.173 A 
ATOM     93  C   UNL A   1      42.256  26.175  34.922  1.00  0.00     0.173 A 
ATOM     94  F   UNL A   1      45.483  27.843  34.915  1.00  0.00    -0.203 F 
ATOM     95  C   UNL A   1      44.908  25.653  35.415  1.00  0.00     0.198 A 
ATOM     96  C   UNL A   1      42.636  24.954  35.471  1.00  0.00     0.198 A 
ATOM     97  F   UNL A   1      40.941  26.314  34.699  1.00  0.00    -0.203 F 
ATOM     98  F   UNL A   1      46.207  25.400  35.618  1.00  0.00    -0.200 F 
ATOM     99  C   UNL A   1      43.966  24.681  35.687  1.00  0.00     0.200 A 
ATOM    100  F   UNL A   1      41.697  24.059  35.813  1.00  0.00    -0.200 F 
ATOM    101  F   UNL A   1      44.340  23.494  36.180  1.00  0.00    -0.200 F 
ENDBRANCH  68  91
ENDBRANCH  42  43
ENDBRANCH  35  37
ENDBRANCH  34  35
ENDBRANCH  33  34
ENDBRANCH  32  33
ENDBRANCH  31  32
ENDBRANCH  30  31
ENDBRANCH   1  30
TORSDOF 22
ENDMDL
MODEL 2
REMARK VINA RESULT:     -11.7      2.797      4.581
REMARK SMILES COc1cc(S(=O)(=O)Nc2cccc(C(=O)OCCOCCOCCOC(=O)c3ccc(-c4c5nc(c(-c6c(F)c(F)c(F)c(F)c6F)c6ccc([nH]6)c(-c6c(F)c(F)c(F)c(F)c6F)c6nc(c(-c7c(F)c(F)c(F)c(F)c7F)c7ccc4[nH]7)C=C6)C=C5)cc3)c2)c(OC)cc1C
REMARK SMILES IDX 21 1 20 2 19 3 18 4 17 5 15 6 16 7 14 8 10 9 11 10 92 11
REMARK SMILES IDX 12 12 13 13 9 14 6 16 7 17 8 18 5 19 3 20 4 21 97 22 96 23
REMARK SMILES IDX 98 24 93 25 2 26 1 27 94 28 95 29 22 30 23 31 24 32 25 33
REMARK SMILES IDX 26 34 27 35 28 36 29 37 30 38 91 39 31 40 90 41 32 42 33 43
REMARK SMILES IDX 34 44 84 45 35 46 89 47 83 48 85 49 36 50 88 51 82 52 81 53
REMARK SMILES IDX 37 55 69 56 49 57 68 58 50 59 53 60 67 61 86 62 51 63 52 64
REMARK SMILES IDX 66 66 87 67 54 68 38 69 39 70 47 71 40 72 41 73 45 74 48 75
REMARK SMILES IDX 42 76 43 77 46 78 44 79 70 80 71 81 79 82 72 83 73 84 77 85
REMARK SMILES IDX 80 86 74 87 75 88 78 89 76 90 55 91 56 92 64 93 57 94 58 95
REMARK SMILES IDX 62 96 65 97 59 98 60 99 63 100 61 101
REMARK H PARENT 9 15 85 54 53 65
REMARK Flexibility Score: inf
ROOT
ATOM      1  C   UNL A   1      34.088  33.203  28.949  1.00  0.00     0.188 C 
ENDROOT
BRANCH   1   2
ATOM      2  O   UNL A   1      33.507  32.692  27.736  1.00  0.00    -0.376 OA
BRANCH   2   3
ATOM      3  C   UNL A   1      33.348  31.321  27.339  1.00  0.00     0.202 C 
BRANCH   3   4
ATOM      4  C   UNL A   1      31.930  30.365  27.007  1.00  0.00     0.261 C 
BRANCH   4   5
ATOM      5  O   UNL A   1      31.520  28.641  27.153  1.00  0.00    -0.460 OA
BRANCH   5   6
ATOM      6  C   UNL A   1      31.123  27.498  26.335  1.00  0.00     0.338 C 
ATOM      7  O   UNL A   1      30.985  26.331  26.706  1.00  0.00    -0.246 OA
BRANCH   6   8
ATOM      8  C   UNL A   1      30.652  27.406  24.920  1.00  0.00     0.062 A 
ATOM      9  C   UNL A   1      31.197  26.154  22.795  1.00  0.00     0.050 A 
ATOM     10  C   UNL A   1      30.923  27.309  22.087  1.00  0.00     0.027 A 
ATOM     11  C   UNL A   1      31.001  26.201  24.190  1.00  0.00     0.042 A 
ATOM     12  C   UNL A   1      30.595  28.497  22.779  1.00  0.00     0.003 A 
ATOM     13  C   UNL A   1      30.495  28.561  24.184  1.00  0.00     0.016 A 
BRANCH   9  14
ATOM     14  N   UNL A   1      31.698  24.935  22.213  1.00  0.00    -0.279 N 
ATOM     15  H   UNL A   1      31.032  24.312  21.844  1.00  0.00     0.180 HD
BRANCH  14  16
ATOM     16  S   UNL A   1      33.325  24.469  22.100  1.00  0.00     0.265 S 
ATOM     17  O   UNL A   1      34.121  25.677  22.010  1.00  0.00    -0.201 OA
ATOM     18  O   UNL A   1      33.379  23.483  21.036  1.00  0.00    -0.201 OA
BRANCH  16  19
ATOM     19  C   UNL A   1      33.858  23.632  23.573  1.00  0.00     0.133 A 
ATOM     20  C   UNL A   1      35.385  23.588  25.464  1.00  0.00     0.123 A 
ATOM     21  C   UNL A   1      35.028  24.089  24.206  1.00  0.00     0.073 A 
ATOM     22  C   UNL A   1      34.477  22.805  26.181  1.00  0.00    -0.005 A 
ATOM     23  C   UNL A   1      33.361  22.310  25.504  1.00  0.00     0.055 A 
ATOM     24  C   UNL A   1      34.676  22.389  27.608  1.00  0.00     0.048 C 
ATOM     25  C   UNL A   1      33.138  22.603  24.157  1.00  0.00     0.139 A 
BRANCH  20  26
ATOM     26  O   UNL A   1      36.612  23.937  25.961  1.00  0.00    -0.496 OA
ATOM     27  C   UNL A   1      37.602  22.948  25.644  1.00  0.00     0.278 C 
ENDBRANCH  20  26
BRANCH  25  28
ATOM     28  O   UNL A   1      32.304  21.861  23.376  1.00  0.00    -0.495 OA
ATOM     29  C   UNL A   1      32.371  20.450  23.575  1.00  0.00     0.278 C 
ENDBRANCH  25  28
ENDBRANCH  16  19
ENDBRANCH  14  16
ENDBRANCH   9  14
ENDBRANCH   6   8
ENDBRANCH   5   6
ENDBRANCH   4   5
ENDBRANCH   3   4
ENDBRANCH   2   3
ENDBRANCH   1   2
BRANCH   1  30
ATOM     30  C   UNL A   1      33.753  34.566  29.513  1.00  0.00     0.188 C 
BRANCH  30  31
ATOM     31  O   UNL A   1      33.341  34.407  30.846  1.00  0.00    -0.376 OA
BRANCH  31  32
ATOM     32  C   UNL A   1      34.360  34.261  31.804  1.00  0.00     0.202 C 
BRANCH  32  33
ATOM     33  C   UNL A   1      34.756  32.792  32.028  1.00  0.00     0.261 C 
BRANCH  33  34
ATOM     34  O   UNL A   1      36.189  32.664  32.241  1.00  0.00    -0.460 OA
BRANCH  34  35
ATOM     35  C   UNL A   1      37.063  32.933  31.194  1.00  0.00     0.338 C 
ATOM     36  O   UNL A   1      37.210  34.004  30.681  1.00  0.00    -0.246 OA
BRANCH  35  37
ATOM     37  C   UNL A   1      37.560  31.613  30.611  1.00  0.00     0.060 A 
ATOM     38  C   UNL A   1      37.611  30.355  31.245  1.00  0.00     0.016 A 
ATOM     39  C   UNL A   1      38.474  31.771  29.647  1.00  0.00     0.016 A 
ATOM     40  C   UNL A   1      38.746  29.426  31.038  1.00  0.00     0.010 A 
ATOM     41  C   UNL A   1      39.661  31.129  29.961  1.00  0.00     0.010 A 
ATOM     42  C   UNL A   1      39.924  29.820  30.402  1.00  0.00    -0.014 A 
BRANCH  42  43
ATOM     43  C   UNL A   1      41.419  29.040  30.291  1.00  0.00     0.031 A 
ATOM     44  C   UNL A   1      41.975  27.624  29.469  1.00  0.00     0.074 A 
ATOM     45  C   UNL A   1      42.428  29.617  30.979  1.00  0.00     0.049 A 
ATOM     46  N   UNL A   1      42.715  26.677  30.030  1.00  0.00    -0.248 NA
ATOM     47  C   UNL A   1      41.575  27.048  28.106  1.00  0.00     0.031 C 
ATOM     48  C   UNL A   1      43.866  29.360  30.878  1.00  0.00     0.029 A 
ATOM     49  N   UNL A   1      42.348  30.646  31.927  1.00  0.00    -0.354 N 
ATOM     50  C   UNL A   1      42.841  25.624  29.090  1.00  0.00     0.074 A 
ATOM     51  C   UNL A   1      41.772  25.753  28.212  1.00  0.00     0.031 C 
ATOM     52  C   UNL A   1      44.484  29.960  31.912  1.00  0.00     0.029 A 
ATOM     53  C   UNL A   1      43.444  30.482  32.780  1.00  0.00     0.049 A 
ATOM     54  H   UNL A   1      41.658  31.346  31.981  1.00  0.00     0.167 HD
ATOM     55  C   UNL A   1      43.987  24.944  28.798  1.00  0.00     0.037 A 
ATOM     56  C   UNL A   1      43.229  30.159  34.084  1.00  0.00     0.037 A 
ATOM     57  C   UNL A   1      44.971  25.376  29.751  1.00  0.00     0.049 A 
ATOM     58  C   UNL A   1      43.857  28.822  34.383  1.00  0.00     0.074 A 
ATOM     59  C   UNL A   1      45.939  26.361  29.713  1.00  0.00     0.029 A 
ATOM     60  N   UNL A   1      44.696  25.119  31.079  1.00  0.00    -0.354 N 
ATOM     61  N   UNL A   1      44.071  27.895  33.484  1.00  0.00    -0.248 NA
ATOM     62  C   UNL A   1      44.404  28.476  35.687  1.00  0.00     0.031 C 
ATOM     63  C   UNL A   1      46.181  26.756  31.062  1.00  0.00     0.029 A 
ATOM     64  C   UNL A   1      45.396  25.974  31.896  1.00  0.00     0.049 A 
ATOM     65  H   UNL A   1      44.082  24.418  31.397  1.00  0.00     0.167 HD
ATOM     66  C   UNL A   1      44.819  26.892  34.036  1.00  0.00     0.074 A 
ATOM     67  C   UNL A   1      44.991  27.298  35.418  1.00  0.00     0.031 C 
ATOM     68  C   UNL A   1      45.271  25.814  33.331  1.00  0.00     0.037 A 
BRANCH  55  69
ATOM     69  C   UNL A   1      44.278  24.194  27.469  1.00  0.00     0.064 A 
ATOM     70  C   UNL A   1      43.728  22.912  27.259  1.00  0.00     0.173 A 
ATOM     71  C   UNL A   1      45.103  24.619  26.390  1.00  0.00     0.173 A 
ATOM     72  F   UNL A   1      42.843  22.396  28.122  1.00  0.00    -0.203 F 
ATOM     73  C   UNL A   1      44.046  22.109  26.147  1.00  0.00     0.198 A 
ATOM     74  C   UNL A   1      45.481  23.792  25.319  1.00  0.00     0.198 A 
ATOM     75  F   UNL A   1      45.514  25.880  26.243  1.00  0.00    -0.203 F 
ATOM     76  F   UNL A   1      43.466  20.910  26.006  1.00  0.00    -0.200 F 
ATOM     77  C   UNL A   1      44.951  22.534  25.197  1.00  0.00     0.200 A 
ATOM     78  F   UNL A   1      46.343  24.250  24.396  1.00  0.00    -0.200 F 
ATOM     79  F   UNL A   1      45.273  21.759  24.151  1.00  0.00    -0.200 F 
ENDBRANCH  55  69
BRANCH  56  80
ATOM     80  C   UNL A   1      41.969  30.765  34.629  1.00  0.00     0.064 A 
ATOM     81  C   UNL A   1      41.997  32.152  34.926  1.00  0.00     0.173 A 
ATOM     82  C   UNL A   1      40.705  30.182  34.488  1.00  0.00     0.173 A 
ATOM     83  F   UNL A   1      43.176  32.778  35.084  1.00  0.00    -0.203 F 
ATOM     84  C   UNL A   1      40.844  32.936  34.915  1.00  0.00     0.198 A 
ATOM     85  C   UNL A   1      39.540  30.969  34.531  1.00  0.00     0.198 A 
ATOM     86  F   UNL A   1      40.586  28.889  34.158  1.00  0.00    -0.203 F 
ATOM     87  F   UNL A   1      40.939  34.272  35.014  1.00  0.00    -0.200 F 
ATOM     88  C   UNL A   1      39.615  32.347  34.696  1.00  0.00     0.200 A 
ATOM     89  F   UNL A   1      38.353  30.416  34.237  1.00  0.00    -0.200 F 
ATOM     90  F   UNL A   1      38.520  33.109  34.560  1.00  0.00    -0.200 F 
ENDBRANCH  56  80
BRANCH  68  91
ATOM     91  C   UNL A   1      45.663  24.478  33.931  1.00  0.00     0.064 A 
ATOM     92  C   UNL A   1      44.790  23.382  34.010  1.00  0.00     0.173 A 
ATOM     93  C   UNL A   1      47.016  24.193  34.261  1.00  0.00     0.173 A 
ATOM     94  F   UNL A   1      43.523  23.457  33.585  1.00  0.00    -0.203 F 
ATOM     95  C   UNL A   1      45.209  22.133  34.468  1.00  0.00     0.198 A 
ATOM     96  C   UNL A   1      47.449  22.918  34.613  1.00  0.00     0.198 A 
ATOM     97  F   UNL A   1      47.976  25.128  34.214  1.00  0.00    -0.203 F 
ATOM     98  F   UNL A   1      44.313  21.147  34.598  1.00  0.00    -0.200 F 
ATOM     99  C   UNL A   1      46.540  21.895  34.748  1.00  0.00     0.200 A 
ATOM    100  F   UNL A   1      48.758  22.688  34.793  1.00  0.00    -0.200 F 
ATOM    101  F   UNL A   1      46.946  20.677  35.124  1.00  0.00    -0.200 F 
ENDBRANCH  68  91
ENDBRANCH  42  43
ENDBRANCH  35  37
ENDBRANCH  34  35
ENDBRANCH  33  34
ENDBRANCH  32  33
ENDBRANCH  31  32
ENDBRANCH  30  31
ENDBRANCH   1  30
TORSDOF 22
ENDMDL
MODEL 3
REMARK VINA RESULT:     -11.6      5.235      9.853
REMARK SMILES COc1cc(S(=O)(=O)Nc2cccc(C(=O)OCCOCCOCCOC(=O)c3ccc(-c4c5nc(c(-c6c(F)c(F)c(F)c(F)c6F)c6ccc([nH]6)c(-c6c(F)c(F)c(F)c(F)c6F)c6nc(c(-c7c(F)c(F)c(F)c(F)c7F)c7ccc4[nH]7)C=C6)C=C5)cc3)c2)c(OC)cc1C
REMARK SMILES IDX 21 1 20 2 19 3 18 4 17 5 15 6 16 7 14 8 10 9 11 10 92 11
REMARK SMILES IDX 12 12 13 13 9 14 6 16 7 17 8 18 5 19 3 20 4 21 97 22 96 23
REMARK SMILES IDX 98 24 93 25 2 26 1 27 94 28 95 29 22 30 23 31 24 32 25 33
REMARK SMILES IDX 26 34 27 35 28 36 29 37 30 38 91 39 31 40 90 41 32 42 33 43
REMARK SMILES IDX 34 44 84 45 35 46 89 47 83 48 85 49 36 50 88 51 82 52 81 53
REMARK SMILES IDX 37 55 69 56 49 57 68 58 50 59 53 60 67 61 86 62 51 63 52 64
REMARK SMILES IDX 66 66 87 67 54 68 38 69 39 70 47 71 40 72 41 73 45 74 48 75
REMARK SMILES IDX 42 76 43 77 46 78 44 79 70 80 71 81 79 82 72 83 73 84 77 85
REMARK SMILES IDX 80 86 74 87 75 88 78 89 76 90 55 91 56 92 64 93 57 94 58 95
REMARK SMILES IDX 62 96 65 97 59 98 60 99 63 100 61 101
REMARK H PARENT 9 15 85 54 53 65
REMARK Flexibility Score: inf
ROOT
ATOM      1  C   UNL A   1      35.118  33.404  28.601  1.00  0.00     0.188 C 
ENDROOT
BRANCH   1   2
ATOM      2  O   UNL A   1      35.002  32.349  27.628  1.00  0.00    -0.376 OA
BRANCH   2   3
ATOM      3  C   UNL A   1      34.163  31.185  27.682  1.00  0.00     0.202 C 
BRANCH   3   4
ATOM      4  C   UNL A   1      32.862  30.644  26.658  1.00  0.00     0.261 C 
BRANCH   4   5
ATOM      5  O   UNL A   1      32.756  29.651  25.186  1.00  0.00    -0.460 OA
BRANCH   5   6
ATOM      6  C   UNL A   1      31.772  28.989  24.334  1.00  0.00     0.338 C 
ATOM      7  O   UNL A   1      31.511  29.251  23.159  1.00  0.00    -0.246 OA
BRANCH   6   8
ATOM      8  C   UNL A   1      30.926  27.777  24.552  1.00  0.00     0.062 A 
ATOM      9  C   UNL A   1      31.153  25.261  24.580  1.00  0.00     0.050 A 
ATOM     10  C   UNL A   1      29.906  25.178  23.989  1.00  0.00     0.027 A 
ATOM     11  C   UNL A   1      31.618  26.550  24.906  1.00  0.00     0.042 A 
ATOM     12  C   UNL A   1      29.221  26.360  23.623  1.00  0.00     0.003 A 
ATOM     13  C   UNL A   1      29.738  27.649  23.866  1.00  0.00     0.016 A 
BRANCH   9  14
ATOM     14  N   UNL A   1      32.011  24.133  24.844  1.00  0.00    -0.279 N 
ATOM     15  H   UNL A   1      32.004  23.776  25.761  1.00  0.00     0.180 HD
BRANCH  14  16
ATOM     16  S   UNL A   1      33.030  23.362  23.730  1.00  0.00     0.265 S 
ATOM     17  O   UNL A   1      34.287  24.084  23.713  1.00  0.00    -0.201 OA
ATOM     18  O   UNL A   1      32.252  23.229  22.511  1.00  0.00    -0.201 OA
BRANCH  16  19
ATOM     19  C   UNL A   1      33.416  21.708  24.249  1.00  0.00     0.133 A 
ATOM     20  C   UNL A   1      33.048  19.326  23.936  1.00  0.00     0.123 A 
ATOM     21  C   UNL A   1      32.662  20.652  23.706  1.00  0.00     0.073 A 
ATOM     22  C   UNL A   1      34.289  19.056  24.518  1.00  0.00    -0.005 A 
ATOM     23  C   UNL A   1      34.980  20.115  25.110  1.00  0.00     0.055 A 
ATOM     24  C   UNL A   1      34.882  17.682  24.625  1.00  0.00     0.048 C 
ATOM     25  C   UNL A   1      34.465  21.412  25.105  1.00  0.00     0.139 A 
BRANCH  20  26
ATOM     26  O   UNL A   1      32.193  18.336  23.530  1.00  0.00    -0.496 OA
ATOM     27  C   UNL A   1      32.152  18.239  22.099  1.00  0.00     0.278 C 
ENDBRANCH  20  26
BRANCH  25  28
ATOM     28  O   UNL A   1      34.895  22.374  25.969  1.00  0.00    -0.495 OA
ATOM     29  C   UNL A   1      34.307  22.338  27.268  1.00  0.00     0.278 C 
ENDBRANCH  25  28
ENDBRANCH  16  19
ENDBRANCH  14  16
ENDBRANCH   9  14
ENDBRANCH   6   8
ENDBRANCH   5   6
ENDBRANCH   4   5
ENDBRANCH   3   4
ENDBRANCH   2   3
ENDBRANCH   1   2
BRANCH   1  30
ATOM     30  C   UNL A   1      36.104  33.361  29.748  1.00  0.00     0.188 C 
BRANCH  30  31
ATOM     31  O   UNL A   1      35.536  32.616  30.795  1.00  0.00    -0.376 OA
BRANCH  31  32
ATOM     32  C   UNL A   1      36.182  31.414  31.131  1.00  0.00     0.202 C 
BRANCH  32  33
ATOM     33  C   UNL A   1      37.425  31.147  30.265  1.00  0.00     0.261 C 
BRANCH  33  34
ATOM     34  O   UNL A   1      37.373  29.821  29.671  1.00  0.00    -0.460 OA
BRANCH  34  35
ATOM     35  C   UNL A   1      37.815  29.637  28.366  1.00  0.00     0.338 C 
ATOM     36  O   UNL A   1      37.274  30.072  27.392  1.00  0.00    -0.246 OA
BRANCH  35  37
ATOM     37  C   UNL A   1      38.894  28.558  28.354  1.00  0.00     0.060 A 
ATOM     38  C   UNL A   1      39.483  27.915  29.462  1.00  0.00     0.016 A 
ATOM     39  C   UNL A   1      39.684  28.611  27.276  1.00  0.00     0.016 A 
ATOM     40  C   UNL A   1      40.927  27.587  29.493  1.00  0.00     0.010 A 
ATOM     41  C   UNL A   1      41.014  28.775  27.628  1.00  0.00     0.010 A 
ATOM     42  C   UNL A   1      41.825  28.091  28.550  1.00  0.00    -0.014 A 
BRANCH  42  43
ATOM     43  C   UNL A   1      43.515  28.078  28.536  1.00  0.00     0.031 A 
ATOM     44  C   UNL A   1      44.723  29.306  28.391  1.00  0.00     0.074 A 
ATOM     45  C   UNL A   1      44.088  26.861  28.664  1.00  0.00     0.049 A 
ATOM     46  N   UNL A   1      45.770  29.232  27.581  1.00  0.00    -0.248 NA
ATOM     47  C   UNL A   1      44.741  30.745  28.918  1.00  0.00     0.031 C 
ATOM     48  C   UNL A   1      45.485  26.536  28.955  1.00  0.00     0.029 A 
ATOM     49  N   UNL A   1      43.468  25.605  28.598  1.00  0.00    -0.354 N 
ATOM     50  C   UNL A   1      46.440  30.479  27.638  1.00  0.00     0.074 A 
ATOM     51  C   UNL A   1      45.504  31.407  28.078  1.00  0.00     0.031 C 
ATOM     52  C   UNL A   1      45.674  25.221  28.742  1.00  0.00     0.029 A 
ATOM     53  C   UNL A   1      44.446  24.706  28.161  1.00  0.00     0.049 A 
ATOM     54  H   UNL A   1      42.531  25.398  28.816  1.00  0.00     0.167 HD
ATOM     55  C   UNL A   1      47.789  30.661  27.725  1.00  0.00     0.037 A 
ATOM     56  C   UNL A   1      44.305  24.106  26.948  1.00  0.00     0.037 A 
ATOM     57  C   UNL A   1      48.386  29.365  27.562  1.00  0.00     0.049 A 
ATOM     58  C   UNL A   1      45.454  24.497  26.054  1.00  0.00     0.074 A 
ATOM     59  C   UNL A   1      48.790  28.401  28.466  1.00  0.00     0.029 A 
ATOM     60  N   UNL A   1      48.159  28.730  26.357  1.00  0.00    -0.354 N 
ATOM     61  N   UNL A   1      46.139  25.604  26.184  1.00  0.00    -0.248 NA
ATOM     62  C   UNL A   1      45.995  23.617  25.029  1.00  0.00     0.031 C 
ATOM     63  C   UNL A   1      48.717  27.146  27.794  1.00  0.00     0.029 A 
ATOM     64  C   UNL A   1      48.320  27.371  26.485  1.00  0.00     0.049 A 
ATOM     65  H   UNL A   1      47.915  29.189  25.522  1.00  0.00     0.167 HD
ATOM     66  C   UNL A   1      47.221  25.568  25.347  1.00  0.00     0.074 A 
ATOM     67  C   UNL A   1      47.078  24.310  24.639  1.00  0.00     0.031 C 
ATOM     68  C   UNL A   1      48.172  26.545  25.302  1.00  0.00     0.037 A 
BRANCH  55  69
ATOM     69  C   UNL A   1      48.496  31.919  28.301  1.00  0.00     0.064 A 
ATOM     70  C   UNL A   1      48.917  32.942  27.425  1.00  0.00     0.173 A 
ATOM     71  C   UNL A   1      48.838  32.185  29.657  1.00  0.00     0.173 A 
ATOM     72  F   UNL A   1      48.588  32.912  26.127  1.00  0.00    -0.203 F 
ATOM     73  C   UNL A   1      49.678  34.050  27.843  1.00  0.00     0.198 A 
ATOM     74  C   UNL A   1      49.661  33.247  30.064  1.00  0.00     0.198 A 
ATOM     75  F   UNL A   1      48.325  31.503  30.683  1.00  0.00    -0.203 F 
ATOM     76  F   UNL A   1      50.023  34.992  26.955  1.00  0.00    -0.200 F 
ATOM     77  C   UNL A   1      50.083  34.183  29.155  1.00  0.00     0.200 A 
ATOM     78  F   UNL A   1      50.012  33.362  31.356  1.00  0.00    -0.200 F 
ATOM     79  F   UNL A   1      50.829  35.225  29.548  1.00  0.00    -0.200 F 
ENDBRANCH  55  69
BRANCH  56  80
ATOM     80  C   UNL A   1      42.869  23.843  26.599  1.00  0.00     0.064 A 
ATOM     81  C   UNL A   1      42.289  22.654  27.108  1.00  0.00     0.173 A 
ATOM     82  C   UNL A   1      41.982  24.837  26.170  1.00  0.00     0.173 A 
ATOM     83  F   UNL A   1      43.080  21.653  27.532  1.00  0.00    -0.203 F 
ATOM     84  C   UNL A   1      40.917  22.534  27.332  1.00  0.00     0.198 A 
ATOM     85  C   UNL A   1      40.595  24.689  26.347  1.00  0.00     0.198 A 
ATOM     86  F   UNL A   1      42.443  26.011  25.721  1.00  0.00    -0.203 F 
ATOM     87  F   UNL A   1      40.434  21.468  27.989  1.00  0.00    -0.200 F 
ATOM     88  C   UNL A   1      40.071  23.562  26.969  1.00  0.00     0.200 A 
ATOM     89  F   UNL A   1      39.777  25.718  26.074  1.00  0.00    -0.200 F 
ATOM     90  F   UNL A   1      38.771  23.507  27.293  1.00  0.00    -0.200 F 
ENDBRANCH  56  80
BRANCH  68  91
ATOM     91  C   UNL A   1      49.088  26.823  24.127  1.00  0.00     0.064 A 
ATOM     92  C   UNL A   1      48.661  27.453  22.948  1.00  0.00     0.173 A 
ATOM     93  C   UNL A   1      50.494  26.644  24.237  1.00  0.00     0.173 A 
ATOM     94  F   UNL A   1      47.388  27.826  22.768  1.00  0.00    -0.203 F 
ATOM     95  C   UNL A   1      49.549  27.792  21.927  1.00  0.00     0.198 A 
ATOM     96  C   UNL A   1      51.384  27.083  23.262  1.00  0.00     0.198 A 
ATOM     97  F   UNL A   1      51.061  26.077  25.312  1.00  0.00    -0.203 F 
ATOM     98  F   UNL A   1      49.072  28.318  20.791  1.00  0.00    -0.200 F 
ATOM     99  C   UNL A   1      50.909  27.628  22.092  1.00  0.00     0.200 A 
ATOM    100  F   UNL A   1      52.705  26.997  23.481  1.00  0.00    -0.200 F 
ATOM    101  F   UNL A   1      51.760  28.016  21.134  1.00  0.00    -0.200 F 
ENDBRANCH  68  91
ENDBRANCH  42  43
ENDBRANCH  35  37
ENDBRANCH  34  35
ENDBRANCH  33  34
ENDBRANCH  32  33
ENDBRANCH  31  32
ENDBRANCH  30  31
ENDBRANCH   1  30
TORSDOF 22
ENDMDL
