MODEL 1
REMARK VINA RESULT:      -9.7      0.000      0.000
REMARK SMILES O=C(CSc1nnnn1C1CC1)N[C@H](CO)C(=O)OCCOCCOCCOC(=O)c1ccc(-c2c3nc(c(-c4c(F)c(F)c(F)c(F)c4F)c4ccc([nH]4)c(-c4c(F)c(F)c(F)c(F)c4F)c4nc(c(-c5c(F)c(F)c(F)c(F)c5F)c5ccc2[nH]5)C=C4)C=C3)cc1
REMARK SMILES IDX 22 1 21 2 20 3 19 4 17 5 18 6 14 7 13 8 1 9 2 10 3 12 4 13
REMARK SMILES IDX 5 14 6 15 9 16 7 17 8 18 10 19 11 20 12 21 15 22 16 23 23 25
REMARK SMILES IDX 24 26 25 27 26 28 27 29 28 30 29 31 30 32 31 33 32 34 93 35
REMARK SMILES IDX 33 36 92 37 34 38 35 39 36 40 86 41 37 42 91 43 85 44 87 45
REMARK SMILES IDX 38 46 90 47 84 48 83 49 39 51 71 52 51 53 70 54 52 55 55 56
REMARK SMILES IDX 69 57 88 58 53 59 54 60 68 62 89 63 56 64 40 65 41 66 49 67
REMARK SMILES IDX 42 68 43 69 47 70 50 71 44 72 45 73 48 74 46 75 72 76 73 77
REMARK SMILES IDX 81 78 74 79 75 80 79 81 82 82 76 83 77 84 80 85 78 86 57 87
REMARK SMILES IDX 58 88 66 89 59 90 60 91 64 92 67 93 61 94 62 95 65 96 63 97
REMARK H PARENT 13 11 16 24 87 50 55 61
REMARK Flexibility Score: inf
ROOT
ATOM      1  O   UNL A   1      37.915  22.753  26.178  1.00  0.00    -0.376 OA
ENDROOT
BRANCH   1   2
ATOM      2  C   UNL A   1      37.167  23.430  25.165  1.00  0.00     0.202 C 
BRANCH   2   3
ATOM      3  C   UNL A   1      35.707  23.795  25.505  1.00  0.00     0.261 C 
BRANCH   3   4
ATOM      4  O   UNL A   1      34.871  22.687  25.938  1.00  0.00    -0.462 OA
BRANCH   4   5
ATOM      5  C   UNL A   1      33.531  22.799  25.763  1.00  0.00     0.331 C 
ATOM      6  O   UNL A   1      32.767  23.235  26.623  1.00  0.00    -0.250 OA
BRANCH   5   7
ATOM      7  C   UNL A   1      32.987  22.252  24.428  1.00  0.00     0.218 C 
BRANCH   7   8
ATOM      8  N   UNL A   1      32.351  23.420  23.786  1.00  0.00    -0.340 N 
ATOM      9  O   UNL A   1      33.945  23.838  22.207  1.00  0.00    -0.274 OA
ATOM     10  C   UNL A   1      32.858  24.105  22.709  1.00  0.00     0.231 C 
ATOM     11  H   UNL A   1      31.496  23.733  24.160  1.00  0.00     0.164 HD
BRANCH  10  12
ATOM     12  C   UNL A   1      31.965  25.216  22.181  1.00  0.00     0.178 C 
BRANCH  12  13
ATOM     13  S   UNL A   1      32.829  26.820  22.123  1.00  0.00    -0.075 SA
BRANCH  13  14
ATOM     14  C   UNL A   1      31.595  27.896  22.678  1.00  0.00     0.210 A 
ATOM     15  N   UNL A   1      30.535  28.232  21.979  1.00  0.00    -0.102 NA
ATOM     16  N   UNL A   1      31.472  28.429  23.942  1.00  0.00    -0.217 N 
ATOM     17  N   UNL A   1      29.734  28.953  22.829  1.00  0.00    -0.023 NA
ATOM     18  N   UNL A   1      30.274  29.039  24.037  1.00  0.00    -0.044 NA
BRANCH  16  19
ATOM     19  C   UNL A   1      32.338  28.371  25.101  1.00  0.00     0.112 C 
ATOM     20  C   UNL A   1      33.834  28.590  25.148  1.00  0.00     0.029 C 
ATOM     21  C   UNL A   1      32.925  29.622  25.722  1.00  0.00     0.029 C 
ENDBRANCH  16  19
ENDBRANCH  13  14
ENDBRANCH  12  13
ENDBRANCH  10  12
ENDBRANCH   7   8
BRANCH   7  22
ATOM     22  C   UNL A   1      32.076  21.018  24.491  1.00  0.00     0.193 C 
BRANCH  22  23
ATOM     23  O   UNL A   1      31.527  20.868  25.805  1.00  0.00    -0.394 OA
ATOM     24  H   UNL A   1      31.237  19.951  25.932  1.00  0.00     0.210 HD
ENDBRANCH  22  23
ENDBRANCH   7  22
ENDBRANCH   5   7
ENDBRANCH   4   5
ENDBRANCH   3   4
ENDBRANCH   2   3
ENDBRANCH   1   2
BRANCH   1  25
ATOM     25  C   UNL A   1      39.182  23.316  26.517  1.00  0.00     0.188 C 
BRANCH  25  26
ATOM     26  C   UNL A   1      40.261  22.305  26.945  1.00  0.00     0.188 C 
BRANCH  26  27
ATOM     27  O   UNL A   1      40.265  21.137  26.136  1.00  0.00    -0.376 OA
BRANCH  27  28
ATOM     28  C   UNL A   1      40.875  19.929  26.568  1.00  0.00     0.202 C 
BRANCH  28  29
ATOM     29  C   UNL A   1      42.305  19.685  26.077  1.00  0.00     0.261 C 
BRANCH  29  30
ATOM     30  O   UNL A   1      42.845  20.758  25.323  1.00  0.00    -0.460 OA
BRANCH  30  31
ATOM     31  C   UNL A   1      44.187  20.880  25.302  1.00  0.00     0.338 C 
ATOM     32  O   UNL A   1      45.018  19.989  25.271  1.00  0.00    -0.246 OA
BRANCH  31  33
ATOM     33  C   UNL A   1      44.481  22.320  25.261  1.00  0.00     0.060 A 
ATOM     34  C   UNL A   1      45.655  22.757  25.870  1.00  0.00     0.016 A 
ATOM     35  C   UNL A   1      43.526  23.217  24.744  1.00  0.00     0.016 A 
ATOM     36  C   UNL A   1      45.724  24.075  26.248  1.00  0.00     0.010 A 
ATOM     37  C   UNL A   1      43.584  24.525  25.129  1.00  0.00     0.010 A 
ATOM     38  C   UNL A   1      44.616  24.884  25.987  1.00  0.00    -0.014 A 
BRANCH  38  39
ATOM     39  C   UNL A   1      44.426  26.044  26.818  1.00  0.00     0.031 A 
ATOM     40  C   UNL A   1      45.390  27.128  26.603  1.00  0.00     0.074 A 
ATOM     41  C   UNL A   1      43.356  26.092  27.635  1.00  0.00     0.049 A 
ATOM     42  N   UNL A   1      46.241  27.591  27.453  1.00  0.00    -0.248 NA
ATOM     43  C   UNL A   1      45.520  27.678  25.245  1.00  0.00     0.031 C 
ATOM     44  C   UNL A   1      42.220  25.163  27.697  1.00  0.00     0.029 A 
ATOM     45  N   UNL A   1      43.003  27.061  28.515  1.00  0.00    -0.354 N 
ATOM     46  C   UNL A   1      46.896  28.620  26.794  1.00  0.00     0.074 A 
ATOM     47  C   UNL A   1      46.547  28.512  25.402  1.00  0.00     0.031 C 
ATOM     48  C   UNL A   1      41.215  25.739  28.391  1.00  0.00     0.029 A 
ATOM     49  C   UNL A   1      41.671  27.020  28.899  1.00  0.00     0.049 A 
ATOM     50  H   UNL A   1      43.637  27.734  28.853  1.00  0.00     0.167 HD
ATOM     51  C   UNL A   1      47.470  29.636  27.488  1.00  0.00     0.037 A 
ATOM     52  C   UNL A   1      40.992  28.036  29.485  1.00  0.00     0.037 A 
ATOM     53  C   UNL A   1      47.673  29.289  28.871  1.00  0.00     0.049 A 
ATOM     54  C   UNL A   1      42.006  28.962  30.068  1.00  0.00     0.074 A 
ATOM     55  C   UNL A   1      48.378  28.286  29.510  1.00  0.00     0.029 A 
ATOM     56  N   UNL A   1      46.796  29.784  29.805  1.00  0.00    -0.354 N 
ATOM     57  N   UNL A   1      42.760  28.660  31.091  1.00  0.00    -0.248 NA
ATOM     58  C   UNL A   1      42.518  30.033  29.219  1.00  0.00     0.031 C 
ATOM     59  C   UNL A   1      47.574  27.918  30.626  1.00  0.00     0.029 A 
ATOM     60  C   UNL A   1      46.452  28.746  30.635  1.00  0.00     0.049 A 
ATOM     61  H   UNL A   1      46.474  30.712  29.868  1.00  0.00     0.167 HD
ATOM     62  C   UNL A   1      44.009  29.185  30.783  1.00  0.00     0.074 A 
ATOM     63  C   UNL A   1      43.776  30.097  29.666  1.00  0.00     0.031 C 
ATOM     64  C   UNL A   1      45.153  28.607  31.253  1.00  0.00     0.037 A 
BRANCH  51  65
ATOM     65  C   UNL A   1      47.512  31.049  26.986  1.00  0.00     0.064 A 
ATOM     66  C   UNL A   1      48.732  31.747  27.001  1.00  0.00     0.173 A 
ATOM     67  C   UNL A   1      46.358  31.830  26.755  1.00  0.00     0.173 A 
ATOM     68  F   UNL A   1      49.883  31.102  27.247  1.00  0.00    -0.203 F 
ATOM     69  C   UNL A   1      48.784  33.134  26.853  1.00  0.00     0.198 A 
ATOM     70  C   UNL A   1      46.419  33.203  26.544  1.00  0.00     0.198 A 
ATOM     71  F   UNL A   1      45.123  31.318  26.837  1.00  0.00    -0.203 F 
ATOM     72  F   UNL A   1      49.951  33.774  26.995  1.00  0.00    -0.200 F 
ATOM     73  C   UNL A   1      47.627  33.861  26.624  1.00  0.00     0.200 A 
ATOM     74  F   UNL A   1      45.285  33.890  26.344  1.00  0.00    -0.200 F 
ATOM     75  F   UNL A   1      47.670  35.195  26.533  1.00  0.00    -0.200 F 
ENDBRANCH  51  65
BRANCH  52  76
ATOM     76  C   UNL A   1      39.566  28.400  29.286  1.00  0.00     0.064 A 
ATOM     77  C   UNL A   1      38.671  28.430  30.367  1.00  0.00     0.173 A 
ATOM     78  C   UNL A   1      39.095  28.957  28.078  1.00  0.00     0.173 A 
ATOM     79  F   UNL A   1      39.048  27.970  31.568  1.00  0.00    -0.203 F 
ATOM     80  C   UNL A   1      37.394  28.992  30.249  1.00  0.00     0.198 A 
ATOM     81  C   UNL A   1      37.816  29.500  27.956  1.00  0.00     0.198 A 
ATOM     82  F   UNL A   1      39.891  29.074  27.007  1.00  0.00    -0.203 F 
ATOM     83  F   UNL A   1      36.592  29.058  31.321  1.00  0.00    -0.200 F 
ATOM     84  C   UNL A   1      36.969  29.530  29.046  1.00  0.00     0.200 A 
ATOM     85  F   UNL A   1      37.434  30.045  26.793  1.00  0.00    -0.200 F 
ATOM     86  F   UNL A   1      35.766  30.113  28.946  1.00  0.00    -0.200 F 
ENDBRANCH  52  76
BRANCH  64  87
ATOM     87  C   UNL A   1      45.021  27.546  32.310  1.00  0.00     0.064 A 
ATOM     88  C   UNL A   1      44.937  27.826  33.686  1.00  0.00     0.173 A 
ATOM     89  C   UNL A   1      44.815  26.220  31.911  1.00  0.00     0.173 A 
ATOM     90  F   UNL A   1      45.005  29.083  34.138  1.00  0.00    -0.203 F 
ATOM     91  C   UNL A   1      44.712  26.815  34.619  1.00  0.00     0.198 A 
ATOM     92  C   UNL A   1      44.550  25.218  32.842  1.00  0.00     0.198 A 
ATOM     93  F   UNL A   1      44.817  25.902  30.607  1.00  0.00    -0.203 F 
ATOM     94  F   UNL A   1      44.652  27.111  35.926  1.00  0.00    -0.200 F 
ATOM     95  C   UNL A   1      44.512  25.513  34.196  1.00  0.00     0.200 A 
ATOM     96  F   UNL A   1      44.302  23.968  32.424  1.00  0.00    -0.200 F 
ATOM     97  F   UNL A   1      44.252  24.548  35.089  1.00  0.00    -0.200 F 
ENDBRANCH  64  87
ENDBRANCH  38  39
ENDBRANCH  31  33
ENDBRANCH  30  31
ENDBRANCH  29  30
ENDBRANCH  28  29
ENDBRANCH  27  28
ENDBRANCH  26  27
ENDBRANCH  25  26
ENDBRANCH   1  25
TORSDOF 24
ENDMDL
MODEL 2
REMARK VINA RESULT:      -9.7      3.391      8.216
REMARK SMILES O=C(CSc1nnnn1C1CC1)N[C@H](CO)C(=O)OCCOCCOCCOC(=O)c1ccc(-c2c3nc(c(-c4c(F)c(F)c(F)c(F)c4F)c4ccc([nH]4)c(-c4c(F)c(F)c(F)c(F)c4F)c4nc(c(-c5c(F)c(F)c(F)c(F)c5F)c5ccc2[nH]5)C=C4)C=C3)cc1
REMARK SMILES IDX 22 1 21 2 20 3 19 4 17 5 18 6 14 7 13 8 1 9 2 10 3 12 4 13
REMARK SMILES IDX 5 14 6 15 9 16 7 17 8 18 10 19 11 20 12 21 15 22 16 23 23 25
REMARK SMILES IDX 24 26 25 27 26 28 27 29 28 30 29 31 30 32 31 33 32 34 93 35
REMARK SMILES IDX 33 36 92 37 34 38 35 39 36 40 86 41 37 42 91 43 85 44 87 45
REMARK SMILES IDX 38 46 90 47 84 48 83 49 39 51 71 52 51 53 70 54 52 55 55 56
REMARK SMILES IDX 69 57 88 58 53 59 54 60 68 62 89 63 56 64 40 65 41 66 49 67
REMARK SMILES IDX 42 68 43 69 47 70 50 71 44 72 45 73 48 74 46 75 72 76 73 77
REMARK SMILES IDX 81 78 74 79 75 80 79 81 82 82 76 83 77 84 80 85 78 86 57 87
REMARK SMILES IDX 58 88 66 89 59 90 60 91 64 92 67 93 61 94 62 95 65 96 63 97
REMARK H PARENT 13 11 16 24 87 50 55 61
REMARK Flexibility Score: inf
ROOT
ATOM      1  O   UNL A   1      34.098  30.887  27.916  1.00  0.00    -0.376 OA
ENDROOT
BRANCH   1   2
ATOM      2  C   UNL A   1      33.682  30.362  26.653  1.00  0.00     0.202 C 
BRANCH   2   3
ATOM      3  C   UNL A   1      32.169  30.126  26.461  1.00  0.00     0.261 C 
BRANCH   3   4
ATOM      4  O   UNL A   1      31.814  28.954  25.677  1.00  0.00    -0.462 OA
BRANCH   4   5
ATOM      5  C   UNL A   1      31.321  29.153  24.429  1.00  0.00     0.331 C 
ATOM      6  O   UNL A   1      30.301  29.798  24.196  1.00  0.00    -0.250 OA
BRANCH   5   7
ATOM      7  C   UNL A   1      32.075  28.431  23.295  1.00  0.00     0.218 C 
BRANCH   7   8
ATOM      8  N   UNL A   1      32.118  27.018  23.726  1.00  0.00    -0.340 N 
ATOM      9  O   UNL A   1      31.876  26.040  21.680  1.00  0.00    -0.274 OA
ATOM     10  C   UNL A   1      32.047  25.932  22.890  1.00  0.00     0.231 C 
ATOM     11  H   UNL A   1      32.204  26.842  24.691  1.00  0.00     0.164 HD
BRANCH  10  12
ATOM     12  C   UNL A   1      32.203  24.585  23.576  1.00  0.00     0.178 C 
BRANCH  12  13
ATOM     13  S   UNL A   1      32.928  23.331  22.470  1.00  0.00    -0.075 SA
BRANCH  13  14
ATOM     14  C   UNL A   1      33.276  22.052  23.580  1.00  0.00     0.210 A 
ATOM     15  N   UNL A   1      32.488  21.023  23.794  1.00  0.00    -0.102 NA
ATOM     16  N   UNL A   1      34.449  21.857  24.273  1.00  0.00    -0.217 N 
ATOM     17  N   UNL A   1      33.195  20.168  24.602  1.00  0.00    -0.023 NA
ATOM     18  N   UNL A   1      34.405  20.644  24.861  1.00  0.00    -0.044 NA
BRANCH  16  19
ATOM     19  C   UNL A   1      35.646  22.664  24.390  1.00  0.00     0.112 C 
ATOM     20  C   UNL A   1      37.083  22.195  24.356  1.00  0.00     0.029 C 
ATOM     21  C   UNL A   1      36.533  22.952  23.197  1.00  0.00     0.029 C 
ENDBRANCH  16  19
ENDBRANCH  13  14
ENDBRANCH  12  13
ENDBRANCH  10  12
ENDBRANCH   7   8
BRANCH   7  22
ATOM     22  C   UNL A   1      33.448  28.988  22.893  1.00  0.00     0.193 C 
BRANCH  22  23
ATOM     23  O   UNL A   1      34.445  28.593  23.843  1.00  0.00    -0.394 OA
ATOM     24  H   UNL A   1      35.098  28.022  23.407  1.00  0.00     0.210 HD
ENDBRANCH  22  23
ENDBRANCH   7  22
ENDBRANCH   5   7
ENDBRANCH   4   5
ENDBRANCH   3   4
ENDBRANCH   2   3
ENDBRANCH   1   2
BRANCH   1  25
ATOM     25  C   UNL A   1      33.764  32.250  28.180  1.00  0.00     0.188 C 
BRANCH  25  26
ATOM     26  C   UNL A   1      34.801  33.287  27.715  1.00  0.00     0.188 C 
BRANCH  26  27
ATOM     27  O   UNL A   1      36.081  33.074  28.294  1.00  0.00    -0.376 OA
BRANCH  27  28
ATOM     28  C   UNL A   1      36.400  33.540  29.598  1.00  0.00     0.202 C 
BRANCH  28  29
ATOM     29  C   UNL A   1      36.704  32.460  30.641  1.00  0.00     0.261 C 
BRANCH  29  30
ATOM     30  O   UNL A   1      36.517  31.136  30.170  1.00  0.00    -0.460 OA
BRANCH  30  31
ATOM     31  C   UNL A   1      36.687  30.138  31.058  1.00  0.00     0.338 C 
ATOM     32  O   UNL A   1      36.246  30.064  32.192  1.00  0.00    -0.246 OA
BRANCH  31  33
ATOM     33  C   UNL A   1      37.470  29.095  30.380  1.00  0.00     0.060 A 
ATOM     34  C   UNL A   1      38.047  28.103  31.171  1.00  0.00     0.016 A 
ATOM     35  C   UNL A   1      37.731  29.199  29.000  1.00  0.00     0.016 A 
ATOM     36  C   UNL A   1      39.121  27.422  30.654  1.00  0.00     0.010 A 
ATOM     37  C   UNL A   1      38.805  28.532  28.486  1.00  0.00     0.010 A 
ATOM     38  C   UNL A   1      39.552  27.765  29.371  1.00  0.00    -0.014 A 
BRANCH  38  39
ATOM     39  C   UNL A   1      40.928  27.500  29.036  1.00  0.00     0.031 A 
ATOM     40  C   UNL A   1      41.179  26.187  28.432  1.00  0.00     0.074 A 
ATOM     41  C   UNL A   1      41.838  28.478  29.203  1.00  0.00     0.049 A 
ATOM     42  N   UNL A   1      41.900  25.235  28.917  1.00  0.00    -0.248 NA
ATOM     43  C   UNL A   1      40.439  25.835  27.212  1.00  0.00     0.031 C 
ATOM     44  C   UNL A   1      41.604  29.886  29.547  1.00  0.00     0.029 A 
ATOM     45  N   UNL A   1      43.176  28.438  28.984  1.00  0.00    -0.354 N 
ATOM     46  C   UNL A   1      41.854  24.222  27.971  1.00  0.00     0.074 A 
ATOM     47  C   UNL A   1      40.810  24.567  27.042  1.00  0.00     0.031 C 
ATOM     48  C   UNL A   1      42.722  30.597  29.284  1.00  0.00     0.029 A 
ATOM     49  C   UNL A   1      43.766  29.686  28.854  1.00  0.00     0.049 A 
ATOM     50  H   UNL A   1      43.683  27.597  28.924  1.00  0.00     0.167 HD
ATOM     51  C   UNL A   1      42.854  23.308  27.882  1.00  0.00     0.037 A 
ATOM     52  C   UNL A   1      44.986  29.925  28.313  1.00  0.00     0.037 A 
ATOM     53  C   UNL A   1      43.653  23.275  29.079  1.00  0.00     0.049 A 
ATOM     54  C   UNL A   1      45.740  28.638  28.349  1.00  0.00     0.074 A 
ATOM     55  C   UNL A   1      43.372  23.024  30.410  1.00  0.00     0.029 A 
ATOM     56  N   UNL A   1      44.875  23.903  29.067  1.00  0.00    -0.354 N 
ATOM     57  N   UNL A   1      46.159  28.075  29.451  1.00  0.00    -0.248 NA
ATOM     58  C   UNL A   1      45.609  27.738  27.208  1.00  0.00     0.031 C 
ATOM     59  C   UNL A   1      44.198  23.924  31.142  1.00  0.00     0.029 A 
ATOM     60  C   UNL A   1      44.971  24.634  30.224  1.00  0.00     0.049 A 
ATOM     61  H   UNL A   1      45.556  23.839  28.359  1.00  0.00     0.167 HD
ATOM     62  C   UNL A   1      45.936  26.717  29.266  1.00  0.00     0.074 A 
ATOM     63  C   UNL A   1      45.685  26.560  27.836  1.00  0.00     0.031 C 
ATOM     64  C   UNL A   1      45.673  25.894  30.324  1.00  0.00     0.037 A 
BRANCH  51  65
ATOM     65  C   UNL A   1      43.305  22.712  26.582  1.00  0.00     0.064 A 
ATOM     66  C   UNL A   1      43.150  21.332  26.368  1.00  0.00     0.173 A 
ATOM     67  C   UNL A   1      44.132  23.390  25.659  1.00  0.00     0.173 A 
ATOM     68  F   UNL A   1      42.411  20.591  27.209  1.00  0.00    -0.203 F 
ATOM     69  C   UNL A   1      43.820  20.671  25.338  1.00  0.00     0.198 A 
ATOM     70  C   UNL A   1      44.749  22.739  24.595  1.00  0.00     0.198 A 
ATOM     71  F   UNL A   1      44.467  24.677  25.813  1.00  0.00    -0.203 F 
ATOM     72  F   UNL A   1      43.742  19.338  25.243  1.00  0.00    -0.200 F 
ATOM     73  C   UNL A   1      44.619  21.375  24.452  1.00  0.00     0.200 A 
ATOM     74  F   UNL A   1      45.534  23.437  23.762  1.00  0.00    -0.200 F 
ATOM     75  F   UNL A   1      45.303  20.735  23.497  1.00  0.00    -0.200 F 
ENDBRANCH  51  65
BRANCH  52  76
ATOM     76  C   UNL A   1      45.396  31.093  27.493  1.00  0.00     0.064 A 
ATOM     77  C   UNL A   1      44.538  31.628  26.519  1.00  0.00     0.173 A 
ATOM     78  C   UNL A   1      46.537  31.863  27.802  1.00  0.00     0.173 A 
ATOM     79  F   UNL A   1      43.404  30.992  26.197  1.00  0.00    -0.203 F 
ATOM     80  C   UNL A   1      44.800  32.859  25.904  1.00  0.00     0.198 A 
ATOM     81  C   UNL A   1      46.807  33.081  27.175  1.00  0.00     0.198 A 
ATOM     82  F   UNL A   1      47.376  31.505  28.783  1.00  0.00    -0.203 F 
ATOM     83  F   UNL A   1      43.926  33.365  25.024  1.00  0.00    -0.200 F 
ATOM     84  C   UNL A   1      45.931  33.586  26.236  1.00  0.00     0.200 A 
ATOM     85  F   UNL A   1      47.890  33.786  27.533  1.00  0.00    -0.200 F 
ATOM     86  F   UNL A   1      46.156  34.786  25.685  1.00  0.00    -0.200 F 
ENDBRANCH  52  76
BRANCH  64  87
ATOM     87  C   UNL A   1      45.878  26.443  31.708  1.00  0.00     0.064 A 
ATOM     88  C   UNL A   1      47.122  26.448  32.366  1.00  0.00     0.173 A 
ATOM     89  C   UNL A   1      44.823  27.125  32.325  1.00  0.00     0.173 A 
ATOM     90  F   UNL A   1      48.208  25.922  31.790  1.00  0.00    -0.203 F 
ATOM     91  C   UNL A   1      47.283  27.061  33.607  1.00  0.00     0.198 A 
ATOM     92  C   UNL A   1      44.996  27.771  33.547  1.00  0.00     0.198 A 
ATOM     93  F   UNL A   1      43.630  27.211  31.715  1.00  0.00    -0.203 F 
ATOM     94  F   UNL A   1      48.477  27.037  34.217  1.00  0.00    -0.200 F 
ATOM     95  C   UNL A   1      46.221  27.728  34.194  1.00  0.00     0.200 A 
ATOM     96  F   UNL A   1      43.981  28.462  34.085  1.00  0.00    -0.200 F 
ATOM     97  F   UNL A   1      46.387  28.355  35.367  1.00  0.00    -0.200 F 
ENDBRANCH  64  87
ENDBRANCH  38  39
ENDBRANCH  31  33
ENDBRANCH  30  31
ENDBRANCH  29  30
ENDBRANCH  28  29
ENDBRANCH  27  28
ENDBRANCH  26  27
ENDBRANCH  25  26
ENDBRANCH   1  25
TORSDOF 24
ENDMDL
MODEL 3
REMARK VINA RESULT:      -9.6      4.549      9.816
REMARK SMILES O=C(CSc1nnnn1C1CC1)N[C@H](CO)C(=O)OCCOCCOCCOC(=O)c1ccc(-c2c3nc(c(-c4c(F)c(F)c(F)c(F)c4F)c4ccc([nH]4)c(-c4c(F)c(F)c(F)c(F)c4F)c4nc(c(-c5c(F)c(F)c(F)c(F)c5F)c5ccc2[nH]5)C=C4)C=C3)cc1
REMARK SMILES IDX 22 1 21 2 20 3 19 4 17 5 18 6 14 7 13 8 1 9 2 10 3 12 4 13
REMARK SMILES IDX 5 14 6 15 9 16 7 17 8 18 10 19 11 20 12 21 15 22 16 23 23 25
REMARK SMILES IDX 24 26 25 27 26 28 27 29 28 30 29 31 30 32 31 33 32 34 93 35
REMARK SMILES IDX 33 36 92 37 34 38 35 39 36 40 86 41 37 42 91 43 85 44 87 45
REMARK SMILES IDX 38 46 90 47 84 48 83 49 39 51 71 52 51 53 70 54 52 55 55 56
REMARK SMILES IDX 69 57 88 58 53 59 54 60 68 62 89 63 56 64 40 65 41 66 49 67
REMARK SMILES IDX 42 68 43 69 47 70 50 71 44 72 45 73 48 74 46 75 72 76 73 77
REMARK SMILES IDX 81 78 74 79 75 80 79 81 82 82 76 83 77 84 80 85 78 86 57 87
REMARK SMILES IDX 58 88 66 89 59 90 60 91 64 92 67 93 61 94 62 95 65 96 63 97
REMARK H PARENT 13 11 16 24 87 50 55 61
REMARK Flexibility Score: inf
ROOT
ATOM      1  O   UNL A   1      34.770  30.301  27.693  1.00  0.00    -0.376 OA
ENDROOT
BRANCH   1   2
ATOM      2  C   UNL A   1      33.853  29.285  27.279  1.00  0.00     0.202 C 
BRANCH   2   3
ATOM      3  C   UNL A   1      32.751  29.706  26.284  1.00  0.00     0.261 C 
BRANCH   3   4
ATOM      4  O   UNL A   1      31.866  28.639  25.844  1.00  0.00    -0.462 OA
BRANCH   4   5
ATOM      5  C   UNL A   1      31.767  28.408  24.512  1.00  0.00     0.331 C 
ATOM      6  O   UNL A   1      32.524  28.902  23.678  1.00  0.00    -0.250 OA
BRANCH   5   7
ATOM      7  C   UNL A   1      30.567  27.545  24.075  1.00  0.00     0.218 C 
BRANCH   7   8
ATOM      8  N   UNL A   1      31.135  26.192  23.898  1.00  0.00    -0.340 N 
ATOM      9  O   UNL A   1      30.949  25.471  26.054  1.00  0.00    -0.274 OA
ATOM     10  C   UNL A   1      31.255  25.248  24.887  1.00  0.00     0.231 C 
ATOM     11  H   UNL A   1      31.452  25.949  22.998  1.00  0.00     0.164 HD
BRANCH  10  12
ATOM     12  C   UNL A   1      31.791  23.903  24.425  1.00  0.00     0.178 C 
BRANCH  12  13
ATOM     13  S   UNL A   1      33.382  23.491  25.214  1.00  0.00    -0.075 SA
BRANCH  13  14
ATOM     14  C   UNL A   1      33.400  21.768  25.072  1.00  0.00     0.210 A 
ATOM     15  N   UNL A   1      32.353  21.039  24.759  1.00  0.00    -0.102 NA
ATOM     16  N   UNL A   1      34.504  20.947  25.125  1.00  0.00    -0.217 N 
ATOM     17  N   UNL A   1      32.820  19.761  24.585  1.00  0.00    -0.023 NA
ATOM     18  N   UNL A   1      34.133  19.703  24.760  1.00  0.00    -0.044 NA
BRANCH  16  19
ATOM     19  C   UNL A   1      35.896  21.220  25.419  1.00  0.00     0.112 C 
ATOM     20  C   UNL A   1      37.114  20.544  24.831  1.00  0.00     0.029 C 
ATOM     21  C   UNL A   1      36.792  21.944  24.435  1.00  0.00     0.029 C 
ENDBRANCH  16  19
ENDBRANCH  13  14
ENDBRANCH  12  13
ENDBRANCH  10  12
ENDBRANCH   7   8
BRANCH   7  22
ATOM     22  C   UNL A   1      29.752  28.028  22.867  1.00  0.00     0.193 C 
BRANCH  22  23
ATOM     23  O   UNL A   1      30.591  28.137  21.711  1.00  0.00    -0.394 OA
ATOM     24  H   UNL A   1      31.158  28.920  21.795  1.00  0.00     0.210 HD
ENDBRANCH  22  23
ENDBRANCH   7  22
ENDBRANCH   5   7
ENDBRANCH   4   5
ENDBRANCH   3   4
ENDBRANCH   2   3
ENDBRANCH   1   2
BRANCH   1  25
ATOM     25  C   UNL A   1      34.249  31.626  27.796  1.00  0.00     0.188 C 
BRANCH  25  26
ATOM     26  C   UNL A   1      35.292  32.728  28.052  1.00  0.00     0.188 C 
BRANCH  26  27
ATOM     27  O   UNL A   1      34.903  33.983  27.510  1.00  0.00    -0.376 OA
BRANCH  27  28
ATOM     28  C   UNL A   1      34.429  35.039  28.333  1.00  0.00     0.202 C 
BRANCH  28  29
ATOM     29  C   UNL A   1      33.743  34.619  29.637  1.00  0.00     0.261 C 
BRANCH  29  30
ATOM     30  O   UNL A   1      34.329  35.178  30.801  1.00  0.00    -0.460 OA
BRANCH  30  31
ATOM     31  C   UNL A   1      33.841  34.772  31.989  1.00  0.00     0.338 C 
ATOM     32  O   UNL A   1      32.712  34.921  32.423  1.00  0.00    -0.246 OA
BRANCH  31  33
ATOM     33  C   UNL A   1      34.924  34.042  32.665  1.00  0.00     0.060 A 
ATOM     34  C   UNL A   1      35.981  34.789  33.182  1.00  0.00     0.016 A 
ATOM     35  C   UNL A   1      34.938  32.635  32.649  1.00  0.00     0.016 A 
ATOM     36  C   UNL A   1      37.175  34.144  33.387  1.00  0.00     0.010 A 
ATOM     37  C   UNL A   1      36.127  31.991  32.840  1.00  0.00     0.010 A 
ATOM     38  C   UNL A   1      37.243  32.786  33.070  1.00  0.00    -0.014 A 
BRANCH  38  39
ATOM     39  C   UNL A   1      38.535  32.239  32.747  1.00  0.00     0.031 A 
ATOM     40  C   UNL A   1      39.435  32.053  33.891  1.00  0.00     0.074 A 
ATOM     41  C   UNL A   1      38.783  31.858  31.480  1.00  0.00     0.049 A 
ATOM     42  N   UNL A   1      40.568  32.634  34.091  1.00  0.00    -0.248 NA
ATOM     43  C   UNL A   1      38.966  31.225  35.012  1.00  0.00     0.031 C 
ATOM     44  C   UNL A   1      37.839  31.771  30.358  1.00  0.00     0.029 A 
ATOM     45  N   UNL A   1      39.926  31.354  30.953  1.00  0.00    -0.354 N 
ATOM     46  C   UNL A   1      41.046  32.108  35.280  1.00  0.00     0.074 A 
ATOM     47  C   UNL A   1      39.955  31.393  35.888  1.00  0.00     0.031 C 
ATOM     48  C   UNL A   1      38.392  31.034  29.370  1.00  0.00     0.029 A 
ATOM     49  C   UNL A   1      39.750  30.689  29.749  1.00  0.00     0.049 A 
ATOM     50  H   UNL A   1      40.803  31.451  31.387  1.00  0.00     0.167 HD
ATOM     51  C   UNL A   1      42.378  32.087  35.546  1.00  0.00     0.037 A 
ATOM     52  C   UNL A   1      40.635  29.827  29.192  1.00  0.00     0.037 A 
ATOM     53  C   UNL A   1      43.103  33.004  34.706  1.00  0.00     0.049 A 
ATOM     54  C   UNL A   1      41.963  30.099  29.815  1.00  0.00     0.074 A 
ATOM     55  C   UNL A   1      43.038  34.370  34.503  1.00  0.00     0.029 A 
ATOM     56  N   UNL A   1      43.796  32.499  33.632  1.00  0.00    -0.354 N 
ATOM     57  N   UNL A   1      42.649  31.191  29.610  1.00  0.00    -0.248 NA
ATOM     58  C   UNL A   1      42.303  29.377  31.037  1.00  0.00     0.031 C 
ATOM     59  C   UNL A   1      43.272  34.552  33.110  1.00  0.00     0.029 A 
ATOM     60  C   UNL A   1      43.517  33.298  32.552  1.00  0.00     0.049 A 
ATOM     61  H   UNL A   1      44.384  31.709  33.637  1.00  0.00     0.167 HD
ATOM     62  C   UNL A   1      43.186  31.515  30.849  1.00  0.00     0.074 A 
ATOM     63  C   UNL A   1      43.018  30.316  31.666  1.00  0.00     0.031 C 
ATOM     64  C   UNL A   1      43.435  32.814  31.193  1.00  0.00     0.037 A 
BRANCH  51  65
ATOM     65  C   UNL A   1      43.042  30.982  36.313  1.00  0.00     0.064 A 
ATOM     66  C   UNL A   1      43.747  31.291  37.489  1.00  0.00     0.173 A 
ATOM     67  C   UNL A   1      43.246  29.685  35.794  1.00  0.00     0.173 A 
ATOM     68  F   UNL A   1      43.647  32.509  38.043  1.00  0.00    -0.203 F 
ATOM     69  C   UNL A   1      44.636  30.384  38.068  1.00  0.00     0.198 A 
ATOM     70  C   UNL A   1      44.085  28.761  36.409  1.00  0.00     0.198 A 
ATOM     71  F   UNL A   1      42.737  29.300  34.617  1.00  0.00    -0.203 F 
ATOM     72  F   UNL A   1      45.379  30.761  39.116  1.00  0.00    -0.200 F 
ATOM     73  C   UNL A   1      44.804  29.120  37.528  1.00  0.00     0.200 A 
ATOM     74  F   UNL A   1      44.248  27.550  35.858  1.00  0.00    -0.200 F 
ATOM     75  F   UNL A   1      45.695  28.269  38.052  1.00  0.00    -0.200 F 
ENDBRANCH  51  65
BRANCH  52  76
ATOM     76  C   UNL A   1      40.330  28.600  28.413  1.00  0.00     0.064 A 
ATOM     77  C   UNL A   1      40.878  28.401  27.135  1.00  0.00     0.173 A 
ATOM     78  C   UNL A   1      39.688  27.484  28.990  1.00  0.00     0.173 A 
ATOM     79  F   UNL A   1      41.552  29.389  26.530  1.00  0.00    -0.203 F 
ATOM     80  C   UNL A   1      40.799  27.163  26.485  1.00  0.00     0.198 A 
ATOM     81  C   UNL A   1      39.593  26.256  28.334  1.00  0.00     0.198 A 
ATOM     82  F   UNL A   1      39.213  27.523  30.242  1.00  0.00    -0.203 F 
ATOM     83  F   UNL A   1      41.389  26.996  25.294  1.00  0.00    -0.200 F 
ATOM     84  C   UNL A   1      40.161  26.091  27.087  1.00  0.00     0.200 A 
ATOM     85  F   UNL A   1      39.000  25.221  28.945  1.00  0.00    -0.200 F 
ATOM     86  F   UNL A   1      40.128  24.893  26.487  1.00  0.00    -0.200 F 
ENDBRANCH  52  76
BRANCH  64  87
ATOM     87  C   UNL A   1      43.352  33.854  30.111  1.00  0.00     0.064 A 
ATOM     88  C   UNL A   1      42.154  34.487  29.731  1.00  0.00     0.173 A 
ATOM     89  C   UNL A   1      44.540  34.340  29.551  1.00  0.00     0.173 A 
ATOM     90  F   UNL A   1      40.991  34.162  30.307  1.00  0.00    -0.203 F 
ATOM     91  C   UNL A   1      42.145  35.519  28.795  1.00  0.00     0.198 A 
ATOM     92  C   UNL A   1      44.532  35.399  28.645  1.00  0.00     0.198 A 
ATOM     93  F   UNL A   1      45.720  33.822  29.924  1.00  0.00    -0.203 F 
ATOM     94  F   UNL A   1      40.985  36.093  28.442  1.00  0.00    -0.200 F 
ATOM     95  C   UNL A   1      43.334  35.978  28.257  1.00  0.00     0.200 A 
ATOM     96  F   UNL A   1      45.691  35.877  28.169  1.00  0.00    -0.200 F 
ATOM     97  F   UNL A   1      43.330  37.000  27.389  1.00  0.00    -0.200 F 
ENDBRANCH  64  87
ENDBRANCH  38  39
ENDBRANCH  31  33
ENDBRANCH  30  31
ENDBRANCH  29  30
ENDBRANCH  28  29
ENDBRANCH  27  28
ENDBRANCH  26  27
ENDBRANCH  25  26
ENDBRANCH   1  25
TORSDOF 24
ENDMDL
