MODEL 1
REMARK VINA RESULT:     -12.7      0.000      0.000
REMARK SMILES Cc1ccc(S(=O)(=O)N(c2ccccc2)[C@H](C)C(=O)OCCOCCOCCOC(=O)c2ccc(-c3c4nc(c(-c5c(F)c(F)c(F)c(F)c5F)c5ccc([nH]5)c(-c5c(F)c(F)c(F)c(F)c5F)c5nc(c(-c6c(F)c(F)c(F)c(F)c6F)c6ccc3[nH]6)C=C5)C=C4)cc2)cc1
REMARK SMILES IDX 24 1 23 2 22 3 21 4 20 5 18 6 19 7 16 8 17 9 9 10 6 11 7 12
REMARK SMILES IDX 8 13 5 14 1 15 2 16 3 17 96 18 4 19 95 20 10 21 11 22 15 23
REMARK SMILES IDX 12 24 14 25 13 26 25 27 26 28 27 29 28 30 29 31 30 32 31 33
REMARK SMILES IDX 32 34 33 35 94 36 34 37 93 38 35 39 36 40 37 41 87 42 38 43
REMARK SMILES IDX 92 44 86 45 88 46 39 47 91 48 85 49 84 50 40 52 72 53 52 54
REMARK SMILES IDX 71 55 53 56 56 57 70 58 89 59 54 60 55 61 69 63 90 64 57 65
REMARK SMILES IDX 41 66 42 67 50 68 43 69 44 70 48 71 51 72 45 73 46 74 49 75
REMARK SMILES IDX 47 76 73 77 74 78 82 79 75 80 76 81 80 82 83 83 77 84 78 85
REMARK SMILES IDX 81 86 79 87 58 88 59 89 67 90 60 91 61 92 65 93 68 94 62 95
REMARK SMILES IDX 63 96 66 97 64 98
REMARK H PARENT 88 51 56 62
REMARK Flexibility Score: inf
ROOT
ATOM      1  C   UNL A   1      34.974  32.667  28.035  1.00  0.00     0.188 C 
ENDROOT
BRANCH   1   2
ATOM      2  O   UNL A   1      35.241  31.418  27.446  1.00  0.00    -0.376 OA
BRANCH   2   3
ATOM      3  C   UNL A   1      34.050  30.648  27.417  1.00  0.00     0.202 C 
BRANCH   3   4
ATOM      4  C   UNL A   1      34.145  29.199  26.790  1.00  0.00     0.261 C 
BRANCH   4   5
ATOM      5  O   UNL A   1      33.307  27.714  26.981  1.00  0.00    -0.462 OA
BRANCH   5   6
ATOM      6  C   UNL A   1      32.008  27.185  26.868  1.00  0.00     0.329 C 
ATOM      7  O   UNL A   1      31.143  27.741  27.536  1.00  0.00    -0.250 OA
BRANCH   6   8
ATOM      8  C   UNL A   1      31.383  25.948  26.061  1.00  0.00     0.206 C 
ATOM      9  C   UNL A   1      29.899  25.610  26.090  1.00  0.00     0.045 C 
BRANCH   8  10
ATOM     10  N   UNL A   1      32.032  25.619  24.650  1.00  0.00    -0.252 N 
BRANCH  10  11
ATOM     11  S   UNL A   1      31.858  26.671  23.265  1.00  0.00     0.265 S 
ATOM     12  O   UNL A   1      31.350  25.839  22.189  1.00  0.00    -0.201 OA
ATOM     13  O   UNL A   1      33.116  27.370  23.089  1.00  0.00    -0.201 OA
BRANCH  11  14
ATOM     14  C   UNL A   1      30.588  28.002  23.398  1.00  0.00     0.088 A 
ATOM     15  C   UNL A   1      27.707  31.303  23.311  1.00  0.00     0.044 C 
ATOM     16  C   UNL A   1      28.712  30.185  23.378  1.00  0.00    -0.051 A 
ATOM     17  C   UNL A   1      29.998  30.341  23.908  1.00  0.00     0.005 A 
ATOM     18  C   UNL A   1      28.356  28.916  22.949  1.00  0.00     0.005 A 
ATOM     19  C   UNL A   1      30.935  29.270  23.899  1.00  0.00     0.022 A 
ATOM     20  C   UNL A   1      29.274  27.852  23.004  1.00  0.00     0.022 A 
ENDBRANCH  11  14
ENDBRANCH  10  11
BRANCH  10  21
ATOM     21  C   UNL A   1      32.975  24.569  24.581  1.00  0.00     0.053 A 
ATOM     22  C   UNL A   1      34.577  24.865  25.137  1.00  0.00     0.027 A 
ATOM     23  C   UNL A   1      32.422  23.130  23.955  1.00  0.00     0.027 A 
ATOM     24  C   UNL A   1      35.920  23.735  24.996  1.00  0.00     0.002 A 
ATOM     25  C   UNL A   1      33.576  21.846  23.801  1.00  0.00     0.002 A 
ATOM     26  C   UNL A   1      35.576  22.174  24.279  1.00  0.00     0.000 A 
ENDBRANCH  10  21
ENDBRANCH   8  10
ENDBRANCH   6   8
ENDBRANCH   5   6
ENDBRANCH   4   5
ENDBRANCH   3   4
ENDBRANCH   2   3
ENDBRANCH   1   2
BRANCH   1  27
ATOM     27  C   UNL A   1      34.741  32.568  29.532  1.00  0.00     0.188 C 
BRANCH  27  28
ATOM     28  O   UNL A   1      35.801  33.048  30.313  1.00  0.00    -0.376 OA
BRANCH  28  29
ATOM     29  C   UNL A   1      37.119  33.220  29.851  1.00  0.00     0.202 C 
BRANCH  29  30
ATOM     30  C   UNL A   1      37.853  32.024  30.408  1.00  0.00     0.261 C 
BRANCH  30  31
ATOM     31  O   UNL A   1      38.130  31.059  29.335  1.00  0.00    -0.460 OA
BRANCH  31  32
ATOM     32  C   UNL A   1      37.556  29.813  29.408  1.00  0.00     0.338 C 
ATOM     33  O   UNL A   1      36.545  29.553  30.044  1.00  0.00    -0.246 OA
BRANCH  32  34
ATOM     34  C   UNL A   1      38.448  28.763  28.764  1.00  0.00     0.060 A 
ATOM     35  C   UNL A   1      38.964  27.712  29.514  1.00  0.00     0.016 A 
ATOM     36  C   UNL A   1      39.031  28.973  27.513  1.00  0.00     0.016 A 
ATOM     37  C   UNL A   1      40.161  27.077  29.094  1.00  0.00     0.010 A 
ATOM     38  C   UNL A   1      40.330  28.474  27.231  1.00  0.00     0.010 A 
ATOM     39  C   UNL A   1      41.006  27.653  28.140  1.00  0.00    -0.014 A 
BRANCH  39  40
ATOM     40  C   UNL A   1      42.561  27.374  28.048  1.00  0.00     0.031 A 
ATOM     41  C   UNL A   1      43.067  28.823  27.497  1.00  0.00     0.074 A 
ATOM     42  C   UNL A   1      43.395  26.170  28.256  1.00  0.00     0.049 A 
ATOM     43  N   UNL A   1      44.443  29.425  26.469  1.00  0.00    -0.248 NA
ATOM     44  C   UNL A   1      42.664  30.369  28.757  1.00  0.00     0.031 C 
ATOM     45  C   UNL A   1      44.637  25.901  29.064  1.00  0.00     0.029 A 
ATOM     46  N   UNL A   1      43.333  24.831  27.741  1.00  0.00    -0.354 N 
ATOM     47  C   UNL A   1      45.063  31.051  27.066  1.00  0.00     0.074 A 
ATOM     48  C   UNL A   1      43.788  31.559  28.452  1.00  0.00     0.031 C 
ATOM     49  C   UNL A   1      45.275  24.761  28.679  1.00  0.00     0.029 A 
ATOM     50  C   UNL A   1      44.477  24.049  27.710  1.00  0.00     0.049 A 
ATOM     51  H   UNL A   1      42.479  24.469  27.411  1.00  0.00     0.167 HD
ATOM     52  C   UNL A   1      46.453  31.086  27.339  1.00  0.00     0.037 A 
ATOM     53  C   UNL A   1      44.811  23.166  26.702  1.00  0.00     0.037 A 
ATOM     54  C   UNL A   1      47.246  29.761  27.238  1.00  0.00     0.049 A 
ATOM     55  C   UNL A   1      45.949  23.843  25.919  1.00  0.00     0.074 A 
ATOM     56  C   UNL A   1      47.858  28.955  28.215  1.00  0.00     0.029 A 
ATOM     57  N   UNL A   1      47.269  28.912  26.113  1.00  0.00    -0.354 N 
ATOM     58  N   UNL A   1      46.568  24.943  26.294  1.00  0.00    -0.248 NA
ATOM     59  C   UNL A   1      46.372  23.389  24.596  1.00  0.00     0.031 C 
ATOM     60  C   UNL A   1      48.190  27.657  27.683  1.00  0.00     0.029 A 
ATOM     61  C   UNL A   1      47.837  27.627  26.350  1.00  0.00     0.049 A 
ATOM     62  H   UNL A   1      46.919  29.184  25.233  1.00  0.00     0.167 HD
ATOM     63  C   UNL A   1      47.334  25.428  25.257  1.00  0.00     0.074 A 
ATOM     64  C   UNL A   1      47.162  24.405  24.217  1.00  0.00     0.031 C 
ATOM     65  C   UNL A   1      48.021  26.629  25.260  1.00  0.00     0.037 A 
BRANCH  52  66
ATOM     66  C   UNL A   1      46.914  32.249  28.203  1.00  0.00     0.064 A 
ATOM     67  C   UNL A   1      47.265  33.503  27.670  1.00  0.00     0.173 A 
ATOM     68  C   UNL A   1      47.015  32.157  29.610  1.00  0.00     0.173 A 
ATOM     69  F   UNL A   1      47.095  33.796  26.377  1.00  0.00    -0.203 F 
ATOM     70  C   UNL A   1      47.784  34.534  28.455  1.00  0.00     0.198 A 
ATOM     71  C   UNL A   1      47.567  33.175  30.392  1.00  0.00     0.198 A 
ATOM     72  F   UNL A   1      46.571  31.071  30.264  1.00  0.00    -0.203 F 
ATOM     73  F   UNL A   1      48.110  35.700  27.878  1.00  0.00    -0.200 F 
ATOM     74  C   UNL A   1      47.956  34.365  29.811  1.00  0.00     0.200 A 
ATOM     75  F   UNL A   1      47.720  32.994  31.712  1.00  0.00    -0.200 F 
ATOM     76  F   UNL A   1      48.461  35.355  30.559  1.00  0.00    -0.200 F 
ENDBRANCH  52  66
BRANCH  53  77
ATOM     77  C   UNL A   1      43.715  22.249  26.058  1.00  0.00     0.064 A 
ATOM     78  C   UNL A   1      44.044  20.909  25.757  1.00  0.00     0.173 A 
ATOM     79  C   UNL A   1      42.325  22.519  25.985  1.00  0.00     0.173 A 
ATOM     80  F   UNL A   1      45.331  20.551  25.639  1.00  0.00    -0.203 F 
ATOM     81  C   UNL A   1      43.077  19.890  25.657  1.00  0.00     0.198 A 
ATOM     82  C   UNL A   1      41.363  21.484  26.033  1.00  0.00     0.198 A 
ATOM     83  F   UNL A   1      41.855  23.770  26.091  1.00  0.00    -0.203 F 
ATOM     84  F   UNL A   1      43.455  18.614  25.482  1.00  0.00    -0.200 F 
ATOM     85  C   UNL A   1      41.745  20.166  25.906  1.00  0.00     0.200 A 
ATOM     86  F   UNL A   1      40.089  21.762  26.359  1.00  0.00    -0.200 F 
ATOM     87  F   UNL A   1      40.871  19.170  26.127  1.00  0.00    -0.200 F 
ENDBRANCH  53  77
BRANCH  65  88
ATOM     88  C   UNL A   1      49.042  26.954  24.181  1.00  0.00     0.064 A 
ATOM     89  C   UNL A   1      48.714  27.511  22.932  1.00  0.00     0.173 A 
ATOM     90  C   UNL A   1      50.401  26.592  24.317  1.00  0.00     0.173 A 
ATOM     91  F   UNL A   1      47.443  27.624  22.522  1.00  0.00    -0.203 F 
ATOM     92  C   UNL A   1      49.691  27.896  22.012  1.00  0.00     0.198 A 
ATOM     93  C   UNL A   1      51.365  26.912  23.372  1.00  0.00     0.198 A 
ATOM     94  F   UNL A   1      50.860  25.866  25.340  1.00  0.00    -0.203 F 
ATOM     95  F   UNL A   1      49.328  28.519  20.882  1.00  0.00    -0.200 F 
ATOM     96  C   UNL A   1      51.020  27.613  22.242  1.00  0.00     0.200 A 
ATOM     97  F   UNL A   1      52.630  26.515  23.570  1.00  0.00    -0.200 F 
ATOM     98  F   UNL A   1      51.960  27.965  21.357  1.00  0.00    -0.200 F 
ENDBRANCH  65  88
ENDBRANCH  39  40
ENDBRANCH  32  34
ENDBRANCH  31  32
ENDBRANCH  30  31
ENDBRANCH  29  30
ENDBRANCH  28  29
ENDBRANCH  27  28
ENDBRANCH   1  27
TORSDOF 21
ENDMDL
MODEL 2
REMARK VINA RESULT:     -12.3      0.607      3.389
REMARK SMILES Cc1ccc(S(=O)(=O)N(c2ccccc2)[C@H](C)C(=O)OCCOCCOCCOC(=O)c2ccc(-c3c4nc(c(-c5c(F)c(F)c(F)c(F)c5F)c5ccc([nH]5)c(-c5c(F)c(F)c(F)c(F)c5F)c5nc(c(-c6c(F)c(F)c(F)c(F)c6F)c6ccc3[nH]6)C=C5)C=C4)cc2)cc1
REMARK SMILES IDX 24 1 23 2 22 3 21 4 20 5 18 6 19 7 16 8 17 9 9 10 6 11 7 12
REMARK SMILES IDX 8 13 5 14 1 15 2 16 3 17 96 18 4 19 95 20 10 21 11 22 15 23
REMARK SMILES IDX 12 24 14 25 13 26 25 27 26 28 27 29 28 30 29 31 30 32 31 33
REMARK SMILES IDX 32 34 33 35 94 36 34 37 93 38 35 39 36 40 37 41 87 42 38 43
REMARK SMILES IDX 92 44 86 45 88 46 39 47 91 48 85 49 84 50 40 52 72 53 52 54
REMARK SMILES IDX 71 55 53 56 56 57 70 58 89 59 54 60 55 61 69 63 90 64 57 65
REMARK SMILES IDX 41 66 42 67 50 68 43 69 44 70 48 71 51 72 45 73 46 74 49 75
REMARK SMILES IDX 47 76 73 77 74 78 82 79 75 80 76 81 80 82 83 83 77 84 78 85
REMARK SMILES IDX 81 86 79 87 58 88 59 89 67 90 60 91 61 92 65 93 68 94 62 95
REMARK SMILES IDX 63 96 66 97 64 98
REMARK H PARENT 88 51 56 62
REMARK Flexibility Score: inf
ROOT
ATOM      1  C   UNL A   1      34.806  33.636  27.938  1.00  0.00     0.188 C 
ENDROOT
BRANCH   1   2
ATOM      2  O   UNL A   1      35.007  32.280  27.627  1.00  0.00    -0.376 OA
BRANCH   2   3
ATOM      3  C   UNL A   1      33.831  31.547  27.931  1.00  0.00     0.202 C 
BRANCH   3   4
ATOM      4  C   UNL A   1      33.386  30.436  26.897  1.00  0.00     0.261 C 
BRANCH   4   5
ATOM      5  O   UNL A   1      32.970  28.774  26.973  1.00  0.00    -0.462 OA
BRANCH   5   6
ATOM      6  C   UNL A   1      31.837  27.940  26.927  1.00  0.00     0.329 C 
ATOM      7  O   UNL A   1      31.124  27.949  27.924  1.00  0.00    -0.250 OA
BRANCH   6   8
ATOM      8  C   UNL A   1      31.263  26.914  25.837  1.00  0.00     0.206 C 
ATOM      9  C   UNL A   1      30.138  25.933  26.140  1.00  0.00     0.045 C 
BRANCH   8  10
ATOM     10  N   UNL A   1      31.204  27.428  24.336  1.00  0.00    -0.252 N 
BRANCH  10  11
ATOM     11  S   UNL A   1      32.155  26.712  23.057  1.00  0.00     0.265 S 
ATOM     12  O   UNL A   1      33.432  27.404  23.071  1.00  0.00    -0.201 OA
ATOM     13  O   UNL A   1      31.349  26.734  21.851  1.00  0.00    -0.201 OA
BRANCH  11  14
ATOM     14  C   UNL A   1      32.634  24.946  23.278  1.00  0.00     0.088 A 
ATOM     15  C   UNL A   1      33.703  20.806  24.243  1.00  0.00     0.044 C 
ATOM     16  C   UNL A   1      33.375  22.233  23.893  1.00  0.00    -0.051 A 
ATOM     17  C   UNL A   1      34.331  23.254  23.860  1.00  0.00     0.005 A 
ATOM     18  C   UNL A   1      32.079  22.569  23.531  1.00  0.00     0.005 A 
ATOM     19  C   UNL A   1      33.964  24.600  23.578  1.00  0.00     0.022 A 
ATOM     20  C   UNL A   1      31.745  23.893  23.195  1.00  0.00     0.022 A 
ENDBRANCH  11  14
ENDBRANCH  10  11
BRANCH  10  21
ATOM     21  C   UNL A   1      30.174  28.330  23.983  1.00  0.00     0.053 A 
ATOM     22  C   UNL A   1      30.482  30.019  24.109  1.00  0.00     0.027 A 
ATOM     23  C   UNL A   1      28.746  27.646  23.473  1.00  0.00     0.027 A 
ATOM     24  C   UNL A   1      29.285  31.285  23.858  1.00  0.00     0.002 A 
ATOM     25  C   UNL A   1      27.448  28.730  23.094  1.00  0.00     0.002 A 
ATOM     26  C   UNL A   1      27.674  30.778  23.394  1.00  0.00     0.000 A 
ENDBRANCH  10  21
ENDBRANCH   8  10
ENDBRANCH   6   8
ENDBRANCH   5   6
ENDBRANCH   4   5
ENDBRANCH   3   4
ENDBRANCH   2   3
ENDBRANCH   1   2
BRANCH   1  27
ATOM     27  C   UNL A   1      34.817  33.899  29.433  1.00  0.00     0.188 C 
BRANCH  27  28
ATOM     28  O   UNL A   1      35.849  33.248  30.125  1.00  0.00    -0.376 OA
BRANCH  28  29
ATOM     29  C   UNL A   1      37.216  33.364  29.813  1.00  0.00     0.202 C 
BRANCH  29  30
ATOM     30  C   UNL A   1      37.836  32.152  30.465  1.00  0.00     0.261 C 
BRANCH  30  31
ATOM     31  O   UNL A   1      38.254  31.188  29.437  1.00  0.00    -0.460 OA
BRANCH  31  32
ATOM     32  C   UNL A   1      37.564  30.006  29.326  1.00  0.00     0.338 C 
ATOM     33  O   UNL A   1      36.448  29.811  29.787  1.00  0.00    -0.246 OA
BRANCH  32  34
ATOM     34  C   UNL A   1      38.442  28.913  28.735  1.00  0.00     0.060 A 
ATOM     35  C   UNL A   1      38.956  27.902  29.539  1.00  0.00     0.016 A 
ATOM     36  C   UNL A   1      39.014  29.048  27.468  1.00  0.00     0.016 A 
ATOM     37  C   UNL A   1      40.145  27.236  29.144  1.00  0.00     0.010 A 
ATOM     38  C   UNL A   1      40.305  28.523  27.204  1.00  0.00     0.010 A 
ATOM     39  C   UNL A   1      40.984  27.750  28.151  1.00  0.00    -0.014 A 
BRANCH  39  40
ATOM     40  C   UNL A   1      42.536  27.453  28.061  1.00  0.00     0.031 A 
ATOM     41  C   UNL A   1      43.057  28.892  27.497  1.00  0.00     0.074 A 
ATOM     42  C   UNL A   1      43.358  26.242  28.278  1.00  0.00     0.049 A 
ATOM     43  N   UNL A   1      44.439  29.471  26.464  1.00  0.00    -0.248 NA
ATOM     44  C   UNL A   1      42.672  30.452  28.745  1.00  0.00     0.031 C 
ATOM     45  C   UNL A   1      44.597  25.966  29.087  1.00  0.00     0.029 A 
ATOM     46  N   UNL A   1      43.281  24.900  27.774  1.00  0.00    -0.354 N 
ATOM     47  C   UNL A   1      45.077  31.095  27.047  1.00  0.00     0.074 A 
ATOM     48  C   UNL A   1      43.809  31.628  28.429  1.00  0.00     0.031 C 
ATOM     49  C   UNL A   1      45.223  24.817  28.711  1.00  0.00     0.029 A 
ATOM     50  C   UNL A   1      44.417  24.105  27.748  1.00  0.00     0.049 A 
ATOM     51  H   UNL A   1      42.423  24.544  27.447  1.00  0.00     0.167 HD
ATOM     52  C   UNL A   1      46.468  31.117  27.319  1.00  0.00     0.037 A 
ATOM     53  C   UNL A   1      44.741  23.211  26.747  1.00  0.00     0.037 A 
ATOM     54  C   UNL A   1      47.246  29.783  27.228  1.00  0.00     0.049 A 
ATOM     55  C   UNL A   1      45.885  23.869  25.958  1.00  0.00     0.074 A 
ATOM     56  C   UNL A   1      47.850  28.979  28.211  1.00  0.00     0.029 A 
ATOM     57  N   UNL A   1      47.259  28.925  26.111  1.00  0.00    -0.354 N 
ATOM     58  N   UNL A   1      46.516  24.966  26.324  1.00  0.00    -0.248 NA
ATOM     59  C   UNL A   1      46.302  23.400  24.639  1.00  0.00     0.031 C 
ATOM     60  C   UNL A   1      48.168  27.673  27.690  1.00  0.00     0.029 A 
ATOM     61  C   UNL A   1      47.813  27.636  26.357  1.00  0.00     0.049 A 
ATOM     62  H   UNL A   1      46.912  29.194  25.229  1.00  0.00     0.167 HD
ATOM     63  C   UNL A   1      47.286  25.433  25.282  1.00  0.00     0.074 A 
ATOM     64  C   UNL A   1      47.103  24.404  24.251  1.00  0.00     0.031 C 
ATOM     65  C   UNL A   1      47.987  26.627  25.276  1.00  0.00     0.037 A 
BRANCH  52  66
ATOM     66  C   UNL A   1      46.941  32.283  28.174  1.00  0.00     0.064 A 
ATOM     67  C   UNL A   1      47.072  32.199  29.572  1.00  0.00     0.173 A 
ATOM     68  C   UNL A   1      47.291  33.536  27.623  1.00  0.00     0.173 A 
ATOM     69  F   UNL A   1      46.912  31.048  30.231  1.00  0.00    -0.203 F 
ATOM     70  C   UNL A   1      47.408  33.300  30.362  1.00  0.00     0.198 A 
ATOM     71  C   UNL A   1      47.592  34.648  28.414  1.00  0.00     0.198 A 
ATOM     72  F   UNL A   1      47.355  33.711  26.292  1.00  0.00    -0.203 F 
ATOM     73  F   UNL A   1      47.503  33.152  31.691  1.00  0.00    -0.200 F 
ATOM     74  C   UNL A   1      47.646  34.530  29.787  1.00  0.00     0.200 A 
ATOM     75  F   UNL A   1      47.829  35.834  27.835  1.00  0.00    -0.200 F 
ATOM     76  F   UNL A   1      47.961  35.584  30.550  1.00  0.00    -0.200 F 
ENDBRANCH  52  66
BRANCH  53  77
ATOM     77  C   UNL A   1      43.634  22.300  26.112  1.00  0.00     0.064 A 
ATOM     78  C   UNL A   1      43.930  20.939  25.875  1.00  0.00     0.173 A 
ATOM     79  C   UNL A   1      42.255  22.607  25.990  1.00  0.00     0.173 A 
ATOM     80  F   UNL A   1      45.208  20.540  25.806  1.00  0.00    -0.203 F 
ATOM     81  C   UNL A   1      42.935  19.946  25.789  1.00  0.00     0.198 A 
ATOM     82  C   UNL A   1      41.262  21.604  26.053  1.00  0.00     0.198 A 
ATOM     83  F   UNL A   1      41.821  23.875  26.032  1.00  0.00    -0.203 F 
ATOM     84  F   UNL A   1      43.279  18.653  25.676  1.00  0.00    -0.200 F 
ATOM     85  C   UNL A   1      41.607  20.271  25.990  1.00  0.00     0.200 A 
ATOM     86  F   UNL A   1      39.989  21.932  26.333  1.00  0.00    -0.200 F 
ATOM     87  F   UNL A   1      40.697  19.311  26.227  1.00  0.00    -0.200 F 
ENDBRANCH  53  77
BRANCH  65  88
ATOM     88  C   UNL A   1      49.010  26.933  24.194  1.00  0.00     0.064 A 
ATOM     89  C   UNL A   1      50.396  26.749  24.348  1.00  0.00     0.173 A 
ATOM     90  C   UNL A   1      48.639  27.557  22.982  1.00  0.00     0.173 A 
ATOM     91  F   UNL A   1      50.941  26.464  25.540  1.00  0.00    -0.203 F 
ATOM     92  C   UNL A   1      51.292  26.939  23.294  1.00  0.00     0.198 A 
ATOM     93  C   UNL A   1      49.538  27.811  21.957  1.00  0.00     0.198 A 
ATOM     94  F   UNL A   1      47.401  28.001  22.743  1.00  0.00    -0.203 F 
ATOM     95  F   UNL A   1      52.588  26.647  23.467  1.00  0.00    -0.200 F 
ATOM     96  C   UNL A   1      50.858  27.452  22.091  1.00  0.00     0.200 A 
ATOM     97  F   UNL A   1      49.106  28.422  20.845  1.00  0.00    -0.200 F 
ATOM     98  F   UNL A   1      51.714  27.651  21.082  1.00  0.00    -0.200 F 
ENDBRANCH  65  88
ENDBRANCH  39  40
ENDBRANCH  32  34
ENDBRANCH  31  32
ENDBRANCH  30  31
ENDBRANCH  29  30
ENDBRANCH  28  29
ENDBRANCH  27  28
ENDBRANCH   1  27
TORSDOF 21
ENDMDL
MODEL 3
REMARK VINA RESULT:     -12.2      5.067     10.059
REMARK SMILES Cc1ccc(S(=O)(=O)N(c2ccccc2)[C@H](C)C(=O)OCCOCCOCCOC(=O)c2ccc(-c3c4nc(c(-c5c(F)c(F)c(F)c(F)c5F)c5ccc([nH]5)c(-c5c(F)c(F)c(F)c(F)c5F)c5nc(c(-c6c(F)c(F)c(F)c(F)c6F)c6ccc3[nH]6)C=C5)C=C4)cc2)cc1
REMARK SMILES IDX 24 1 23 2 22 3 21 4 20 5 18 6 19 7 16 8 17 9 9 10 6 11 7 12
REMARK SMILES IDX 8 13 5 14 1 15 2 16 3 17 96 18 4 19 95 20 10 21 11 22 15 23
REMARK SMILES IDX 12 24 14 25 13 26 25 27 26 28 27 29 28 30 29 31 30 32 31 33
REMARK SMILES IDX 32 34 33 35 94 36 34 37 93 38 35 39 36 40 37 41 87 42 38 43
REMARK SMILES IDX 92 44 86 45 88 46 39 47 91 48 85 49 84 50 40 52 72 53 52 54
REMARK SMILES IDX 71 55 53 56 56 57 70 58 89 59 54 60 55 61 69 63 90 64 57 65
REMARK SMILES IDX 41 66 42 67 50 68 43 69 44 70 48 71 51 72 45 73 46 74 49 75
REMARK SMILES IDX 47 76 73 77 74 78 82 79 75 80 76 81 80 82 83 83 77 84 78 85
REMARK SMILES IDX 81 86 79 87 58 88 59 89 67 90 60 91 61 92 65 93 68 94 62 95
REMARK SMILES IDX 63 96 66 97 64 98
REMARK H PARENT 88 51 56 62
REMARK Flexibility Score: inf
ROOT
ATOM      1  C   UNL A   1      33.540  32.653  28.272  1.00  0.00     0.188 C 
ENDROOT
BRANCH   1   2
ATOM      2  O   UNL A   1      34.444  31.973  27.436  1.00  0.00    -0.376 OA
BRANCH   2   3
ATOM      3  C   UNL A   1      35.061  30.924  28.165  1.00  0.00     0.202 C 
BRANCH   3   4
ATOM      4  C   UNL A   1      34.996  29.474  27.538  1.00  0.00     0.261 C 
BRANCH   4   5
ATOM      5  O   UNL A   1      33.771  28.309  27.246  1.00  0.00    -0.462 OA
BRANCH   5   6
ATOM      6  C   UNL A   1      32.805  27.977  26.277  1.00  0.00     0.329 C 
ATOM      7  O   UNL A   1      31.668  27.790  26.697  1.00  0.00    -0.250 OA
BRANCH   6   8
ATOM      8  C   UNL A   1      32.863  27.742  24.693  1.00  0.00     0.206 C 
ATOM      9  C   UNL A   1      34.009  28.246  23.826  1.00  0.00     0.045 C 
BRANCH   8  10
ATOM     10  N   UNL A   1      32.283  26.364  24.156  1.00  0.00    -0.252 N 
BRANCH  10  11
ATOM     11  S   UNL A   1      30.961  26.279  23.016  1.00  0.00     0.265 S 
ATOM     12  O   UNL A   1      30.047  25.277  23.535  1.00  0.00    -0.201 OA
ATOM     13  O   UNL A   1      31.536  26.100  21.696  1.00  0.00    -0.201 OA
BRANCH  11  14
ATOM     14  C   UNL A   1      29.900  27.780  22.874  1.00  0.00     0.088 A 
ATOM     15  C   UNL A   1      27.480  31.433  22.965  1.00  0.00     0.044 C 
ATOM     16  C   UNL A   1      28.276  30.157  22.922  1.00  0.00    -0.051 A 
ATOM     17  C   UNL A   1      27.740  28.907  23.254  1.00  0.00     0.005 A 
ATOM     18  C   UNL A   1      29.592  30.183  22.485  1.00  0.00     0.005 A 
ATOM     19  C   UNL A   1      28.547  27.734  23.253  1.00  0.00     0.022 A 
ATOM     20  C   UNL A   1      30.357  29.005  22.431  1.00  0.00     0.022 A 
ENDBRANCH  11  14
ENDBRANCH  10  11
BRANCH  10  21
ATOM     21  C   UNL A   1      33.016  25.185  24.424  1.00  0.00     0.053 A 
ATOM     22  C   UNL A   1      34.176  24.658  23.265  1.00  0.00     0.027 A 
ATOM     23  C   UNL A   1      32.671  24.420  25.859  1.00  0.00     0.027 A 
ATOM     24  C   UNL A   1      35.073  23.146  23.352  1.00  0.00     0.002 A 
ATOM     25  C   UNL A   1      33.512  22.938  26.181  1.00  0.00     0.002 A 
ATOM     26  C   UNL A   1      34.794  22.133  24.753  1.00  0.00     0.000 A 
ENDBRANCH  10  21
ENDBRANCH   8  10
ENDBRANCH   6   8
ENDBRANCH   5   6
ENDBRANCH   4   5
ENDBRANCH   3   4
ENDBRANCH   2   3
ENDBRANCH   1   2
BRANCH   1  27
ATOM     27  C   UNL A   1      33.372  34.111  27.884  1.00  0.00     0.188 C 
BRANCH  27  28
ATOM     28  O   UNL A   1      32.677  34.881  28.827  1.00  0.00    -0.376 OA
BRANCH  28  29
ATOM     29  C   UNL A   1      32.994  36.210  29.162  1.00  0.00     0.202 C 
BRANCH  29  30
ATOM     30  C   UNL A   1      32.726  36.280  30.646  1.00  0.00     0.261 C 
BRANCH  30  31
ATOM     31  O   UNL A   1      32.889  34.950  31.249  1.00  0.00    -0.460 OA
BRANCH  31  32
ATOM     32  C   UNL A   1      33.975  34.725  32.058  1.00  0.00     0.338 C 
ATOM     33  O   UNL A   1      34.213  35.345  33.085  1.00  0.00    -0.246 OA
BRANCH  32  34
ATOM     34  C   UNL A   1      34.946  33.749  31.411  1.00  0.00     0.060 A 
ATOM     35  C   UNL A   1      35.087  32.456  31.902  1.00  0.00     0.016 A 
ATOM     36  C   UNL A   1      35.937  34.187  30.530  1.00  0.00     0.016 A 
ATOM     37  C   UNL A   1      36.300  31.755  31.681  1.00  0.00     0.010 A 
ATOM     38  C   UNL A   1      37.208  33.557  30.507  1.00  0.00     0.010 A 
ATOM     39  C   UNL A   1      37.464  32.408  31.263  1.00  0.00    -0.014 A 
BRANCH  39  40
ATOM     40  C   UNL A   1      38.928  31.886  31.557  1.00  0.00     0.031 A 
ATOM     41  C   UNL A   1      38.795  30.363  30.990  1.00  0.00     0.074 A 
ATOM     42  C   UNL A   1      40.102  32.471  32.242  1.00  0.00     0.049 A 
ATOM     43  N   UNL A   1      39.556  28.752  31.368  1.00  0.00    -0.248 NA
ATOM     44  C   UNL A   1      38.355  30.259  29.006  1.00  0.00     0.031 C 
ATOM     45  C   UNL A   1      41.551  32.622  31.862  1.00  0.00     0.029 A 
ATOM     46  N   UNL A   1      40.284  33.084  33.527  1.00  0.00    -0.354 N 
ATOM     47  C   UNL A   1      39.820  27.762  29.841  1.00  0.00     0.074 A 
ATOM     48  C   UNL A   1      38.932  28.799  28.449  1.00  0.00     0.031 C 
ATOM     49  C   UNL A   1      42.349  32.885  32.933  1.00  0.00     0.029 A 
ATOM     50  C   UNL A   1      41.542  33.111  34.109  1.00  0.00     0.049 A 
ATOM     51  H   UNL A   1      39.516  33.486  33.995  1.00  0.00     0.167 HD
ATOM     52  C   UNL A   1      41.153  27.319  29.650  1.00  0.00     0.037 A 
ATOM     53  C   UNL A   1      41.801  32.950  35.455  1.00  0.00     0.037 A 
ATOM     54  C   UNL A   1      42.230  27.816  30.643  1.00  0.00     0.049 A 
ATOM     55  C   UNL A   1      42.397  31.539  35.598  1.00  0.00     0.074 A 
ATOM     56  C   UNL A   1      43.317  28.695  30.488  1.00  0.00     0.029 A 
ATOM     57  N   UNL A   1      42.162  27.693  32.045  1.00  0.00    -0.354 N 
ATOM     58  N   UNL A   1      42.748  30.768  34.590  1.00  0.00    -0.248 NA
ATOM     59  C   UNL A   1      42.516  30.862  36.887  1.00  0.00     0.031 C 
ATOM     60  C   UNL A   1      43.840  29.105  31.767  1.00  0.00     0.029 A 
ATOM     61  C   UNL A   1      43.126  28.462  32.757  1.00  0.00     0.049 A 
ATOM     62  H   UNL A   1      41.500  27.121  32.498  1.00  0.00     0.167 HD
ATOM     63  C   UNL A   1      42.988  29.488  35.041  1.00  0.00     0.074 A 
ATOM     64  C   UNL A   1      42.819  29.615  36.494  1.00  0.00     0.031 C 
ATOM     65  C   UNL A   1      43.259  28.393  34.239  1.00  0.00     0.037 A 
BRANCH  52  66
ATOM     66  C   UNL A   1      41.488  26.869  28.237  1.00  0.00     0.064 A 
ATOM     67  C   UNL A   1      41.332  25.540  27.803  1.00  0.00     0.173 A 
ATOM     68  C   UNL A   1      41.977  27.758  27.252  1.00  0.00     0.173 A 
ATOM     69  F   UNL A   1      40.756  24.608  28.567  1.00  0.00    -0.203 F 
ATOM     70  C   UNL A   1      41.737  25.111  26.538  1.00  0.00     0.198 A 
ATOM     71  C   UNL A   1      42.416  27.323  25.999  1.00  0.00     0.198 A 
ATOM     72  F   UNL A   1      42.034  29.080  27.483  1.00  0.00    -0.203 F 
ATOM     73  F   UNL A   1      41.570  23.826  26.194  1.00  0.00    -0.200 F 
ATOM     74  C   UNL A   1      42.299  25.996  25.643  1.00  0.00     0.200 A 
ATOM     75  F   UNL A   1      42.953  28.202  25.139  1.00  0.00    -0.200 F 
ATOM     76  F   UNL A   1      42.693  25.577  24.434  1.00  0.00    -0.200 F 
ENDBRANCH  52  66
BRANCH  53  77
ATOM     77  C   UNL A   1      40.882  33.636  36.524  1.00  0.00     0.064 A 
ATOM     78  C   UNL A   1      39.757  32.930  37.004  1.00  0.00     0.173 A 
ATOM     79  C   UNL A   1      41.192  34.790  37.288  1.00  0.00     0.173 A 
ATOM     80  F   UNL A   1      39.260  31.908  36.291  1.00  0.00    -0.203 F 
ATOM     81  C   UNL A   1      39.168  33.192  38.256  1.00  0.00     0.198 A 
ATOM     82  C   UNL A   1      40.704  34.964  38.603  1.00  0.00     0.198 A 
ATOM     83  F   UNL A   1      42.132  35.656  36.884  1.00  0.00    -0.203 F 
ATOM     84  F   UNL A   1      38.172  32.416  38.711  1.00  0.00    -0.200 F 
ATOM     85  C   UNL A   1      39.717  34.139  39.100  1.00  0.00     0.200 A 
ATOM     86  F   UNL A   1      41.306  35.830  39.436  1.00  0.00    -0.200 F 
ATOM     87  F   UNL A   1      39.375  34.179  40.398  1.00  0.00    -0.200 F 
ENDBRANCH  53  77
BRANCH  65  88
ATOM     88  C   UNL A   1      43.763  27.088  34.834  1.00  0.00     0.064 A 
ATOM     89  C   UNL A   1      45.125  26.767  34.986  1.00  0.00     0.173 A 
ATOM     90  C   UNL A   1      42.879  26.035  35.161  1.00  0.00     0.173 A 
ATOM     91  F   UNL A   1      46.091  27.519  34.439  1.00  0.00    -0.203 F 
ATOM     92  C   UNL A   1      45.545  25.606  35.637  1.00  0.00     0.198 A 
ATOM     93  C   UNL A   1      43.301  24.849  35.745  1.00  0.00     0.198 A 
ATOM     94  F   UNL A   1      41.572  26.074  34.888  1.00  0.00    -0.203 F 
ATOM     95  F   UNL A   1      46.853  25.402  35.848  1.00  0.00    -0.200 F 
ATOM     96  C   UNL A   1      44.630  24.655  36.034  1.00  0.00     0.200 A 
ATOM     97  F   UNL A   1      42.398  23.895  36.008  1.00  0.00    -0.200 F 
ATOM     98  F   UNL A   1      45.028  23.533  36.643  1.00  0.00    -0.200 F 
ENDBRANCH  65  88
ENDBRANCH  39  40
ENDBRANCH  32  34
ENDBRANCH  31  32
ENDBRANCH  30  31
ENDBRANCH  29  30
ENDBRANCH  28  29
ENDBRANCH  27  28
ENDBRANCH   1  27
TORSDOF 21
ENDMDL
