MODEL 1
REMARK VINA RESULT:     -10.5      0.000      0.000
REMARK SMILES COc1ccc(F)cc1[C@H](C)NC(=O)[C@H]1CC=CC[C@@H]1C(=O)OCCOCCOCCOC(=O)c1ccc(-c2c3nc(c(-c4c(F)c(F)c(F)c(F)c4F)c4ccc([nH]4)c(-c4c(F)c(F)c(F)c(F)c4F)c4nc(c(-c5c(F)c(F)c(F)c(F)c5F)c5ccc2[nH]5)C=C4)C=C3)cc1
REMARK SMILES IDX 27 1 26 2 25 3 24 4 23 5 21 6 22 7 20 8 15 9 16 10 17 11
REMARK SMILES IDX 19 12 18 13 13 14 12 15 14 17 10 18 11 19 9 20 3 21 4 22
REMARK SMILES IDX 5 23 8 24 6 25 7 26 2 27 1 28 28 29 29 30 30 31 31 32 32 33
REMARK SMILES IDX 33 34 34 35 35 36 36 37 97 38 37 39 96 40 38 41 39 42 40 43
REMARK SMILES IDX 90 44 41 45 95 46 89 47 91 48 42 49 94 50 88 51 87 52 43 54
REMARK SMILES IDX 75 55 55 56 74 57 56 58 59 59 73 60 92 61 57 62 58 63 72 65
REMARK SMILES IDX 93 66 60 67 44 68 45 69 53 70 46 71 47 72 51 73 54 74 48 75
REMARK SMILES IDX 49 76 52 77 50 78 76 79 77 80 85 81 78 82 79 83 83 84 86 85
REMARK SMILES IDX 80 86 81 87 84 88 82 89 61 90 62 91 70 92 63 93 64 94 68 95
REMARK SMILES IDX 71 96 65 97 66 98 69 99 67 100
REMARK H PARENT 12 16 91 53 59 64
REMARK Flexibility Score: inf
ROOT
ATOM      1  C   UNL A   1      35.454  32.870  27.995  1.00  0.00     0.188 C 
ENDROOT
BRANCH   1   2
ATOM      2  O   UNL A   1      35.232  31.508  27.626  1.00  0.00    -0.376 OA
BRANCH   2   3
ATOM      3  C   UNL A   1      33.939  30.949  27.817  1.00  0.00     0.202 C 
BRANCH   3   4
ATOM      4  C   UNL A   1      33.779  29.482  27.412  1.00  0.00     0.261 C 
BRANCH   4   5
ATOM      5  O   UNL A   1      32.616  29.296  26.597  1.00  0.00    -0.463 OA
BRANCH   5   6
ATOM      6  C   UNL A   1      31.957  28.137  26.799  1.00  0.00     0.310 C 
ATOM      7  O   UNL A   1      31.355  27.852  27.828  1.00  0.00    -0.252 OA
BRANCH   6   8
ATOM      8  C   UNL A   1      31.818  27.340  25.517  1.00  0.00     0.115 C 
ATOM      9  C   UNL A   1      32.725  26.110  25.339  1.00  0.00     0.097 C 
ATOM     10  C   UNL A   1      33.682  26.090  24.137  1.00  0.00     0.041 C 
ATOM     11  C   UNL A   1      33.318  26.977  22.995  1.00  0.00    -0.030 C 
ATOM     12  C   UNL A   1      31.778  28.376  24.372  1.00  0.00     0.043 C 
ATOM     13  C   UNL A   1      32.468  28.000  23.100  1.00  0.00    -0.030 C 
BRANCH   9  14
ATOM     14  C   UNL A   1      31.957  24.779  25.315  1.00  0.00     0.224 C 
ATOM     15  N   UNL A   1      32.315  23.685  26.039  1.00  0.00    -0.349 N 
ATOM     16  H   UNL A   1      31.637  22.972  26.032  1.00  0.00     0.164 HD
ATOM     17  O   UNL A   1      30.901  24.708  24.676  1.00  0.00    -0.275 OA
BRANCH  15  18
ATOM     18  C   UNL A   1      33.502  23.353  26.824  1.00  0.00     0.113 C 
ATOM     19  C   UNL A   1      33.183  22.288  27.875  1.00  0.00     0.036 C 
BRANCH  18  20
ATOM     20  C   UNL A   1      34.671  23.092  25.883  1.00  0.00     0.019 A 
ATOM     21  C   UNL A   1      34.589  22.344  24.701  1.00  0.00     0.124 A 
ATOM     22  C   UNL A   1      35.667  22.274  23.805  1.00  0.00     0.050 A 
ATOM     23  C   UNL A   1      36.865  22.925  24.089  1.00  0.00     0.043 A 
ATOM     24  C   UNL A   1      35.914  23.701  26.160  1.00  0.00     0.049 A 
ATOM     25  C   UNL A   1      36.981  23.626  25.273  1.00  0.00     0.123 A 
ATOM     26  F   UNL A   1      38.126  24.254  25.569  1.00  0.00    -0.207 F 
BRANCH  21  27
ATOM     27  O   UNL A   1      33.426  21.703  24.371  1.00  0.00    -0.496 OA
ATOM     28  C   UNL A   1      33.573  20.292  24.560  1.00  0.00     0.278 C 
ENDBRANCH  21  27
ENDBRANCH  18  20
ENDBRANCH  15  18
ENDBRANCH   9  14
ENDBRANCH   6   8
ENDBRANCH   5   6
ENDBRANCH   4   5
ENDBRANCH   3   4
ENDBRANCH   2   3
ENDBRANCH   1   2
BRANCH   1  29
ATOM     29  C   UNL A   1      34.617  33.535  29.105  1.00  0.00     0.188 C 
BRANCH  29  30
ATOM     30  O   UNL A   1      33.650  34.436  28.591  1.00  0.00    -0.376 OA
BRANCH  30  31
ATOM     31  C   UNL A   1      33.849  35.789  28.968  1.00  0.00     0.202 C 
BRANCH  31  32
ATOM     32  C   UNL A   1      32.664  36.317  29.780  1.00  0.00     0.261 C 
BRANCH  32  33
ATOM     33  O   UNL A   1      32.962  36.657  31.149  1.00  0.00    -0.460 OA
BRANCH  33  34
ATOM     34  C   UNL A   1      32.557  35.790  32.097  1.00  0.00     0.338 C 
ATOM     35  O   UNL A   1      31.400  35.517  32.395  1.00  0.00    -0.246 OA
BRANCH  34  36
ATOM     36  C   UNL A   1      33.734  35.085  32.650  1.00  0.00     0.060 A 
ATOM     37  C   UNL A   1      34.991  35.692  32.551  1.00  0.00     0.016 A 
ATOM     38  C   UNL A   1      33.617  33.812  33.217  1.00  0.00     0.016 A 
ATOM     39  C   UNL A   1      36.132  35.024  33.005  1.00  0.00     0.010 A 
ATOM     40  C   UNL A   1      34.765  33.137  33.654  1.00  0.00     0.010 A 
ATOM     41  C   UNL A   1      36.033  33.732  33.539  1.00  0.00    -0.014 A 
BRANCH  41  42
ATOM     42  C   UNL A   1      37.267  32.949  33.816  1.00  0.00     0.031 A 
ATOM     43  C   UNL A   1      37.995  33.180  35.110  1.00  0.00     0.074 A 
ATOM     44  C   UNL A   1      37.714  32.004  32.968  1.00  0.00     0.049 A 
ATOM     45  N   UNL A   1      39.130  32.681  35.530  1.00  0.00    -0.248 NA
ATOM     46  C   UNL A   1      37.342  34.085  36.069  1.00  0.00     0.031 C 
ATOM     47  C   UNL A   1      37.051  31.592  31.735  1.00  0.00     0.029 A 
ATOM     48  N   UNL A   1      38.838  31.211  33.028  1.00  0.00    -0.354 N 
ATOM     49  C   UNL A   1      39.329  33.212  36.797  1.00  0.00     0.074 A 
ATOM     50  C   UNL A   1      38.202  34.078  37.076  1.00  0.00     0.031 C 
ATOM     51  C   UNL A   1      37.782  30.625  31.150  1.00  0.00     0.029 A 
ATOM     52  C   UNL A   1      38.991  30.386  31.941  1.00  0.00     0.049 A 
ATOM     53  H   UNL A   1      39.473  31.235  33.780  1.00  0.00     0.167 HD
ATOM     54  C   UNL A   1      40.359  33.002  37.650  1.00  0.00     0.037 A 
ATOM     55  C   UNL A   1      40.004  29.559  31.606  1.00  0.00     0.037 A 
ATOM     56  C   UNL A   1      41.488  32.155  37.375  1.00  0.00     0.049 A 
ATOM     57  C   UNL A   1      41.209  29.445  32.508  1.00  0.00     0.074 A 
ATOM     58  C   UNL A   1      42.601  31.920  38.163  1.00  0.00     0.029 A 
ATOM     59  N   UNL A   1      41.651  31.407  36.219  1.00  0.00    -0.354 N 
ATOM     60  N   UNL A   1      41.421  29.995  33.679  1.00  0.00    -0.248 NA
ATOM     61  C   UNL A   1      42.325  28.612  32.032  1.00  0.00     0.031 C 
ATOM     62  C   UNL A   1      43.461  31.068  37.463  1.00  0.00     0.029 A 
ATOM     63  C   UNL A   1      42.858  30.729  36.263  1.00  0.00     0.049 A 
ATOM     64  H   UNL A   1      41.004  31.365  35.478  1.00  0.00     0.167 HD
ATOM     65  C   UNL A   1      42.677  29.560  34.087  1.00  0.00     0.074 A 
ATOM     66  C   UNL A   1      43.180  28.693  33.044  1.00  0.00     0.031 C 
ATOM     67  C   UNL A   1      43.350  29.859  35.226  1.00  0.00     0.037 A 
BRANCH  54  68
ATOM     68  C   UNL A   1      40.336  33.746  38.951  1.00  0.00     0.064 A 
ATOM     69  C   UNL A   1      39.704  33.187  40.072  1.00  0.00     0.173 A 
ATOM     70  C   UNL A   1      40.910  35.018  39.084  1.00  0.00     0.173 A 
ATOM     71  F   UNL A   1      39.138  31.973  39.993  1.00  0.00    -0.203 F 
ATOM     72  C   UNL A   1      39.641  33.878  41.277  1.00  0.00     0.198 A 
ATOM     73  C   UNL A   1      40.868  35.696  40.299  1.00  0.00     0.198 A 
ATOM     74  F   UNL A   1      41.541  35.585  38.045  1.00  0.00    -0.203 F 
ATOM     75  F   UNL A   1      39.014  33.334  42.329  1.00  0.00    -0.200 F 
ATOM     76  C   UNL A   1      40.228  35.129  41.392  1.00  0.00     0.200 A 
ATOM     77  F   UNL A   1      41.459  36.893  40.417  1.00  0.00    -0.200 F 
ATOM     78  F   UNL A   1      40.184  35.786  42.559  1.00  0.00    -0.200 F 
ENDBRANCH  54  68
BRANCH  55  79
ATOM     79  C   UNL A   1      39.944  28.793  30.333  1.00  0.00     0.064 A 
ATOM     80  C   UNL A   1      40.425  29.337  29.133  1.00  0.00     0.173 A 
ATOM     81  C   UNL A   1      39.412  27.497  30.291  1.00  0.00     0.173 A 
ATOM     82  F   UNL A   1      40.958  30.568  29.121  1.00  0.00    -0.203 F 
ATOM     83  C   UNL A   1      40.351  28.627  27.936  1.00  0.00     0.198 A 
ATOM     84  C   UNL A   1      39.363  26.777  29.098  1.00  0.00     0.198 A 
ATOM     85  F   UNL A   1      38.970  26.918  31.417  1.00  0.00    -0.203 F 
ATOM     86  F   UNL A   1      40.790  29.185  26.800  1.00  0.00    -0.200 F 
ATOM     87  C   UNL A   1      39.823  27.346  27.920  1.00  0.00     0.200 A 
ATOM     88  F   UNL A   1      38.878  25.527  29.092  1.00  0.00    -0.200 F 
ATOM     89  F   UNL A   1      39.764  26.657  26.772  1.00  0.00    -0.200 F 
ENDBRANCH  55  79
BRANCH  67  90
ATOM     90  C   UNL A   1      44.699  29.233  35.438  1.00  0.00     0.064 A 
ATOM     91  C   UNL A   1      44.817  28.025  36.143  1.00  0.00     0.173 A 
ATOM     92  C   UNL A   1      45.879  29.880  35.042  1.00  0.00     0.173 A 
ATOM     93  F   UNL A   1      43.719  27.370  36.551  1.00  0.00    -0.203 F 
ATOM     94  C   UNL A   1      46.066  27.500  36.465  1.00  0.00     0.198 A 
ATOM     95  C   UNL A   1      47.127  29.339  35.345  1.00  0.00     0.198 A 
ATOM     96  F   UNL A   1      45.820  31.031  34.357  1.00  0.00    -0.203 F 
ATOM     97  F   UNL A   1      46.153  26.367  37.176  1.00  0.00    -0.200 F 
ATOM     98  C   UNL A   1      47.220  28.158  36.065  1.00  0.00     0.200 A 
ATOM     99  F   UNL A   1      48.241  29.964  34.941  1.00  0.00    -0.200 F 
ATOM    100  F   UNL A   1      48.422  27.653  36.377  1.00  0.00    -0.200 F 
ENDBRANCH  67  90
ENDBRANCH  41  42
ENDBRANCH  34  36
ENDBRANCH  33  34
ENDBRANCH  32  33
ENDBRANCH  31  32
ENDBRANCH  30  31
ENDBRANCH  29  30
ENDBRANCH   1  29
TORSDOF 21
ENDMDL
MODEL 2
REMARK VINA RESULT:     -10.4      1.966      7.955
REMARK SMILES COc1ccc(F)cc1[C@H](C)NC(=O)[C@H]1CC=CC[C@@H]1C(=O)OCCOCCOCCOC(=O)c1ccc(-c2c3nc(c(-c4c(F)c(F)c(F)c(F)c4F)c4ccc([nH]4)c(-c4c(F)c(F)c(F)c(F)c4F)c4nc(c(-c5c(F)c(F)c(F)c(F)c5F)c5ccc2[nH]5)C=C4)C=C3)cc1
REMARK SMILES IDX 27 1 26 2 25 3 24 4 23 5 21 6 22 7 20 8 15 9 16 10 17 11
REMARK SMILES IDX 19 12 18 13 13 14 12 15 14 17 10 18 11 19 9 20 3 21 4 22
REMARK SMILES IDX 5 23 8 24 6 25 7 26 2 27 1 28 28 29 29 30 30 31 31 32 32 33
REMARK SMILES IDX 33 34 34 35 35 36 36 37 97 38 37 39 96 40 38 41 39 42 40 43
REMARK SMILES IDX 90 44 41 45 95 46 89 47 91 48 42 49 94 50 88 51 87 52 43 54
REMARK SMILES IDX 75 55 55 56 74 57 56 58 59 59 73 60 92 61 57 62 58 63 72 65
REMARK SMILES IDX 93 66 60 67 44 68 45 69 53 70 46 71 47 72 51 73 54 74 48 75
REMARK SMILES IDX 49 76 52 77 50 78 76 79 77 80 85 81 78 82 79 83 83 84 86 85
REMARK SMILES IDX 80 86 81 87 84 88 82 89 61 90 62 91 70 92 63 93 64 94 68 95
REMARK SMILES IDX 71 96 65 97 66 98 69 99 67 100
REMARK H PARENT 12 16 91 53 59 64
REMARK Flexibility Score: inf
ROOT
ATOM      1  C   UNL A   1      32.672  28.194  25.808  1.00  0.00     0.188 C 
ENDROOT
BRANCH   1   2
ATOM      2  O   UNL A   1      32.245  27.017  26.496  1.00  0.00    -0.376 OA
BRANCH   2   3
ATOM      3  C   UNL A   1      30.983  26.451  26.166  1.00  0.00     0.202 C 
BRANCH   3   4
ATOM      4  C   UNL A   1      30.998  25.372  25.082  1.00  0.00     0.261 C 
BRANCH   4   5
ATOM      5  O   UNL A   1      32.083  24.457  25.280  1.00  0.00    -0.463 OA
BRANCH   5   6
ATOM      6  C   UNL A   1      32.980  24.410  24.275  1.00  0.00     0.310 C 
ATOM      7  O   UNL A   1      33.000  25.186  23.326  1.00  0.00    -0.252 OA
BRANCH   6   8
ATOM      8  C   UNL A   1      34.121  23.461  24.585  1.00  0.00     0.115 C 
ATOM      9  C   UNL A   1      34.680  23.459  26.018  1.00  0.00     0.097 C 
ATOM     10  C   UNL A   1      36.164  23.806  26.212  1.00  0.00     0.041 C 
ATOM     11  C   UNL A   1      37.040  23.621  25.020  1.00  0.00    -0.030 C 
ATOM     12  C   UNL A   1      35.127  23.606  23.421  1.00  0.00     0.043 C 
ATOM     13  C   UNL A   1      36.577  23.533  23.772  1.00  0.00    -0.030 C 
BRANCH   9  14
ATOM     14  C   UNL A   1      34.430  22.144  26.773  1.00  0.00     0.224 C 
ATOM     15  N   UNL A   1      34.765  20.918  26.288  1.00  0.00    -0.349 N 
ATOM     16  H   UNL A   1      34.682  20.199  26.954  1.00  0.00     0.164 HD
ATOM     17  O   UNL A   1      33.981  22.190  27.924  1.00  0.00    -0.275 OA
BRANCH  15  18
ATOM     18  C   UNL A   1      35.223  20.453  24.982  1.00  0.00     0.113 C 
ATOM     19  C   UNL A   1      36.732  20.201  24.988  1.00  0.00     0.036 C 
BRANCH  18  20
ATOM     20  C   UNL A   1      34.318  19.325  24.503  1.00  0.00     0.019 A 
ATOM     21  C   UNL A   1      33.034  19.508  23.973  1.00  0.00     0.124 A 
ATOM     22  C   UNL A   1      32.319  18.439  23.410  1.00  0.00     0.050 A 
ATOM     23  C   UNL A   1      32.859  17.156  23.394  1.00  0.00     0.043 A 
ATOM     24  C   UNL A   1      34.816  18.005  24.512  1.00  0.00     0.049 A 
ATOM     25  C   UNL A   1      34.104  16.949  23.957  1.00  0.00     0.123 A 
ATOM     26  F   UNL A   1      34.640  15.722  23.959  1.00  0.00    -0.207 F 
BRANCH  21  27
ATOM     27  O   UNL A   1      32.469  20.754  23.949  1.00  0.00    -0.496 OA
ATOM     28  C   UNL A   1      32.088  21.093  22.612  1.00  0.00     0.278 C 
ENDBRANCH  21  27
ENDBRANCH  18  20
ENDBRANCH  15  18
ENDBRANCH   9  14
ENDBRANCH   6   8
ENDBRANCH   5   6
ENDBRANCH   4   5
ENDBRANCH   3   4
ENDBRANCH   2   3
ENDBRANCH   1   2
BRANCH   1  29
ATOM     29  C   UNL A   1      33.988  28.899  26.191  1.00  0.00     0.188 C 
BRANCH  29  30
ATOM     30  O   UNL A   1      33.788  30.246  26.587  1.00  0.00    -0.376 OA
BRANCH  30  31
ATOM     31  C   UNL A   1      32.526  30.499  27.186  1.00  0.00     0.202 C 
BRANCH  31  32
ATOM     32  C   UNL A   1      32.109  31.960  26.997  1.00  0.00     0.261 C 
BRANCH  32  33
ATOM     33  O   UNL A   1      33.193  32.913  27.010  1.00  0.00    -0.460 OA
BRANCH  33  34
ATOM     34  C   UNL A   1      33.220  33.794  28.028  1.00  0.00     0.338 C 
ATOM     35  O   UNL A   1      32.383  34.654  28.277  1.00  0.00    -0.246 OA
BRANCH  34  36
ATOM     36  C   UNL A   1      34.361  33.482  28.916  1.00  0.00     0.060 A 
ATOM     37  C   UNL A   1      35.645  33.878  28.526  1.00  0.00     0.016 A 
ATOM     38  C   UNL A   1      34.184  32.758  30.098  1.00  0.00     0.016 A 
ATOM     39  C   UNL A   1      36.754  33.542  29.309  1.00  0.00     0.010 A 
ATOM     40  C   UNL A   1      35.298  32.406  30.873  1.00  0.00     0.010 A 
ATOM     41  C   UNL A   1      36.593  32.783  30.477  1.00  0.00    -0.014 A 
BRANCH  41  42
ATOM     42  C   UNL A   1      37.789  32.248  31.181  1.00  0.00     0.031 A 
ATOM     43  C   UNL A   1      38.596  31.167  30.519  1.00  0.00     0.074 A 
ATOM     44  C   UNL A   1      38.197  32.744  32.364  1.00  0.00     0.049 A 
ATOM     45  N   UNL A   1      39.620  30.492  30.975  1.00  0.00    -0.248 NA
ATOM     46  C   UNL A   1      38.202  30.812  29.146  1.00  0.00     0.031 C 
ATOM     47  C   UNL A   1      37.583  33.865  33.068  1.00  0.00     0.029 A 
ATOM     48  N   UNL A   1      39.240  32.364  33.178  1.00  0.00    -0.354 N 
ATOM     49  C   UNL A   1      39.991  29.632  29.950  1.00  0.00     0.074 A 
ATOM     50  C   UNL A   1      39.078  29.864  28.851  1.00  0.00     0.031 C 
ATOM     51  C   UNL A   1      38.258  34.082  34.212  1.00  0.00     0.029 A 
ATOM     52  C   UNL A   1      39.319  33.082  34.346  1.00  0.00     0.049 A 
ATOM     53  H   UNL A   1      39.870  31.645  32.944  1.00  0.00     0.167 HD
ATOM     54  C   UNL A   1      40.997  28.727  29.927  1.00  0.00     0.037 A 
ATOM     55  C   UNL A   1      40.130  32.928  35.415  1.00  0.00     0.037 A 
ATOM     56  C   UNL A   1      41.900  28.481  31.021  1.00  0.00     0.049 A 
ATOM     57  C   UNL A   1      41.156  31.821  35.425  1.00  0.00     0.074 A 
ATOM     58  C   UNL A   1      42.920  27.550  31.102  1.00  0.00     0.029 A 
ATOM     59  N   UNL A   1      41.886  29.167  32.225  1.00  0.00    -0.354 N 
ATOM     60  N   UNL A   1      41.465  30.971  34.475  1.00  0.00    -0.248 NA
ATOM     61  C   UNL A   1      41.933  31.640  36.661  1.00  0.00     0.031 C 
ATOM     62  C   UNL A   1      43.493  27.639  32.374  1.00  0.00     0.029 A 
ATOM     63  C   UNL A   1      42.865  28.662  33.065  1.00  0.00     0.049 A 
ATOM     64  H   UNL A   1      41.271  29.902  32.449  1.00  0.00     0.167 HD
ATOM     65  C   UNL A   1      42.480  30.172  34.990  1.00  0.00     0.074 A 
ATOM     66  C   UNL A   1      42.743  30.641  36.333  1.00  0.00     0.031 C 
ATOM     67  C   UNL A   1      43.130  29.140  34.398  1.00  0.00     0.037 A 
BRANCH  54  68
ATOM     68  C   UNL A   1      41.146  27.895  28.690  1.00  0.00     0.064 A 
ATOM     69  C   UNL A   1      42.074  28.259  27.702  1.00  0.00     0.173 A 
ATOM     70  C   UNL A   1      40.356  26.760  28.465  1.00  0.00     0.173 A 
ATOM     71  F   UNL A   1      42.851  29.340  27.871  1.00  0.00    -0.203 F 
ATOM     72  C   UNL A   1      42.199  27.519  26.531  1.00  0.00     0.198 A 
ATOM     73  C   UNL A   1      40.502  26.007  27.303  1.00  0.00     0.198 A 
ATOM     74  F   UNL A   1      39.468  26.362  29.389  1.00  0.00    -0.203 F 
ATOM     75  F   UNL A   1      43.077  27.898  25.592  1.00  0.00    -0.200 F 
ATOM     76  C   UNL A   1      41.418  26.390  26.335  1.00  0.00     0.200 A 
ATOM     77  F   UNL A   1      39.766  24.901  27.127  1.00  0.00    -0.200 F 
ATOM     78  F   UNL A   1      41.553  25.668  25.215  1.00  0.00    -0.200 F 
ENDBRANCH  54  68
BRANCH  55  79
ATOM     79  C   UNL A   1      39.982  33.827  36.591  1.00  0.00     0.064 A 
ATOM     80  C   UNL A   1      39.101  33.518  37.637  1.00  0.00     0.173 A 
ATOM     81  C   UNL A   1      40.728  35.009  36.697  1.00  0.00     0.173 A 
ATOM     82  F   UNL A   1      38.376  32.390  37.591  1.00  0.00    -0.203 F 
ATOM     83  C   UNL A   1      38.949  34.368  38.729  1.00  0.00     0.198 A 
ATOM     84  C   UNL A   1      40.595  35.847  37.804  1.00  0.00     0.198 A 
ATOM     85  F   UNL A   1      41.610  35.333  35.741  1.00  0.00    -0.203 F 
ATOM     86  F   UNL A   1      38.076  34.062  39.698  1.00  0.00    -0.200 F 
ATOM     87  C   UNL A   1      39.698  35.531  38.814  1.00  0.00     0.200 A 
ATOM     88  F   UNL A   1      41.342  36.956  37.896  1.00  0.00    -0.200 F 
ATOM     89  F   UNL A   1      39.563  36.343  39.871  1.00  0.00    -0.200 F 
ENDBRANCH  55  79
BRANCH  67  90
ATOM     90  C   UNL A   1      44.215  28.447  35.173  1.00  0.00     0.064 A 
ATOM     91  C   UNL A   1      45.550  28.864  35.050  1.00  0.00     0.173 A 
ATOM     92  C   UNL A   1      43.952  27.306  35.944  1.00  0.00     0.173 A 
ATOM     93  F   UNL A   1      45.856  29.945  34.317  1.00  0.00    -0.203 F 
ATOM     94  C   UNL A   1      46.583  28.151  35.654  1.00  0.00     0.198 A 
ATOM     95  C   UNL A   1      44.986  26.610  36.567  1.00  0.00     0.198 A 
ATOM     96  F   UNL A   1      42.692  26.873  36.100  1.00  0.00    -0.203 F 
ATOM     97  F   UNL A   1      47.854  28.545  35.488  1.00  0.00    -0.200 F 
ATOM     98  C   UNL A   1      46.300  27.025  36.412  1.00  0.00     0.200 A 
ATOM     99  F   UNL A   1      44.709  25.533  37.315  1.00  0.00    -0.200 F 
ATOM    100  F   UNL A   1      47.294  26.338  36.990  1.00  0.00    -0.200 F 
ENDBRANCH  67  90
ENDBRANCH  41  42
ENDBRANCH  34  36
ENDBRANCH  33  34
ENDBRANCH  32  33
ENDBRANCH  31  32
ENDBRANCH  30  31
ENDBRANCH  29  30
ENDBRANCH   1  29
TORSDOF 21
ENDMDL
MODEL 3
REMARK VINA RESULT:     -10.3      1.861      3.507
REMARK SMILES COc1ccc(F)cc1[C@H](C)NC(=O)[C@H]1CC=CC[C@@H]1C(=O)OCCOCCOCCOC(=O)c1ccc(-c2c3nc(c(-c4c(F)c(F)c(F)c(F)c4F)c4ccc([nH]4)c(-c4c(F)c(F)c(F)c(F)c4F)c4nc(c(-c5c(F)c(F)c(F)c(F)c5F)c5ccc2[nH]5)C=C4)C=C3)cc1
REMARK SMILES IDX 27 1 26 2 25 3 24 4 23 5 21 6 22 7 20 8 15 9 16 10 17 11
REMARK SMILES IDX 19 12 18 13 13 14 12 15 14 17 10 18 11 19 9 20 3 21 4 22
REMARK SMILES IDX 5 23 8 24 6 25 7 26 2 27 1 28 28 29 29 30 30 31 31 32 32 33
REMARK SMILES IDX 33 34 34 35 35 36 36 37 97 38 37 39 96 40 38 41 39 42 40 43
REMARK SMILES IDX 90 44 41 45 95 46 89 47 91 48 42 49 94 50 88 51 87 52 43 54
REMARK SMILES IDX 75 55 55 56 74 57 56 58 59 59 73 60 92 61 57 62 58 63 72 65
REMARK SMILES IDX 93 66 60 67 44 68 45 69 53 70 46 71 47 72 51 73 54 74 48 75
REMARK SMILES IDX 49 76 52 77 50 78 76 79 77 80 85 81 78 82 79 83 83 84 86 85
REMARK SMILES IDX 80 86 81 87 84 88 82 89 61 90 62 91 70 92 63 93 64 94 68 95
REMARK SMILES IDX 71 96 65 97 66 98 69 99 67 100
REMARK H PARENT 12 16 91 53 59 64
REMARK Flexibility Score: inf
ROOT
ATOM      1  C   UNL A   1      33.892  31.224  27.619  1.00  0.00     0.188 C 
ENDROOT
BRANCH   1   2
ATOM      2  O   UNL A   1      34.419  29.898  27.679  1.00  0.00    -0.376 OA
BRANCH   2   3
ATOM      3  C   UNL A   1      33.515  28.801  27.686  1.00  0.00     0.202 C 
BRANCH   3   4
ATOM      4  C   UNL A   1      33.145  28.232  26.315  1.00  0.00     0.261 C 
BRANCH   4   5
ATOM      5  O   UNL A   1      34.038  27.178  25.934  1.00  0.00    -0.463 OA
BRANCH   5   6
ATOM      6  C   UNL A   1      33.441  26.017  25.600  1.00  0.00     0.310 C 
ATOM      7  O   UNL A   1      32.448  25.562  26.156  1.00  0.00    -0.252 OA
BRANCH   6   8
ATOM      8  C   UNL A   1      33.974  25.469  24.291  1.00  0.00     0.115 C 
ATOM      9  C   UNL A   1      32.950  25.016  23.236  1.00  0.00     0.097 C 
ATOM     10  C   UNL A   1      32.990  23.550  22.778  1.00  0.00     0.041 C 
ATOM     11  C   UNL A   1      34.281  22.833  22.987  1.00  0.00    -0.030 C 
ATOM     12  C   UNL A   1      35.103  24.483  24.667  1.00  0.00     0.043 C 
ATOM     13  C   UNL A   1      35.225  23.250  23.832  1.00  0.00    -0.030 C 
BRANCH   9  14
ATOM     14  C   UNL A   1      32.957  25.878  21.963  1.00  0.00     0.224 C 
ATOM     15  N   UNL A   1      32.760  27.223  21.959  1.00  0.00    -0.349 N 
ATOM     16  H   UNL A   1      32.949  27.643  21.090  1.00  0.00     0.164 HD
ATOM     17  O   UNL A   1      33.245  25.349  20.883  1.00  0.00    -0.275 OA
BRANCH  15  18
ATOM     18  C   UNL A   1      32.324  28.171  22.982  1.00  0.00     0.113 C 
ATOM     19  C   UNL A   1      33.311  29.333  23.108  1.00  0.00     0.036 C 
BRANCH  18  20
ATOM     20  C   UNL A   1      30.855  28.508  22.763  1.00  0.00     0.019 A 
ATOM     21  C   UNL A   1      29.790  27.888  23.429  1.00  0.00     0.124 A 
ATOM     22  C   UNL A   1      28.473  28.355  23.292  1.00  0.00     0.050 A 
ATOM     23  C   UNL A   1      28.189  29.433  22.459  1.00  0.00     0.043 A 
ATOM     24  C   UNL A   1      30.525  29.569  21.893  1.00  0.00     0.049 A 
ATOM     25  C   UNL A   1      29.220  30.026  21.756  1.00  0.00     0.123 A 
ATOM     26  F   UNL A   1      28.968  31.060  20.944  1.00  0.00    -0.207 F 
BRANCH  21  27
ATOM     27  O   UNL A   1      30.023  26.837  24.273  1.00  0.00    -0.496 OA
ATOM     28  C   UNL A   1      29.578  25.617  23.672  1.00  0.00     0.278 C 
ENDBRANCH  21  27
ENDBRANCH  18  20
ENDBRANCH  15  18
ENDBRANCH   9  14
ENDBRANCH   6   8
ENDBRANCH   5   6
ENDBRANCH   4   5
ENDBRANCH   3   4
ENDBRANCH   2   3
ENDBRANCH   1   2
BRANCH   1  29
ATOM     29  C   UNL A   1      34.736  32.432  28.071  1.00  0.00     0.188 C 
BRANCH  29  30
ATOM     30  O   UNL A   1      34.037  33.277  28.971  1.00  0.00    -0.376 OA
BRANCH  30  31
ATOM     31  C   UNL A   1      33.302  34.318  28.346  1.00  0.00     0.202 C 
BRANCH  31  32
ATOM     32  C   UNL A   1      33.059  35.479  29.314  1.00  0.00     0.261 C 
BRANCH  32  33
ATOM     33  O   UNL A   1      32.333  35.135  30.513  1.00  0.00    -0.460 OA
BRANCH  33  34
ATOM     34  C   UNL A   1      32.709  35.748  31.652  1.00  0.00     0.338 C 
ATOM     35  O   UNL A   1      32.143  36.686  32.202  1.00  0.00    -0.246 OA
BRANCH  34  36
ATOM     36  C   UNL A   1      33.854  35.023  32.243  1.00  0.00     0.060 A 
ATOM     37  C   UNL A   1      35.108  35.643  32.260  1.00  0.00     0.016 A 
ATOM     38  C   UNL A   1      33.714  33.720  32.732  1.00  0.00     0.016 A 
ATOM     39  C   UNL A   1      36.225  34.960  32.751  1.00  0.00     0.010 A 
ATOM     40  C   UNL A   1      34.838  33.030  33.207  1.00  0.00     0.010 A 
ATOM     41  C   UNL A   1      36.105  33.640  33.207  1.00  0.00    -0.014 A 
BRANCH  41  42
ATOM     42  C   UNL A   1      37.327  32.852  33.522  1.00  0.00     0.031 A 
ATOM     43  C   UNL A   1      38.009  33.074  34.843  1.00  0.00     0.074 A 
ATOM     44  C   UNL A   1      37.800  31.911  32.685  1.00  0.00     0.049 A 
ATOM     45  N   UNL A   1      39.128  32.569  35.298  1.00  0.00    -0.248 NA
ATOM     46  C   UNL A   1      37.326  33.975  35.783  1.00  0.00     0.031 C 
ATOM     47  C   UNL A   1      37.180  31.508  31.427  1.00  0.00     0.029 A 
ATOM     48  N   UNL A   1      38.920  31.115  32.780  1.00  0.00    -0.354 N 
ATOM     49  C   UNL A   1      39.284  33.093  36.575  1.00  0.00     0.074 A 
ATOM     50  C   UNL A   1      38.151  33.960  36.819  1.00  0.00     0.031 C 
ATOM     51  C   UNL A   1      37.928  30.542  30.863  1.00  0.00     0.029 A 
ATOM     52  C   UNL A   1      39.108  30.295  31.694  1.00  0.00     0.049 A 
ATOM     53  H   UNL A   1      39.528  31.133  33.553  1.00  0.00     0.167 HD
ATOM     54  C   UNL A   1      40.283  32.876  37.462  1.00  0.00     0.037 A 
ATOM     55  C   UNL A   1      40.130  29.467  31.390  1.00  0.00     0.037 A 
ATOM     56  C   UNL A   1      41.420  32.027  37.221  1.00  0.00     0.049 A 
ATOM     57  C   UNL A   1      41.303  29.345  32.332  1.00  0.00     0.074 A 
ATOM     58  C   UNL A   1      42.503  31.785  38.046  1.00  0.00     0.029 A 
ATOM     59  N   UNL A   1      41.620  31.285  36.067  1.00  0.00    -0.354 N 
ATOM     60  N   UNL A   1      41.475  29.888  33.513  1.00  0.00    -0.248 NA
ATOM     61  C   UNL A   1      42.432  28.511  31.891  1.00  0.00     0.031 C 
ATOM     62  C   UNL A   1      43.385  30.935  37.372  1.00  0.00     0.029 A 
ATOM     63  C   UNL A   1      42.823  30.604  36.149  1.00  0.00     0.049 A 
ATOM     64  H   UNL A   1      41.000  31.249  35.304  1.00  0.00     0.167 HD
ATOM     65  C   UNL A   1      42.716  29.447  33.962  1.00  0.00     0.074 A 
ATOM     66  C   UNL A   1      43.252  28.585  32.932  1.00  0.00     0.031 C 
ATOM     67  C   UNL A   1      43.349  29.738  35.125  1.00  0.00     0.037 A 
BRANCH  54  68
ATOM     68  C   UNL A   1      40.217  33.612  38.766  1.00  0.00     0.064 A 
ATOM     69  C   UNL A   1      40.975  34.778  38.957  1.00  0.00     0.173 A 
ATOM     70  C   UNL A   1      39.434  33.153  39.833  1.00  0.00     0.173 A 
ATOM     71  F   UNL A   1      41.742  35.255  37.965  1.00  0.00    -0.203 F 
ATOM     72  C   UNL A   1      40.954  35.453  40.173  1.00  0.00     0.198 A 
ATOM     73  C   UNL A   1      39.395  33.846  41.040  1.00  0.00     0.198 A 
ATOM     74  F   UNL A   1      38.679  32.052  39.692  1.00  0.00    -0.203 F 
ATOM     75  F   UNL A   1      41.701  36.553  40.340  1.00  0.00    -0.200 F 
ATOM     76  C   UNL A   1      40.160  34.990  41.211  1.00  0.00     0.200 A 
ATOM     77  F   UNL A   1      38.607  33.413  42.034  1.00  0.00    -0.200 F 
ATOM     78  F   UNL A   1      40.126  35.652  42.376  1.00  0.00    -0.200 F 
ENDBRANCH  54  68
BRANCH  55  79
ATOM     79  C   UNL A   1      40.112  28.709  30.111  1.00  0.00     0.064 A 
ATOM     80  C   UNL A   1      40.702  29.227  28.949  1.00  0.00     0.173 A 
ATOM     81  C   UNL A   1      39.511  27.444  30.026  1.00  0.00     0.173 A 
ATOM     82  F   UNL A   1      41.304  30.425  28.980  1.00  0.00    -0.203 F 
ATOM     83  C   UNL A   1      40.669  28.525  27.746  1.00  0.00     0.198 A 
ATOM     84  C   UNL A   1      39.502  26.731  28.829  1.00  0.00     0.198 A 
ATOM     85  F   UNL A   1      38.963  26.889  31.116  1.00  0.00    -0.203 F 
ATOM     86  F   UNL A   1      41.214  29.059  26.645  1.00  0.00    -0.200 F 
ATOM     87  C   UNL A   1      40.072  27.276  27.688  1.00  0.00     0.200 A 
ATOM     88  F   UNL A   1      38.949  25.511  28.783  1.00  0.00    -0.200 F 
ATOM     89  F   UNL A   1      40.051  26.594  26.534  1.00  0.00    -0.200 F 
ENDBRANCH  55  79
BRANCH  67  90
ATOM     90  C   UNL A   1      44.688  29.107  35.380  1.00  0.00     0.064 A 
ATOM     91  C   UNL A   1      44.777  27.886  36.067  1.00  0.00     0.173 A 
ATOM     92  C   UNL A   1      45.883  29.760  35.046  1.00  0.00     0.173 A 
ATOM     93  F   UNL A   1      43.664  27.225  36.417  1.00  0.00    -0.203 F 
ATOM     94  C   UNL A   1      46.012  27.354  36.430  1.00  0.00     0.198 A 
ATOM     95  C   UNL A   1      47.118  29.213  35.389  1.00  0.00     0.198 A 
ATOM     96  F   UNL A   1      45.852  30.924  34.381  1.00  0.00    -0.203 F 
ATOM     97  F   UNL A   1      46.070  26.208  37.123  1.00  0.00    -0.200 F 
ATOM     98  C   UNL A   1      47.181  28.019  36.090  1.00  0.00     0.200 A 
ATOM     99  F   UNL A   1      48.247  29.845  35.043  1.00  0.00    -0.200 F 
ATOM    100  F   UNL A   1      48.369  27.507  36.441  1.00  0.00    -0.200 F 
ENDBRANCH  67  90
ENDBRANCH  41  42
ENDBRANCH  34  36
ENDBRANCH  33  34
ENDBRANCH  32  33
ENDBRANCH  31  32
ENDBRANCH  30  31
ENDBRANCH  29  30
ENDBRANCH   1  29
TORSDOF 21
ENDMDL
