MODEL 1
REMARK VINA RESULT:     -10.7      0.000      0.000
REMARK SMILES NC(=O)CC[N@@H+]1[C@@H](C(=O)OCCOCCOCCOC(=O)c2ccc(-c3c4nc(c(-c5c(F)c(F)c(F)c(F)c5F)c5ccc([nH]5)c(-c5c(F)c(F)c(F)c(F)c5F)c5nc(c(-c6c(F)c(F)c(F)c(F)c6F)c6ccc3[nH]6)C=C5)C=C4)cc2)CC[C@@H]2CCCC[C@H]21
REMARK SMILES IDX 14 1 13 2 12 3 11 4 10 5 8 6 9 7 7 8 6 9 92 10 85 12 87 13
REMARK SMILES IDX 91 14 86 15 88 16 90 17 89 18 5 19 4 20 2 21 1 22 3 25 15 26
REMARK SMILES IDX 16 27 17 28 18 29 19 30 20 31 21 32 22 33 23 34 84 35 24 36
REMARK SMILES IDX 83 37 25 38 26 39 27 40 77 41 28 42 82 43 76 44 78 45 29 46
REMARK SMILES IDX 81 47 75 48 74 49 30 51 62 52 42 53 61 54 43 55 46 56 60 57
REMARK SMILES IDX 79 58 44 59 45 60 59 62 80 63 47 64 31 65 32 66 40 67 33 68
REMARK SMILES IDX 34 69 38 70 41 71 35 72 36 73 39 74 37 75 63 76 64 77 72 78
REMARK SMILES IDX 65 79 66 80 70 81 73 82 67 83 68 84 71 85 69 86 48 87 49 88
REMARK SMILES IDX 57 89 50 90 51 91 55 92 58 93 52 94 53 95 56 96 54 97
REMARK H PARENT 6 11 1 23 1 24 78 50 46 61
REMARK Flexibility Score: inf
ROOT
ATOM      1  C   UNL A   1      31.705  28.730  24.500  1.00  0.00     0.188 C 
ENDROOT
BRANCH   1   2
ATOM      2  O   UNL A   1      30.580  28.028  24.001  1.00  0.00    -0.376 OA
BRANCH   2   3
ATOM      3  C   UNL A   1      30.605  26.614  23.863  1.00  0.00     0.202 C 
BRANCH   3   4
ATOM      4  C   UNL A   1      29.846  25.714  24.858  1.00  0.00     0.261 C 
BRANCH   4   5
ATOM      5  O   UNL A   1      30.335  24.369  25.078  1.00  0.00    -0.459 OA
BRANCH   5   6
ATOM      6  C   UNL A   1      31.277  24.244  26.051  1.00  0.00     0.364 C 
ATOM      7  O   UNL A   1      31.011  24.258  27.252  1.00  0.00    -0.245 OA
BRANCH   6   8
ATOM      8  C   UNL A   1      32.747  24.077  25.549  1.00  0.00     0.295 C 
ATOM      9  N   UNL A   1      33.438  22.874  26.136  1.00  0.00    -0.320 N 
ATOM     10  C   UNL A   1      34.747  22.630  25.465  1.00  0.00     0.187 C 
ATOM     11  H   UNL A   1      33.635  23.077  27.115  1.00  0.00     0.349 HD
ATOM     12  C   UNL A   1      33.650  25.310  25.729  1.00  0.00     0.078 C 
ATOM     13  C   UNL A   1      35.666  23.879  25.546  1.00  0.00     0.048 C 
ATOM     14  C   UNL A   1      35.522  21.445  26.089  1.00  0.00     0.065 C 
ATOM     15  C   UNL A   1      34.972  25.115  25.001  1.00  0.00     0.016 C 
ATOM     16  C   UNL A   1      36.992  23.649  24.810  1.00  0.00     0.010 C 
ATOM     17  C   UNL A   1      36.863  21.210  25.392  1.00  0.00     0.006 C 
ATOM     18  C   UNL A   1      37.736  22.457  25.396  1.00  0.00     0.001 C 
BRANCH   9  19
ATOM     19  C   UNL A   1      32.566  21.676  26.132  1.00  0.00     0.273 C 
BRANCH  19  20
ATOM     20  C   UNL A   1      32.406  21.081  24.730  1.00  0.00     0.161 C 
BRANCH  20  21
ATOM     21  C   UNL A   1      32.620  19.584  24.636  1.00  0.00     0.223 C 
ATOM     22  N   UNL A   1      32.805  18.951  25.829  1.00  0.00    -0.369 N 
ATOM     23  H   UNL A   1      32.950  17.978  25.852  1.00  0.00     0.159 HD
ATOM     24  H   UNL A   1      32.791  19.468  26.668  1.00  0.00     0.159 HD
ATOM     25  O   UNL A   1      32.669  18.967  23.578  1.00  0.00    -0.275 OA
ENDBRANCH  20  21
ENDBRANCH  19  20
ENDBRANCH   9  19
ENDBRANCH   6   8
ENDBRANCH   5   6
ENDBRANCH   4   5
ENDBRANCH   3   4
ENDBRANCH   2   3
ENDBRANCH   1   2
BRANCH   1  26
ATOM     26  C   UNL A   1      31.861  28.953  26.004  1.00  0.00     0.188 C 
BRANCH  26  27
ATOM     27  O   UNL A   1      32.287  30.226  26.410  1.00  0.00    -0.376 OA
BRANCH  27  28
ATOM     28  C   UNL A   1      31.414  31.332  26.299  1.00  0.00     0.202 C 
BRANCH  28  29
ATOM     29  C   UNL A   1      31.739  32.701  26.924  1.00  0.00     0.261 C 
BRANCH  29  30
ATOM     30  O   UNL A   1      33.108  33.137  26.896  1.00  0.00    -0.460 OA
BRANCH  30  31
ATOM     31  C   UNL A   1      33.596  33.741  28.003  1.00  0.00     0.338 C 
ATOM     32  O   UNL A   1      33.053  34.610  28.666  1.00  0.00    -0.246 OA
BRANCH  31  33
ATOM     33  C   UNL A   1      34.794  32.976  28.437  1.00  0.00     0.060 A 
ATOM     34  C   UNL A   1      34.666  31.599  28.680  1.00  0.00     0.016 A 
ATOM     35  C   UNL A   1      36.039  33.596  28.560  1.00  0.00     0.016 A 
ATOM     36  C   UNL A   1      35.774  30.845  29.074  1.00  0.00     0.010 A 
ATOM     37  C   UNL A   1      37.143  32.845  28.984  1.00  0.00     0.010 A 
ATOM     38  C   UNL A   1      37.010  31.474  29.275  1.00  0.00    -0.014 A 
BRANCH  38  39
ATOM     39  C   UNL A   1      38.094  30.762  30.000  1.00  0.00     0.031 A 
ATOM     40  C   UNL A   1      38.322  31.113  31.446  1.00  0.00     0.074 A 
ATOM     41  C   UNL A   1      38.849  29.815  29.415  1.00  0.00     0.049 A 
ATOM     42  N   UNL A   1      39.248  30.697  32.273  1.00  0.00    -0.248 NA
ATOM     43  C   UNL A   1      37.374  32.070  32.038  1.00  0.00     0.031 C 
ATOM     44  C   UNL A   1      38.699  29.336  28.044  1.00  0.00     0.029 A 
ATOM     45  N   UNL A   1      39.909  29.092  29.911  1.00  0.00    -0.354 N 
ATOM     46  C   UNL A   1      38.996  31.345  33.476  1.00  0.00     0.074 A 
ATOM     47  C   UNL A   1      37.856  32.208  33.263  1.00  0.00     0.031 C 
ATOM     48  C   UNL A   1      39.643  28.408  27.802  1.00  0.00     0.029 A 
ATOM     49  C   UNL A   1      40.486  28.256  28.987  1.00  0.00     0.049 A 
ATOM     50  H   UNL A   1      40.224  29.169  30.840  1.00  0.00     0.167 HD
ATOM     51  C   UNL A   1      39.648  31.224  34.656  1.00  0.00     0.037 A 
ATOM     52  C   UNL A   1      41.585  27.480  29.083  1.00  0.00     0.037 A 
ATOM     53  C   UNL A   1      40.789  30.373  34.870  1.00  0.00     0.049 A 
ATOM     54  C   UNL A   1      42.359  27.443  30.381  1.00  0.00     0.074 A 
ATOM     55  C   UNL A   1      41.521  30.186  36.029  1.00  0.00     0.029 A 
ATOM     56  N   UNL A   1      41.369  29.573  33.898  1.00  0.00    -0.354 N 
ATOM     57  N   UNL A   1      42.109  28.046  31.518  1.00  0.00    -0.248 NA
ATOM     58  C   UNL A   1      43.572  26.610  30.405  1.00  0.00     0.031 C 
ATOM     59  C   UNL A   1      42.578  29.317  35.744  1.00  0.00     0.029 A 
ATOM     60  C   UNL A   1      42.465  28.908  34.425  1.00  0.00     0.049 A 
ATOM     61  H   UNL A   1      41.050  29.488  32.970  1.00  0.00     0.167 HD
ATOM     62  C   UNL A   1      43.104  27.635  32.399  1.00  0.00     0.074 A 
ATOM     63  C   UNL A   1      43.956  26.722  31.669  1.00  0.00     0.031 C 
ATOM     64  C   UNL A   1      43.296  27.984  33.696  1.00  0.00     0.037 A 
BRANCH  51  65
ATOM     65  C   UNL A   1      39.157  32.056  35.806  1.00  0.00     0.064 A 
ATOM     66  C   UNL A   1      38.256  31.547  36.753  1.00  0.00     0.173 A 
ATOM     67  C   UNL A   1      39.615  33.371  35.978  1.00  0.00     0.173 A 
ATOM     68  F   UNL A   1      37.774  30.301  36.626  1.00  0.00    -0.203 F 
ATOM     69  C   UNL A   1      37.812  32.332  37.815  1.00  0.00     0.198 A 
ATOM     70  C   UNL A   1      39.196  34.142  37.059  1.00  0.00     0.198 A 
ATOM     71  F   UNL A   1      40.479  33.907  35.101  1.00  0.00    -0.203 F 
ATOM     72  F   UNL A   1      36.912  31.841  38.678  1.00  0.00    -0.200 F 
ATOM     73  C   UNL A   1      38.289  33.624  37.971  1.00  0.00     0.200 A 
ATOM     74  F   UNL A   1      39.669  35.385  37.216  1.00  0.00    -0.200 F 
ATOM     75  F   UNL A   1      37.869  34.375  38.998  1.00  0.00    -0.200 F 
ENDBRANCH  51  65
BRANCH  52  76
ATOM     76  C   UNL A   1      42.046  26.676  27.917  1.00  0.00     0.064 A 
ATOM     77  C   UNL A   1      42.992  27.186  27.016  1.00  0.00     0.173 A 
ATOM     78  C   UNL A   1      41.509  25.408  27.646  1.00  0.00     0.173 A 
ATOM     79  F   UNL A   1      43.513  28.407  27.211  1.00  0.00    -0.203 F 
ATOM     80  C   UNL A   1      43.361  26.473  25.877  1.00  0.00     0.198 A 
ATOM     81  C   UNL A   1      41.904  24.682  26.524  1.00  0.00     0.198 A 
ATOM     82  F   UNL A   1      40.592  24.878  28.469  1.00  0.00    -0.203 F 
ATOM     83  F   UNL A   1      44.217  27.015  24.998  1.00  0.00    -0.200 F 
ATOM     84  C   UNL A   1      42.820  25.220  25.634  1.00  0.00     0.200 A 
ATOM     85  F   UNL A   1      41.384  23.468  26.298  1.00  0.00    -0.200 F 
ATOM     86  F   UNL A   1      43.171  24.538  24.535  1.00  0.00    -0.200 F 
ENDBRANCH  52  76
BRANCH  64  87
ATOM     87  C   UNL A   1      44.432  27.331  34.434  1.00  0.00     0.064 A 
ATOM     88  C   UNL A   1      45.713  27.902  34.485  1.00  0.00     0.173 A 
ATOM     89  C   UNL A   1      44.223  26.132  35.136  1.00  0.00     0.173 A 
ATOM     90  F   UNL A   1      45.971  29.040  33.823  1.00  0.00    -0.203 F 
ATOM     91  C   UNL A   1      46.748  27.281  35.180  1.00  0.00     0.198 A 
ATOM     92  C   UNL A   1      45.251  25.535  35.861  1.00  0.00     0.198 A 
ATOM     93  F   UNL A   1      43.017  25.548  35.133  1.00  0.00    -0.203 F 
ATOM     94  F   UNL A   1      47.977  27.816  35.166  1.00  0.00    -0.200 F 
ATOM     95  C   UNL A   1      46.514  26.104  35.874  1.00  0.00     0.200 A 
ATOM     96  F   UNL A   1      45.018  24.407  36.546  1.00  0.00    -0.200 F 
ATOM     97  F   UNL A   1      47.511  25.513  36.549  1.00  0.00    -0.200 F 
ENDBRANCH  64  87
ENDBRANCH  38  39
ENDBRANCH  31  33
ENDBRANCH  30  31
ENDBRANCH  29  30
ENDBRANCH  28  29
ENDBRANCH  27  28
ENDBRANCH  26  27
ENDBRANCH   1  26
TORSDOF 20
ENDMDL
MODEL 2
REMARK VINA RESULT:     -10.6      0.840      7.239
REMARK SMILES NC(=O)CC[N@@H+]1[C@@H](C(=O)OCCOCCOCCOC(=O)c2ccc(-c3c4nc(c(-c5c(F)c(F)c(F)c(F)c5F)c5ccc([nH]5)c(-c5c(F)c(F)c(F)c(F)c5F)c5nc(c(-c6c(F)c(F)c(F)c(F)c6F)c6ccc3[nH]6)C=C5)C=C4)cc2)CC[C@@H]2CCCC[C@H]21
REMARK SMILES IDX 14 1 13 2 12 3 11 4 10 5 8 6 9 7 7 8 6 9 92 10 85 12 87 13
REMARK SMILES IDX 91 14 86 15 88 16 90 17 89 18 5 19 4 20 2 21 1 22 3 25 15 26
REMARK SMILES IDX 16 27 17 28 18 29 19 30 20 31 21 32 22 33 23 34 84 35 24 36
REMARK SMILES IDX 83 37 25 38 26 39 27 40 77 41 28 42 82 43 76 44 78 45 29 46
REMARK SMILES IDX 81 47 75 48 74 49 30 51 62 52 42 53 61 54 43 55 46 56 60 57
REMARK SMILES IDX 79 58 44 59 45 60 59 62 80 63 47 64 31 65 32 66 40 67 33 68
REMARK SMILES IDX 34 69 38 70 41 71 35 72 36 73 39 74 37 75 63 76 64 77 72 78
REMARK SMILES IDX 65 79 66 80 70 81 73 82 67 83 68 84 71 85 69 86 48 87 49 88
REMARK SMILES IDX 57 89 50 90 51 91 55 92 58 93 52 94 53 95 56 96 54 97
REMARK H PARENT 6 11 1 23 1 24 78 50 46 61
REMARK Flexibility Score: inf
ROOT
ATOM      1  C   UNL A   1      33.007  27.498  24.650  1.00  0.00     0.188 C 
ENDROOT
BRANCH   1   2
ATOM      2  O   UNL A   1      31.884  26.735  24.245  1.00  0.00    -0.376 OA
BRANCH   2   3
ATOM      3  C   UNL A   1      31.818  26.168  22.943  1.00  0.00     0.202 C 
BRANCH   3   4
ATOM      4  C   UNL A   1      31.978  24.647  22.740  1.00  0.00     0.261 C 
BRANCH   4   5
ATOM      5  O   UNL A   1      31.172  23.758  23.551  1.00  0.00    -0.459 OA
BRANCH   5   6
ATOM      6  C   UNL A   1      31.717  23.405  24.745  1.00  0.00     0.364 C 
ATOM      7  O   UNL A   1      31.043  23.086  25.725  1.00  0.00    -0.245 OA
BRANCH   6   8
ATOM      8  C   UNL A   1      33.277  23.426  24.807  1.00  0.00     0.295 C 
ATOM      9  N   UNL A   1      33.881  22.053  24.950  1.00  0.00    -0.320 N 
ATOM     10  C   UNL A   1      35.362  22.100  24.781  1.00  0.00     0.187 C 
ATOM     11  H   UNL A   1      33.696  21.730  25.900  1.00  0.00     0.349 HD
ATOM     12  C   UNL A   1      33.883  24.352  25.877  1.00  0.00     0.078 C 
ATOM     13  C   UNL A   1      36.014  23.088  25.785  1.00  0.00     0.048 C 
ATOM     14  C   UNL A   1      36.027  20.719  24.993  1.00  0.00     0.065 C 
ATOM     15  C   UNL A   1      35.389  24.470  25.690  1.00  0.00     0.016 C 
ATOM     16  C   UNL A   1      37.531  23.180  25.578  1.00  0.00     0.010 C 
ATOM     17  C   UNL A   1      37.545  20.785  24.820  1.00  0.00     0.006 C 
ATOM     18  C   UNL A   1      38.182  21.814  25.744  1.00  0.00     0.001 C 
BRANCH   9  19
ATOM     19  C   UNL A   1      33.238  21.067  24.050  1.00  0.00     0.273 C 
BRANCH  19  20
ATOM     20  C   UNL A   1      32.345  20.084  24.813  1.00  0.00     0.161 C 
BRANCH  20  21
ATOM     21  C   UNL A   1      32.994  18.760  25.162  1.00  0.00     0.223 C 
ATOM     22  N   UNL A   1      32.889  18.394  26.471  1.00  0.00    -0.369 N 
ATOM     23  H   UNL A   1      33.285  17.546  26.778  1.00  0.00     0.159 HD
ATOM     24  H   UNL A   1      32.416  18.976  27.109  1.00  0.00     0.159 HD
ATOM     25  O   UNL A   1      33.609  18.068  24.359  1.00  0.00    -0.275 OA
ENDBRANCH  20  21
ENDBRANCH  19  20
ENDBRANCH   9  19
ENDBRANCH   6   8
ENDBRANCH   5   6
ENDBRANCH   4   5
ENDBRANCH   3   4
ENDBRANCH   2   3
ENDBRANCH   1   2
BRANCH   1  26
ATOM     26  C   UNL A   1      33.076  28.058  26.070  1.00  0.00     0.188 C 
BRANCH  26  27
ATOM     27  O   UNL A   1      31.938  28.736  26.535  1.00  0.00    -0.376 OA
BRANCH  27  28
ATOM     28  C   UNL A   1      31.553  29.959  25.940  1.00  0.00     0.202 C 
BRANCH  28  29
ATOM     29  C   UNL A   1      31.781  31.315  26.632  1.00  0.00     0.261 C 
BRANCH  29  30
ATOM     30  O   UNL A   1      33.072  31.928  26.488  1.00  0.00    -0.460 OA
BRANCH  30  31
ATOM     31  C   UNL A   1      33.469  32.788  27.453  1.00  0.00     0.338 C 
ATOM     32  O   UNL A   1      32.827  33.715  27.921  1.00  0.00    -0.246 OA
BRANCH  31  33
ATOM     33  C   UNL A   1      34.721  32.249  28.044  1.00  0.00     0.060 A 
ATOM     34  C   UNL A   1      34.737  30.922  28.502  1.00  0.00     0.016 A 
ATOM     35  C   UNL A   1      35.881  33.023  28.106  1.00  0.00     0.016 A 
ATOM     36  C   UNL A   1      35.901  30.376  29.048  1.00  0.00     0.010 A 
ATOM     37  C   UNL A   1      37.039  32.485  28.681  1.00  0.00     0.010 A 
ATOM     38  C   UNL A   1      37.046  31.170  29.185  1.00  0.00    -0.014 A 
BRANCH  38  39
ATOM     39  C   UNL A   1      38.165  30.714  30.051  1.00  0.00     0.031 A 
ATOM     40  C   UNL A   1      39.138  29.718  29.477  1.00  0.00     0.074 A 
ATOM     41  C   UNL A   1      38.340  31.174  31.302  1.00  0.00     0.049 A 
ATOM     42  N   UNL A   1      40.145  29.108  30.047  1.00  0.00    -0.248 NA
ATOM     43  C   UNL A   1      38.942  29.361  28.063  1.00  0.00     0.031 C 
ATOM     44  C   UNL A   1      37.511  32.180  31.961  1.00  0.00     0.029 A 
ATOM     45  N   UNL A   1      39.279  30.838  32.249  1.00  0.00    -0.354 N 
ATOM     46  C   UNL A   1      40.696  28.294  29.066  1.00  0.00     0.074 A 
ATOM     47  C   UNL A   1      39.891  28.459  27.876  1.00  0.00     0.031 C 
ATOM     48  C   UNL A   1      37.969  32.369  33.212  1.00  0.00     0.029 A 
ATOM     49  C   UNL A   1      39.098  31.471  33.454  1.00  0.00     0.049 A 
ATOM     50  H   UNL A   1      40.010  30.202  32.079  1.00  0.00     0.167 HD
ATOM     51  C   UNL A   1      41.782  27.488  29.144  1.00  0.00     0.037 A 
ATOM     52  C   UNL A   1      39.753  31.320  34.623  1.00  0.00     0.037 A 
ATOM     53  C   UNL A   1      42.580  27.314  30.328  1.00  0.00     0.049 A 
ATOM     54  C   UNL A   1      40.897  30.336  34.715  1.00  0.00     0.074 A 
ATOM     55  C   UNL A   1      43.696  26.516  30.507  1.00  0.00     0.029 A 
ATOM     56  N   UNL A   1      42.339  27.942  31.541  1.00  0.00    -0.354 N 
ATOM     57  N   UNL A   1      41.421  29.580  33.780  1.00  0.00    -0.248 NA
ATOM     58  C   UNL A   1      41.540  30.188  36.029  1.00  0.00     0.031 C 
ATOM     59  C   UNL A   1      44.097  26.618  31.843  1.00  0.00     0.029 A 
ATOM     60  C   UNL A   1      43.273  27.531  32.479  1.00  0.00     0.049 A 
ATOM     61  H   UNL A   1      41.613  28.585  31.711  1.00  0.00     0.167 HD
ATOM     62  C   UNL A   1      42.476  28.902  34.382  1.00  0.00     0.074 A 
ATOM     63  C   UNL A   1      42.525  29.344  35.758  1.00  0.00     0.031 C 
ATOM     64  C   UNL A   1      43.328  27.993  33.843  1.00  0.00     0.037 A 
BRANCH  51  65
ATOM     65  C   UNL A   1      42.155  26.710  27.914  1.00  0.00     0.064 A 
ATOM     66  C   UNL A   1      43.127  27.173  27.015  1.00  0.00     0.173 A 
ATOM     67  C   UNL A   1      41.552  25.472  27.648  1.00  0.00     0.173 A 
ATOM     68  F   UNL A   1      43.722  28.360  27.215  1.00  0.00    -0.203 F 
ATOM     69  C   UNL A   1      43.463  26.438  25.881  1.00  0.00     0.198 A 
ATOM     70  C   UNL A   1      41.914  24.723  26.531  1.00  0.00     0.198 A 
ATOM     71  F   UNL A   1      40.617  24.981  28.476  1.00  0.00    -0.203 F 
ATOM     72  F   UNL A   1      44.357  26.925  25.009  1.00  0.00    -0.200 F 
ATOM     73  C   UNL A   1      42.863  25.211  25.645  1.00  0.00     0.200 A 
ATOM     74  F   UNL A   1      41.344  23.531  26.313  1.00  0.00    -0.200 F 
ATOM     75  F   UNL A   1      43.193  24.500  24.558  1.00  0.00    -0.200 F 
ENDBRANCH  51  65
BRANCH  52  76
ATOM     76  C   UNL A   1      39.347  32.104  35.823  1.00  0.00     0.064 A 
ATOM     77  C   UNL A   1      39.965  33.323  36.135  1.00  0.00     0.173 A 
ATOM     78  C   UNL A   1      38.375  31.622  36.714  1.00  0.00     0.173 A 
ATOM     79  F   UNL A   1      40.924  33.811  35.334  1.00  0.00    -0.203 F 
ATOM     80  C   UNL A   1      39.649  34.016  37.302  1.00  0.00     0.198 A 
ATOM     81  C   UNL A   1      38.035  32.333  37.864  1.00  0.00     0.198 A 
ATOM     82  F   UNL A   1      37.760  30.456  36.471  1.00  0.00    -0.203 F 
ATOM     83  F   UNL A   1      40.305  35.144  37.607  1.00  0.00    -0.200 F 
ATOM     84  C   UNL A   1      38.681  33.522  38.163  1.00  0.00     0.200 A 
ATOM     85  F   UNL A   1      37.093  31.857  38.689  1.00  0.00    -0.200 F 
ATOM     86  F   UNL A   1      38.381  34.186  39.288  1.00  0.00    -0.200 F 
ENDBRANCH  52  76
BRANCH  64  87
ATOM     87  C   UNL A   1      44.427  27.460  34.719  1.00  0.00     0.064 A 
ATOM     88  C   UNL A   1      45.664  28.111  34.842  1.00  0.00     0.173 A 
ATOM     89  C   UNL A   1      44.223  26.297  35.481  1.00  0.00     0.173 A 
ATOM     90  F   UNL A   1      45.918  29.219  34.129  1.00  0.00    -0.203 F 
ATOM     91  C   UNL A   1      46.665  27.600  35.665  1.00  0.00     0.198 A 
ATOM     92  C   UNL A   1      45.212  25.811  36.331  1.00  0.00     0.198 A 
ATOM     93  F   UNL A   1      43.056  25.640  35.413  1.00  0.00    -0.203 F 
ATOM     94  F   UNL A   1      47.858  28.208  35.721  1.00  0.00    -0.200 F 
ATOM     95  C   UNL A   1      46.435  26.456  36.415  1.00  0.00     0.200 A 
ATOM     96  F   UNL A   1      44.981  24.716  37.069  1.00  0.00    -0.200 F 
ATOM     97  F   UNL A   1      47.398  25.972  37.213  1.00  0.00    -0.200 F 
ENDBRANCH  64  87
ENDBRANCH  38  39
ENDBRANCH  31  33
ENDBRANCH  30  31
ENDBRANCH  29  30
ENDBRANCH  28  29
ENDBRANCH  27  28
ENDBRANCH  26  27
ENDBRANCH   1  26
TORSDOF 20
ENDMDL
MODEL 3
REMARK VINA RESULT:     -10.4      1.734      2.823
REMARK SMILES NC(=O)CC[N@@H+]1[C@@H](C(=O)OCCOCCOCCOC(=O)c2ccc(-c3c4nc(c(-c5c(F)c(F)c(F)c(F)c5F)c5ccc([nH]5)c(-c5c(F)c(F)c(F)c(F)c5F)c5nc(c(-c6c(F)c(F)c(F)c(F)c6F)c6ccc3[nH]6)C=C5)C=C4)cc2)CC[C@@H]2CCCC[C@H]21
REMARK SMILES IDX 14 1 13 2 12 3 11 4 10 5 8 6 9 7 7 8 6 9 92 10 85 12 87 13
REMARK SMILES IDX 91 14 86 15 88 16 90 17 89 18 5 19 4 20 2 21 1 22 3 25 15 26
REMARK SMILES IDX 16 27 17 28 18 29 19 30 20 31 21 32 22 33 23 34 84 35 24 36
REMARK SMILES IDX 83 37 25 38 26 39 27 40 77 41 28 42 82 43 76 44 78 45 29 46
REMARK SMILES IDX 81 47 75 48 74 49 30 51 62 52 42 53 61 54 43 55 46 56 60 57
REMARK SMILES IDX 79 58 44 59 45 60 59 62 80 63 47 64 31 65 32 66 40 67 33 68
REMARK SMILES IDX 34 69 38 70 41 71 35 72 36 73 39 74 37 75 63 76 64 77 72 78
REMARK SMILES IDX 65 79 66 80 70 81 73 82 67 83 68 84 71 85 69 86 48 87 49 88
REMARK SMILES IDX 57 89 50 90 51 91 55 92 58 93 52 94 53 95 56 96 54 97
REMARK H PARENT 6 11 1 23 1 24 78 50 46 61
REMARK Flexibility Score: inf
ROOT
ATOM      1  C   UNL A   1      32.240  29.261  25.006  1.00  0.00     0.188 C 
ENDROOT
BRANCH   1   2
ATOM      2  O   UNL A   1      31.328  28.350  24.418  1.00  0.00    -0.376 OA
BRANCH   2   3
ATOM      3  C   UNL A   1      30.886  27.200  25.126  1.00  0.00     0.202 C 
BRANCH   3   4
ATOM      4  C   UNL A   1      31.553  26.791  26.455  1.00  0.00     0.261 C 
BRANCH   4   5
ATOM      5  O   UNL A   1      32.063  25.441  26.580  1.00  0.00    -0.459 OA
BRANCH   5   6
ATOM      6  C   UNL A   1      33.274  25.221  26.003  1.00  0.00     0.364 C 
ATOM      7  O   UNL A   1      34.074  26.121  25.751  1.00  0.00    -0.245 OA
BRANCH   6   8
ATOM      8  C   UNL A   1      33.601  23.730  25.671  1.00  0.00     0.295 C 
ATOM      9  N   UNL A   1      32.599  23.099  24.739  1.00  0.00    -0.320 N 
ATOM     10  C   UNL A   1      33.068  21.761  24.276  1.00  0.00     0.187 C 
ATOM     11  H   UNL A   1      31.738  22.951  25.265  1.00  0.00     0.349 HD
ATOM     12  C   UNL A   1      33.800  22.810  26.888  1.00  0.00     0.078 C 
ATOM     13  C   UNL A   1      33.364  20.820  25.475  1.00  0.00     0.048 C 
ATOM     14  C   UNL A   1      32.031  21.049  23.375  1.00  0.00     0.065 C 
ATOM     15  C   UNL A   1      34.339  21.455  26.452  1.00  0.00     0.016 C 
ATOM     16  C   UNL A   1      33.898  19.461  25.003  1.00  0.00     0.010 C 
ATOM     17  C   UNL A   1      32.525  19.678  22.912  1.00  0.00     0.006 C 
ATOM     18  C   UNL A   1      32.897  18.778  24.082  1.00  0.00     0.001 C 
BRANCH   9  19
ATOM     19  C   UNL A   1      32.244  23.997  23.615  1.00  0.00     0.273 C 
BRANCH  19  20
ATOM     20  C   UNL A   1      33.431  24.250  22.680  1.00  0.00     0.161 C 
BRANCH  20  21
ATOM     21  C   UNL A   1      33.399  25.572  21.941  1.00  0.00     0.223 C 
ATOM     22  N   UNL A   1      33.472  26.678  22.734  1.00  0.00    -0.369 N 
ATOM     23  H   UNL A   1      33.457  27.576  22.329  1.00  0.00     0.159 HD
ATOM     24  H   UNL A   1      33.541  26.580  23.712  1.00  0.00     0.159 HD
ATOM     25  O   UNL A   1      33.277  25.672  20.726  1.00  0.00    -0.275 OA
ENDBRANCH  20  21
ENDBRANCH  19  20
ENDBRANCH   9  19
ENDBRANCH   6   8
ENDBRANCH   5   6
ENDBRANCH   4   5
ENDBRANCH   3   4
ENDBRANCH   2   3
ENDBRANCH   1   2
BRANCH   1  26
ATOM     26  C   UNL A   1      31.718  30.454  25.805  1.00  0.00     0.188 C 
BRANCH  26  27
ATOM     27  O   UNL A   1      32.209  30.601  27.110  1.00  0.00    -0.376 OA
BRANCH  27  28
ATOM     28  C   UNL A   1      33.052  31.691  27.429  1.00  0.00     0.202 C 
BRANCH  28  29
ATOM     29  C   UNL A   1      32.633  33.151  27.181  1.00  0.00     0.261 C 
BRANCH  29  30
ATOM     30  O   UNL A   1      32.177  33.914  28.310  1.00  0.00    -0.460 OA
BRANCH  30  31
ATOM     31  C   UNL A   1      32.960  34.931  28.737  1.00  0.00     0.338 C 
ATOM     32  O   UNL A   1      32.679  36.119  28.750  1.00  0.00    -0.246 OA
BRANCH  31  33
ATOM     33  C   UNL A   1      34.122  34.333  29.443  1.00  0.00     0.060 A 
ATOM     34  C   UNL A   1      35.394  34.432  28.858  1.00  0.00     0.016 A 
ATOM     35  C   UNL A   1      33.972  33.720  30.689  1.00  0.00     0.016 A 
ATOM     36  C   UNL A   1      36.512  33.895  29.501  1.00  0.00     0.010 A 
ATOM     37  C   UNL A   1      35.088  33.156  31.318  1.00  0.00     0.010 A 
ATOM     38  C   UNL A   1      36.358  33.211  30.713  1.00  0.00    -0.014 A 
BRANCH  38  39
ATOM     39  C   UNL A   1      37.463  32.364  31.232  1.00  0.00     0.031 A 
ATOM     40  C   UNL A   1      37.974  32.646  32.620  1.00  0.00     0.074 A 
ATOM     41  C   UNL A   1      37.996  31.358  30.515  1.00  0.00     0.049 A 
ATOM     42  N   UNL A   1      38.975  32.107  33.269  1.00  0.00    -0.248 NA
ATOM     43  C   UNL A   1      37.255  33.682  33.378  1.00  0.00     0.031 C 
ATOM     44  C   UNL A   1      37.561  30.940  29.186  1.00  0.00     0.029 A 
ATOM     45  N   UNL A   1      39.038  30.511  30.812  1.00  0.00    -0.354 N 
ATOM     46  C   UNL A   1      39.007  32.742  34.504  1.00  0.00     0.074 A 
ATOM     47  C   UNL A   1      37.952  33.730  34.501  1.00  0.00     0.031 C 
ATOM     48  C   UNL A   1      38.339  29.922  28.774  1.00  0.00     0.029 A 
ATOM     49  C   UNL A   1      39.351  29.644  29.793  1.00  0.00     0.049 A 
ATOM     50  H   UNL A   1      39.514  30.525  31.673  1.00  0.00     0.167 HD
ATOM     51  C   UNL A   1      39.834  32.517  35.552  1.00  0.00     0.037 A 
ATOM     52  C   UNL A   1      40.356  28.751  29.689  1.00  0.00     0.037 A 
ATOM     53  C   UNL A   1      40.892  31.541  35.556  1.00  0.00     0.049 A 
ATOM     54  C   UNL A   1      41.332  28.592  30.832  1.00  0.00     0.074 A 
ATOM     55  C   UNL A   1      41.787  31.242  36.568  1.00  0.00     0.029 A 
ATOM     56  N   UNL A   1      41.204  30.712  34.489  1.00  0.00    -0.354 N 
ATOM     57  N   UNL A   1      41.349  29.185  32.002  1.00  0.00    -0.248 NA
ATOM     58  C   UNL A   1      42.430  27.632  30.637  1.00  0.00     0.031 C 
ATOM     59  C   UNL A   1      42.675  30.271  36.094  1.00  0.00     0.029 A 
ATOM     60  C   UNL A   1      42.292  29.917  34.812  1.00  0.00     0.049 A 
ATOM     61  H   UNL A   1      40.723  30.690  33.630  1.00  0.00     0.167 HD
ATOM     62  C   UNL A   1      42.428  28.642  32.692  1.00  0.00     0.074 A 
ATOM     63  C   UNL A   1      43.035  27.664  31.816  1.00  0.00     0.031 C 
ATOM     64  C   UNL A   1      42.877  28.929  33.940  1.00  0.00     0.037 A 
BRANCH  51  65
ATOM     65  C   UNL A   1      39.644  33.363  36.778  1.00  0.00     0.064 A 
ATOM     66  C   UNL A   1      38.761  32.989  37.803  1.00  0.00     0.173 A 
ATOM     67  C   UNL A   1      40.376  34.549  36.943  1.00  0.00     0.173 A 
ATOM     68  F   UNL A   1      38.025  31.873  37.686  1.00  0.00    -0.203 F 
ATOM     69  C   UNL A   1      38.598  33.785  38.934  1.00  0.00     0.198 A 
ATOM     70  C   UNL A   1      40.235  35.324  38.091  1.00  0.00     0.198 A 
ATOM     71  F   UNL A   1      41.235  34.951  35.995  1.00  0.00    -0.203 F 
ATOM     72  F   UNL A   1      37.710  33.434  39.875  1.00  0.00    -0.200 F 
ATOM     73  C   UNL A   1      39.341  34.946  39.081  1.00  0.00     0.200 A 
ATOM     74  F   UNL A   1      40.965  36.438  38.238  1.00  0.00    -0.200 F 
ATOM     75  F   UNL A   1      39.190  35.705  40.174  1.00  0.00    -0.200 F 
ENDBRANCH  51  65
BRANCH  52  76
ATOM     76  C   UNL A   1      40.517  27.937  28.452  1.00  0.00     0.064 A 
ATOM     77  C   UNL A   1      39.957  26.655  28.351  1.00  0.00     0.173 A 
ATOM     78  C   UNL A   1      41.283  28.398  27.370  1.00  0.00     0.173 A 
ATOM     79  F   UNL A   1      39.243  26.155  29.371  1.00  0.00    -0.203 F 
ATOM     80  C   UNL A   1      40.178  25.857  27.231  1.00  0.00     0.198 A 
ATOM     81  C   UNL A   1      41.475  27.611  26.236  1.00  0.00     0.198 A 
ATOM     82  F   UNL A   1      41.852  29.611  27.418  1.00  0.00    -0.203 F 
ATOM     83  F   UNL A   1      39.685  24.611  27.191  1.00  0.00    -0.200 F 
ATOM     84  C   UNL A   1      40.933  26.337  26.172  1.00  0.00     0.200 A 
ATOM     85  F   UNL A   1      42.200  28.082  25.212  1.00  0.00    -0.200 F 
ATOM     86  F   UNL A   1      41.151  25.566  25.098  1.00  0.00    -0.200 F 
ENDBRANCH  52  76
BRANCH  64  87
ATOM     87  C   UNL A   1      44.043  28.136  34.463  1.00  0.00     0.064 A 
ATOM     88  C   UNL A   1      45.368  28.576  34.320  1.00  0.00     0.173 A 
ATOM     89  C   UNL A   1      43.825  26.932  35.153  1.00  0.00     0.173 A 
ATOM     90  F   UNL A   1      45.634  29.713  33.660  1.00  0.00    -0.203 F 
ATOM     91  C   UNL A   1      46.430  27.826  34.819  1.00  0.00     0.198 A 
ATOM     92  C   UNL A   1      44.887  26.204  35.682  1.00  0.00     0.198 A 
ATOM     93  F   UNL A   1      42.580  26.468  35.330  1.00  0.00    -0.203 F 
ATOM     94  F   UNL A   1      47.690  28.238  34.620  1.00  0.00    -0.200 F 
ATOM     95  C   UNL A   1      46.189  26.646  35.506  1.00  0.00     0.200 A 
ATOM     96  F   UNL A   1      44.651  25.074  36.362  1.00  0.00    -0.200 F 
ATOM     97  F   UNL A   1      47.214  25.930  35.991  1.00  0.00    -0.200 F 
ENDBRANCH  64  87
ENDBRANCH  38  39
ENDBRANCH  31  33
ENDBRANCH  30  31
ENDBRANCH  29  30
ENDBRANCH  28  29
ENDBRANCH  27  28
ENDBRANCH  26  27
ENDBRANCH   1  26
TORSDOF 20
ENDMDL
