MODEL 1
REMARK VINA RESULT:     -11.5      0.000      0.000
REMARK SMILES Cc1cc2c(c(C)c1Br)C=C(C(=O)OCCOCCOCCOC(=O)c1ccc(-c3c4nc(c(-c5c(F)c(F)c(F)c(F)c5F)c5ccc([nH]5)c(-c5c(F)c(F)c(F)c(F)c5F)c5nc(c(-c6c(F)c(F)c(F)c(F)c6F)c6ccc3[nH]6)C=C5)C=C4)cc1)[C@@H](C(F)(F)F)O2
REMARK SMILES IDX 19 1 18 2 17 3 16 4 15 5 14 6 12 7 13 8 11 9 1 10 2 11 3 12
REMARK SMILES IDX 8 13 4 14 6 15 9 16 5 17 94 18 7 19 10 20 89 21 90 22 91 23
REMARK SMILES IDX 92 24 93 25 20 26 21 27 22 28 23 29 24 30 25 31 26 32 27 33
REMARK SMILES IDX 88 34 28 35 87 36 29 37 30 38 31 39 81 40 32 41 86 42 80 43
REMARK SMILES IDX 82 44 33 45 85 46 79 47 78 48 34 50 66 51 46 52 65 53 47 54
REMARK SMILES IDX 50 55 64 56 83 57 48 58 49 59 63 61 84 62 51 63 35 64 36 65
REMARK SMILES IDX 44 66 37 67 38 68 42 69 45 70 39 71 40 72 43 73 41 74 67 75
REMARK SMILES IDX 68 76 76 77 69 78 70 79 74 80 77 81 71 82 72 83 75 84 73 85
REMARK SMILES IDX 52 86 53 87 61 88 54 89 55 90 59 91 62 92 56 93 57 94 60 95
REMARK SMILES IDX 58 96
REMARK H PARENT 82 49 50 60
REMARK Flexibility Score: inf
ROOT
ATOM      1  C   UNL A   1      35.269  33.259  28.444  1.00  0.00     0.188 C 
ENDROOT
BRANCH   1   2
ATOM      2  C   UNL A   1      33.833  32.785  28.132  1.00  0.00     0.188 C 
BRANCH   2   3
ATOM      3  O   UNL A   1      33.630  31.508  27.572  1.00  0.00    -0.376 OA
BRANCH   3   4
ATOM      4  C   UNL A   1      34.665  30.541  27.551  1.00  0.00     0.202 C 
BRANCH   4   5
ATOM      5  C   UNL A   1      34.457  29.034  27.320  1.00  0.00     0.261 C 
BRANCH   5   6
ATOM      6  O   UNL A   1      33.555  28.657  26.275  1.00  0.00    -0.460 OA
BRANCH   6   7
ATOM      7  C   UNL A   1      32.339  28.226  26.692  1.00  0.00     0.338 C 
ATOM      8  O   UNL A   1      31.574  28.812  27.439  1.00  0.00    -0.246 OA
BRANCH   7   9
ATOM      9  C   UNL A   1      31.982  26.985  25.976  1.00  0.00     0.087 C 
ATOM     10  C   UNL A   1      32.047  21.499  22.574  1.00  0.00     0.046 C 
ATOM     11  C   UNL A   1      32.192  22.544  23.648  1.00  0.00    -0.033 A 
ATOM     12  C   UNL A   1      31.324  23.643  23.621  1.00  0.00     0.051 A 
ATOM     13  C   UNL A   1      33.191  22.488  24.642  1.00  0.00     0.024 A 
ATOM     14  C   UNL A   1      31.490  24.708  24.503  1.00  0.00     0.128 A 
ATOM     15  C   UNL A   1      33.359  23.551  25.565  1.00  0.00    -0.026 A 
ATOM     16  Br  UNL A   1      34.341  20.958  24.686  1.00  0.00    -0.050 Br
ATOM     17  C   UNL A   1      32.523  24.694  25.446  1.00  0.00     0.021 A 
ATOM     18  O   UNL A   1      30.587  25.722  24.356  1.00  0.00    -0.475 OA
ATOM     19  C   UNL A   1      34.398  23.508  26.665  1.00  0.00     0.046 C 
ATOM     20  C   UNL A   1      32.749  25.913  26.220  1.00  0.00     0.027 C 
ATOM     21  C   UNL A   1      30.819  26.986  25.028  1.00  0.00     0.316 C 
BRANCH  21  22
ATOM     22  C   UNL A   1      30.926  28.090  23.968  1.00  0.00     0.430 C 
ATOM     23  F   UNL A   1      30.573  29.295  24.474  1.00  0.00    -0.167 F 
ATOM     24  F   UNL A   1      32.192  28.220  23.506  1.00  0.00    -0.167 F 
ATOM     25  F   UNL A   1      30.130  27.846  22.902  1.00  0.00    -0.167 F 
ENDBRANCH  21  22
ENDBRANCH   7   9
ENDBRANCH   6   7
ENDBRANCH   5   6
ENDBRANCH   4   5
ENDBRANCH   3   4
ENDBRANCH   2   3
ENDBRANCH   1   2
BRANCH   1  26
ATOM     26  O   UNL A   1      35.549  33.922  29.657  1.00  0.00    -0.376 OA
BRANCH  26  27
ATOM     27  C   UNL A   1      34.508  34.099  30.605  1.00  0.00     0.202 C 
BRANCH  27  28
ATOM     28  C   UNL A   1      34.442  33.332  31.940  1.00  0.00     0.261 C 
BRANCH  28  29
ATOM     29  O   UNL A   1      35.010  32.015  31.950  1.00  0.00    -0.460 OA
BRANCH  29  30
ATOM     30  C   UNL A   1      36.123  31.860  32.718  1.00  0.00     0.338 C 
ATOM     31  O   UNL A   1      36.243  32.084  33.904  1.00  0.00    -0.246 OA
BRANCH  30  32
ATOM     32  C   UNL A   1      37.152  31.154  31.923  1.00  0.00     0.060 A 
ATOM     33  C   UNL A   1      38.313  30.715  32.574  1.00  0.00     0.016 A 
ATOM     34  C   UNL A   1      36.980  30.937  30.556  1.00  0.00     0.016 A 
ATOM     35  C   UNL A   1      39.299  30.036  31.862  1.00  0.00     0.010 A 
ATOM     36  C   UNL A   1      37.989  30.288  29.834  1.00  0.00     0.010 A 
ATOM     37  C   UNL A   1      39.158  29.844  30.482  1.00  0.00    -0.014 A 
BRANCH  37  38
ATOM     38  C   UNL A   1      40.335  29.382  29.705  1.00  0.00     0.031 A 
ATOM     39  C   UNL A   1      41.474  30.344  29.514  1.00  0.00     0.074 A 
ATOM     40  C   UNL A   1      40.435  28.120  29.251  1.00  0.00     0.049 A 
ATOM     41  N   UNL A   1      42.617  30.169  28.904  1.00  0.00    -0.248 NA
ATOM     42  C   UNL A   1      41.303  31.683  30.100  1.00  0.00     0.031 C 
ATOM     43  C   UNL A   1      39.432  27.074  29.429  1.00  0.00     0.029 A 
ATOM     44  N   UNL A   1      41.445  27.503  28.551  1.00  0.00    -0.354 N 
ATOM     45  C   UNL A   1      43.303  31.367  29.045  1.00  0.00     0.074 A 
ATOM     46  C   UNL A   1      42.435  32.276  29.758  1.00  0.00     0.031 C 
ATOM     47  C   UNL A   1      39.877  25.943  28.854  1.00  0.00     0.029 A 
ATOM     48  C   UNL A   1      41.184  26.190  28.243  1.00  0.00     0.049 A 
ATOM     49  H   UNL A   1      42.279  27.960  28.296  1.00  0.00     0.167 HD
ATOM     50  C   UNL A   1      44.554  31.676  28.635  1.00  0.00     0.037 A 
ATOM     51  C   UNL A   1      41.911  25.300  27.536  1.00  0.00     0.037 A 
ATOM     52  C   UNL A   1      45.419  30.776  27.922  1.00  0.00     0.049 A 
ATOM     53  C   UNL A   1      43.254  25.711  26.978  1.00  0.00     0.074 A 
ATOM     54  C   UNL A   1      46.706  31.002  27.467  1.00  0.00     0.029 A 
ATOM     55  N   UNL A   1      45.082  29.483  27.553  1.00  0.00    -0.354 N 
ATOM     56  N   UNL A   1      43.907  26.836  27.138  1.00  0.00    -0.248 NA
ATOM     57  C   UNL A   1      43.957  24.731  26.135  1.00  0.00     0.031 C 
ATOM     58  C   UNL A   1      47.125  29.867  26.771  1.00  0.00     0.029 A 
ATOM     59  C   UNL A   1      46.123  28.913  26.840  1.00  0.00     0.049 A 
ATOM     60  H   UNL A   1      44.231  29.037  27.767  1.00  0.00     0.167 HD
ATOM     61  C   UNL A   1      45.099  26.692  26.439  1.00  0.00     0.074 A 
ATOM     62  C   UNL A   1      45.092  25.363  25.865  1.00  0.00     0.031 C 
ATOM     63  C   UNL A   1      46.108  27.585  26.280  1.00  0.00     0.037 A 
BRANCH  50  64
ATOM     64  C   UNL A   1      45.064  33.053  28.937  1.00  0.00     0.064 A 
ATOM     65  C   UNL A   1      45.842  33.313  30.075  1.00  0.00     0.173 A 
ATOM     66  C   UNL A   1      44.815  34.112  28.052  1.00  0.00     0.173 A 
ATOM     67  F   UNL A   1      46.091  32.337  30.960  1.00  0.00    -0.203 F 
ATOM     68  C   UNL A   1      46.339  34.589  30.323  1.00  0.00     0.198 A 
ATOM     69  C   UNL A   1      45.341  35.379  28.287  1.00  0.00     0.198 A 
ATOM     70  F   UNL A   1      44.079  33.913  26.948  1.00  0.00    -0.203 F 
ATOM     71  F   UNL A   1      47.047  34.824  31.437  1.00  0.00    -0.200 F 
ATOM     72  C   UNL A   1      46.098  35.618  29.425  1.00  0.00     0.200 A 
ATOM     73  F   UNL A   1      45.118  36.368  27.411  1.00  0.00    -0.200 F 
ATOM     74  F   UNL A   1      46.592  36.841  29.658  1.00  0.00    -0.200 F 
ENDBRANCH  50  64
BRANCH  51  75
ATOM     75  C   UNL A   1      41.388  23.926  27.305  1.00  0.00     0.064 A 
ATOM     76  C   UNL A   1      40.250  23.707  26.515  1.00  0.00     0.173 A 
ATOM     77  C   UNL A   1      42.001  22.803  27.884  1.00  0.00     0.173 A 
ATOM     78  F   UNL A   1      39.607  24.750  25.968  1.00  0.00    -0.203 F 
ATOM     79  C   UNL A   1      39.742  22.424  26.319  1.00  0.00     0.198 A 
ATOM     80  C   UNL A   1      41.509  21.518  27.664  1.00  0.00     0.198 A 
ATOM     81  F   UNL A   1      43.084  22.955  28.660  1.00  0.00    -0.203 F 
ATOM     82  F   UNL A   1      38.628  22.251  25.596  1.00  0.00    -0.200 F 
ATOM     83  C   UNL A   1      40.377  21.330  26.887  1.00  0.00     0.200 A 
ATOM     84  F   UNL A   1      42.130  20.463  28.209  1.00  0.00    -0.200 F 
ATOM     85  F   UNL A   1      39.891  20.096  26.693  1.00  0.00    -0.200 F 
ENDBRANCH  51  75
BRANCH  63  86
ATOM     86  C   UNL A   1      47.298  27.180  25.458  1.00  0.00     0.064 A 
ATOM     87  C   UNL A   1      47.421  27.570  24.117  1.00  0.00     0.173 A 
ATOM     88  C   UNL A   1      48.383  26.514  26.050  1.00  0.00     0.173 A 
ATOM     89  F   UNL A   1      46.409  28.201  23.502  1.00  0.00    -0.203 F 
ATOM     90  C   UNL A   1      48.587  27.312  23.400  1.00  0.00     0.198 A 
ATOM     91  C   UNL A   1      49.558  26.285  25.339  1.00  0.00     0.198 A 
ATOM     92  F   UNL A   1      48.321  26.130  27.333  1.00  0.00    -0.203 F 
ATOM     93  F   UNL A   1      48.676  27.681  22.115  1.00  0.00    -0.200 F 
ATOM     94  C   UNL A   1      49.658  26.684  24.016  1.00  0.00     0.200 A 
ATOM     95  F   UNL A   1      50.600  25.697  25.943  1.00  0.00    -0.200 F 
ATOM     96  F   UNL A   1      50.793  26.468  23.334  1.00  0.00    -0.200 F 
ENDBRANCH  63  86
ENDBRANCH  37  38
ENDBRANCH  30  32
ENDBRANCH  29  30
ENDBRANCH  28  29
ENDBRANCH  27  28
ENDBRANCH  26  27
ENDBRANCH   1  26
TORSDOF 18
ENDMDL
MODEL 2
REMARK VINA RESULT:     -11.2      0.541      7.038
REMARK SMILES Cc1cc2c(c(C)c1Br)C=C(C(=O)OCCOCCOCCOC(=O)c1ccc(-c3c4nc(c(-c5c(F)c(F)c(F)c(F)c5F)c5ccc([nH]5)c(-c5c(F)c(F)c(F)c(F)c5F)c5nc(c(-c6c(F)c(F)c(F)c(F)c6F)c6ccc3[nH]6)C=C5)C=C4)cc1)[C@@H](C(F)(F)F)O2
REMARK SMILES IDX 19 1 18 2 17 3 16 4 15 5 14 6 12 7 13 8 11 9 1 10 2 11 3 12
REMARK SMILES IDX 8 13 4 14 6 15 9 16 5 17 94 18 7 19 10 20 89 21 90 22 91 23
REMARK SMILES IDX 92 24 93 25 20 26 21 27 22 28 23 29 24 30 25 31 26 32 27 33
REMARK SMILES IDX 88 34 28 35 87 36 29 37 30 38 31 39 81 40 32 41 86 42 80 43
REMARK SMILES IDX 82 44 33 45 85 46 79 47 78 48 34 50 66 51 46 52 65 53 47 54
REMARK SMILES IDX 50 55 64 56 83 57 48 58 49 59 63 61 84 62 51 63 35 64 36 65
REMARK SMILES IDX 44 66 37 67 38 68 42 69 45 70 39 71 40 72 43 73 41 74 67 75
REMARK SMILES IDX 68 76 76 77 69 78 70 79 74 80 77 81 71 82 72 83 75 84 73 85
REMARK SMILES IDX 52 86 53 87 61 88 54 89 55 90 59 91 62 92 56 93 57 94 60 95
REMARK SMILES IDX 58 96
REMARK H PARENT 82 49 50 60
REMARK Flexibility Score: inf
ROOT
ATOM      1  C   UNL A   1      35.496  33.084  28.446  1.00  0.00     0.188 C 
ENDROOT
BRANCH   1   2
ATOM      2  C   UNL A   1      34.044  32.680  28.110  1.00  0.00     0.188 C 
BRANCH   2   3
ATOM      3  O   UNL A   1      33.790  31.423  27.530  1.00  0.00    -0.376 OA
BRANCH   3   4
ATOM      4  C   UNL A   1      34.758  30.389  27.560  1.00  0.00     0.202 C 
BRANCH   4   5
ATOM      5  C   UNL A   1      34.509  28.936  27.118  1.00  0.00     0.261 C 
BRANCH   5   6
ATOM      6  O   UNL A   1      33.536  28.729  26.090  1.00  0.00    -0.460 OA
BRANCH   6   7
ATOM      7  C   UNL A   1      32.329  28.290  26.521  1.00  0.00     0.338 C 
ATOM      8  O   UNL A   1      31.560  28.878  27.263  1.00  0.00    -0.246 OA
BRANCH   7   9
ATOM      9  C   UNL A   1      31.983  27.033  25.826  1.00  0.00     0.087 C 
ATOM     10  C   UNL A   1      32.098  21.495  22.511  1.00  0.00     0.046 C 
ATOM     11  C   UNL A   1      32.236  22.559  23.568  1.00  0.00    -0.033 A 
ATOM     12  C   UNL A   1      31.354  23.646  23.529  1.00  0.00     0.051 A 
ATOM     13  C   UNL A   1      33.242  22.532  24.556  1.00  0.00     0.024 A 
ATOM     14  C   UNL A   1      31.512  24.727  24.393  1.00  0.00     0.128 A 
ATOM     15  C   UNL A   1      33.401  23.610  25.462  1.00  0.00    -0.026 A 
ATOM     16  Br  UNL A   1      34.411  21.017  24.617  1.00  0.00    -0.050 Br
ATOM     17  C   UNL A   1      32.551  24.741  25.329  1.00  0.00     0.021 A 
ATOM     18  O   UNL A   1      30.595  25.727  24.235  1.00  0.00    -0.475 OA
ATOM     19  C   UNL A   1      34.447  23.598  26.555  1.00  0.00     0.046 C 
ATOM     20  C   UNL A   1      32.765  25.975  26.082  1.00  0.00     0.027 C 
ATOM     21  C   UNL A   1      30.814  27.004  24.886  1.00  0.00     0.316 C 
BRANCH  21  22
ATOM     22  C   UNL A   1      30.901  28.092  23.808  1.00  0.00     0.430 C 
ATOM     23  F   UNL A   1      30.417  29.274  24.260  1.00  0.00    -0.167 F 
ATOM     24  F   UNL A   1      32.180  28.318  23.426  1.00  0.00    -0.167 F 
ATOM     25  F   UNL A   1      30.200  27.763  22.700  1.00  0.00    -0.167 F 
ENDBRANCH  21  22
ENDBRANCH   7   9
ENDBRANCH   6   7
ENDBRANCH   5   6
ENDBRANCH   4   5
ENDBRANCH   3   4
ENDBRANCH   2   3
ENDBRANCH   1   2
BRANCH   1  26
ATOM     26  O   UNL A   1      35.789  33.731  29.664  1.00  0.00    -0.376 OA
BRANCH  26  27
ATOM     27  C   UNL A   1      34.751  33.919  30.615  1.00  0.00     0.202 C 
BRANCH  27  28
ATOM     28  C   UNL A   1      34.581  33.035  31.866  1.00  0.00     0.261 C 
BRANCH  28  29
ATOM     29  O   UNL A   1      35.308  31.798  31.879  1.00  0.00    -0.460 OA
BRANCH  29  30
ATOM     30  C   UNL A   1      36.428  31.782  32.651  1.00  0.00     0.338 C 
ATOM     31  O   UNL A   1      36.520  32.045  33.832  1.00  0.00    -0.246 OA
BRANCH  30  32
ATOM     32  C   UNL A   1      37.530  31.174  31.874  1.00  0.00     0.060 A 
ATOM     33  C   UNL A   1      38.738  30.902  32.530  1.00  0.00     0.016 A 
ATOM     34  C   UNL A   1      37.378  30.883  30.518  1.00  0.00     0.016 A 
ATOM     35  C   UNL A   1      39.795  30.318  31.834  1.00  0.00     0.010 A 
ATOM     36  C   UNL A   1      38.454  30.332  29.812  1.00  0.00     0.010 A 
ATOM     37  C   UNL A   1      39.671  30.057  30.464  1.00  0.00    -0.014 A 
BRANCH  37  38
ATOM     38  C   UNL A   1      40.891  29.708  29.694  1.00  0.00     0.031 A 
ATOM     39  C   UNL A   1      40.980  28.330  29.102  1.00  0.00     0.074 A 
ATOM     40  C   UNL A   1      41.859  30.610  29.452  1.00  0.00     0.049 A 
ATOM     41  N   UNL A   1      41.924  27.800  28.369  1.00  0.00    -0.248 NA
ATOM     42  C   UNL A   1      39.845  27.431  29.367  1.00  0.00     0.031 C 
ATOM     43  C   UNL A   1      41.859  31.996  29.912  1.00  0.00     0.029 A 
ATOM     44  N   UNL A   1      43.031  30.490  28.744  1.00  0.00    -0.354 N 
ATOM     45  C   UNL A   1      41.489  26.515  28.075  1.00  0.00     0.074 A 
ATOM     46  C   UNL A   1      40.221  26.328  28.742  1.00  0.00     0.031 C 
ATOM     47  C   UNL A   1      42.978  32.600  29.473  1.00  0.00     0.029 A 
ATOM     48  C   UNL A   1      43.787  31.637  28.724  1.00  0.00     0.049 A 
ATOM     49  H   UNL A   1      43.302  29.658  28.291  1.00  0.00     0.167 HD
ATOM     50  C   UNL A   1      42.084  25.581  27.298  1.00  0.00     0.037 A 
ATOM     51  C   UNL A   1      44.998  31.872  28.177  1.00  0.00     0.037 A 
ATOM     52  C   UNL A   1      43.347  25.762  26.636  1.00  0.00     0.049 A 
ATOM     53  C   UNL A   1      45.702  30.769  27.422  1.00  0.00     0.074 A 
ATOM     54  C   UNL A   1      44.027  24.870  25.826  1.00  0.00     0.029 A 
ATOM     55  N   UNL A   1      44.122  26.908  26.713  1.00  0.00    -0.354 N 
ATOM     56  N   UNL A   1      45.273  29.566  27.124  1.00  0.00    -0.248 NA
ATOM     57  C   UNL A   1      47.060  31.054  26.931  1.00  0.00     0.031 C 
ATOM     58  C   UNL A   1      45.242  25.453  25.463  1.00  0.00     0.029 A 
ATOM     59  C   UNL A   1      45.294  26.730  25.999  1.00  0.00     0.049 A 
ATOM     60  H   UNL A   1      43.876  27.726  27.203  1.00  0.00     0.167 HD
ATOM     61  C   UNL A   1      46.293  28.962  26.399  1.00  0.00     0.074 A 
ATOM     62  C   UNL A   1      47.358  29.935  26.283  1.00  0.00     0.031 C 
ATOM     63  C   UNL A   1      46.345  27.710  25.882  1.00  0.00     0.037 A 
BRANCH  50  64
ATOM     64  C   UNL A   1      41.382  24.267  27.131  1.00  0.00     0.064 A 
ATOM     65  C   UNL A   1      41.872  23.094  27.724  1.00  0.00     0.173 A 
ATOM     66  C   UNL A   1      40.179  24.191  26.415  1.00  0.00     0.173 A 
ATOM     67  F   UNL A   1      43.028  23.113  28.404  1.00  0.00    -0.203 F 
ATOM     68  C   UNL A   1      41.189  21.888  27.592  1.00  0.00     0.198 A 
ATOM     69  C   UNL A   1      39.483  22.990  26.311  1.00  0.00     0.198 A 
ATOM     70  F   UNL A   1      39.667  25.286  25.832  1.00  0.00    -0.203 F 
ATOM     71  F   UNL A   1      41.696  20.772  28.133  1.00  0.00    -0.200 F 
ATOM     72  C   UNL A   1      39.991  21.839  26.895  1.00  0.00     0.200 A 
ATOM     73  F   UNL A   1      38.318  22.948  25.650  1.00  0.00    -0.200 F 
ATOM     74  F   UNL A   1      39.327  20.681  26.784  1.00  0.00    -0.200 F 
ENDBRANCH  50  64
BRANCH  51  75
ATOM     75  C   UNL A   1      45.635  33.209  28.325  1.00  0.00     0.064 A 
ATOM     76  C   UNL A   1      45.458  34.207  27.356  1.00  0.00     0.173 A 
ATOM     77  C   UNL A   1      46.451  33.512  29.425  1.00  0.00     0.173 A 
ATOM     78  F   UNL A   1      44.716  33.956  26.267  1.00  0.00    -0.203 F 
ATOM     79  C   UNL A   1      46.077  35.450  27.477  1.00  0.00     0.198 A 
ATOM     80  C   UNL A   1      47.046  34.766  29.561  1.00  0.00     0.198 A 
ATOM     81  F   UNL A   1      46.667  32.590  30.376  1.00  0.00    -0.203 F 
ATOM     82  F   UNL A   1      45.925  36.368  26.513  1.00  0.00    -0.200 F 
ATOM     83  C   UNL A   1      46.864  35.731  28.584  1.00  0.00     0.200 A 
ATOM     84  F   UNL A   1      47.799  35.034  30.636  1.00  0.00    -0.200 F 
ATOM     85  F   UNL A   1      47.453  36.929  28.704  1.00  0.00    -0.200 F 
ENDBRANCH  51  75
BRANCH  63  86
ATOM     86  C   UNL A   1      47.583  27.294  25.139  1.00  0.00     0.064 A 
ATOM     87  C   UNL A   1      47.765  27.624  23.789  1.00  0.00     0.173 A 
ATOM     88  C   UNL A   1      48.651  26.683  25.815  1.00  0.00     0.173 A 
ATOM     89  F   UNL A   1      46.772  28.202  23.095  1.00  0.00    -0.203 F 
ATOM     90  C   UNL A   1      48.971  27.360  23.143  1.00  0.00     0.198 A 
ATOM     91  C   UNL A   1      49.864  26.447  25.175  1.00  0.00     0.198 A 
ATOM     92  F   UNL A   1      48.533  26.357  27.111  1.00  0.00    -0.203 F 
ATOM     93  F   UNL A   1      49.116  27.670  21.848  1.00  0.00    -0.200 F 
ATOM     94  C   UNL A   1      50.023  26.787  23.841  1.00  0.00     0.200 A 
ATOM     95  F   UNL A   1      50.888  25.914  25.857  1.00  0.00    -0.200 F 
ATOM     96  F   UNL A   1      51.194  26.565  23.227  1.00  0.00    -0.200 F 
ENDBRANCH  63  86
ENDBRANCH  37  38
ENDBRANCH  30  32
ENDBRANCH  29  30
ENDBRANCH  28  29
ENDBRANCH  27  28
ENDBRANCH  26  27
ENDBRANCH   1  26
TORSDOF 18
ENDMDL
MODEL 3
REMARK VINA RESULT:     -11.2      5.055      7.656
REMARK SMILES Cc1cc2c(c(C)c1Br)C=C(C(=O)OCCOCCOCCOC(=O)c1ccc(-c3c4nc(c(-c5c(F)c(F)c(F)c(F)c5F)c5ccc([nH]5)c(-c5c(F)c(F)c(F)c(F)c5F)c5nc(c(-c6c(F)c(F)c(F)c(F)c6F)c6ccc3[nH]6)C=C5)C=C4)cc1)[C@@H](C(F)(F)F)O2
REMARK SMILES IDX 19 1 18 2 17 3 16 4 15 5 14 6 12 7 13 8 11 9 1 10 2 11 3 12
REMARK SMILES IDX 8 13 4 14 6 15 9 16 5 17 94 18 7 19 10 20 89 21 90 22 91 23
REMARK SMILES IDX 92 24 93 25 20 26 21 27 22 28 23 29 24 30 25 31 26 32 27 33
REMARK SMILES IDX 88 34 28 35 87 36 29 37 30 38 31 39 81 40 32 41 86 42 80 43
REMARK SMILES IDX 82 44 33 45 85 46 79 47 78 48 34 50 66 51 46 52 65 53 47 54
REMARK SMILES IDX 50 55 64 56 83 57 48 58 49 59 63 61 84 62 51 63 35 64 36 65
REMARK SMILES IDX 44 66 37 67 38 68 42 69 45 70 39 71 40 72 43 73 41 74 67 75
REMARK SMILES IDX 68 76 76 77 69 78 70 79 74 80 77 81 71 82 72 83 75 84 73 85
REMARK SMILES IDX 52 86 53 87 61 88 54 89 55 90 59 91 62 92 56 93 57 94 60 95
REMARK SMILES IDX 58 96
REMARK H PARENT 82 49 50 60
REMARK Flexibility Score: inf
ROOT
ATOM      1  C   UNL A   1      35.285  33.331  28.154  1.00  0.00     0.188 C 
ENDROOT
BRANCH   1   2
ATOM      2  C   UNL A   1      34.181  32.262  28.001  1.00  0.00     0.188 C 
BRANCH   2   3
ATOM      3  O   UNL A   1      34.457  31.076  27.293  1.00  0.00    -0.376 OA
BRANCH   3   4
ATOM      4  C   UNL A   1      33.451  30.108  27.055  1.00  0.00     0.202 C 
BRANCH   4   5
ATOM      5  C   UNL A   1      33.671  28.586  27.077  1.00  0.00     0.261 C 
BRANCH   5   6
ATOM      6  O   UNL A   1      32.759  27.788  26.316  1.00  0.00    -0.460 OA
BRANCH   6   7
ATOM      7  C   UNL A   1      33.276  27.241  25.189  1.00  0.00     0.338 C 
ATOM      8  O   UNL A   1      33.812  27.835  24.268  1.00  0.00    -0.246 OA
BRANCH   7   9
ATOM      9  C   UNL A   1      33.248  25.768  25.296  1.00  0.00     0.087 C 
ATOM     10  C   UNL A   1      34.310  19.436  24.627  1.00  0.00     0.046 C 
ATOM     11  C   UNL A   1      34.413  20.898  24.974  1.00  0.00    -0.033 A 
ATOM     12  C   UNL A   1      33.227  21.632  25.094  1.00  0.00     0.051 A 
ATOM     13  C   UNL A   1      35.646  21.563  25.129  1.00  0.00     0.024 A 
ATOM     14  C   UNL A   1      33.255  23.012  25.280  1.00  0.00     0.128 A 
ATOM     15  C   UNL A   1      35.695  22.963  25.346  1.00  0.00    -0.026 A 
ATOM     16  Br  UNL A   1      37.255  20.534  25.001  1.00  0.00    -0.050 Br
ATOM     17  C   UNL A   1      34.475  23.691  25.365  1.00  0.00     0.021 A 
ATOM     18  O   UNL A   1      32.028  23.607  25.362  1.00  0.00    -0.475 OA
ATOM     19  C   UNL A   1      36.999  23.703  25.552  1.00  0.00     0.046 C 
ATOM     20  C   UNL A   1      34.435  25.152  25.385  1.00  0.00     0.027 C 
ATOM     21  C   UNL A   1      31.929  25.051  25.289  1.00  0.00     0.316 C 
BRANCH  21  22
ATOM     22  C   UNL A   1      31.067  25.420  24.075  1.00  0.00     0.430 C 
ATOM     23  F   UNL A   1      30.362  26.555  24.299  1.00  0.00    -0.167 F 
ATOM     24  F   UNL A   1      31.821  25.643  22.973  1.00  0.00    -0.167 F 
ATOM     25  F   UNL A   1      30.181  24.445  23.769  1.00  0.00    -0.167 F 
ENDBRANCH  21  22
ENDBRANCH   7   9
ENDBRANCH   6   7
ENDBRANCH   5   6
ENDBRANCH   4   5
ENDBRANCH   3   4
ENDBRANCH   2   3
ENDBRANCH   1   2
BRANCH   1  26
ATOM     26  O   UNL A   1      35.029  34.514  28.878  1.00  0.00    -0.376 OA
BRANCH  26  27
ATOM     27  C   UNL A   1      34.038  35.415  28.406  1.00  0.00     0.202 C 
BRANCH  27  28
ATOM     28  C   UNL A   1      32.909  35.970  29.295  1.00  0.00     0.261 C 
BRANCH  28  29
ATOM     29  O   UNL A   1      32.519  35.162  30.414  1.00  0.00    -0.460 OA
BRANCH  29  30
ATOM     30  C   UNL A   1      32.813  35.673  31.641  1.00  0.00     0.338 C 
ATOM     31  O   UNL A   1      32.149  36.444  32.301  1.00  0.00    -0.246 OA
BRANCH  30  32
ATOM     32  C   UNL A   1      34.000  34.971  32.174  1.00  0.00     0.060 A 
ATOM     33  C   UNL A   1      35.252  35.588  32.048  1.00  0.00     0.016 A 
ATOM     34  C   UNL A   1      33.884  33.721  32.781  1.00  0.00     0.016 A 
ATOM     35  C   UNL A   1      36.393  34.963  32.549  1.00  0.00     0.010 A 
ATOM     36  C   UNL A   1      35.035  33.077  33.250  1.00  0.00     0.010 A 
ATOM     37  C   UNL A   1      36.296  33.691  33.126  1.00  0.00    -0.014 A 
BRANCH  37  38
ATOM     38  C   UNL A   1      37.546  32.933  33.386  1.00  0.00     0.031 A 
ATOM     39  C   UNL A   1      38.269  33.189  34.679  1.00  0.00     0.074 A 
ATOM     40  C   UNL A   1      37.988  31.983  32.544  1.00  0.00     0.049 A 
ATOM     41  N   UNL A   1      39.357  32.636  35.147  1.00  0.00    -0.248 NA
ATOM     42  C   UNL A   1      37.676  34.202  35.568  1.00  0.00     0.031 C 
ATOM     43  C   UNL A   1      37.342  31.593  31.293  1.00  0.00     0.029 A 
ATOM     44  N   UNL A   1      39.088  31.163  32.625  1.00  0.00    -0.354 N 
ATOM     45  C   UNL A   1      39.570  33.222  36.387  1.00  0.00     0.074 A 
ATOM     46  C   UNL A   1      38.527  34.203  36.582  1.00  0.00     0.031 C 
ATOM     47  C   UNL A   1      38.058  30.607  30.724  1.00  0.00     0.029 A 
ATOM     48  C   UNL A   1      39.228  30.314  31.553  1.00  0.00     0.049 A 
ATOM     49  H   UNL A   1      39.718  31.182  33.382  1.00  0.00     0.167 HD
ATOM     50  C   UNL A   1      40.536  32.951  37.293  1.00  0.00     0.037 A 
ATOM     51  C   UNL A   1      40.196  29.418  31.272  1.00  0.00     0.037 A 
ATOM     52  C   UNL A   1      41.577  31.979  37.102  1.00  0.00     0.049 A 
ATOM     53  C   UNL A   1      41.338  29.225  32.244  1.00  0.00     0.074 A 
ATOM     54  C   UNL A   1      42.600  31.634  37.967  1.00  0.00     0.029 A 
ATOM     55  N   UNL A   1      41.733  31.202  35.964  1.00  0.00    -0.354 N 
ATOM     56  N   UNL A   1      41.518  29.763  33.426  1.00  0.00    -0.248 NA
ATOM     57  C   UNL A   1      42.413  28.306  31.839  1.00  0.00     0.031 C 
ATOM     58  C   UNL A   1      43.410  30.693  37.329  1.00  0.00     0.029 A 
ATOM     59  C   UNL A   1      42.860  30.408  36.089  1.00  0.00     0.049 A 
ATOM     60  H   UNL A   1      41.131  31.212  35.185  1.00  0.00     0.167 HD
ATOM     61  C   UNL A   1      42.708  29.235  33.912  1.00  0.00     0.074 A 
ATOM     62  C   UNL A   1      43.202  28.318  32.906  1.00  0.00     0.031 C 
ATOM     63  C   UNL A   1      43.338  29.492  35.084  1.00  0.00     0.037 A 
BRANCH  50  64
ATOM     64  C   UNL A   1      40.524  33.727  38.575  1.00  0.00     0.064 A 
ATOM     65  C   UNL A   1      41.349  34.846  38.761  1.00  0.00     0.173 A 
ATOM     66  C   UNL A   1      39.640  33.381  39.607  1.00  0.00     0.173 A 
ATOM     67  F   UNL A   1      42.224  35.206  37.811  1.00  0.00    -0.203 F 
ATOM     68  C   UNL A   1      41.300  35.581  39.943  1.00  0.00     0.198 A 
ATOM     69  C   UNL A   1      39.571  34.136  40.774  1.00  0.00     0.198 A 
ATOM     70  F   UNL A   1      38.827  32.321  39.476  1.00  0.00    -0.203 F 
ATOM     71  F   UNL A   1      42.126  36.622  40.116  1.00  0.00    -0.200 F 
ATOM     72  C   UNL A   1      40.405  35.232  40.943  1.00  0.00     0.200 A 
ATOM     73  F   UNL A   1      38.695  33.807  41.733  1.00  0.00    -0.200 F 
ATOM     74  F   UNL A   1      40.348  35.951  42.072  1.00  0.00    -0.200 F 
ENDBRANCH  50  64
BRANCH  51  75
ATOM     75  C   UNL A   1      40.141  28.631  30.010  1.00  0.00     0.064 A 
ATOM     76  C   UNL A   1      39.490  27.390  29.958  1.00  0.00     0.173 A 
ATOM     77  C   UNL A   1      40.754  29.091  28.834  1.00  0.00     0.173 A 
ATOM     78  F   UNL A   1      38.918  26.889  31.063  1.00  0.00    -0.203 F 
ATOM     79  C   UNL A   1      39.460  26.638  28.785  1.00  0.00     0.198 A 
ATOM     80  C   UNL A   1      40.699  28.352  27.654  1.00  0.00     0.198 A 
ATOM     81  F   UNL A   1      41.403  30.265  28.830  1.00  0.00    -0.203 F 
ATOM     82  F   UNL A   1      38.868  25.436  28.777  1.00  0.00    -0.200 F 
ATOM     83  C   UNL A   1      40.058  27.124  27.631  1.00  0.00     0.200 A 
ATOM     84  F   UNL A   1      41.272  28.829  26.540  1.00  0.00    -0.200 F 
ATOM     85  F   UNL A   1      40.024  26.403  26.502  1.00  0.00    -0.200 F 
ENDBRANCH  51  75
BRANCH  63  86
ATOM     86  C   UNL A   1      44.635  28.787  35.368  1.00  0.00     0.064 A 
ATOM     87  C   UNL A   1      44.655  27.513  35.952  1.00  0.00     0.173 A 
ATOM     88  C   UNL A   1      45.854  29.329  34.931  1.00  0.00     0.173 A 
ATOM     89  F   UNL A   1      43.519  26.953  36.394  1.00  0.00    -0.203 F 
ATOM     90  C   UNL A   1      45.848  26.806  36.085  1.00  0.00     0.198 A 
ATOM     91  C   UNL A   1      47.039  28.608  35.039  1.00  0.00     0.198 A 
ATOM     92  F   UNL A   1      45.887  30.541  34.356  1.00  0.00    -0.203 F 
ATOM     93  F   UNL A   1      45.846  25.595  36.659  1.00  0.00    -0.200 F 
ATOM     94  C   UNL A   1      47.035  27.347  35.615  1.00  0.00     0.200 A 
ATOM     95  F   UNL A   1      48.181  29.124  34.564  1.00  0.00    -0.200 F 
ATOM     96  F   UNL A   1      48.176  26.650  35.712  1.00  0.00    -0.200 F 
ENDBRANCH  63  86
ENDBRANCH  37  38
ENDBRANCH  30  32
ENDBRANCH  29  30
ENDBRANCH  28  29
ENDBRANCH  27  28
ENDBRANCH  26  27
ENDBRANCH   1  26
TORSDOF 18
ENDMDL
