MODEL 1
REMARK VINA RESULT:     -10.1      0.000      0.000
REMARK SMILES COC[C@H]1CCN(C(=O)N2CC[C@H](C(=O)OCCOCCOCCOC(=O)c3ccc(-c4c5nc(c(-c6c(F)c(F)c(F)c(F)c6F)c6ccc([nH]6)c(-c6c(F)c(F)c(F)c(F)c6F)c6nc(c(-c7c(F)c(F)c(F)c(F)c7F)c7ccc4[nH]7)C=C6)C=C5)cc3)[C@@H]2C)C1
REMARK SMILES IDX 20 1 19 2 18 3 17 4 16 5 14 6 15 7 13 8 10 9 11 10 91 11
REMARK SMILES IDX 12 12 92 13 8 14 9 15 7 16 4 17 5 18 93 19 6 20 3 21 2 22
REMARK SMILES IDX 1 23 21 24 22 25 23 26 24 27 25 28 26 29 27 30 28 31 29 32
REMARK SMILES IDX 90 33 30 34 89 35 31 36 32 37 33 38 83 39 34 40 88 41 82 42
REMARK SMILES IDX 84 43 35 44 87 45 81 46 80 47 36 49 68 50 48 51 67 52 49 53
REMARK SMILES IDX 52 54 66 55 85 56 50 57 51 58 65 60 86 61 53 62 37 63 38 64
REMARK SMILES IDX 46 65 39 66 40 67 44 68 47 69 41 70 42 71 45 72 43 73 69 74
REMARK SMILES IDX 70 75 78 76 71 77 72 78 76 79 79 80 73 81 74 82 77 83 75 84
REMARK SMILES IDX 54 85 55 86 63 87 56 88 57 89 61 90 64 91 58 92 59 93 62 94
REMARK SMILES IDX 60 95
REMARK H PARENT 84 48 52 59
REMARK Flexibility Score: inf
ROOT
ATOM      1  C   UNL A   1      35.390  31.962  27.997  1.00  0.00     0.188 C 
ENDROOT
BRANCH   1   2
ATOM      2  O   UNL A   1      34.199  31.218  28.212  1.00  0.00    -0.376 OA
BRANCH   2   3
ATOM      3  C   UNL A   1      33.716  30.349  27.197  1.00  0.00     0.202 C 
BRANCH   3   4
ATOM      4  C   UNL A   1      32.200  30.231  26.962  1.00  0.00     0.261 C 
BRANCH   4   5
ATOM      5  O   UNL A   1      31.712  28.951  26.504  1.00  0.00    -0.463 OA
BRANCH   5   6
ATOM      6  C   UNL A   1      31.403  28.859  25.184  1.00  0.00     0.311 C 
ATOM      7  O   UNL A   1      31.254  29.822  24.440  1.00  0.00    -0.252 OA
BRANCH   6   8
ATOM      8  C   UNL A   1      31.187  27.441  24.688  1.00  0.00     0.123 C 
ATOM      9  N   UNL A   1      32.121  25.971  23.089  1.00  0.00    -0.321 N 
ATOM     10  C   UNL A   1      30.690  25.817  23.027  1.00  0.00     0.122 C 
ATOM     11  C   UNL A   1      32.498  26.736  24.281  1.00  0.00     0.098 C 
ATOM     12  C   UNL A   1      30.236  27.171  23.507  1.00  0.00     0.039 C 
ATOM     13  C   UNL A   1      33.680  27.666  24.004  1.00  0.00     0.032 C 
BRANCH   9  14
ATOM     14  C   UNL A   1      33.035  25.236  22.399  1.00  0.00     0.320 C 
ATOM     15  O   UNL A   1      33.278  25.489  21.219  1.00  0.00    -0.248 OA
BRANCH  14  16
ATOM     16  N   UNL A   1      33.518  24.104  23.011  1.00  0.00    -0.324 N 
ATOM     17  C   UNL A   1      33.253  22.308  24.510  1.00  0.00     0.036 C 
ATOM     18  C   UNL A   1      34.711  22.381  24.080  1.00  0.00     0.029 C 
ATOM     19  C   UNL A   1      32.549  23.101  23.413  1.00  0.00     0.127 C 
ATOM     20  C   UNL A   1      34.803  23.845  23.656  1.00  0.00     0.122 C 
BRANCH  17  21
ATOM     21  C   UNL A   1      32.656  20.925  24.681  1.00  0.00     0.165 C 
BRANCH  21  22
ATOM     22  O   UNL A   1      32.516  20.257  23.423  1.00  0.00    -0.384 OA
ATOM     23  C   UNL A   1      32.528  18.837  23.511  1.00  0.00     0.194 C 
ENDBRANCH  21  22
ENDBRANCH  17  21
ENDBRANCH  14  16
ENDBRANCH   9  14
ENDBRANCH   6   8
ENDBRANCH   5   6
ENDBRANCH   4   5
ENDBRANCH   3   4
ENDBRANCH   2   3
ENDBRANCH   1   2
BRANCH   1  24
ATOM     24  C   UNL A   1      35.378  33.483  28.208  1.00  0.00     0.188 C 
BRANCH  24  25
ATOM     25  O   UNL A   1      34.139  34.026  28.582  1.00  0.00    -0.376 OA
BRANCH  25  26
ATOM     26  C   UNL A   1      34.029  35.424  28.744  1.00  0.00     0.202 C 
BRANCH  26  27
ATOM     27  C   UNL A   1      32.860  36.040  29.534  1.00  0.00     0.261 C 
BRANCH  27  28
ATOM     28  O   UNL A   1      33.121  36.492  30.874  1.00  0.00    -0.460 OA
BRANCH  28  29
ATOM     29  C   UNL A   1      32.695  35.717  31.896  1.00  0.00     0.338 C 
ATOM     30  O   UNL A   1      31.536  35.481  32.206  1.00  0.00    -0.246 OA
BRANCH  29  31
ATOM     31  C   UNL A   1      33.869  34.999  32.448  1.00  0.00     0.060 A 
ATOM     32  C   UNL A   1      35.151  35.541  32.273  1.00  0.00     0.016 A 
ATOM     33  C   UNL A   1      33.707  33.802  33.150  1.00  0.00     0.016 A 
ATOM     34  C   UNL A   1      36.276  34.875  32.772  1.00  0.00     0.010 A 
ATOM     35  C   UNL A   1      34.835  33.124  33.627  1.00  0.00     0.010 A 
ATOM     36  C   UNL A   1      36.128  33.640  33.415  1.00  0.00    -0.014 A 
BRANCH  36  37
ATOM     37  C   UNL A   1      37.315  32.791  33.696  1.00  0.00     0.031 A 
ATOM     38  C   UNL A   1      38.084  33.040  34.967  1.00  0.00     0.074 A 
ATOM     39  C   UNL A   1      37.718  31.827  32.849  1.00  0.00     0.049 A 
ATOM     40  N   UNL A   1      39.209  32.513  35.381  1.00  0.00    -0.248 NA
ATOM     41  C   UNL A   1      37.503  34.023  35.897  1.00  0.00     0.031 C 
ATOM     42  C   UNL A   1      37.042  31.451  31.611  1.00  0.00     0.029 A 
ATOM     43  N   UNL A   1      38.815  30.998  32.899  1.00  0.00    -0.354 N 
ATOM     44  C   UNL A   1      39.479  33.115  36.603  1.00  0.00     0.074 A 
ATOM     45  C   UNL A   1      38.413  34.058  36.860  1.00  0.00     0.031 C 
ATOM     46  C   UNL A   1      37.753  30.483  31.002  1.00  0.00     0.029 A 
ATOM     47  C   UNL A   1      38.954  30.200  31.788  1.00  0.00     0.049 A 
ATOM     48  H   UNL A   1      39.442  30.978  33.658  1.00  0.00     0.167 HD
ATOM     49  C   UNL A   1      40.521  32.897  37.440  1.00  0.00     0.037 A 
ATOM     50  C   UNL A   1      39.953  29.366  31.434  1.00  0.00     0.037 A 
ATOM     51  C   UNL A   1      41.577  31.951  37.191  1.00  0.00     0.049 A 
ATOM     52  C   UNL A   1      41.141  29.196  32.352  1.00  0.00     0.074 A 
ATOM     53  C   UNL A   1      42.660  31.639  37.995  1.00  0.00     0.029 A 
ATOM     54  N   UNL A   1      41.688  31.173  36.050  1.00  0.00    -0.354 N 
ATOM     55  N   UNL A   1      41.374  29.744  33.521  1.00  0.00    -0.248 NA
ATOM     56  C   UNL A   1      42.206  28.286  31.901  1.00  0.00     0.031 C 
ATOM     57  C   UNL A   1      43.461  30.721  37.313  1.00  0.00     0.029 A 
ATOM     58  C   UNL A   1      42.840  30.405  36.116  1.00  0.00     0.049 A 
ATOM     59  H   UNL A   1      41.046  31.167  35.303  1.00  0.00     0.167 HD
ATOM     60  C   UNL A   1      42.585  29.217  33.958  1.00  0.00     0.074 A 
ATOM     61  C   UNL A   1      43.033  28.297  32.936  1.00  0.00     0.031 C 
ATOM     62  C   UNL A   1      43.265  29.474  35.103  1.00  0.00     0.037 A 
BRANCH  49  63
ATOM     63  C   UNL A   1      40.596  33.714  38.697  1.00  0.00     0.064 A 
ATOM     64  C   UNL A   1      39.888  33.360  39.853  1.00  0.00     0.173 A 
ATOM     65  C   UNL A   1      41.447  34.828  38.763  1.00  0.00     0.173 A 
ATOM     66  F   UNL A   1      39.049  32.313  39.839  1.00  0.00    -0.203 F 
ATOM     67  C   UNL A   1      40.018  34.100  41.027  1.00  0.00     0.198 A 
ATOM     68  C   UNL A   1      41.600  35.546  39.944  1.00  0.00     0.198 A 
ATOM     69  F   UNL A   1      42.150  35.206  37.684  1.00  0.00    -0.203 F 
ATOM     70  F   UNL A   1      39.304  33.767  42.110  1.00  0.00    -0.200 F 
ATOM     71  C   UNL A   1      40.882  35.185  41.074  1.00  0.00     0.200 A 
ATOM     72  F   UNL A   1      42.446  36.584  39.992  1.00  0.00    -0.200 F 
ATOM     73  F   UNL A   1      41.021  35.884  42.209  1.00  0.00    -0.200 F 
ENDBRANCH  49  63
BRANCH  50  74
ATOM     74  C   UNL A   1      39.909  28.646  30.130  1.00  0.00     0.064 A 
ATOM     75  C   UNL A   1      39.338  27.370  30.024  1.00  0.00     0.173 A 
ATOM     76  C   UNL A   1      40.497  29.192  28.979  1.00  0.00     0.173 A 
ATOM     77  F   UNL A   1      38.791  26.789  31.102  1.00  0.00    -0.203 F 
ATOM     78  C   UNL A   1      39.389  26.653  28.828  1.00  0.00     0.198 A 
ATOM     79  C   UNL A   1      40.514  28.490  27.774  1.00  0.00     0.198 A 
ATOM     80  F   UNL A   1      41.064  30.406  29.024  1.00  0.00    -0.203 F 
ATOM     81  F   UNL A   1      38.903  25.405  28.777  1.00  0.00    -0.200 F 
ATOM     82  C   UNL A   1      39.973  27.215  27.704  1.00  0.00     0.200 A 
ATOM     83  F   UNL A   1      41.071  29.041  26.688  1.00  0.00    -0.200 F 
ATOM     84  F   UNL A   1      40.029  26.522  26.558  1.00  0.00    -0.200 F 
ENDBRANCH  50  74
BRANCH  62  85
ATOM     85  C   UNL A   1      44.535  28.705  35.350  1.00  0.00     0.064 A 
ATOM     86  C   UNL A   1      44.535  27.456  35.986  1.00  0.00     0.173 A 
ATOM     87  C   UNL A   1      45.765  29.208  34.894  1.00  0.00     0.173 A 
ATOM     88  F   UNL A   1      43.391  26.933  36.451  1.00  0.00    -0.203 F 
ATOM     89  C   UNL A   1      45.723  26.754  36.187  1.00  0.00     0.198 A 
ATOM     90  C   UNL A   1      46.943  28.487  35.063  1.00  0.00     0.198 A 
ATOM     91  F   UNL A   1      45.821  30.393  34.267  1.00  0.00    -0.203 F 
ATOM     92  F   UNL A   1      45.706  25.587  36.845  1.00  0.00    -0.200 F 
ATOM     93  C   UNL A   1      46.923  27.265  35.717  1.00  0.00     0.200 A 
ATOM     94  F   UNL A   1      48.098  28.974  34.590  1.00  0.00    -0.200 F 
ATOM     95  F   UNL A   1      48.062  26.583  35.900  1.00  0.00    -0.200 F 
ENDBRANCH  62  85
ENDBRANCH  36  37
ENDBRANCH  29  31
ENDBRANCH  28  29
ENDBRANCH  27  28
ENDBRANCH  26  27
ENDBRANCH  25  26
ENDBRANCH  24  25
ENDBRANCH   1  24
TORSDOF 21
ENDMDL
MODEL 2
REMARK VINA RESULT:     -10.1      4.044      9.394
REMARK SMILES COC[C@H]1CCN(C(=O)N2CC[C@H](C(=O)OCCOCCOCCOC(=O)c3ccc(-c4c5nc(c(-c6c(F)c(F)c(F)c(F)c6F)c6ccc([nH]6)c(-c6c(F)c(F)c(F)c(F)c6F)c6nc(c(-c7c(F)c(F)c(F)c(F)c7F)c7ccc4[nH]7)C=C6)C=C5)cc3)[C@@H]2C)C1
REMARK SMILES IDX 20 1 19 2 18 3 17 4 16 5 14 6 15 7 13 8 10 9 11 10 91 11
REMARK SMILES IDX 12 12 92 13 8 14 9 15 7 16 4 17 5 18 93 19 6 20 3 21 2 22
REMARK SMILES IDX 1 23 21 24 22 25 23 26 24 27 25 28 26 29 27 30 28 31 29 32
REMARK SMILES IDX 90 33 30 34 89 35 31 36 32 37 33 38 83 39 34 40 88 41 82 42
REMARK SMILES IDX 84 43 35 44 87 45 81 46 80 47 36 49 68 50 48 51 67 52 49 53
REMARK SMILES IDX 52 54 66 55 85 56 50 57 51 58 65 60 86 61 53 62 37 63 38 64
REMARK SMILES IDX 46 65 39 66 40 67 44 68 47 69 41 70 42 71 45 72 43 73 69 74
REMARK SMILES IDX 70 75 78 76 71 77 72 78 76 79 79 80 73 81 74 82 77 83 75 84
REMARK SMILES IDX 54 85 55 86 63 87 56 88 57 89 61 90 64 91 58 92 59 93 62 94
REMARK SMILES IDX 60 95
REMARK H PARENT 84 48 52 59
REMARK Flexibility Score: inf
ROOT
ATOM      1  C   UNL A   1      42.332  19.891  25.565  1.00  0.00     0.188 C 
ENDROOT
BRANCH   1   2
ATOM      2  O   UNL A   1      41.406  20.135  26.614  1.00  0.00    -0.376 OA
BRANCH   2   3
ATOM      3  C   UNL A   1      40.040  20.380  26.308  1.00  0.00     0.202 C 
BRANCH   3   4
ATOM      4  C   UNL A   1      39.524  21.828  26.267  1.00  0.00     0.261 C 
BRANCH   4   5
ATOM      5  O   UNL A   1      38.305  22.063  25.530  1.00  0.00    -0.463 OA
BRANCH   5   6
ATOM      6  C   UNL A   1      37.682  23.249  25.751  1.00  0.00     0.311 C 
ATOM      7  O   UNL A   1      38.007  24.049  26.622  1.00  0.00    -0.252 OA
BRANCH   6   8
ATOM      8  C   UNL A   1      36.478  23.503  24.861  1.00  0.00     0.123 C 
ATOM      9  N   UNL A   1      34.377  22.516  24.415  1.00  0.00    -0.321 N 
ATOM     10  C   UNL A   1      34.933  22.927  23.152  1.00  0.00     0.122 C 
ATOM     11  C   UNL A   1      35.144  23.098  25.521  1.00  0.00     0.098 C 
ATOM     12  C   UNL A   1      36.407  22.874  23.458  1.00  0.00     0.039 C 
ATOM     13  C   UNL A   1      35.265  22.127  26.697  1.00  0.00     0.032 C 
BRANCH   9  14
ATOM     14  C   UNL A   1      33.136  21.992  24.610  1.00  0.00     0.320 C 
ATOM     15  O   UNL A   1      32.286  22.616  25.245  1.00  0.00    -0.248 OA
BRANCH  14  16
ATOM     16  N   UNL A   1      32.947  20.682  24.241  1.00  0.00    -0.324 N 
ATOM     17  C   UNL A   1      33.725  18.468  24.051  1.00  0.00     0.036 C 
ATOM     18  C   UNL A   1      32.428  18.604  23.267  1.00  0.00     0.029 C 
ATOM     19  C   UNL A   1      33.665  19.669  24.991  1.00  0.00     0.127 C 
ATOM     20  C   UNL A   1      32.417  20.108  23.005  1.00  0.00     0.122 C 
BRANCH  17  21
ATOM     21  C   UNL A   1      33.938  17.170  24.805  1.00  0.00     0.165 C 
BRANCH  21  22
ATOM     22  O   UNL A   1      32.882  16.238  24.551  1.00  0.00    -0.384 OA
ATOM     23  C   UNL A   1      32.914  15.079  25.376  1.00  0.00     0.194 C 
ENDBRANCH  21  22
ENDBRANCH  17  21
ENDBRANCH  14  16
ENDBRANCH   9  14
ENDBRANCH   6   8
ENDBRANCH   5   6
ENDBRANCH   4   5
ENDBRANCH   3   4
ENDBRANCH   2   3
ENDBRANCH   1   2
BRANCH   1  24
ATOM     24  C   UNL A   1      43.434  18.838  25.760  1.00  0.00     0.188 C 
BRANCH  24  25
ATOM     25  O   UNL A   1      44.721  19.239  25.369  1.00  0.00    -0.376 OA
BRANCH  25  26
ATOM     26  C   UNL A   1      44.853  20.295  24.442  1.00  0.00     0.202 C 
BRANCH  26  27
ATOM     27  C   UNL A   1      45.330  21.688  24.890  1.00  0.00     0.261 C 
BRANCH  27  28
ATOM     28  O   UNL A   1      44.554  22.374  25.889  1.00  0.00    -0.460 OA
BRANCH  28  29
ATOM     29  C   UNL A   1      43.694  23.331  25.475  1.00  0.00     0.338 C 
ATOM     30  O   UNL A   1      43.064  23.348  24.427  1.00  0.00    -0.246 OA
BRANCH  29  31
ATOM     31  C   UNL A   1      43.452  24.253  26.610  1.00  0.00     0.060 A 
ATOM     32  C   UNL A   1      42.641  23.834  27.676  1.00  0.00     0.016 A 
ATOM     33  C   UNL A   1      44.034  25.522  26.633  1.00  0.00     0.016 A 
ATOM     34  C   UNL A   1      42.386  24.691  28.751  1.00  0.00     0.010 A 
ATOM     35  C   UNL A   1      43.759  26.389  27.698  1.00  0.00     0.010 A 
ATOM     36  C   UNL A   1      42.910  25.991  28.748  1.00  0.00    -0.014 A 
BRANCH  36  37
ATOM     37  C   UNL A   1      42.425  26.999  29.726  1.00  0.00     0.031 A 
ATOM     38  C   UNL A   1      43.110  27.079  31.065  1.00  0.00     0.074 A 
ATOM     39  C   UNL A   1      41.398  27.823  29.451  1.00  0.00     0.049 A 
ATOM     40  N   UNL A   1      42.804  27.791  32.120  1.00  0.00    -0.248 NA
ATOM     41  C   UNL A   1      44.304  26.233  31.237  1.00  0.00     0.031 C 
ATOM     42  C   UNL A   1      40.677  27.883  28.182  1.00  0.00     0.029 A 
ATOM     43  N   UNL A   1      40.769  28.758  30.239  1.00  0.00    -0.354 N 
ATOM     44  C   UNL A   1      43.751  27.465  33.082  1.00  0.00     0.074 A 
ATOM     45  C   UNL A   1      44.632  26.479  32.497  1.00  0.00     0.031 C 
ATOM     46  C   UNL A   1      39.686  28.788  28.286  1.00  0.00     0.029 A 
ATOM     47  C   UNL A   1      39.678  29.341  29.640  1.00  0.00     0.049 A 
ATOM     48  H   UNL A   1      41.071  28.988  31.149  1.00  0.00     0.167 HD
ATOM     49  C   UNL A   1      43.876  27.947  34.341  1.00  0.00     0.037 A 
ATOM     50  C   UNL A   1      38.761  30.195  30.141  1.00  0.00     0.037 A 
ATOM     51  C   UNL A   1      43.006  28.936  34.922  1.00  0.00     0.049 A 
ATOM     52  C   UNL A   1      38.883  30.662  31.573  1.00  0.00     0.074 A 
ATOM     53  C   UNL A   1      43.074  29.508  36.181  1.00  0.00     0.029 A 
ATOM     54  N   UNL A   1      41.906  29.491  34.287  1.00  0.00    -0.354 N 
ATOM     55  N   UNL A   1      39.799  30.373  32.467  1.00  0.00    -0.248 NA
ATOM     56  C   UNL A   1      37.842  31.578  32.066  1.00  0.00     0.031 C 
ATOM     57  C   UNL A   1      41.977  30.361  36.332  1.00  0.00     0.029 A 
ATOM     58  C   UNL A   1      41.269  30.376  35.142  1.00  0.00     0.049 A 
ATOM     59  H   UNL A   1      41.620  29.287  33.367  1.00  0.00     0.167 HD
ATOM     60  C   UNL A   1      39.467  31.099  33.606  1.00  0.00     0.074 A 
ATOM     61  C   UNL A   1      38.273  31.852  33.288  1.00  0.00     0.031 C 
ATOM     62  C   UNL A   1      40.093  31.138  34.807  1.00  0.00     0.037 A 
BRANCH  49  63
ATOM     63  C   UNL A   1      44.978  27.396  35.198  1.00  0.00     0.064 A 
ATOM     64  C   UNL A   1      46.244  27.995  35.253  1.00  0.00     0.173 A 
ATOM     65  C   UNL A   1      44.738  26.292  36.031  1.00  0.00     0.173 A 
ATOM     66  F   UNL A   1      46.531  29.043  34.467  1.00  0.00    -0.203 F 
ATOM     67  C   UNL A   1      47.234  27.500  36.100  1.00  0.00     0.198 A 
ATOM     68  C   UNL A   1      45.717  25.820  36.899  1.00  0.00     0.198 A 
ATOM     69  F   UNL A   1      43.541  25.684  36.018  1.00  0.00    -0.203 F 
ATOM     70  F   UNL A   1      48.449  28.066  36.111  1.00  0.00    -0.200 F 
ATOM     71  C   UNL A   1      46.966  26.421  36.929  1.00  0.00     0.200 A 
ATOM     72  F   UNL A   1      45.450  24.786  37.710  1.00  0.00    -0.200 F 
ATOM     73  F   UNL A   1      47.912  25.959  37.758  1.00  0.00    -0.200 F 
ENDBRANCH  49  63
BRANCH  50  74
ATOM     74  C   UNL A   1      37.613  30.646  29.304  1.00  0.00     0.064 A 
ATOM     75  C   UNL A   1      37.526  31.967  28.842  1.00  0.00     0.173 A 
ATOM     76  C   UNL A   1      36.547  29.783  29.008  1.00  0.00     0.173 A 
ATOM     77  F   UNL A   1      38.503  32.841  29.125  1.00  0.00    -0.203 F 
ATOM     78  C   UNL A   1      36.403  32.416  28.147  1.00  0.00     0.198 A 
ATOM     79  C   UNL A   1      35.443  30.223  28.281  1.00  0.00     0.198 A 
ATOM     80  F   UNL A   1      36.574  28.511  29.431  1.00  0.00    -0.203 F 
ATOM     81  F   UNL A   1      36.315  33.703  27.784  1.00  0.00    -0.200 F 
ATOM     82  C   UNL A   1      35.365  31.544  27.864  1.00  0.00     0.200 A 
ATOM     83  F   UNL A   1      34.445  29.374  28.001  1.00  0.00    -0.200 F 
ATOM     84  F   UNL A   1      34.282  31.978  27.204  1.00  0.00    -0.200 F 
ENDBRANCH  50  74
BRANCH  62  85
ATOM     85  C   UNL A   1      39.545  32.071  35.853  1.00  0.00     0.064 A 
ATOM     86  C   UNL A   1      38.524  31.682  36.733  1.00  0.00     0.173 A 
ATOM     87  C   UNL A   1      40.088  33.357  36.008  1.00  0.00     0.173 A 
ATOM     88  F   UNL A   1      37.962  30.470  36.624  1.00  0.00    -0.203 F 
ATOM     89  C   UNL A   1      38.045  32.558  37.706  1.00  0.00     0.198 A 
ATOM     90  C   UNL A   1      39.633  34.214  37.005  1.00  0.00     0.198 A 
ATOM     91  F   UNL A   1      41.076  33.775  35.202  1.00  0.00    -0.203 F 
ATOM     92  F   UNL A   1      37.033  32.185  38.500  1.00  0.00    -0.200 F 
ATOM     93  C   UNL A   1      38.606  33.818  37.847  1.00  0.00     0.200 A 
ATOM     94  F   UNL A   1      40.191  35.423  37.152  1.00  0.00    -0.200 F 
ATOM     95  F   UNL A   1      38.153  34.654  38.792  1.00  0.00    -0.200 F 
ENDBRANCH  62  85
ENDBRANCH  36  37
ENDBRANCH  29  31
ENDBRANCH  28  29
ENDBRANCH  27  28
ENDBRANCH  26  27
ENDBRANCH  25  26
ENDBRANCH  24  25
ENDBRANCH   1  24
TORSDOF 21
ENDMDL
MODEL 3
REMARK VINA RESULT:     -10.0      4.240      6.732
REMARK SMILES COC[C@H]1CCN(C(=O)N2CC[C@H](C(=O)OCCOCCOCCOC(=O)c3ccc(-c4c5nc(c(-c6c(F)c(F)c(F)c(F)c6F)c6ccc([nH]6)c(-c6c(F)c(F)c(F)c(F)c6F)c6nc(c(-c7c(F)c(F)c(F)c(F)c7F)c7ccc4[nH]7)C=C6)C=C5)cc3)[C@@H]2C)C1
REMARK SMILES IDX 20 1 19 2 18 3 17 4 16 5 14 6 15 7 13 8 10 9 11 10 91 11
REMARK SMILES IDX 12 12 92 13 8 14 9 15 7 16 4 17 5 18 93 19 6 20 3 21 2 22
REMARK SMILES IDX 1 23 21 24 22 25 23 26 24 27 25 28 26 29 27 30 28 31 29 32
REMARK SMILES IDX 90 33 30 34 89 35 31 36 32 37 33 38 83 39 34 40 88 41 82 42
REMARK SMILES IDX 84 43 35 44 87 45 81 46 80 47 36 49 68 50 48 51 67 52 49 53
REMARK SMILES IDX 52 54 66 55 85 56 50 57 51 58 65 60 86 61 53 62 37 63 38 64
REMARK SMILES IDX 46 65 39 66 40 67 44 68 47 69 41 70 42 71 45 72 43 73 69 74
REMARK SMILES IDX 70 75 78 76 71 77 72 78 76 79 79 80 73 81 74 82 77 83 75 84
REMARK SMILES IDX 54 85 55 86 63 87 56 88 57 89 61 90 64 91 58 92 59 93 62 94
REMARK SMILES IDX 60 95
REMARK H PARENT 84 48 52 59
REMARK Flexibility Score: inf
ROOT
ATOM      1  C   UNL A   1      31.610  24.488  26.407  1.00  0.00     0.188 C 
ENDROOT
BRANCH   1   2
ATOM      2  O   UNL A   1      31.797  23.775  27.622  1.00  0.00    -0.376 OA
BRANCH   2   3
ATOM      3  C   UNL A   1      32.444  22.511  27.606  1.00  0.00     0.202 C 
BRANCH   3   4
ATOM      4  C   UNL A   1      33.977  22.448  27.492  1.00  0.00     0.261 C 
BRANCH   4   5
ATOM      5  O   UNL A   1      34.547  22.798  26.212  1.00  0.00    -0.463 OA
BRANCH   5   6
ATOM      6  C   UNL A   1      34.780  21.772  25.352  1.00  0.00     0.311 C 
ATOM      7  O   UNL A   1      35.617  20.895  25.533  1.00  0.00    -0.252 OA
BRANCH   6   8
ATOM      8  C   UNL A   1      33.952  21.818  24.080  1.00  0.00     0.123 C 
ATOM      9  N   UNL A   1      33.054  23.445  22.619  1.00  0.00    -0.321 N 
ATOM     10  C   UNL A   1      32.049  22.429  22.797  1.00  0.00     0.122 C 
ATOM     11  C   UNL A   1      34.341  22.985  23.148  1.00  0.00     0.098 C 
ATOM     12  C   UNL A   1      32.417  21.899  24.159  1.00  0.00     0.039 C 
ATOM     13  C   UNL A   1      35.117  24.122  23.815  1.00  0.00     0.032 C 
BRANCH   9  14
ATOM     14  C   UNL A   1      32.973  24.511  21.777  1.00  0.00     0.320 C 
ATOM     15  O   UNL A   1      33.264  24.392  20.587  1.00  0.00    -0.248 OA
BRANCH  14  16
ATOM     16  N   UNL A   1      32.742  25.741  22.346  1.00  0.00    -0.324 N 
ATOM     17  C   UNL A   1      31.331  27.577  22.767  1.00  0.00     0.036 C 
ATOM     18  C   UNL A   1      32.746  27.934  23.197  1.00  0.00     0.029 C 
ATOM     19  C   UNL A   1      31.377  26.052  22.725  1.00  0.00     0.127 C 
ATOM     20  C   UNL A   1      33.551  26.958  22.344  1.00  0.00     0.122 C 
BRANCH  17  21
ATOM     21  C   UNL A   1      30.199  28.086  23.638  1.00  0.00     0.165 C 
BRANCH  21  22
ATOM     22  O   UNL A   1      29.915  29.463  23.375  1.00  0.00    -0.384 OA
ATOM     23  C   UNL A   1      29.417  29.717  22.066  1.00  0.00     0.194 C 
ENDBRANCH  21  22
ENDBRANCH  17  21
ENDBRANCH  14  16
ENDBRANCH   9  14
ENDBRANCH   6   8
ENDBRANCH   5   6
ENDBRANCH   4   5
ENDBRANCH   3   4
ENDBRANCH   2   3
ENDBRANCH   1   2
BRANCH   1  24
ATOM     24  C   UNL A   1      32.010  25.969  26.332  1.00  0.00     0.188 C 
BRANCH  24  25
ATOM     25  O   UNL A   1      31.111  26.863  26.935  1.00  0.00    -0.376 OA
BRANCH  25  26
ATOM     26  C   UNL A   1      31.572  28.144  27.308  1.00  0.00     0.202 C 
BRANCH  26  27
ATOM     27  C   UNL A   1      32.891  28.706  26.748  1.00  0.00     0.261 C 
BRANCH  27  28
ATOM     28  O   UNL A   1      34.021  28.776  27.636  1.00  0.00    -0.460 OA
BRANCH  28  29
ATOM     29  C   UNL A   1      34.578  29.987  27.855  1.00  0.00     0.338 C 
ATOM     30  O   UNL A   1      34.002  31.065  27.890  1.00  0.00    -0.246 OA
BRANCH  29  31
ATOM     31  C   UNL A   1      35.981  29.775  28.286  1.00  0.00     0.060 A 
ATOM     32  C   UNL A   1      37.024  30.036  27.384  1.00  0.00     0.016 A 
ATOM     33  C   UNL A   1      36.271  29.336  29.579  1.00  0.00     0.016 A 
ATOM     34  C   UNL A   1      38.355  29.831  27.762  1.00  0.00     0.010 A 
ATOM     35  C   UNL A   1      37.601  29.107  29.949  1.00  0.00     0.010 A 
ATOM     36  C   UNL A   1      38.649  29.324  29.034  1.00  0.00    -0.014 A 
BRANCH  36  37
ATOM     37  C   UNL A   1      40.017  28.836  29.351  1.00  0.00     0.031 A 
ATOM     38  C   UNL A   1      40.927  29.734  30.148  1.00  0.00     0.074 A 
ATOM     39  C   UNL A   1      40.457  27.633  28.941  1.00  0.00     0.049 A 
ATOM     40  N   UNL A   1      42.191  29.584  30.454  1.00  0.00    -0.248 NA
ATOM     41  C   UNL A   1      40.326  30.975  30.666  1.00  0.00     0.031 C 
ATOM     42  C   UNL A   1      39.669  26.648  28.205  1.00  0.00     0.029 A 
ATOM     43  N   UNL A   1      41.693  27.044  29.072  1.00  0.00    -0.354 N 
ATOM     44  C   UNL A   1      42.539  30.717  31.179  1.00  0.00     0.074 A 
ATOM     45  C   UNL A   1      41.362  31.554  31.254  1.00  0.00     0.031 C 
ATOM     46  C   UNL A   1      40.448  25.587  27.926  1.00  0.00     0.029 A 
ATOM     47  C   UNL A   1      41.799  25.835  28.428  1.00  0.00     0.049 A 
ATOM     48  H   UNL A   1      42.433  27.450  29.580  1.00  0.00     0.167 HD
ATOM     49  C   UNL A   1      43.733  31.029  31.737  1.00  0.00     0.037 A 
ATOM     50  C   UNL A   1      42.872  25.040  28.237  1.00  0.00     0.037 A 
ATOM     51  C   UNL A   1      44.902  30.192  31.672  1.00  0.00     0.049 A 
ATOM     52  C   UNL A   1      44.211  25.447  28.807  1.00  0.00     0.074 A 
ATOM     53  C   UNL A   1      46.149  30.411  32.232  1.00  0.00     0.029 A 
ATOM     54  N   UNL A   1      44.972  28.982  30.999  1.00  0.00    -0.354 N 
ATOM     55  N   UNL A   1      44.525  26.503  29.518  1.00  0.00    -0.248 NA
ATOM     56  C   UNL A   1      45.346  24.547  28.549  1.00  0.00     0.031 C 
ATOM     57  C   UNL A   1      46.992  29.366  31.844  1.00  0.00     0.029 A 
ATOM     58  C   UNL A   1      46.251  28.460  31.104  1.00  0.00     0.049 A 
ATOM     59  H   UNL A   1      44.225  28.558  30.518  1.00  0.00     0.167 HD
ATOM     60  C   UNL A   1      45.876  26.374  29.824  1.00  0.00     0.074 A 
ATOM     61  C   UNL A   1      46.320  25.131  29.232  1.00  0.00     0.031 C 
ATOM     62  C   UNL A   1      46.677  27.209  30.530  1.00  0.00     0.037 A 
BRANCH  49  63
ATOM     63  C   UNL A   1      43.854  32.346  32.446  1.00  0.00     0.064 A 
ATOM     64  C   UNL A   1      43.640  32.467  33.826  1.00  0.00     0.173 A 
ATOM     65  C   UNL A   1      44.262  33.490  31.742  1.00  0.00     0.173 A 
ATOM     66  F   UNL A   1      43.235  31.408  34.542  1.00  0.00    -0.203 F 
ATOM     67  C   UNL A   1      43.816  33.688  34.473  1.00  0.00     0.198 A 
ATOM     68  C   UNL A   1      44.468  34.700  32.396  1.00  0.00     0.198 A 
ATOM     69  F   UNL A   1      44.484  33.426  30.419  1.00  0.00    -0.203 F 
ATOM     70  F   UNL A   1      43.570  33.790  35.786  1.00  0.00    -0.200 F 
ATOM     71  C   UNL A   1      44.240  34.800  33.760  1.00  0.00     0.200 A 
ATOM     72  F   UNL A   1      44.892  35.769  31.707  1.00  0.00    -0.200 F 
ATOM     73  F   UNL A   1      44.427  35.969  34.387  1.00  0.00    -0.200 F 
ENDBRANCH  49  63
BRANCH  50  74
ATOM     74  C   UNL A   1      42.752  23.788  27.436  1.00  0.00     0.064 A 
ATOM     75  C   UNL A   1      42.309  22.593  28.020  1.00  0.00     0.173 A 
ATOM     76  C   UNL A   1      43.142  23.747  26.090  1.00  0.00     0.173 A 
ATOM     77  F   UNL A   1      41.954  22.570  29.314  1.00  0.00    -0.203 F 
ATOM     78  C   UNL A   1      42.294  21.399  27.299  1.00  0.00     0.198 A 
ATOM     79  C   UNL A   1      43.091  22.561  25.359  1.00  0.00     0.198 A 
ATOM     80  F   UNL A   1      43.581  24.858  25.482  1.00  0.00    -0.203 F 
ATOM     81  F   UNL A   1      41.938  20.258  27.905  1.00  0.00    -0.200 F 
ATOM     82  C   UNL A   1      42.682  21.385  25.968  1.00  0.00     0.200 A 
ATOM     83  F   UNL A   1      43.458  22.554  24.070  1.00  0.00    -0.200 F 
ATOM     84  F   UNL A   1      42.676  20.236  25.278  1.00  0.00    -0.200 F 
ENDBRANCH  50  74
BRANCH  62  85
ATOM     85  C   UNL A   1      48.101  26.784  30.762  1.00  0.00     0.064 A 
ATOM     86  C   UNL A   1      48.454  25.899  31.791  1.00  0.00     0.173 A 
ATOM     87  C   UNL A   1      49.121  27.233  29.906  1.00  0.00     0.173 A 
ATOM     88  F   UNL A   1      47.523  25.447  32.643  1.00  0.00    -0.203 F 
ATOM     89  C   UNL A   1      49.779  25.504  31.974  1.00  0.00     0.198 A 
ATOM     90  C   UNL A   1      50.436  26.807  30.070  1.00  0.00     0.198 A 
ATOM     91  F   UNL A   1      48.838  28.071  28.898  1.00  0.00    -0.203 F 
ATOM     92  F   UNL A   1      50.100  24.700  32.996  1.00  0.00    -0.200 F 
ATOM     93  C   UNL A   1      50.765  25.951  31.109  1.00  0.00     0.200 A 
ATOM     94  F   UNL A   1      51.384  27.225  29.219  1.00  0.00    -0.200 F 
ATOM     95  F   UNL A   1      52.036  25.561  31.279  1.00  0.00    -0.200 F 
ENDBRANCH  62  85
ENDBRANCH  36  37
ENDBRANCH  29  31
ENDBRANCH  28  29
ENDBRANCH  27  28
ENDBRANCH  26  27
ENDBRANCH  25  26
ENDBRANCH  24  25
ENDBRANCH   1  24
TORSDOF 21
ENDMDL
