MODEL 1
REMARK VINA RESULT:     -12.5      0.000      0.000
REMARK SMILES Cc1cccc(NS(=O)(=O)c2ccc(Br)c(C(=O)OCCOCCOCCOC(=O)c3ccc(-c4c5nc(c(-c6c(F)c(F)c(F)c(F)c6F)c6ccc([nH]6)c(-c6c(F)c(F)c(F)c(F)c6F)c6nc(c(-c7c(F)c(F)c(F)c(F)c7F)c7ccc4[nH]7)C=C6)C=C5)cc3)c2)c1
REMARK SMILES IDX 23 1 22 2 21 3 20 4 19 5 17 6 18 7 16 8 11 9 12 10 94 11
REMARK SMILES IDX 13 12 14 13 15 14 8 15 9 16 10 17 7 18 6 20 1 21 2 22 3 23
REMARK SMILES IDX 95 24 4 25 5 26 24 27 25 28 26 29 27 30 28 31 29 32 30 33
REMARK SMILES IDX 31 34 32 35 93 36 33 37 92 38 34 39 35 40 36 41 86 42 37 43
REMARK SMILES IDX 91 44 85 45 87 46 38 47 90 48 84 49 83 50 39 52 71 53 51 54
REMARK SMILES IDX 70 55 52 56 55 57 69 58 88 59 53 60 54 61 68 63 89 64 56 65
REMARK SMILES IDX 40 66 41 67 49 68 42 69 43 70 47 71 50 72 44 73 45 74 48 75
REMARK SMILES IDX 46 76 72 77 73 78 81 79 74 80 75 81 79 82 82 83 76 84 77 85
REMARK SMILES IDX 80 86 78 87 57 88 58 89 66 90 59 91 60 92 64 93 67 94 61 95
REMARK SMILES IDX 62 96 65 97 63 98
REMARK H PARENT 7 19 87 51 55 62
REMARK Flexibility Score: inf
ROOT
ATOM      1  C   UNL A   1      41.573  19.683  27.318  1.00  0.00     0.188 C 
ENDROOT
BRANCH   1   2
ATOM      2  O   UNL A   1      40.730  20.806  26.967  1.00  0.00    -0.376 OA
BRANCH   2   3
ATOM      3  C   UNL A   1      39.602  20.746  26.049  1.00  0.00     0.202 C 
BRANCH   3   4
ATOM      4  C   UNL A   1      38.658  22.092  25.806  1.00  0.00     0.261 C 
BRANCH   4   5
ATOM      5  O   UNL A   1      37.181  22.188  24.975  1.00  0.00    -0.460 OA
BRANCH   5   6
ATOM      6  C   UNL A   1      35.939  22.902  25.075  1.00  0.00     0.339 C 
ATOM      7  O   UNL A   1      35.554  23.683  25.939  1.00  0.00    -0.246 OA
BRANCH   6   8
ATOM      8  C   UNL A   1      34.847  22.857  24.047  1.00  0.00     0.075 A 
ATOM      9  C   UNL A   1      33.381  24.105  22.445  1.00  0.00     0.088 A 
ATOM     10  C   UNL A   1      32.485  23.045  22.465  1.00  0.00     0.023 A 
ATOM     11  C   UNL A   1      34.531  24.029  23.265  1.00  0.00     0.039 A 
ATOM     12  C   UNL A   1      32.713  21.966  23.337  1.00  0.00     0.018 A 
ATOM     13  C   UNL A   1      33.875  21.874  24.126  1.00  0.00     0.032 A 
ATOM     14  Br  UNL A   1      33.974  20.489  25.417  1.00  0.00    -0.050 Br
BRANCH   9  15
ATOM     15  S   UNL A   1      33.043  25.575  21.457  1.00  0.00     0.261 S 
ATOM     16  O   UNL A   1      33.018  25.137  20.075  1.00  0.00    -0.201 OA
ATOM     17  O   UNL A   1      33.949  26.617  21.889  1.00  0.00    -0.201 OA
BRANCH  15  18
ATOM     18  N   UNL A   1      31.473  26.116  21.758  1.00  0.00    -0.280 N 
ATOM     19  H   UNL A   1      30.743  25.727  21.223  1.00  0.00     0.180 HD
BRANCH  18  20
ATOM     20  C   UNL A   1      31.135  27.093  22.732  1.00  0.00     0.049 A 
ATOM     21  C   UNL A   1      31.423  27.372  26.527  1.00  0.00     0.044 C 
ATOM     22  C   UNL A   1      31.176  27.714  25.087  1.00  0.00    -0.049 A 
ATOM     23  C   UNL A   1      30.871  29.028  24.719  1.00  0.00     0.003 A 
ATOM     24  C   UNL A   1      31.307  26.748  24.081  1.00  0.00     0.030 A 
ATOM     25  C   UNL A   1      30.592  29.342  23.388  1.00  0.00     0.002 A 
ATOM     26  C   UNL A   1      30.676  28.363  22.399  1.00  0.00     0.027 A 
ENDBRANCH  18  20
ENDBRANCH  15  18
ENDBRANCH   9  15
ENDBRANCH   6   8
ENDBRANCH   5   6
ENDBRANCH   4   5
ENDBRANCH   3   4
ENDBRANCH   2   3
ENDBRANCH   1   2
BRANCH   1  27
ATOM     27  C   UNL A   1      42.504  19.002  26.321  1.00  0.00     0.188 C 
BRANCH  27  28
ATOM     28  O   UNL A   1      42.798  19.915  25.287  1.00  0.00    -0.376 OA
BRANCH  28  29
ATOM     29  C   UNL A   1      44.153  20.299  25.167  1.00  0.00     0.202 C 
BRANCH  29  30
ATOM     30  C   UNL A   1      44.416  21.656  25.843  1.00  0.00     0.261 C 
BRANCH  30  31
ATOM     31  O   UNL A   1      43.348  22.594  25.532  1.00  0.00    -0.460 OA
BRANCH  31  32
ATOM     32  C   UNL A   1      43.694  23.812  24.959  1.00  0.00     0.338 C 
ATOM     33  O   UNL A   1      44.739  24.051  24.446  1.00  0.00    -0.246 OA
BRANCH  32  34
ATOM     34  C   UNL A   1      42.646  24.859  25.326  1.00  0.00     0.060 A 
ATOM     35  C   UNL A   1      42.645  26.236  25.029  1.00  0.00     0.016 A 
ATOM     36  C   UNL A   1      41.842  24.522  26.352  1.00  0.00     0.016 A 
ATOM     37  C   UNL A   1      41.938  27.234  25.877  1.00  0.00     0.010 A 
ATOM     38  C   UNL A   1      41.522  25.553  27.238  1.00  0.00     0.010 A 
ATOM     39  C   UNL A   1      41.355  26.916  27.109  1.00  0.00    -0.014 A 
BRANCH  39  40
ATOM     40  C   UNL A   1      40.897  27.816  28.350  1.00  0.00     0.031 A 
ATOM     41  C   UNL A   1      39.749  28.967  28.590  1.00  0.00     0.074 A 
ATOM     42  C   UNL A   1      41.572  27.570  29.499  1.00  0.00     0.049 A 
ATOM     43  N   UNL A   1      39.976  30.153  29.135  1.00  0.00    -0.248 NA
ATOM     44  C   UNL A   1      38.270  28.879  28.393  1.00  0.00     0.031 C 
ATOM     45  C   UNL A   1      41.334  28.125  30.830  1.00  0.00     0.029 A 
ATOM     46  N   UNL A   1      42.742  26.811  29.661  1.00  0.00    -0.354 N 
ATOM     47  C   UNL A   1      38.745  30.827  29.294  1.00  0.00     0.074 A 
ATOM     48  C   UNL A   1      37.754  30.061  28.657  1.00  0.00     0.031 C 
ATOM     49  C   UNL A   1      42.462  27.993  31.549  1.00  0.00     0.029 A 
ATOM     50  C   UNL A   1      43.484  27.440  30.677  1.00  0.00     0.049 A 
ATOM     51  H   UNL A   1      42.994  26.000  29.162  1.00  0.00     0.167 HD
ATOM     52  C   UNL A   1      38.440  31.863  30.123  1.00  0.00     0.037 A 
ATOM     53  C   UNL A   1      44.696  27.982  30.372  1.00  0.00     0.037 A 
ATOM     54  C   UNL A   1      39.487  32.044  31.075  1.00  0.00     0.049 A 
ATOM     55  C   UNL A   1      44.690  29.495  30.453  1.00  0.00     0.074 A 
ATOM     56  C   UNL A   1      39.774  31.456  32.292  1.00  0.00     0.029 A 
ATOM     57  N   UNL A   1      40.653  32.564  30.594  1.00  0.00    -0.354 N 
ATOM     58  N   UNL A   1      43.717  30.209  30.954  1.00  0.00    -0.248 NA
ATOM     59  C   UNL A   1      45.748  30.328  29.878  1.00  0.00     0.031 C 
ATOM     60  C   UNL A   1      41.192  31.516  32.456  1.00  0.00     0.029 A 
ATOM     61  C   UNL A   1      41.724  32.195  31.373  1.00  0.00     0.049 A 
ATOM     62  H   UNL A   1      40.718  33.131  29.792  1.00  0.00     0.167 HD
ATOM     63  C   UNL A   1      43.935  31.524  30.650  1.00  0.00     0.074 A 
ATOM     64  C   UNL A   1      45.232  31.558  30.009  1.00  0.00     0.031 C 
ATOM     65  C   UNL A   1      43.035  32.519  30.858  1.00  0.00     0.037 A 
BRANCH  52  66
ATOM     66  C   UNL A   1      37.046  32.460  30.178  1.00  0.00     0.064 A 
ATOM     67  C   UNL A   1      36.607  33.423  29.257  1.00  0.00     0.173 A 
ATOM     68  C   UNL A   1      36.117  32.129  31.197  1.00  0.00     0.173 A 
ATOM     69  F   UNL A   1      37.368  33.766  28.209  1.00  0.00    -0.203 F 
ATOM     70  C   UNL A   1      35.381  34.086  29.408  1.00  0.00     0.198 A 
ATOM     71  C   UNL A   1      34.924  32.834  31.383  1.00  0.00     0.198 A 
ATOM     72  F   UNL A   1      36.386  31.146  32.072  1.00  0.00    -0.203 F 
ATOM     73  F   UNL A   1      35.009  35.011  28.512  1.00  0.00    -0.200 F 
ATOM     74  C   UNL A   1      34.561  33.822  30.492  1.00  0.00     0.200 A 
ATOM     75  F   UNL A   1      34.149  32.578  32.449  1.00  0.00    -0.200 F 
ATOM     76  F   UNL A   1      33.428  34.518  30.675  1.00  0.00    -0.200 F 
ENDBRANCH  52  66
BRANCH  53  77
ATOM     77  C   UNL A   1      45.462  27.132  29.404  1.00  0.00     0.064 A 
ATOM     78  C   UNL A   1      45.380  27.458  28.031  1.00  0.00     0.173 A 
ATOM     79  C   UNL A   1      46.501  26.277  29.784  1.00  0.00     0.173 A 
ATOM     80  F   UNL A   1      44.397  28.263  27.592  1.00  0.00    -0.203 F 
ATOM     81  C   UNL A   1      46.366  27.074  27.123  1.00  0.00     0.198 A 
ATOM     82  C   UNL A   1      47.466  25.859  28.860  1.00  0.00     0.198 A 
ATOM     83  F   UNL A   1      46.686  25.955  31.071  1.00  0.00    -0.203 F 
ATOM     84  F   UNL A   1      46.326  27.527  25.861  1.00  0.00    -0.200 F 
ATOM     85  C   UNL A   1      47.424  26.295  27.546  1.00  0.00     0.200 A 
ATOM     86  F   UNL A   1      48.515  25.135  29.280  1.00  0.00    -0.200 F 
ATOM     87  F   UNL A   1      48.432  26.014  26.707  1.00  0.00    -0.200 F 
ENDBRANCH  53  77
BRANCH  65  88
ATOM     88  C   UNL A   1      43.365  33.940  30.550  1.00  0.00     0.064 A 
ATOM     89  C   UNL A   1      43.501  34.856  31.599  1.00  0.00     0.173 A 
ATOM     90  C   UNL A   1      43.374  34.456  29.240  1.00  0.00     0.173 A 
ATOM     91  F   UNL A   1      43.496  34.432  32.872  1.00  0.00    -0.203 F 
ATOM     92  C   UNL A   1      43.622  36.219  31.351  1.00  0.00     0.198 A 
ATOM     93  C   UNL A   1      43.434  35.822  28.997  1.00  0.00     0.198 A 
ATOM     94  F   UNL A   1      43.314  33.645  28.172  1.00  0.00    -0.203 F 
ATOM     95  F   UNL A   1      43.779  37.066  32.375  1.00  0.00    -0.200 F 
ATOM     96  C   UNL A   1      43.561  36.703  30.053  1.00  0.00     0.200 A 
ATOM     97  F   UNL A   1      43.348  36.279  27.740  1.00  0.00    -0.200 F 
ATOM     98  F   UNL A   1      43.628  38.021  29.822  1.00  0.00    -0.200 F 
ENDBRANCH  65  88
ENDBRANCH  39  40
ENDBRANCH  32  34
ENDBRANCH  31  32
ENDBRANCH  30  31
ENDBRANCH  29  30
ENDBRANCH  28  29
ENDBRANCH  27  28
ENDBRANCH   1  27
TORSDOF 20
ENDMDL
MODEL 2
REMARK VINA RESULT:     -12.5      3.930     10.181
REMARK SMILES Cc1cccc(NS(=O)(=O)c2ccc(Br)c(C(=O)OCCOCCOCCOC(=O)c3ccc(-c4c5nc(c(-c6c(F)c(F)c(F)c(F)c6F)c6ccc([nH]6)c(-c6c(F)c(F)c(F)c(F)c6F)c6nc(c(-c7c(F)c(F)c(F)c(F)c7F)c7ccc4[nH]7)C=C6)C=C5)cc3)c2)c1
REMARK SMILES IDX 23 1 22 2 21 3 20 4 19 5 17 6 18 7 16 8 11 9 12 10 94 11
REMARK SMILES IDX 13 12 14 13 15 14 8 15 9 16 10 17 7 18 6 20 1 21 2 22 3 23
REMARK SMILES IDX 95 24 4 25 5 26 24 27 25 28 26 29 27 30 28 31 29 32 30 33
REMARK SMILES IDX 31 34 32 35 93 36 33 37 92 38 34 39 35 40 36 41 86 42 37 43
REMARK SMILES IDX 91 44 85 45 87 46 38 47 90 48 84 49 83 50 39 52 71 53 51 54
REMARK SMILES IDX 70 55 52 56 55 57 69 58 88 59 53 60 54 61 68 63 89 64 56 65
REMARK SMILES IDX 40 66 41 67 49 68 42 69 43 70 47 71 50 72 44 73 45 74 48 75
REMARK SMILES IDX 46 76 72 77 73 78 81 79 74 80 75 81 79 82 82 83 76 84 77 85
REMARK SMILES IDX 80 86 78 87 57 88 58 89 66 90 59 91 60 92 64 93 67 94 61 95
REMARK SMILES IDX 62 96 65 97 63 98
REMARK H PARENT 7 19 87 51 55 62
REMARK Flexibility Score: inf
ROOT
ATOM      1  C   UNL A   1      34.061  33.679  28.148  1.00  0.00     0.188 C 
ENDROOT
BRANCH   1   2
ATOM      2  O   UNL A   1      34.035  32.247  28.361  1.00  0.00    -0.376 OA
BRANCH   2   3
ATOM      3  C   UNL A   1      34.792  31.275  27.586  1.00  0.00     0.202 C 
BRANCH   3   4
ATOM      4  C   UNL A   1      34.607  29.650  27.884  1.00  0.00     0.261 C 
BRANCH   4   5
ATOM      5  O   UNL A   1      33.609  28.550  27.062  1.00  0.00    -0.460 OA
BRANCH   5   6
ATOM      6  C   UNL A   1      32.314  27.951  27.224  1.00  0.00     0.339 C 
ATOM      7  O   UNL A   1      31.510  28.063  28.144  1.00  0.00    -0.246 OA
BRANCH   6   8
ATOM      8  C   UNL A   1      31.652  27.070  26.206  1.00  0.00     0.075 A 
ATOM      9  C   UNL A   1      31.454  24.802  25.162  1.00  0.00     0.088 A 
ATOM     10  C   UNL A   1      30.885  25.385  24.039  1.00  0.00     0.023 A 
ATOM     11  C   UNL A   1      31.874  25.643  26.218  1.00  0.00     0.039 A 
ATOM     12  C   UNL A   1      30.801  26.786  23.959  1.00  0.00     0.018 A 
ATOM     13  C   UNL A   1      31.187  27.622  25.024  1.00  0.00     0.032 A 
ATOM     14  Br  UNL A   1      31.230  29.494  24.724  1.00  0.00    -0.050 Br
BRANCH   9  15
ATOM     15  S   UNL A   1      31.721  23.019  25.236  1.00  0.00     0.261 S 
ATOM     16  O   UNL A   1      31.807  22.566  23.862  1.00  0.00    -0.201 OA
ATOM     17  O   UNL A   1      30.741  22.461  26.142  1.00  0.00    -0.201 OA
BRANCH  15  18
ATOM     18  N   UNL A   1      33.247  22.698  25.884  1.00  0.00    -0.280 N 
ATOM     19  H   UNL A   1      33.289  22.269  26.769  1.00  0.00     0.180 HD
BRANCH  18  20
ATOM     20  C   UNL A   1      34.473  23.005  25.236  1.00  0.00     0.049 A 
ATOM     21  C   UNL A   1      37.979  24.004  26.366  1.00  0.00     0.044 C 
ATOM     22  C   UNL A   1      36.822  23.592  25.503  1.00  0.00    -0.049 A 
ATOM     23  C   UNL A   1      37.027  23.279  24.156  1.00  0.00     0.003 A 
ATOM     24  C   UNL A   1      35.534  23.451  26.037  1.00  0.00     0.030 A 
ATOM     25  C   UNL A   1      35.948  22.943  23.337  1.00  0.00     0.002 A 
ATOM     26  C   UNL A   1      34.661  22.853  23.866  1.00  0.00     0.027 A 
ENDBRANCH  18  20
ENDBRANCH  15  18
ENDBRANCH   9  15
ENDBRANCH   6   8
ENDBRANCH   5   6
ENDBRANCH   4   5
ENDBRANCH   3   4
ENDBRANCH   2   3
ENDBRANCH   1   2
BRANCH   1  27
ATOM     27  C   UNL A   1      33.044  34.626  28.772  1.00  0.00     0.188 C 
BRANCH  27  28
ATOM     28  O   UNL A   1      33.698  35.411  29.743  1.00  0.00    -0.376 OA
BRANCH  28  29
ATOM     29  C   UNL A   1      32.889  35.903  30.792  1.00  0.00     0.202 C 
BRANCH  29  30
ATOM     30  C   UNL A   1      33.585  35.757  32.157  1.00  0.00     0.261 C 
BRANCH  30  31
ATOM     31  O   UNL A   1      34.815  34.993  32.020  1.00  0.00    -0.460 OA
BRANCH  31  32
ATOM     32  C   UNL A   1      34.844  33.702  32.536  1.00  0.00     0.338 C 
ATOM     33  O   UNL A   1      34.594  33.413  33.661  1.00  0.00    -0.246 OA
BRANCH  32  34
ATOM     34  C   UNL A   1      35.500  32.767  31.523  1.00  0.00     0.060 A 
ATOM     35  C   UNL A   1      35.543  31.360  31.533  1.00  0.00     0.016 A 
ATOM     36  C   UNL A   1      36.451  33.336  30.758  1.00  0.00     0.016 A 
ATOM     37  C   UNL A   1      36.637  30.590  30.881  1.00  0.00     0.010 A 
ATOM     38  C   UNL A   1      37.573  32.547  30.495  1.00  0.00     0.010 A 
ATOM     39  C   UNL A   1      37.782  31.191  30.347  1.00  0.00    -0.014 A 
BRANCH  39  40
ATOM     40  C   UNL A   1      39.223  30.614  29.959  1.00  0.00     0.031 A 
ATOM     41  C   UNL A   1      39.768  29.249  29.224  1.00  0.00     0.074 A 
ATOM     42  C   UNL A   1      40.256  31.436  30.263  1.00  0.00     0.049 A 
ATOM     43  N   UNL A   1      40.722  28.465  29.705  1.00  0.00    -0.248 NA
ATOM     44  C   UNL A   1      39.432  28.708  27.871  1.00  0.00     0.031 C 
ATOM     45  C   UNL A   1      41.673  31.270  29.948  1.00  0.00     0.029 A 
ATOM     46  N   UNL A   1      40.227  32.589  31.063  1.00  0.00    -0.354 N 
ATOM     47  C   UNL A   1      41.012  27.461  28.755  1.00  0.00     0.074 A 
ATOM     48  C   UNL A   1      40.063  27.562  27.724  1.00  0.00     0.031 C 
ATOM     49  C   UNL A   1      42.386  32.031  30.797  1.00  0.00     0.029 A 
ATOM     50  C   UNL A   1      41.460  32.631  31.741  1.00  0.00     0.049 A 
ATOM     51  H   UNL A   1      39.492  33.240  31.135  1.00  0.00     0.167 HD
ATOM     52  C   UNL A   1      42.132  26.696  28.638  1.00  0.00     0.037 A 
ATOM     53  C   UNL A   1      41.470  32.521  33.099  1.00  0.00     0.037 A 
ATOM     54  C   UNL A   1      43.167  27.224  29.466  1.00  0.00     0.049 A 
ATOM     55  C   UNL A   1      42.093  31.221  33.567  1.00  0.00     0.074 A 
ATOM     56  C   UNL A   1      44.109  28.219  29.287  1.00  0.00     0.029 A 
ATOM     57  N   UNL A   1      43.004  27.061  30.811  1.00  0.00    -0.354 N 
ATOM     58  N   UNL A   1      42.736  30.384  32.798  1.00  0.00    -0.248 NA
ATOM     59  C   UNL A   1      41.946  30.715  34.934  1.00  0.00     0.031 C 
ATOM     60  C   UNL A   1      44.398  28.752  30.581  1.00  0.00     0.029 A 
ATOM     61  C   UNL A   1      43.681  28.026  31.517  1.00  0.00     0.049 A 
ATOM     62  H   UNL A   1      42.469  26.344  31.221  1.00  0.00     0.167 HD
ATOM     63  C   UNL A   1      42.948  29.224  33.489  1.00  0.00     0.074 A 
ATOM     64  C   UNL A   1      42.470  29.486  34.830  1.00  0.00     0.031 C 
ATOM     65  C   UNL A   1      43.427  28.078  32.939  1.00  0.00     0.037 A 
BRANCH  52  66
ATOM     66  C   UNL A   1      42.285  25.666  27.535  1.00  0.00     0.064 A 
ATOM     67  C   UNL A   1      41.612  24.434  27.560  1.00  0.00     0.173 A 
ATOM     68  C   UNL A   1      43.162  25.854  26.436  1.00  0.00     0.173 A 
ATOM     69  F   UNL A   1      40.705  24.169  28.509  1.00  0.00    -0.203 F 
ATOM     70  C   UNL A   1      41.881  23.425  26.625  1.00  0.00     0.198 A 
ATOM     71  C   UNL A   1      43.475  24.826  25.541  1.00  0.00     0.198 A 
ATOM     72  F   UNL A   1      43.779  27.032  26.249  1.00  0.00    -0.203 F 
ATOM     73  F   UNL A   1      41.225  22.258  26.697  1.00  0.00    -0.200 F 
ATOM     74  C   UNL A   1      42.840  23.605  25.643  1.00  0.00     0.200 A 
ATOM     75  F   UNL A   1      44.420  25.011  24.606  1.00  0.00    -0.200 F 
ATOM     76  F   UNL A   1      43.150  22.608  24.802  1.00  0.00    -0.200 F 
ENDBRANCH  52  66
BRANCH  53  77
ATOM     77  C   UNL A   1      40.328  33.255  33.730  1.00  0.00     0.064 A 
ATOM     78  C   UNL A   1      39.152  32.523  34.018  1.00  0.00     0.173 A 
ATOM     79  C   UNL A   1      40.461  34.498  34.357  1.00  0.00     0.173 A 
ATOM     80  F   UNL A   1      38.949  31.327  33.440  1.00  0.00    -0.203 F 
ATOM     81  C   UNL A   1      38.243  32.943  34.989  1.00  0.00     0.198 A 
ATOM     82  C   UNL A   1      39.523  34.935  35.300  1.00  0.00     0.198 A 
ATOM     83  F   UNL A   1      41.565  35.236  34.182  1.00  0.00    -0.203 F 
ATOM     84  F   UNL A   1      37.220  32.148  35.335  1.00  0.00    -0.200 F 
ATOM     85  C   UNL A   1      38.445  34.139  35.649  1.00  0.00     0.200 A 
ATOM     86  F   UNL A   1      39.742  36.078  35.968  1.00  0.00    -0.200 F 
ATOM     87  F   UNL A   1      37.639  34.496  36.658  1.00  0.00    -0.200 F 
ENDBRANCH  53  77
BRANCH  65  88
ATOM     88  C   UNL A   1      43.682  26.866  33.769  1.00  0.00     0.064 A 
ATOM     89  C   UNL A   1      44.979  26.349  33.848  1.00  0.00     0.173 A 
ATOM     90  C   UNL A   1      42.647  26.102  34.342  1.00  0.00     0.173 A 
ATOM     91  F   UNL A   1      46.010  27.025  33.319  1.00  0.00    -0.203 F 
ATOM     92  C   UNL A   1      45.227  25.122  34.454  1.00  0.00     0.198 A 
ATOM     93  C   UNL A   1      42.889  24.850  34.893  1.00  0.00     0.198 A 
ATOM     94  F   UNL A   1      41.383  26.551  34.369  1.00  0.00    -0.203 F 
ATOM     95  F   UNL A   1      46.483  24.668  34.538  1.00  0.00    -0.200 F 
ATOM     96  C   UNL A   1      44.180  24.362  34.950  1.00  0.00     0.200 A 
ATOM     97  F   UNL A   1      41.864  24.113  35.346  1.00  0.00    -0.200 F 
ATOM     98  F   UNL A   1      44.417  23.158  35.489  1.00  0.00    -0.200 F 
ENDBRANCH  65  88
ENDBRANCH  39  40
ENDBRANCH  32  34
ENDBRANCH  31  32
ENDBRANCH  30  31
ENDBRANCH  29  30
ENDBRANCH  28  29
ENDBRANCH  27  28
ENDBRANCH   1  27
TORSDOF 20
ENDMDL
MODEL 3
REMARK VINA RESULT:     -12.5      1.369      2.032
REMARK SMILES Cc1cccc(NS(=O)(=O)c2ccc(Br)c(C(=O)OCCOCCOCCOC(=O)c3ccc(-c4c5nc(c(-c6c(F)c(F)c(F)c(F)c6F)c6ccc([nH]6)c(-c6c(F)c(F)c(F)c(F)c6F)c6nc(c(-c7c(F)c(F)c(F)c(F)c7F)c7ccc4[nH]7)C=C6)C=C5)cc3)c2)c1
REMARK SMILES IDX 23 1 22 2 21 3 20 4 19 5 17 6 18 7 16 8 11 9 12 10 94 11
REMARK SMILES IDX 13 12 14 13 15 14 8 15 9 16 10 17 7 18 6 20 1 21 2 22 3 23
REMARK SMILES IDX 95 24 4 25 5 26 24 27 25 28 26 29 27 30 28 31 29 32 30 33
REMARK SMILES IDX 31 34 32 35 93 36 33 37 92 38 34 39 35 40 36 41 86 42 37 43
REMARK SMILES IDX 91 44 85 45 87 46 38 47 90 48 84 49 83 50 39 52 71 53 51 54
REMARK SMILES IDX 70 55 52 56 55 57 69 58 88 59 53 60 54 61 68 63 89 64 56 65
REMARK SMILES IDX 40 66 41 67 49 68 42 69 43 70 47 71 50 72 44 73 45 74 48 75
REMARK SMILES IDX 46 76 72 77 73 78 81 79 74 80 75 81 79 82 82 83 76 84 77 85
REMARK SMILES IDX 80 86 78 87 57 88 58 89 66 90 59 91 60 92 64 93 67 94 61 95
REMARK SMILES IDX 62 96 65 97 63 98
REMARK H PARENT 7 19 87 51 55 62
REMARK Flexibility Score: inf
ROOT
ATOM      1  C   UNL A   1      41.726  20.334  27.308  1.00  0.00     0.188 C 
ENDROOT
BRANCH   1   2
ATOM      2  O   UNL A   1      40.372  20.835  27.190  1.00  0.00    -0.376 OA
BRANCH   2   3
ATOM      3  C   UNL A   1      39.717  21.178  25.937  1.00  0.00     0.202 C 
BRANCH   3   4
ATOM      4  C   UNL A   1      38.494  22.304  25.921  1.00  0.00     0.261 C 
BRANCH   4   5
ATOM      5  O   UNL A   1      36.872  22.069  25.479  1.00  0.00    -0.460 OA
BRANCH   5   6
ATOM      6  C   UNL A   1      35.613  22.746  25.622  1.00  0.00     0.339 C 
ATOM      7  O   UNL A   1      35.083  23.204  26.629  1.00  0.00    -0.246 OA
BRANCH   6   8
ATOM      8  C   UNL A   1      34.695  23.082  24.484  1.00  0.00     0.075 A 
ATOM      9  C   UNL A   1      33.441  24.834  23.208  1.00  0.00     0.088 A 
ATOM     10  C   UNL A   1      32.597  23.849  22.716  1.00  0.00     0.023 A 
ATOM     11  C   UNL A   1      34.454  24.458  24.120  1.00  0.00     0.039 A 
ATOM     12  C   UNL A   1      32.733  22.529  23.181  1.00  0.00     0.018 A 
ATOM     13  C   UNL A   1      33.764  22.148  24.061  1.00  0.00     0.032 A 
ATOM     14  Br  UNL A   1      33.721  20.397  24.786  1.00  0.00    -0.050 Br
BRANCH   9  15
ATOM     15  S   UNL A   1      33.198  26.563  22.755  1.00  0.00     0.261 S 
ATOM     16  O   UNL A   1      31.775  26.815  22.870  1.00  0.00    -0.201 OA
ATOM     17  O   UNL A   1      33.895  26.797  21.509  1.00  0.00    -0.201 OA
BRANCH  15  18
ATOM     18  N   UNL A   1      33.899  27.561  23.921  1.00  0.00    -0.280 N 
ATOM     19  H   UNL A   1      34.827  27.859  23.774  1.00  0.00     0.180 HD
BRANCH  18  20
ATOM     20  C   UNL A   1      33.240  28.002  25.100  1.00  0.00     0.049 A 
ATOM     21  C   UNL A   1      31.508  31.215  26.215  1.00  0.00     0.044 C 
ATOM     22  C   UNL A   1      32.010  29.800  26.189  1.00  0.00    -0.049 A 
ATOM     23  C   UNL A   1      31.614  28.896  27.179  1.00  0.00     0.003 A 
ATOM     24  C   UNL A   1      32.827  29.342  25.147  1.00  0.00     0.030 A 
ATOM     25  C   UNL A   1      32.117  27.594  27.187  1.00  0.00     0.002 A 
ATOM     26  C   UNL A   1      32.970  27.160  26.173  1.00  0.00     0.027 A 
ENDBRANCH  18  20
ENDBRANCH  15  18
ENDBRANCH   9  15
ENDBRANCH   6   8
ENDBRANCH   5   6
ENDBRANCH   4   5
ENDBRANCH   3   4
ENDBRANCH   2   3
ENDBRANCH   1   2
BRANCH   1  27
ATOM     27  C   UNL A   1      42.287  19.246  26.400  1.00  0.00     0.188 C 
BRANCH  27  28
ATOM     28  O   UNL A   1      42.869  19.859  25.272  1.00  0.00    -0.376 OA
BRANCH  28  29
ATOM     29  C   UNL A   1      44.272  19.740  25.155  1.00  0.00     0.202 C 
BRANCH  29  30
ATOM     30  C   UNL A   1      44.975  21.085  25.407  1.00  0.00     0.261 C 
BRANCH  30  31
ATOM     31  O   UNL A   1      43.995  22.141  25.607  1.00  0.00    -0.460 OA
BRANCH  31  32
ATOM     32  C   UNL A   1      44.037  23.242  24.760  1.00  0.00     0.338 C 
ATOM     33  O   UNL A   1      44.865  23.429  23.927  1.00  0.00    -0.246 OA
BRANCH  32  34
ATOM     34  C   UNL A   1      43.035  24.289  25.238  1.00  0.00     0.060 A 
ATOM     35  C   UNL A   1      42.909  25.630  24.828  1.00  0.00     0.016 A 
ATOM     36  C   UNL A   1      42.470  24.029  26.432  1.00  0.00     0.016 A 
ATOM     37  C   UNL A   1      42.339  26.684  25.711  1.00  0.00     0.010 A 
ATOM     38  C   UNL A   1      42.285  25.130  27.271  1.00  0.00     0.010 A 
ATOM     39  C   UNL A   1      42.030  26.469  27.059  1.00  0.00    -0.014 A 
BRANCH  39  40
ATOM     40  C   UNL A   1      41.787  27.470  28.283  1.00  0.00     0.031 A 
ATOM     41  C   UNL A   1      40.569  28.474  28.739  1.00  0.00     0.074 A 
ATOM     42  C   UNL A   1      42.788  27.492  29.195  1.00  0.00     0.049 A 
ATOM     43  N   UNL A   1      40.727  29.747  29.069  1.00  0.00    -0.248 NA
ATOM     44  C   UNL A   1      39.133  28.154  29.004  1.00  0.00     0.031 C 
ATOM     45  C   UNL A   1      42.839  28.199  30.473  1.00  0.00     0.029 A 
ATOM     46  N   UNL A   1      44.071  26.935  29.074  1.00  0.00    -0.354 N 
ATOM     47  C   UNL A   1      39.491  30.260  29.521  1.00  0.00     0.074 A 
ATOM     48  C   UNL A   1      38.512  29.279  29.291  1.00  0.00     0.031 C 
ATOM     49  C   UNL A   1      44.128  28.332  30.831  1.00  0.00     0.029 A 
ATOM     50  C   UNL A   1      44.946  27.803  29.753  1.00  0.00     0.049 A 
ATOM     51  H   UNL A   1      44.312  26.101  28.608  1.00  0.00     0.167 HD
ATOM     52  C   UNL A   1      39.253  31.355  30.295  1.00  0.00     0.037 A 
ATOM     53  C   UNL A   1      45.909  28.456  29.045  1.00  0.00     0.037 A 
ATOM     54  C   UNL A   1      40.476  31.817  30.865  1.00  0.00     0.049 A 
ATOM     55  C   UNL A   1      45.660  29.949  28.972  1.00  0.00     0.074 A 
ATOM     56  C   UNL A   1      41.190  31.461  31.993  1.00  0.00     0.029 A 
ATOM     57  N   UNL A   1      41.351  32.418  30.007  1.00  0.00    -0.354 N 
ATOM     58  N   UNL A   1      44.756  30.588  29.667  1.00  0.00    -0.248 NA
ATOM     59  C   UNL A   1      46.353  30.826  28.025  1.00  0.00     0.031 C 
ATOM     60  C   UNL A   1      42.564  31.740  31.718  1.00  0.00     0.029 A 
ATOM     61  C   UNL A   1      42.644  32.319  30.462  1.00  0.00     0.049 A 
ATOM     62  H   UNL A   1      41.089  32.863  29.170  1.00  0.00     0.167 HD
ATOM     63  C   UNL A   1      44.647  31.861  29.181  1.00  0.00     0.074 A 
ATOM     64  C   UNL A   1      45.686  31.979  28.181  1.00  0.00     0.031 C 
ATOM     65  C   UNL A   1      43.681  32.742  29.548  1.00  0.00     0.037 A 
BRANCH  52  66
ATOM     66  C   UNL A   1      37.848  31.755  30.705  1.00  0.00     0.064 A 
ATOM     67  C   UNL A   1      36.947  32.348  29.808  1.00  0.00     0.173 A 
ATOM     68  C   UNL A   1      37.374  31.610  32.033  1.00  0.00     0.173 A 
ATOM     69  F   UNL A   1      37.254  32.474  28.510  1.00  0.00    -0.203 F 
ATOM     70  C   UNL A   1      35.712  32.861  30.231  1.00  0.00     0.198 A 
ATOM     71  C   UNL A   1      36.171  32.176  32.467  1.00  0.00     0.198 A 
ATOM     72  F   UNL A   1      38.107  30.961  32.953  1.00  0.00    -0.203 F 
ATOM     73  F   UNL A   1      34.888  33.434  29.342  1.00  0.00    -0.200 F 
ATOM     74  C   UNL A   1      35.343  32.812  31.564  1.00  0.00     0.200 A 
ATOM     75  F   UNL A   1      35.837  32.136  33.766  1.00  0.00    -0.200 F 
ATOM     76  F   UNL A   1      34.198  33.376  31.976  1.00  0.00    -0.200 F 
ENDBRANCH  52  66
BRANCH  53  77
ATOM     77  C   UNL A   1      46.511  27.587  27.983  1.00  0.00     0.064 A 
ATOM     78  C   UNL A   1      47.407  26.571  28.392  1.00  0.00     0.173 A 
ATOM     79  C   UNL A   1      45.997  27.486  26.687  1.00  0.00     0.173 A 
ATOM     80  F   UNL A   1      47.951  26.613  29.620  1.00  0.00    -0.203 F 
ATOM     81  C   UNL A   1      47.651  25.446  27.606  1.00  0.00     0.198 A 
ATOM     82  C   UNL A   1      46.280  26.374  25.884  1.00  0.00     0.198 A 
ATOM     83  F   UNL A   1      45.104  28.375  26.234  1.00  0.00    -0.203 F 
ATOM     84  F   UNL A   1      48.390  24.438  28.092  1.00  0.00    -0.200 F 
ATOM     85  C   UNL A   1      47.064  25.337  26.361  1.00  0.00     0.200 A 
ATOM     86  F   UNL A   1      45.678  26.250  24.692  1.00  0.00    -0.200 F 
ATOM     87  F   UNL A   1      47.205  24.211  25.646  1.00  0.00    -0.200 F 
ENDBRANCH  53  77
BRANCH  65  88
ATOM     88  C   UNL A   1      43.657  34.134  29.014  1.00  0.00     0.064 A 
ATOM     89  C   UNL A   1      43.720  35.211  29.904  1.00  0.00     0.173 A 
ATOM     90  C   UNL A   1      43.394  34.429  27.663  1.00  0.00     0.173 A 
ATOM     91  F   UNL A   1      43.964  35.000  31.206  1.00  0.00    -0.203 F 
ATOM     92  C   UNL A   1      43.514  36.516  29.468  1.00  0.00     0.198 A 
ATOM     93  C   UNL A   1      43.128  35.725  27.241  1.00  0.00     0.198 A 
ATOM     94  F   UNL A   1      43.378  33.465  26.729  1.00  0.00    -0.203 F 
ATOM     95  F   UNL A   1      43.610  37.528  30.339  1.00  0.00    -0.200 F 
ATOM     96  C   UNL A   1      43.191  36.769  28.144  1.00  0.00     0.200 A 
ATOM     97  F   UNL A   1      42.791  35.954  25.963  1.00  0.00    -0.200 F 
ATOM     98  F   UNL A   1      42.944  38.022  27.738  1.00  0.00    -0.200 F 
ENDBRANCH  65  88
ENDBRANCH  39  40
ENDBRANCH  32  34
ENDBRANCH  31  32
ENDBRANCH  30  31
ENDBRANCH  29  30
ENDBRANCH  28  29
ENDBRANCH  27  28
ENDBRANCH   1  27
TORSDOF 20
ENDMDL
