MODEL 1
REMARK VINA RESULT:      -6.6      0.000      0.000
REMARK SMILES CC/C=C/C/C=C/C/C=C/C/C=C/CCSCCCC(=O)OCCOCCOCCOC(=O)c1ccc(-c2c3nc(c(-c4c(F)c(F)c(F)c(F)c4F)c4ccc([nH]4)c(-c4c(F)c(F)c(F)c(F)c4F)c4nc(c(-c5c(F)c(F)c(F)c(F)c5F)c5ccc2[nH]5)C=C4)C=C3)cc1
REMARK SMILES IDX 20 1 21 2 19 3 18 4 17 5 16 6 15 7 14 8 13 9 12 10 11 11
REMARK SMILES IDX 10 12 9 13 8 14 7 15 6 16 5 17 4 18 3 19 2 20 1 21 22 22
REMARK SMILES IDX 23 23 24 24 25 25 26 26 27 27 28 28 29 29 30 30 31 31 32 32
REMARK SMILES IDX 33 33 34 34 35 35 96 36 36 37 95 38 37 39 38 40 39 41 89 42
REMARK SMILES IDX 40 43 94 44 88 45 90 46 41 47 93 48 87 49 86 50 42 52 74 53
REMARK SMILES IDX 54 54 73 55 55 56 58 57 72 58 91 59 56 60 57 61 71 63 92 64
REMARK SMILES IDX 59 65 43 66 44 67 52 68 45 69 46 70 50 71 53 72 47 73 48 74
REMARK SMILES IDX 51 75 49 76 75 77 76 78 84 79 77 80 78 81 82 82 85 83 79 84
REMARK SMILES IDX 80 85 83 86 81 87 60 88 61 89 69 90 62 91 63 92 67 93 70 94
REMARK SMILES IDX 64 95 65 96 68 97 66 98
REMARK H PARENT 90 51 58 62
REMARK Flexibility Score: inf
ROOT
ATOM      1  C   UNL A   1      50.451  27.996  31.333  1.00  0.00     0.305 C 
ATOM      2  O   UNL A   1      50.201  28.903  32.107  1.00  0.00    -0.252 OA
ENDROOT
BRANCH   1   3
ATOM      3  C   UNL A   1      51.883  27.552  31.117  1.00  0.00     0.123 C 
BRANCH   3   4
ATOM      4  C   UNL A   1      52.456  27.608  29.708  1.00  0.00     0.023 C 
BRANCH   4   5
ATOM      5  C   UNL A   1      52.344  28.878  28.862  1.00  0.00     0.070 C 
BRANCH   5   6
ATOM      6  S   UNL A   1      53.715  29.741  27.991  1.00  0.00    -0.162 SA
BRANCH   6   7
ATOM      7  C   UNL A   1      53.085  31.333  27.350  1.00  0.00     0.073 C 
BRANCH   7   8
ATOM      8  C   UNL A   1      51.695  31.245  26.677  1.00  0.00     0.038 C 
BRANCH   8   9
ATOM      9  C   UNL A   1      50.681  32.299  27.057  1.00  0.00    -0.030 C 
ATOM     10  C   UNL A   1      49.359  32.291  26.787  1.00  0.00    -0.027 C 
BRANCH  10  11
ATOM     11  C   UNL A   1      48.366  33.374  27.194  1.00  0.00     0.054 C 
BRANCH  11  12
ATOM     12  C   UNL A   1      46.929  33.039  26.840  1.00  0.00    -0.027 C 
ATOM     13  C   UNL A   1      45.974  33.900  26.426  1.00  0.00    -0.027 C 
BRANCH  13  14
ATOM     14  C   UNL A   1      44.592  33.491  25.976  1.00  0.00     0.054 C 
BRANCH  14  15
ATOM     15  C   UNL A   1      43.591  34.535  26.364  1.00  0.00    -0.027 C 
ATOM     16  C   UNL A   1      43.376  34.972  27.614  1.00  0.00    -0.027 C 
BRANCH  16  17
ATOM     17  C   UNL A   1      42.178  35.799  27.982  1.00  0.00     0.054 C 
BRANCH  17  18
ATOM     18  C   UNL A   1      41.472  35.162  29.144  1.00  0.00    -0.027 C 
ATOM     19  C   UNL A   1      41.870  34.027  29.738  1.00  0.00    -0.031 C 
BRANCH  19  20
ATOM     20  C   UNL A   1      41.108  33.357  30.842  1.00  0.00     0.023 C 
ATOM     21  C   UNL A   1      40.155  34.339  31.507  1.00  0.00     0.008 C 
ENDBRANCH  19  20
ENDBRANCH  17  18
ENDBRANCH  16  17
ENDBRANCH  14  15
ENDBRANCH  13  14
ENDBRANCH  11  12
ENDBRANCH  10  11
ENDBRANCH   8   9
ENDBRANCH   7   8
ENDBRANCH   6   7
ENDBRANCH   5   6
ENDBRANCH   4   5
ENDBRANCH   3   4
ENDBRANCH   1   3
BRANCH   1  22
ATOM     22  O   UNL A   1      49.555  27.207  30.719  1.00  0.00    -0.463 OA
BRANCH  22  23
ATOM     23  C   UNL A   1      49.417  25.764  30.671  1.00  0.00     0.261 C 
BRANCH  23  24
ATOM     24  C   UNL A   1      50.001  24.926  29.534  1.00  0.00     0.202 C 
BRANCH  24  25
ATOM     25  O   UNL A   1      49.423  25.018  28.248  1.00  0.00    -0.376 OA
BRANCH  25  26
ATOM     26  C   UNL A   1      48.095  25.492  28.219  1.00  0.00     0.188 C 
BRANCH  26  27
ATOM     27  C   UNL A   1      47.082  24.471  27.657  1.00  0.00     0.188 C 
BRANCH  27  28
ATOM     28  O   UNL A   1      47.210  23.996  26.327  1.00  0.00    -0.376 OA
BRANCH  28  29
ATOM     29  C   UNL A   1      47.047  24.917  25.259  1.00  0.00     0.202 C 
BRANCH  29  30
ATOM     30  C   UNL A   1      45.650  25.487  24.943  1.00  0.00     0.261 C 
BRANCH  30  31
ATOM     31  O   UNL A   1      44.631  24.539  24.564  1.00  0.00    -0.460 OA
BRANCH  31  32
ATOM     32  C   UNL A   1      43.954  23.940  25.577  1.00  0.00     0.338 C 
ATOM     33  O   UNL A   1      44.099  22.793  25.976  1.00  0.00    -0.246 OA
BRANCH  32  34
ATOM     34  C   UNL A   1      43.158  24.948  26.324  1.00  0.00     0.060 A 
ATOM     35  C   UNL A   1      43.550  26.300  26.276  1.00  0.00     0.016 A 
ATOM     36  C   UNL A   1      42.049  24.573  27.078  1.00  0.00     0.016 A 
ATOM     37  C   UNL A   1      42.866  27.269  27.009  1.00  0.00     0.010 A 
ATOM     38  C   UNL A   1      41.394  25.535  27.857  1.00  0.00     0.010 A 
ATOM     39  C   UNL A   1      41.831  26.874  27.863  1.00  0.00    -0.014 A 
BRANCH  39  40
ATOM     40  C   UNL A   1      41.424  27.772  28.971  1.00  0.00     0.031 A 
ATOM     41  C   UNL A   1      42.196  27.670  30.260  1.00  0.00     0.074 A 
ATOM     42  C   UNL A   1      40.421  28.657  28.854  1.00  0.00     0.049 A 
ATOM     43  N   UNL A   1      41.977  28.244  31.415  1.00  0.00    -0.248 NA
ATOM     44  C   UNL A   1      43.378  26.792  30.239  1.00  0.00     0.031 C 
ATOM     45  C   UNL A   1      39.649  28.906  27.641  1.00  0.00     0.029 A 
ATOM     46  N   UNL A   1      39.868  29.499  29.787  1.00  0.00    -0.354 N 
ATOM     47  C   UNL A   1      42.983  27.787  32.256  1.00  0.00     0.074 A 
ATOM     48  C   UNL A   1      43.794  26.865  31.493  1.00  0.00     0.031 C 
ATOM     49  C   UNL A   1      38.690  29.808  27.912  1.00  0.00     0.029 A 
ATOM     50  C   UNL A   1      38.764  30.176  29.327  1.00  0.00     0.049 A 
ATOM     51  H   UNL A   1      40.226  29.607  30.697  1.00  0.00     0.167 HD
ATOM     52  C   UNL A   1      43.214  28.111  33.549  1.00  0.00     0.037 A 
ATOM     53  C   UNL A   1      37.897  30.969  29.987  1.00  0.00     0.037 A 
ATOM     54  C   UNL A   1      42.401  29.022  34.307  1.00  0.00     0.049 A 
ATOM     55  C   UNL A   1      38.116  31.243  31.456  1.00  0.00     0.074 A 
ATOM     56  C   UNL A   1      42.548  29.421  35.623  1.00  0.00     0.029 A 
ATOM     57  N   UNL A   1      41.277  29.670  33.814  1.00  0.00    -0.354 N 
ATOM     58  N   UNL A   1      39.071  30.816  32.248  1.00  0.00    -0.248 NA
ATOM     59  C   UNL A   1      37.138  32.115  32.122  1.00  0.00     0.031 C 
ATOM     60  C   UNL A   1      41.480  30.263  35.944  1.00  0.00     0.029 A 
ATOM     61  C   UNL A   1      40.706  30.446  34.809  1.00  0.00     0.049 A 
ATOM     62  H   UNL A   1      40.936  29.589  32.894  1.00  0.00     0.167 HD
ATOM     63  C   UNL A   1      38.831  31.395  33.488  1.00  0.00     0.074 A 
ATOM     64  C   UNL A   1      37.646  32.212  33.342  1.00  0.00     0.031 C 
ATOM     65  C   UNL A   1      39.530  31.264  34.643  1.00  0.00     0.037 A 
BRANCH  52  66
ATOM     66  C   UNL A   1      44.375  27.447  34.231  1.00  0.00     0.064 A 
ATOM     67  C   UNL A   1      45.659  28.012  34.227  1.00  0.00     0.173 A 
ATOM     68  C   UNL A   1      44.195  26.235  34.915  1.00  0.00     0.173 A 
ATOM     69  F   UNL A   1      45.889  29.160  33.571  1.00  0.00    -0.203 F 
ATOM     70  C   UNL A   1      46.725  27.375  34.857  1.00  0.00     0.198 A 
ATOM     71  C   UNL A   1      45.255  25.618  35.573  1.00  0.00     0.198 A 
ATOM     72  F   UNL A   1      42.989  25.649  34.950  1.00  0.00    -0.203 F 
ATOM     73  F   UNL A   1      47.954  27.906  34.793  1.00  0.00    -0.200 F 
ATOM     74  C   UNL A   1      46.521  26.184  35.536  1.00  0.00     0.200 A 
ATOM     75  F   UNL A   1      45.053  24.473  36.239  1.00  0.00    -0.200 F 
ATOM     76  F   UNL A   1      47.545  25.576  36.149  1.00  0.00    -0.200 F 
ENDBRANCH  52  66
BRANCH  53  77
ATOM     77  C   UNL A   1      36.724  31.545  29.275  1.00  0.00     0.064 A 
ATOM     78  C   UNL A   1      36.649  32.916  28.993  1.00  0.00     0.173 A 
ATOM     79  C   UNL A   1      35.640  30.741  28.888  1.00  0.00     0.173 A 
ATOM     80  F   UNL A   1      37.645  33.732  29.368  1.00  0.00    -0.203 F 
ATOM     81  C   UNL A   1      35.528  33.464  28.371  1.00  0.00     0.198 A 
ATOM     82  C   UNL A   1      34.535  31.285  28.237  1.00  0.00     0.198 A 
ATOM     83  F   UNL A   1      35.655  29.424  29.141  1.00  0.00    -0.203 F 
ATOM     84  F   UNL A   1      35.459  34.787  28.165  1.00  0.00    -0.200 F 
ATOM     85  C   UNL A   1      34.475  32.647  27.988  1.00  0.00     0.200 A 
ATOM     86  F   UNL A   1      33.525  30.489  27.859  1.00  0.00    -0.200 F 
ATOM     87  F   UNL A   1      33.399  33.175  27.390  1.00  0.00    -0.200 F 
ENDBRANCH  53  77
BRANCH  65  88
ATOM     88  C   UNL A   1      39.067  32.060  35.831  1.00  0.00     0.064 A 
ATOM     89  C   UNL A   1      38.229  31.510  36.812  1.00  0.00     0.173 A 
ATOM     90  C   UNL A   1      39.510  33.379  36.015  1.00  0.00     0.173 A 
ATOM     91  F   UNL A   1      37.766  30.257  36.680  1.00  0.00    -0.203 F 
ATOM     92  C   UNL A   1      37.827  32.260  37.915  1.00  0.00     0.198 A 
ATOM     93  C   UNL A   1      39.138  34.114  37.136  1.00  0.00     0.198 A 
ATOM     94  F   UNL A   1      40.324  33.951  35.113  1.00  0.00    -0.203 F 
ATOM     95  F   UNL A   1      36.985  31.731  38.813  1.00  0.00    -0.200 F 
ATOM     96  C   UNL A   1      38.289  33.558  38.081  1.00  0.00     0.200 A 
ATOM     97  F   UNL A   1      39.600  35.361  37.303  1.00  0.00    -0.200 F 
ATOM     98  F   UNL A   1      37.911  34.274  39.148  1.00  0.00    -0.200 F 
ENDBRANCH  65  88
ENDBRANCH  39  40
ENDBRANCH  32  34
ENDBRANCH  31  32
ENDBRANCH  30  31
ENDBRANCH  29  30
ENDBRANCH  28  29
ENDBRANCH  27  28
ENDBRANCH  26  27
ENDBRANCH  25  26
ENDBRANCH  24  25
ENDBRANCH  23  24
ENDBRANCH  22  23
ENDBRANCH   1  22
TORSDOF 30
ENDMDL
MODEL 2
REMARK VINA RESULT:      -6.6      6.116     11.942
REMARK SMILES CC/C=C/C/C=C/C/C=C/C/C=C/CCSCCCC(=O)OCCOCCOCCOC(=O)c1ccc(-c2c3nc(c(-c4c(F)c(F)c(F)c(F)c4F)c4ccc([nH]4)c(-c4c(F)c(F)c(F)c(F)c4F)c4nc(c(-c5c(F)c(F)c(F)c(F)c5F)c5ccc2[nH]5)C=C4)C=C3)cc1
REMARK SMILES IDX 20 1 21 2 19 3 18 4 17 5 16 6 15 7 14 8 13 9 12 10 11 11
REMARK SMILES IDX 10 12 9 13 8 14 7 15 6 16 5 17 4 18 3 19 2 20 1 21 22 22
REMARK SMILES IDX 23 23 24 24 25 25 26 26 27 27 28 28 29 29 30 30 31 31 32 32
REMARK SMILES IDX 33 33 34 34 35 35 96 36 36 37 95 38 37 39 38 40 39 41 89 42
REMARK SMILES IDX 40 43 94 44 88 45 90 46 41 47 93 48 87 49 86 50 42 52 74 53
REMARK SMILES IDX 54 54 73 55 55 56 58 57 72 58 91 59 56 60 57 61 71 63 92 64
REMARK SMILES IDX 59 65 43 66 44 67 52 68 45 69 46 70 50 71 53 72 47 73 48 74
REMARK SMILES IDX 51 75 49 76 75 77 76 78 84 79 77 80 78 81 82 82 85 83 79 84
REMARK SMILES IDX 80 85 83 86 81 87 60 88 61 89 69 90 62 91 63 92 67 93 70 94
REMARK SMILES IDX 64 95 65 96 68 97 66 98
REMARK H PARENT 90 51 58 62
REMARK Flexibility Score: inf
ROOT
ATOM      1  C   UNL A   1      51.131  19.758  34.303  1.00  0.00     0.305 C 
ATOM      2  O   UNL A   1      51.536  19.133  35.266  1.00  0.00    -0.252 OA
ENDROOT
BRANCH   1   3
ATOM      3  C   UNL A   1      49.652  19.788  33.981  1.00  0.00     0.123 C 
BRANCH   3   4
ATOM      4  C   UNL A   1      48.874  21.068  34.257  1.00  0.00     0.023 C 
BRANCH   4   5
ATOM      5  C   UNL A   1      47.584  21.044  35.078  1.00  0.00     0.070 C 
BRANCH   5   6
ATOM      6  S   UNL A   1      46.889  22.429  36.070  1.00  0.00    -0.162 SA
BRANCH   6   7
ATOM      7  C   UNL A   1      45.068  22.269  36.095  1.00  0.00     0.073 C 
BRANCH   7   8
ATOM      8  C   UNL A   1      44.408  22.277  34.696  1.00  0.00     0.038 C 
BRANCH   8   9
ATOM      9  C   UNL A   1      43.686  23.538  34.284  1.00  0.00    -0.030 C 
ATOM     10  C   UNL A   1      43.524  24.660  35.017  1.00  0.00    -0.027 C 
BRANCH  10  11
ATOM     11  C   UNL A   1      42.792  25.918  34.562  1.00  0.00     0.054 C 
BRANCH  11  12
ATOM     12  C   UNL A   1      43.662  26.864  33.757  1.00  0.00    -0.027 C 
ATOM     13  C   UNL A   1      44.240  26.616  32.562  1.00  0.00    -0.027 C 
BRANCH  13  14
ATOM     14  C   UNL A   1      45.001  27.638  31.752  1.00  0.00     0.054 C 
BRANCH  14  15
ATOM     15  C   UNL A   1      46.472  27.506  32.002  1.00  0.00    -0.027 C 
ATOM     16  C   UNL A   1      47.093  26.378  32.377  1.00  0.00    -0.027 C 
BRANCH  16  17
ATOM     17  C   UNL A   1      48.505  26.369  32.888  1.00  0.00     0.054 C 
BRANCH  17  18
ATOM     18  C   UNL A   1      49.401  25.743  31.858  1.00  0.00    -0.027 C 
ATOM     19  C   UNL A   1      49.862  26.379  30.772  1.00  0.00    -0.031 C 
BRANCH  19  20
ATOM     20  C   UNL A   1      50.687  25.716  29.709  1.00  0.00     0.023 C 
ATOM     21  C   UNL A   1      51.758  26.666  29.194  1.00  0.00     0.008 C 
ENDBRANCH  19  20
ENDBRANCH  17  18
ENDBRANCH  16  17
ENDBRANCH  14  15
ENDBRANCH  13  14
ENDBRANCH  11  12
ENDBRANCH  10  11
ENDBRANCH   8   9
ENDBRANCH   7   8
ENDBRANCH   6   7
ENDBRANCH   5   6
ENDBRANCH   4   5
ENDBRANCH   3   4
ENDBRANCH   1   3
BRANCH   1  22
ATOM     22  O   UNL A   1      51.857  20.582  33.530  1.00  0.00    -0.463 OA
BRANCH  22  23
ATOM     23  C   UNL A   1      53.243  20.532  33.106  1.00  0.00     0.261 C 
BRANCH  23  24
ATOM     24  C   UNL A   1      53.848  21.577  32.170  1.00  0.00     0.202 C 
BRANCH  24  25
ATOM     25  O   UNL A   1      54.887  22.406  32.649  1.00  0.00    -0.376 OA
BRANCH  25  26
ATOM     26  C   UNL A   1      55.184  23.525  31.843  1.00  0.00     0.188 C 
BRANCH  26  27
ATOM     27  C   UNL A   1      56.694  23.732  31.599  1.00  0.00     0.188 C 
BRANCH  27  28
ATOM     28  O   UNL A   1      57.347  23.051  30.540  1.00  0.00    -0.376 OA
BRANCH  28  29
ATOM     29  C   UNL A   1      56.616  22.788  29.351  1.00  0.00     0.202 C 
BRANCH  29  30
ATOM     30  C   UNL A   1      56.879  23.628  28.086  1.00  0.00     0.261 C 
BRANCH  30  31
ATOM     31  O   UNL A   1      55.760  23.844  27.204  1.00  0.00    -0.460 OA
BRANCH  31  32
ATOM     32  C   UNL A   1      56.023  24.481  26.034  1.00  0.00     0.338 C 
ATOM     33  O   UNL A   1      56.763  24.093  25.140  1.00  0.00    -0.246 OA
BRANCH  32  34
ATOM     34  C   UNL A   1      55.096  25.628  25.858  1.00  0.00     0.060 A 
ATOM     35  C   UNL A   1      54.962  26.565  26.902  1.00  0.00     0.016 A 
ATOM     36  C   UNL A   1      54.350  25.778  24.691  1.00  0.00     0.016 A 
ATOM     37  C   UNL A   1      54.059  27.623  26.800  1.00  0.00     0.010 A 
ATOM     38  C   UNL A   1      53.404  26.808  24.611  1.00  0.00     0.010 A 
ATOM     39  C   UNL A   1      53.223  27.702  25.683  1.00  0.00    -0.014 A 
BRANCH  39  40
ATOM     40  C   UNL A   1      51.974  28.498  25.768  1.00  0.00     0.031 A 
ATOM     41  C   UNL A   1      52.107  29.997  25.717  1.00  0.00     0.074 A 
ATOM     42  C   UNL A   1      50.761  27.932  25.874  1.00  0.00     0.049 A 
ATOM     43  N   UNL A   1      51.201  30.925  25.889  1.00  0.00    -0.248 NA
ATOM     44  C   UNL A   1      53.455  30.518  25.435  1.00  0.00     0.031 C 
ATOM     45  C   UNL A   1      50.492  26.498  25.858  1.00  0.00     0.029 A 
ATOM     46  N   UNL A   1      49.525  28.507  26.039  1.00  0.00    -0.354 N 
ATOM     47  C   UNL A   1      51.872  32.133  25.750  1.00  0.00     0.074 A 
ATOM     48  C   UNL A   1      53.264  31.825  25.512  1.00  0.00     0.031 C 
ATOM     49  C   UNL A   1      49.176  26.300  26.050  1.00  0.00     0.029 A 
ATOM     50  C   UNL A   1      48.518  27.594  26.233  1.00  0.00     0.049 A 
ATOM     51  H   UNL A   1      49.375  29.480  26.020  1.00  0.00     0.167 HD
ATOM     52  C   UNL A   1      51.371  33.388  25.810  1.00  0.00     0.037 A 
ATOM     53  C   UNL A   1      47.224  27.787  26.559  1.00  0.00     0.037 A 
ATOM     54  C   UNL A   1      49.988  33.690  26.056  1.00  0.00     0.049 A 
ATOM     55  C   UNL A   1      46.703  29.196  26.718  1.00  0.00     0.074 A 
ATOM     56  C   UNL A   1      49.375  34.927  26.136  1.00  0.00     0.029 A 
ATOM     57  N   UNL A   1      49.001  32.739  26.273  1.00  0.00    -0.354 N 
ATOM     58  N   UNL A   1      47.337  30.336  26.579  1.00  0.00    -0.248 NA
ATOM     59  C   UNL A   1      45.285  29.344  27.073  1.00  0.00     0.031 C 
ATOM     60  C   UNL A   1      48.030  34.727  26.459  1.00  0.00     0.029 A 
ATOM     61  C   UNL A   1      47.787  33.364  26.512  1.00  0.00     0.049 A 
ATOM     62  H   UNL A   1      49.142  31.765  26.259  1.00  0.00     0.167 HD
ATOM     63  C   UNL A   1      46.390  31.332  26.791  1.00  0.00     0.074 A 
ATOM     64  C   UNL A   1      45.136  30.661  27.058  1.00  0.00     0.031 C 
ATOM     65  C   UNL A   1      46.545  32.679  26.765  1.00  0.00     0.037 A 
BRANCH  52  66
ATOM     66  C   UNL A   1      52.335  34.526  25.641  1.00  0.00     0.064 A 
ATOM     67  C   UNL A   1      52.947  35.148  26.740  1.00  0.00     0.173 A 
ATOM     68  C   UNL A   1      52.667  34.989  24.359  1.00  0.00     0.173 A 
ATOM     69  F   UNL A   1      52.649  34.756  27.989  1.00  0.00    -0.203 F 
ATOM     70  C   UNL A   1      53.831  36.209  26.564  1.00  0.00     0.198 A 
ATOM     71  C   UNL A   1      53.578  36.027  24.184  1.00  0.00     0.198 A 
ATOM     72  F   UNL A   1      52.112  34.431  23.273  1.00  0.00    -0.203 F 
ATOM     73  F   UNL A   1      54.360  36.823  27.631  1.00  0.00    -0.200 F 
ATOM     74  C   UNL A   1      54.153  36.642  25.287  1.00  0.00     0.200 A 
ATOM     75  F   UNL A   1      53.897  36.435  22.948  1.00  0.00    -0.200 F 
ATOM     76  F   UNL A   1      55.011  37.656  25.117  1.00  0.00    -0.200 F 
ENDBRANCH  52  66
BRANCH  53  77
ATOM     77  C   UNL A   1      46.330  26.619  26.783  1.00  0.00     0.064 A 
ATOM     78  C   UNL A   1      45.502  26.133  25.761  1.00  0.00     0.173 A 
ATOM     79  C   UNL A   1      46.262  25.982  28.032  1.00  0.00     0.173 A 
ATOM     80  F   UNL A   1      45.507  26.725  24.558  1.00  0.00    -0.203 F 
ATOM     81  C   UNL A   1      44.627  25.071  25.985  1.00  0.00     0.198 A 
ATOM     82  C   UNL A   1      45.412  24.899  28.245  1.00  0.00     0.198 A 
ATOM     83  F   UNL A   1      47.026  26.411  29.048  1.00  0.00    -0.203 F 
ATOM     84  F   UNL A   1      43.806  24.665  25.007  1.00  0.00    -0.200 F 
ATOM     85  C   UNL A   1      44.588  24.451  27.225  1.00  0.00     0.200 A 
ATOM     86  F   UNL A   1      45.385  24.297  29.442  1.00  0.00    -0.200 F 
ATOM     87  F   UNL A   1      43.747  23.430  27.439  1.00  0.00    -0.200 F 
ENDBRANCH  53  77
BRANCH  65  88
ATOM     88  C   UNL A   1      45.320  33.524  26.979  1.00  0.00     0.064 A 
ATOM     89  C   UNL A   1      45.022  34.096  28.225  1.00  0.00     0.173 A 
ATOM     90  C   UNL A   1      44.458  33.806  25.908  1.00  0.00     0.173 A 
ATOM     91  F   UNL A   1      45.805  33.850  29.286  1.00  0.00    -0.203 F 
ATOM     92  C   UNL A   1      43.891  34.892  28.397  1.00  0.00     0.198 A 
ATOM     93  C   UNL A   1      43.350  34.630  26.073  1.00  0.00     0.198 A 
ATOM     94  F   UNL A   1      44.703  33.294  24.691  1.00  0.00    -0.203 F 
ATOM     95  F   UNL A   1      43.598  35.385  29.608  1.00  0.00    -0.200 F 
ATOM     96  C   UNL A   1      43.062  35.166  27.319  1.00  0.00     0.200 A 
ATOM     97  F   UNL A   1      42.560  34.909  25.026  1.00  0.00    -0.200 F 
ATOM     98  F   UNL A   1      41.981  35.940  27.483  1.00  0.00    -0.200 F 
ENDBRANCH  65  88
ENDBRANCH  39  40
ENDBRANCH  32  34
ENDBRANCH  31  32
ENDBRANCH  30  31
ENDBRANCH  29  30
ENDBRANCH  28  29
ENDBRANCH  27  28
ENDBRANCH  26  27
ENDBRANCH  25  26
ENDBRANCH  24  25
ENDBRANCH  23  24
ENDBRANCH  22  23
ENDBRANCH   1  22
TORSDOF 30
ENDMDL
MODEL 3
REMARK VINA RESULT:      -6.6      5.091     12.547
REMARK SMILES CC/C=C/C/C=C/C/C=C/C/C=C/CCSCCCC(=O)OCCOCCOCCOC(=O)c1ccc(-c2c3nc(c(-c4c(F)c(F)c(F)c(F)c4F)c4ccc([nH]4)c(-c4c(F)c(F)c(F)c(F)c4F)c4nc(c(-c5c(F)c(F)c(F)c(F)c5F)c5ccc2[nH]5)C=C4)C=C3)cc1
REMARK SMILES IDX 20 1 21 2 19 3 18 4 17 5 16 6 15 7 14 8 13 9 12 10 11 11
REMARK SMILES IDX 10 12 9 13 8 14 7 15 6 16 5 17 4 18 3 19 2 20 1 21 22 22
REMARK SMILES IDX 23 23 24 24 25 25 26 26 27 27 28 28 29 29 30 30 31 31 32 32
REMARK SMILES IDX 33 33 34 34 35 35 96 36 36 37 95 38 37 39 38 40 39 41 89 42
REMARK SMILES IDX 40 43 94 44 88 45 90 46 41 47 93 48 87 49 86 50 42 52 74 53
REMARK SMILES IDX 54 54 73 55 55 56 58 57 72 58 91 59 56 60 57 61 71 63 92 64
REMARK SMILES IDX 59 65 43 66 44 67 52 68 45 69 46 70 50 71 53 72 47 73 48 74
REMARK SMILES IDX 51 75 49 76 75 77 76 78 84 79 77 80 78 81 82 82 85 83 79 84
REMARK SMILES IDX 80 85 83 86 81 87 60 88 61 89 69 90 62 91 63 92 67 93 70 94
REMARK SMILES IDX 64 95 65 96 68 97 66 98
REMARK H PARENT 90 51 58 62
REMARK Flexibility Score: inf
ROOT
ATOM      1  C   UNL A   1      40.973  36.439  36.126  1.00  0.00     0.305 C 
ATOM      2  O   UNL A   1      39.839  36.410  35.682  1.00  0.00    -0.252 OA
ENDROOT
BRANCH   1   3
ATOM      3  C   UNL A   1      42.123  36.890  35.248  1.00  0.00     0.123 C 
BRANCH   3   4
ATOM      4  C   UNL A   1      43.513  36.981  35.863  1.00  0.00     0.023 C 
BRANCH   4   5
ATOM      5  C   UNL A   1      44.560  35.895  35.605  1.00  0.00     0.070 C 
BRANCH   5   6
ATOM      6  S   UNL A   1      44.237  34.113  35.289  1.00  0.00    -0.162 SA
BRANCH   6   7
ATOM      7  C   UNL A   1      44.713  33.163  36.778  1.00  0.00     0.073 C 
BRANCH   7   8
ATOM      8  C   UNL A   1      45.978  32.291  36.601  1.00  0.00     0.038 C 
BRANCH   8   9
ATOM      9  C   UNL A   1      46.521  32.145  35.199  1.00  0.00    -0.030 C 
ATOM     10  C   UNL A   1      46.591  33.101  34.249  1.00  0.00    -0.027 C 
BRANCH  10  11
ATOM     11  C   UNL A   1      47.153  32.913  32.844  1.00  0.00     0.054 C 
BRANCH  11  12
ATOM     12  C   UNL A   1      46.126  32.412  31.846  1.00  0.00    -0.027 C 
ATOM     13  C   UNL A   1      45.771  31.129  31.623  1.00  0.00    -0.027 C 
BRANCH  13  14
ATOM     14  C   UNL A   1      44.658  30.698  30.697  1.00  0.00     0.054 C 
BRANCH  14  15
ATOM     15  C   UNL A   1      45.226  30.167  29.417  1.00  0.00    -0.027 C 
ATOM     16  C   UNL A   1      45.847  28.986  29.280  1.00  0.00    -0.027 C 
BRANCH  16  17
ATOM     17  C   UNL A   1      46.642  28.634  28.056  1.00  0.00     0.054 C 
BRANCH  17  18
ATOM     18  C   UNL A   1      47.964  28.057  28.472  1.00  0.00    -0.027 C 
ATOM     19  C   UNL A   1      48.105  26.959  29.229  1.00  0.00    -0.031 C 
BRANCH  19  20
ATOM     20  C   UNL A   1      49.429  26.443  29.707  1.00  0.00     0.023 C 
ATOM     21  C   UNL A   1      49.249  25.570  30.940  1.00  0.00     0.008 C 
ENDBRANCH  19  20
ENDBRANCH  17  18
ENDBRANCH  16  17
ENDBRANCH  14  15
ENDBRANCH  13  14
ENDBRANCH  11  12
ENDBRANCH  10  11
ENDBRANCH   8   9
ENDBRANCH   7   8
ENDBRANCH   6   7
ENDBRANCH   5   6
ENDBRANCH   4   5
ENDBRANCH   3   4
ENDBRANCH   1   3
BRANCH   1  22
ATOM     22  O   UNL A   1      41.330  36.242  37.405  1.00  0.00    -0.463 OA
BRANCH  22  23
ATOM     23  C   UNL A   1      41.299  37.120  38.559  1.00  0.00     0.261 C 
BRANCH  23  24
ATOM     24  C   UNL A   1      42.365  37.069  39.652  1.00  0.00     0.202 C 
BRANCH  24  25
ATOM     25  O   UNL A   1      42.402  38.096  40.622  1.00  0.00    -0.376 OA
BRANCH  25  26
ATOM     26  C   UNL A   1      41.160  38.410  41.212  1.00  0.00     0.188 C 
BRANCH  26  27
ATOM     27  C   UNL A   1      40.655  37.339  42.203  1.00  0.00     0.188 C 
BRANCH  27  28
ATOM     28  O   UNL A   1      39.290  36.954  42.203  1.00  0.00    -0.376 OA
BRANCH  28  29
ATOM     29  C   UNL A   1      38.968  35.598  41.934  1.00  0.00     0.202 C 
BRANCH  29  30
ATOM     30  C   UNL A   1      39.031  35.065  40.489  1.00  0.00     0.261 C 
BRANCH  30  31
ATOM     31  O   UNL A   1      39.003  33.634  40.321  1.00  0.00    -0.460 OA
BRANCH  31  32
ATOM     32  C   UNL A   1      37.860  33.105  39.816  1.00  0.00     0.338 C 
ATOM     33  O   UNL A   1      36.751  33.131  40.331  1.00  0.00    -0.246 OA
BRANCH  32  34
ATOM     34  C   UNL A   1      38.073  32.684  38.407  1.00  0.00     0.060 A 
ATOM     35  C   UNL A   1      37.642  31.405  38.003  1.00  0.00     0.016 A 
ATOM     36  C   UNL A   1      38.701  33.526  37.492  1.00  0.00     0.016 A 
ATOM     37  C   UNL A   1      37.876  30.949  36.706  1.00  0.00     0.010 A 
ATOM     38  C   UNL A   1      38.984  33.049  36.206  1.00  0.00     0.010 A 
ATOM     39  C   UNL A   1      38.616  31.744  35.826  1.00  0.00    -0.014 A 
BRANCH  39  40
ATOM     40  C   UNL A   1      39.268  31.112  34.653  1.00  0.00     0.031 A 
ATOM     41  C   UNL A   1      38.577  31.250  33.322  1.00  0.00     0.074 A 
ATOM     42  C   UNL A   1      40.433  30.450  34.743  1.00  0.00     0.049 A 
ATOM     43  N   UNL A   1      38.862  30.700  32.170  1.00  0.00    -0.248 NA
ATOM     44  C   UNL A   1      37.396  32.129  33.294  1.00  0.00     0.031 C 
ATOM     45  C   UNL A   1      41.236  30.311  35.953  1.00  0.00     0.029 A 
ATOM     46  N   UNL A   1      41.130  29.749  33.791  1.00  0.00    -0.354 N 
ATOM     47  C   UNL A   1      37.891  31.156  31.288  1.00  0.00     0.074 A 
ATOM     48  C   UNL A   1      36.990  32.001  32.041  1.00  0.00     0.031 C 
ATOM     49  C   UNL A   1      42.299  29.533  35.683  1.00  0.00     0.029 A 
ATOM     50  C   UNL A   1      42.230  29.095  34.288  1.00  0.00     0.049 A 
ATOM     51  H   UNL A   1      40.867  29.716  32.842  1.00  0.00     0.167 HD
ATOM     52  C   UNL A   1      37.764  30.899  29.966  1.00  0.00     0.037 A 
ATOM     53  C   UNL A   1      43.060  28.216  33.691  1.00  0.00     0.037 A 
ATOM     54  C   UNL A   1      38.655  30.052  29.223  1.00  0.00     0.049 A 
ATOM     55  C   UNL A   1      42.844  27.865  32.238  1.00  0.00     0.074 A 
ATOM     56  C   UNL A   1      38.617  29.725  27.880  1.00  0.00     0.029 A 
ATOM     57  N   UNL A   1      39.745  29.387  29.767  1.00  0.00    -0.354 N 
ATOM     58  N   UNL A   1      41.930  28.303  31.405  1.00  0.00    -0.248 NA
ATOM     59  C   UNL A   1      43.780  26.902  31.641  1.00  0.00     0.031 C 
ATOM     60  C   UNL A   1      39.649  28.817  27.623  1.00  0.00     0.029 A 
ATOM     61  C   UNL A   1      40.373  28.631  28.790  1.00  0.00     0.049 A 
ATOM     62  H   UNL A   1      40.031  29.444  30.707  1.00  0.00     0.167 HD
ATOM     63  C   UNL A   1      42.204  27.700  30.182  1.00  0.00     0.074 A 
ATOM     64  C   UNL A   1      43.375  26.874  30.380  1.00  0.00     0.031 C 
ATOM     65  C   UNL A   1      41.546  27.822  29.002  1.00  0.00     0.037 A 
BRANCH  52  66
ATOM     66  C   UNL A   1      36.596  31.515  29.252  1.00  0.00     0.064 A 
ATOM     67  C   UNL A   1      35.498  30.750  28.829  1.00  0.00     0.173 A 
ATOM     68  C   UNL A   1      36.566  32.895  29.002  1.00  0.00     0.173 A 
ATOM     69  F   UNL A   1      35.485  29.422  29.026  1.00  0.00    -0.203 F 
ATOM     70  C   UNL A   1      34.429  31.338  28.158  1.00  0.00     0.198 A 
ATOM     71  C   UNL A   1      35.480  33.486  28.362  1.00  0.00     0.198 A 
ATOM     72  F   UNL A   1      37.589  33.675  29.383  1.00  0.00    -0.203 F 
ATOM     73  F   UNL A   1      33.418  30.578  27.716  1.00  0.00    -0.200 F 
ATOM     74  C   UNL A   1      34.416  32.705  27.933  1.00  0.00     0.200 A 
ATOM     75  F   UNL A   1      35.465  34.810  28.156  1.00  0.00    -0.200 F 
ATOM     76  F   UNL A   1      33.383  33.272  27.296  1.00  0.00    -0.200 F 
ENDBRANCH  52  66
BRANCH  53  77
ATOM     77  C   UNL A   1      44.159  27.583  34.469  1.00  0.00     0.064 A 
ATOM     78  C   UNL A   1      43.973  26.356  35.121  1.00  0.00     0.173 A 
ATOM     79  C   UNL A   1      45.410  28.206  34.601  1.00  0.00     0.173 A 
ATOM     80  F   UNL A   1      42.787  25.734  35.051  1.00  0.00    -0.203 F 
ATOM     81  C   UNL A   1      44.986  25.787  35.891  1.00  0.00     0.198 A 
ATOM     82  C   UNL A   1      46.433  27.620  35.343  1.00  0.00     0.198 A 
ATOM     83  F   UNL A   1      45.641  29.385  34.005  1.00  0.00    -0.203 F 
ATOM     84  F   UNL A   1      44.762  24.642  36.549  1.00  0.00    -0.200 F 
ATOM     85  C   UNL A   1      46.218  26.417  35.996  1.00  0.00     0.200 A 
ATOM     86  F   UNL A   1      47.625  28.227  35.433  1.00  0.00    -0.200 F 
ATOM     87  F   UNL A   1      47.191  25.869  36.736  1.00  0.00    -0.200 F 
ENDBRANCH  53  77
BRANCH  65  88
ATOM     88  C   UNL A   1      42.104  27.087  27.815  1.00  0.00     0.064 A 
ATOM     89  C   UNL A   1      43.011  27.688  26.930  1.00  0.00     0.173 A 
ATOM     90  C   UNL A   1      41.764  25.744  27.590  1.00  0.00     0.173 A 
ATOM     91  F   UNL A   1      43.361  28.973  27.091  1.00  0.00    -0.203 F 
ATOM     92  C   UNL A   1      43.531  26.982  25.847  1.00  0.00     0.198 A 
ATOM     93  C   UNL A   1      42.313  25.030  26.530  1.00  0.00     0.198 A 
ATOM     94  F   UNL A   1      40.910  25.116  28.414  1.00  0.00    -0.203 F 
ATOM     95  F   UNL A   1      44.355  27.593  24.985  1.00  0.00    -0.200 F 
ATOM     96  C   UNL A   1      43.189  25.652  25.654  1.00  0.00     0.200 A 
ATOM     97  F   UNL A   1      41.995  23.739  26.356  1.00  0.00    -0.200 F 
ATOM     98  F   UNL A   1      43.699  24.971  24.618  1.00  0.00    -0.200 F 
ENDBRANCH  65  88
ENDBRANCH  39  40
ENDBRANCH  32  34
ENDBRANCH  31  32
ENDBRANCH  30  31
ENDBRANCH  29  30
ENDBRANCH  28  29
ENDBRANCH  27  28
ENDBRANCH  26  27
ENDBRANCH  25  26
ENDBRANCH  24  25
ENDBRANCH  23  24
ENDBRANCH  22  23
ENDBRANCH   1  22
TORSDOF 30
ENDMDL
