MODEL 1
REMARK VINA RESULT:     -11.0      0.000      0.000
REMARK SMILES Cc1ccc2c(c1C)O[C@@H](C(=O)OCCOCCOCCOC(=O)c1ccc(-c3c4nc(c(-c5c(F)c(F)c(F)c(F)c5F)c5ccc([nH]5)c(-c5c(F)c(F)c(F)c(F)c5F)c5nc(c(-c6c(F)c(F)c(F)c(F)c6F)c6ccc3[nH]6)C=C5)C=C4)cc1)CC2=O
REMARK SMILES IDX 18 1 17 2 16 3 15 4 14 5 13 6 11 7 12 8 10 9 1 10 2 11 3 12
REMARK SMILES IDX 7 13 4 14 6 15 8 16 5 17 9 18 89 19 88 20 90 21 19 22 20 23
REMARK SMILES IDX 21 24 22 25 23 26 24 27 25 28 26 29 87 30 27 31 86 32 28 33
REMARK SMILES IDX 29 34 30 35 80 36 31 37 85 38 79 39 81 40 32 41 84 42 78 43
REMARK SMILES IDX 77 44 33 46 65 47 45 48 64 49 46 50 49 51 63 52 82 53 47 54
REMARK SMILES IDX 48 55 62 57 83 58 50 59 34 60 35 61 43 62 36 63 37 64 41 65
REMARK SMILES IDX 44 66 38 67 39 68 42 69 40 70 66 71 67 72 75 73 68 74 69 75
REMARK SMILES IDX 73 76 76 77 70 78 71 79 74 80 72 81 51 82 52 83 60 84 53 85
REMARK SMILES IDX 54 86 58 87 61 88 55 89 56 90 59 91 57 92
REMARK H PARENT 81 45 49 56
REMARK Flexibility Score: inf
ROOT
ATOM      1  C   UNL A   1      31.678  28.898  24.007  1.00  0.00     0.188 C 
ENDROOT
BRANCH   1   2
ATOM      2  C   UNL A   1      30.487  27.969  24.264  1.00  0.00     0.188 C 
BRANCH   2   3
ATOM      3  O   UNL A   1      30.485  26.706  23.626  1.00  0.00    -0.376 OA
BRANCH   3   4
ATOM      4  C   UNL A   1      30.160  25.579  24.433  1.00  0.00     0.202 C 
BRANCH   4   5
ATOM      5  C   UNL A   1      30.284  25.736  25.959  1.00  0.00     0.261 C 
BRANCH   5   6
ATOM      6  O   UNL A   1      31.543  25.313  26.552  1.00  0.00    -0.460 OA
BRANCH   6   7
ATOM      7  C   UNL A   1      31.606  24.010  26.942  1.00  0.00     0.347 C 
ATOM      8  O   UNL A   1      30.622  23.345  27.257  1.00  0.00    -0.248 OA
BRANCH   7   9
ATOM      9  C   UNL A   1      33.027  23.408  27.024  1.00  0.00     0.290 C 
ATOM     10  C   UNL A   1      33.105  25.173  21.320  1.00  0.00     0.045 C 
ATOM     11  C   UNL A   1      33.121  24.190  22.456  1.00  0.00    -0.044 A 
ATOM     12  C   UNL A   1      32.723  22.861  22.212  1.00  0.00     0.005 A 
ATOM     13  C   UNL A   1      33.515  24.577  23.752  1.00  0.00    -0.005 A 
ATOM     14  C   UNL A   1      32.693  21.918  23.237  1.00  0.00     0.016 A 
ATOM     15  C   UNL A   1      33.480  23.619  24.771  1.00  0.00     0.134 A 
ATOM     16  C   UNL A   1      33.876  25.994  24.117  1.00  0.00     0.049 C 
ATOM     17  C   UNL A   1      33.066  22.305  24.517  1.00  0.00     0.060 A 
ATOM     18  O   UNL A   1      33.838  24.042  26.030  1.00  0.00    -0.477 OA
ATOM     19  C   UNL A   1      32.990  21.357  25.644  1.00  0.00     0.170 C 
ATOM     20  C   UNL A   1      33.317  21.921  26.995  1.00  0.00     0.138 C 
ATOM     21  O   UNL A   1      32.728  20.173  25.474  1.00  0.00    -0.294 OA
ENDBRANCH   7   9
ENDBRANCH   6   7
ENDBRANCH   5   6
ENDBRANCH   4   5
ENDBRANCH   3   4
ENDBRANCH   2   3
ENDBRANCH   1   2
BRANCH   1  22
ATOM     22  O   UNL A   1      32.020  29.791  25.044  1.00  0.00    -0.376 OA
BRANCH  22  23
ATOM     23  C   UNL A   1      31.036  30.764  25.386  1.00  0.00     0.202 C 
BRANCH  23  24
ATOM     24  C   UNL A   1      31.460  31.740  26.506  1.00  0.00     0.261 C 
BRANCH  24  25
ATOM     25  O   UNL A   1      32.752  31.515  27.117  1.00  0.00    -0.460 OA
BRANCH  25  26
ATOM     26  C   UNL A   1      33.471  32.595  27.511  1.00  0.00     0.338 C 
ATOM     27  O   UNL A   1      33.066  33.741  27.609  1.00  0.00    -0.246 OA
BRANCH  26  28
ATOM     28  C   UNL A   1      34.741  32.100  28.122  1.00  0.00     0.060 A 
ATOM     29  C   UNL A   1      34.816  30.749  28.505  1.00  0.00     0.016 A 
ATOM     30  C   UNL A   1      35.875  32.909  28.223  1.00  0.00     0.016 A 
ATOM     31  C   UNL A   1      36.010  30.213  29.001  1.00  0.00     0.010 A 
ATOM     32  C   UNL A   1      37.058  32.384  28.763  1.00  0.00     0.010 A 
ATOM     33  C   UNL A   1      37.125  31.042  29.182  1.00  0.00    -0.014 A 
BRANCH  33  34
ATOM     34  C   UNL A   1      38.236  30.591  30.063  1.00  0.00     0.031 A 
ATOM     35  C   UNL A   1      39.214  29.603  29.482  1.00  0.00     0.074 A 
ATOM     36  C   UNL A   1      38.409  31.038  31.321  1.00  0.00     0.049 A 
ATOM     37  N   UNL A   1      40.259  29.040  30.031  1.00  0.00    -0.248 NA
ATOM     38  C   UNL A   1      38.977  29.198  28.086  1.00  0.00     0.031 C 
ATOM     39  C   UNL A   1      37.571  32.025  31.994  1.00  0.00     0.029 A 
ATOM     40  N   UNL A   1      39.361  30.707  32.259  1.00  0.00    -0.354 N 
ATOM     41  C   UNL A   1      40.805  28.227  29.045  1.00  0.00     0.074 A 
ATOM     42  C   UNL A   1      39.957  28.335  27.881  1.00  0.00     0.031 C 
ATOM     43  C   UNL A   1      38.040  32.214  33.243  1.00  0.00     0.029 A 
ATOM     44  C   UNL A   1      39.196  31.344  33.467  1.00  0.00     0.049 A 
ATOM     45  H   UNL A   1      40.092  30.072  32.082  1.00  0.00     0.167 HD
ATOM     46  C   UNL A   1      41.925  27.471  29.097  1.00  0.00     0.037 A 
ATOM     47  C   UNL A   1      39.890  31.225  34.619  1.00  0.00     0.037 A 
ATOM     48  C   UNL A   1      42.766  27.346  30.254  1.00  0.00     0.049 A 
ATOM     49  C   UNL A   1      41.070  30.281  34.690  1.00  0.00     0.074 A 
ATOM     50  C   UNL A   1      43.929  26.612  30.393  1.00  0.00     0.029 A 
ATOM     51  N   UNL A   1      42.524  27.957  31.474  1.00  0.00    -0.354 N 
ATOM     52  N   UNL A   1      41.609  29.557  33.741  1.00  0.00    -0.248 NA
ATOM     53  C   UNL A   1      41.734  30.134  35.997  1.00  0.00     0.031 C 
ATOM     54  C   UNL A   1      44.362  26.729  31.716  1.00  0.00     0.029 A 
ATOM     55  C   UNL A   1      43.497  27.581  32.386  1.00  0.00     0.049 A 
ATOM     56  H   UNL A   1      41.775  28.565  31.665  1.00  0.00     0.167 HD
ATOM     57  C   UNL A   1      42.681  28.889  34.324  1.00  0.00     0.074 A 
ATOM     58  C   UNL A   1      42.730  29.306  35.709  1.00  0.00     0.031 C 
ATOM     59  C   UNL A   1      43.543  28.007  33.762  1.00  0.00     0.037 A 
BRANCH  46  60
ATOM     60  C   UNL A   1      42.304  26.709  27.864  1.00  0.00     0.064 A 
ATOM     61  C   UNL A   1      43.227  27.223  26.941  1.00  0.00     0.173 A 
ATOM     62  C   UNL A   1      41.781  25.428  27.630  1.00  0.00     0.173 A 
ATOM     63  F   UNL A   1      43.741  28.450  27.112  1.00  0.00    -0.203 F 
ATOM     64  C   UNL A   1      43.602  26.488  25.821  1.00  0.00     0.198 A 
ATOM     65  C   UNL A   1      42.183  24.684  26.524  1.00  0.00     0.198 A 
ATOM     66  F   UNL A   1      40.896  24.892  28.483  1.00  0.00    -0.203 F 
ATOM     67  F   UNL A   1      44.457  27.015  24.932  1.00  0.00    -0.200 F 
ATOM     68  C   UNL A   1      43.089  25.216  25.618  1.00  0.00     0.200 A 
ATOM     69  F   UNL A   1      41.696  23.449  26.338  1.00  0.00    -0.200 F 
ATOM     70  F   UNL A   1      43.465  24.502  24.548  1.00  0.00    -0.200 F 
ENDBRANCH  46  60
BRANCH  47  71
ATOM     71  C   UNL A   1      39.492  32.019  35.814  1.00  0.00     0.064 A 
ATOM     72  C   UNL A   1      38.483  31.567  36.678  1.00  0.00     0.173 A 
ATOM     73  C   UNL A   1      40.093  33.252  36.109  1.00  0.00     0.173 A 
ATOM     74  F   UNL A   1      37.850  30.414  36.421  1.00  0.00    -0.203 F 
ATOM     75  C   UNL A   1      38.091  32.317  37.786  1.00  0.00     0.198 A 
ATOM     76  C   UNL A   1      39.719  33.988  37.233  1.00  0.00     0.198 A 
ATOM     77  F   UNL A   1      41.050  33.740  35.307  1.00  0.00    -0.203 F 
ATOM     78  F   UNL A   1      37.097  31.879  38.571  1.00  0.00    -0.200 F 
ATOM     79  C   UNL A   1      38.716  33.523  38.068  1.00  0.00     0.200 A 
ATOM     80  F   UNL A   1      40.330  35.150  37.503  1.00  0.00    -0.200 F 
ATOM     81  F   UNL A   1      38.344  34.239  39.137  1.00  0.00    -0.200 F 
ENDBRANCH  47  71
BRANCH  59  82
ATOM     82  C   UNL A   1      44.622  27.412  34.620  1.00  0.00     0.064 A 
ATOM     83  C   UNL A   1      45.810  28.110  34.882  1.00  0.00     0.173 A 
ATOM     84  C   UNL A   1      44.408  26.203  35.301  1.00  0.00     0.173 A 
ATOM     85  F   UNL A   1      46.065  29.267  34.252  1.00  0.00    -0.203 F 
ATOM     86  C   UNL A   1      46.740  27.622  35.796  1.00  0.00     0.198 A 
ATOM     87  C   UNL A   1      45.327  25.732  36.235  1.00  0.00     0.198 A 
ATOM     88  F   UNL A   1      43.282  25.502  35.096  1.00  0.00    -0.203 F 
ATOM     89  F   UNL A   1      47.874  28.300  36.022  1.00  0.00    -0.200 F 
ATOM     90  C   UNL A   1      46.491  26.443  36.484  1.00  0.00     0.200 A 
ATOM     91  F   UNL A   1      45.073  24.605  36.915  1.00  0.00    -0.200 F 
ATOM     92  F   UNL A   1      47.371  25.995  37.389  1.00  0.00    -0.200 F 
ENDBRANCH  59  82
ENDBRANCH  33  34
ENDBRANCH  26  28
ENDBRANCH  25  26
ENDBRANCH  24  25
ENDBRANCH  23  24
ENDBRANCH  22  23
ENDBRANCH   1  22
TORSDOF 17
ENDMDL
MODEL 2
REMARK VINA RESULT:     -10.9      4.526      8.895
REMARK SMILES Cc1ccc2c(c1C)O[C@@H](C(=O)OCCOCCOCCOC(=O)c1ccc(-c3c4nc(c(-c5c(F)c(F)c(F)c(F)c5F)c5ccc([nH]5)c(-c5c(F)c(F)c(F)c(F)c5F)c5nc(c(-c6c(F)c(F)c(F)c(F)c6F)c6ccc3[nH]6)C=C5)C=C4)cc1)CC2=O
REMARK SMILES IDX 18 1 17 2 16 3 15 4 14 5 13 6 11 7 12 8 10 9 1 10 2 11 3 12
REMARK SMILES IDX 7 13 4 14 6 15 8 16 5 17 9 18 89 19 88 20 90 21 19 22 20 23
REMARK SMILES IDX 21 24 22 25 23 26 24 27 25 28 26 29 87 30 27 31 86 32 28 33
REMARK SMILES IDX 29 34 30 35 80 36 31 37 85 38 79 39 81 40 32 41 84 42 78 43
REMARK SMILES IDX 77 44 33 46 65 47 45 48 64 49 46 50 49 51 63 52 82 53 47 54
REMARK SMILES IDX 48 55 62 57 83 58 50 59 34 60 35 61 43 62 36 63 37 64 41 65
REMARK SMILES IDX 44 66 38 67 39 68 42 69 40 70 66 71 67 72 75 73 68 74 69 75
REMARK SMILES IDX 73 76 76 77 70 78 71 79 74 80 72 81 51 82 52 83 60 84 53 85
REMARK SMILES IDX 54 86 58 87 61 88 55 89 56 90 59 91 57 92
REMARK H PARENT 81 45 49 56
REMARK Flexibility Score: inf
ROOT
ATOM      1  C   UNL A   1      34.730  34.623  28.503  1.00  0.00     0.188 C 
ENDROOT
BRANCH   1   2
ATOM      2  C   UNL A   1      35.310  33.356  27.867  1.00  0.00     0.188 C 
BRANCH   2   3
ATOM      3  O   UNL A   1      34.405  32.424  27.307  1.00  0.00    -0.376 OA
BRANCH   3   4
ATOM      4  C   UNL A   1      34.549  31.065  27.708  1.00  0.00     0.202 C 
BRANCH   4   5
ATOM      5  C   UNL A   1      33.398  30.099  27.379  1.00  0.00     0.261 C 
BRANCH   5   6
ATOM      6  O   UNL A   1      33.758  28.886  26.661  1.00  0.00    -0.460 OA
BRANCH   6   7
ATOM      7  C   UNL A   1      32.913  27.830  26.821  1.00  0.00     0.347 C 
ATOM      8  O   UNL A   1      31.960  27.832  27.597  1.00  0.00    -0.248 OA
BRANCH   7   9
ATOM      9  C   UNL A   1      33.257  26.573  25.993  1.00  0.00     0.290 C 
ATOM     10  C   UNL A   1      29.821  29.387  22.002  1.00  0.00     0.045 C 
ATOM     11  C   UNL A   1      30.203  28.297  22.962  1.00  0.00    -0.044 A 
ATOM     12  C   UNL A   1      29.188  27.488  23.512  1.00  0.00     0.005 A 
ATOM     13  C   UNL A   1      31.546  28.080  23.327  1.00  0.00    -0.005 A 
ATOM     14  C   UNL A   1      29.486  26.482  24.429  1.00  0.00     0.016 A 
ATOM     15  C   UNL A   1      31.829  27.066  24.248  1.00  0.00     0.134 A 
ATOM     16  C   UNL A   1      32.681  28.949  22.851  1.00  0.00     0.049 C 
ATOM     17  C   UNL A   1      30.809  26.280  24.798  1.00  0.00     0.060 A 
ATOM     18  O   UNL A   1      33.149  26.907  24.606  1.00  0.00    -0.477 OA
ATOM     19  C   UNL A   1      31.164  25.270  25.812  1.00  0.00     0.170 C 
ATOM     20  C   UNL A   1      32.610  25.219  26.206  1.00  0.00     0.138 C 
ATOM     21  O   UNL A   1      30.334  24.488  26.261  1.00  0.00    -0.294 OA
ENDBRANCH   7   9
ENDBRANCH   6   7
ENDBRANCH   5   6
ENDBRANCH   4   5
ENDBRANCH   3   4
ENDBRANCH   2   3
ENDBRANCH   1   2
BRANCH   1  22
ATOM     22  O   UNL A   1      34.981  34.815  29.878  1.00  0.00    -0.376 OA
BRANCH  22  23
ATOM     23  C   UNL A   1      33.940  34.417  30.767  1.00  0.00     0.202 C 
BRANCH  23  24
ATOM     24  C   UNL A   1      34.433  33.821  32.104  1.00  0.00     0.261 C 
BRANCH  24  25
ATOM     25  O   UNL A   1      35.000  32.490  32.060  1.00  0.00    -0.460 OA
BRANCH  25  26
ATOM     26  C   UNL A   1      36.071  32.223  32.847  1.00  0.00     0.338 C 
ATOM     27  O   UNL A   1      36.122  32.320  34.063  1.00  0.00    -0.246 OA
BRANCH  26  28
ATOM     28  C   UNL A   1      37.070  31.478  32.024  1.00  0.00     0.060 A 
ATOM     29  C   UNL A   1      37.958  30.606  32.680  1.00  0.00     0.016 A 
ATOM     30  C   UNL A   1      37.071  31.544  30.629  1.00  0.00     0.016 A 
ATOM     31  C   UNL A   1      38.854  29.818  31.948  1.00  0.00     0.010 A 
ATOM     32  C   UNL A   1      38.000  30.788  29.898  1.00  0.00     0.010 A 
ATOM     33  C   UNL A   1      38.916  29.943  30.554  1.00  0.00    -0.014 A 
BRANCH  33  34
ATOM     34  C   UNL A   1      40.108  29.430  29.826  1.00  0.00     0.031 A 
ATOM     35  C   UNL A   1      41.260  30.382  29.638  1.00  0.00     0.074 A 
ATOM     36  C   UNL A   1      40.203  28.170  29.361  1.00  0.00     0.049 A 
ATOM     37  N   UNL A   1      42.406  30.200  29.035  1.00  0.00    -0.248 NA
ATOM     38  C   UNL A   1      41.091  31.727  30.214  1.00  0.00     0.031 C 
ATOM     39  C   UNL A   1      39.190  27.130  29.510  1.00  0.00     0.029 A 
ATOM     40  N   UNL A   1      41.215  27.556  28.658  1.00  0.00    -0.354 N 
ATOM     41  C   UNL A   1      43.093  31.399  29.170  1.00  0.00     0.074 A 
ATOM     42  C   UNL A   1      42.225  32.315  29.874  1.00  0.00     0.031 C 
ATOM     43  C   UNL A   1      39.627  26.007  28.909  1.00  0.00     0.029 A 
ATOM     44  C   UNL A   1      40.940  26.254  28.310  1.00  0.00     0.049 A 
ATOM     45  H   UNL A   1      42.058  28.007  28.425  1.00  0.00     0.167 HD
ATOM     46  C   UNL A   1      44.345  31.707  28.762  1.00  0.00     0.037 A 
ATOM     47  C   UNL A   1      41.660  25.373  27.581  1.00  0.00     0.037 A 
ATOM     48  C   UNL A   1      45.209  30.809  28.050  1.00  0.00     0.049 A 
ATOM     49  C   UNL A   1      43.009  25.780  27.032  1.00  0.00     0.074 A 
ATOM     50  C   UNL A   1      46.501  31.031  27.608  1.00  0.00     0.029 A 
ATOM     51  N   UNL A   1      44.865  29.524  27.661  1.00  0.00    -0.354 N 
ATOM     52  N   UNL A   1      43.672  26.897  27.208  1.00  0.00    -0.248 NA
ATOM     53  C   UNL A   1      43.707  24.805  26.177  1.00  0.00     0.031 C 
ATOM     54  C   UNL A   1      46.918  29.903  26.899  1.00  0.00     0.029 A 
ATOM     55  C   UNL A   1      45.906  28.957  26.947  1.00  0.00     0.049 A 
ATOM     56  H   UNL A   1      44.009  29.082  27.862  1.00  0.00     0.167 HD
ATOM     57  C   UNL A   1      44.866  26.752  26.509  1.00  0.00     0.074 A 
ATOM     58  C   UNL A   1      44.847  25.431  25.917  1.00  0.00     0.031 C 
ATOM     59  C   UNL A   1      45.883  27.637  26.368  1.00  0.00     0.037 A 
BRANCH  46  60
ATOM     60  C   UNL A   1      44.855  33.083  29.069  1.00  0.00     0.064 A 
ATOM     61  C   UNL A   1      45.638  33.335  30.205  1.00  0.00     0.173 A 
ATOM     62  C   UNL A   1      44.605  34.148  28.191  1.00  0.00     0.173 A 
ATOM     63  F   UNL A   1      45.889  32.353  31.084  1.00  0.00    -0.203 F 
ATOM     64  C   UNL A   1      46.141  34.607  30.458  1.00  0.00     0.198 A 
ATOM     65  C   UNL A   1      45.136  35.411  28.432  1.00  0.00     0.198 A 
ATOM     66  F   UNL A   1      43.863  33.957  27.090  1.00  0.00    -0.203 F 
ATOM     67  F   UNL A   1      46.854  34.835  31.570  1.00  0.00    -0.200 F 
ATOM     68  C   UNL A   1      45.899  35.642  29.568  1.00  0.00     0.200 A 
ATOM     69  F   UNL A   1      44.912  36.406  27.562  1.00  0.00    -0.200 F 
ATOM     70  F   UNL A   1      46.399  36.862  29.803  1.00  0.00    -0.200 F 
ENDBRANCH  46  60
BRANCH  47  71
ATOM     71  C   UNL A   1      41.123  24.009  27.319  1.00  0.00     0.064 A 
ATOM     72  C   UNL A   1      41.719  22.877  27.893  1.00  0.00     0.173 A 
ATOM     73  C   UNL A   1      40.020  23.805  26.476  1.00  0.00     0.173 A 
ATOM     74  F   UNL A   1      42.799  23.013  28.675  1.00  0.00    -0.203 F 
ATOM     75  C   UNL A   1      41.234  21.595  27.633  1.00  0.00     0.198 A 
ATOM     76  C   UNL A   1      39.519  22.525  26.239  1.00  0.00     0.198 A 
ATOM     77  F   UNL A   1      39.423  24.851  25.886  1.00  0.00    -0.203 F 
ATOM     78  F   UNL A   1      41.848  20.529  28.164  1.00  0.00    -0.200 F 
ATOM     79  C   UNL A   1      40.129  21.421  26.813  1.00  0.00     0.200 A 
ATOM     80  F   UNL A   1      38.448  22.363  25.450  1.00  0.00    -0.200 F 
ATOM     81  F   UNL A   1      39.658  20.191  26.571  1.00  0.00    -0.200 F 
ENDBRANCH  47  71
BRANCH  59  82
ATOM     82  C   UNL A   1      47.073  27.237  25.544  1.00  0.00     0.064 A 
ATOM     83  C   UNL A   1      47.181  27.605  24.195  1.00  0.00     0.173 A 
ATOM     84  C   UNL A   1      48.176  26.608  26.143  1.00  0.00     0.173 A 
ATOM     85  F   UNL A   1      46.153  28.203  23.575  1.00  0.00    -0.203 F 
ATOM     86  C   UNL A   1      48.351  27.363  23.479  1.00  0.00     0.198 A 
ATOM     87  C   UNL A   1      49.354  26.393  25.432  1.00  0.00     0.198 A 
ATOM     88  F   UNL A   1      48.130  26.246  27.435  1.00  0.00    -0.203 F 
ATOM     89  F   UNL A   1      48.427  27.712  22.188  1.00  0.00    -0.200 F 
ATOM     90  C   UNL A   1      49.441  26.772  24.101  1.00  0.00     0.200 A 
ATOM     91  F   UNL A   1      50.414  25.843  26.041  1.00  0.00    -0.200 F 
ATOM     92  F   UNL A   1      50.577  26.573  23.419  1.00  0.00    -0.200 F 
ENDBRANCH  59  82
ENDBRANCH  33  34
ENDBRANCH  26  28
ENDBRANCH  25  26
ENDBRANCH  24  25
ENDBRANCH  23  24
ENDBRANCH  22  23
ENDBRANCH   1  22
TORSDOF 17
ENDMDL
MODEL 3
REMARK VINA RESULT:     -10.9      1.835      7.580
REMARK SMILES Cc1ccc2c(c1C)O[C@@H](C(=O)OCCOCCOCCOC(=O)c1ccc(-c3c4nc(c(-c5c(F)c(F)c(F)c(F)c5F)c5ccc([nH]5)c(-c5c(F)c(F)c(F)c(F)c5F)c5nc(c(-c6c(F)c(F)c(F)c(F)c6F)c6ccc3[nH]6)C=C5)C=C4)cc1)CC2=O
REMARK SMILES IDX 18 1 17 2 16 3 15 4 14 5 13 6 11 7 12 8 10 9 1 10 2 11 3 12
REMARK SMILES IDX 7 13 4 14 6 15 8 16 5 17 9 18 89 19 88 20 90 21 19 22 20 23
REMARK SMILES IDX 21 24 22 25 23 26 24 27 25 28 26 29 87 30 27 31 86 32 28 33
REMARK SMILES IDX 29 34 30 35 80 36 31 37 85 38 79 39 81 40 32 41 84 42 78 43
REMARK SMILES IDX 77 44 33 46 65 47 45 48 64 49 46 50 49 51 63 52 82 53 47 54
REMARK SMILES IDX 48 55 62 57 83 58 50 59 34 60 35 61 43 62 36 63 37 64 41 65
REMARK SMILES IDX 44 66 38 67 39 68 42 69 40 70 66 71 67 72 75 73 68 74 69 75
REMARK SMILES IDX 73 76 76 77 70 78 71 79 74 80 72 81 51 82 52 83 60 84 53 85
REMARK SMILES IDX 54 86 58 87 61 88 55 89 56 90 59 91 57 92
REMARK H PARENT 81 45 49 56
REMARK Flexibility Score: inf
ROOT
ATOM      1  C   UNL A   1      33.110  30.241  26.491  1.00  0.00     0.188 C 
ENDROOT
BRANCH   1   2
ATOM      2  C   UNL A   1      33.008  28.760  26.115  1.00  0.00     0.188 C 
BRANCH   2   3
ATOM      3  O   UNL A   1      34.025  28.213  25.298  1.00  0.00    -0.376 OA
BRANCH   3   4
ATOM      4  C   UNL A   1      33.844  28.316  23.889  1.00  0.00     0.202 C 
BRANCH   4   5
ATOM      5  C   UNL A   1      33.574  27.017  23.109  1.00  0.00     0.261 C 
BRANCH   5   6
ATOM      6  O   UNL A   1      34.025  25.783  23.732  1.00  0.00    -0.460 OA
BRANCH   6   7
ATOM      7  C   UNL A   1      33.051  24.879  24.031  1.00  0.00     0.347 C 
ATOM      8  O   UNL A   1      32.384  24.292  23.182  1.00  0.00    -0.248 OA
BRANCH   7   9
ATOM      9  C   UNL A   1      32.782  24.665  25.537  1.00  0.00     0.290 C 
ATOM     10  C   UNL A   1      37.452  20.997  24.909  1.00  0.00     0.045 C 
ATOM     11  C   UNL A   1      36.021  21.369  25.175  1.00  0.00    -0.044 A 
ATOM     12  C   UNL A   1      35.019  20.393  24.999  1.00  0.00     0.005 A 
ATOM     13  C   UNL A   1      35.667  22.670  25.585  1.00  0.00    -0.005 A 
ATOM     14  C   UNL A   1      33.675  20.694  25.206  1.00  0.00     0.016 A 
ATOM     15  C   UNL A   1      34.313  22.957  25.788  1.00  0.00     0.134 A 
ATOM     16  C   UNL A   1      36.663  23.793  25.717  1.00  0.00     0.049 C 
ATOM     17  C   UNL A   1      33.327  21.981  25.594  1.00  0.00     0.060 A 
ATOM     18  O   UNL A   1      34.003  24.247  26.154  1.00  0.00    -0.477 OA
ATOM     19  C   UNL A   1      31.913  22.362  25.763  1.00  0.00     0.170 C 
ATOM     20  C   UNL A   1      31.658  23.805  26.079  1.00  0.00     0.138 C 
ATOM     21  O   UNL A   1      31.011  21.535  25.700  1.00  0.00    -0.294 OA
ENDBRANCH   7   9
ENDBRANCH   6   7
ENDBRANCH   5   6
ENDBRANCH   4   5
ENDBRANCH   3   4
ENDBRANCH   2   3
ENDBRANCH   1   2
BRANCH   1  22
ATOM     22  O   UNL A   1      31.962  30.831  27.060  1.00  0.00    -0.376 OA
BRANCH  22  23
ATOM     23  C   UNL A   1      31.749  32.208  26.759  1.00  0.00     0.202 C 
BRANCH  23  24
ATOM     24  C   UNL A   1      32.730  33.176  27.456  1.00  0.00     0.261 C 
BRANCH  24  25
ATOM     25  O   UNL A   1      32.152  34.217  28.279  1.00  0.00    -0.460 OA
BRANCH  25  26
ATOM     26  C   UNL A   1      32.961  35.217  28.709  1.00  0.00     0.338 C 
ATOM     27  O   UNL A   1      32.687  36.405  28.752  1.00  0.00    -0.246 OA
BRANCH  26  28
ATOM     28  C   UNL A   1      34.112  34.595  29.430  1.00  0.00     0.060 A 
ATOM     29  C   UNL A   1      35.377  34.627  28.819  1.00  0.00     0.016 A 
ATOM     30  C   UNL A   1      33.983  34.086  30.725  1.00  0.00     0.016 A 
ATOM     31  C   UNL A   1      36.505  34.137  29.488  1.00  0.00     0.010 A 
ATOM     32  C   UNL A   1      35.105  33.554  31.377  1.00  0.00     0.010 A 
ATOM     33  C   UNL A   1      36.366  33.550  30.752  1.00  0.00    -0.014 A 
BRANCH  33  34
ATOM     34  C   UNL A   1      37.456  32.685  31.280  1.00  0.00     0.031 A 
ATOM     35  C   UNL A   1      37.983  33.007  32.654  1.00  0.00     0.074 A 
ATOM     36  C   UNL A   1      37.960  31.636  30.603  1.00  0.00     0.049 A 
ATOM     37  N   UNL A   1      38.931  32.428  33.344  1.00  0.00    -0.248 NA
ATOM     38  C   UNL A   1      37.347  34.143  33.344  1.00  0.00     0.031 C 
ATOM     39  C   UNL A   1      37.517  31.181  29.290  1.00  0.00     0.029 A 
ATOM     40  N   UNL A   1      38.970  30.763  30.940  1.00  0.00    -0.354 N 
ATOM     41  C   UNL A   1      38.994  33.121  34.546  1.00  0.00     0.074 A 
ATOM     42  C   UNL A   1      38.022  34.188  34.479  1.00  0.00     0.031 C 
ATOM     43  C   UNL A   1      38.258  30.116  28.926  1.00  0.00     0.029 A 
ATOM     44  C   UNL A   1      39.245  29.829  29.969  1.00  0.00     0.049 A 
ATOM     45  H   UNL A   1      39.453  30.805  31.797  1.00  0.00     0.167 HD
ATOM     46  C   UNL A   1      39.779  32.880  35.621  1.00  0.00     0.037 A 
ATOM     47  C   UNL A   1      40.192  28.867  29.924  1.00  0.00     0.037 A 
ATOM     48  C   UNL A   1      40.758  31.832  35.691  1.00  0.00     0.049 A 
ATOM     49  C   UNL A   1      41.139  28.692  31.091  1.00  0.00     0.074 A 
ATOM     50  C   UNL A   1      41.589  31.505  36.746  1.00  0.00     0.029 A 
ATOM     51  N   UNL A   1      41.047  30.953  34.660  1.00  0.00    -0.354 N 
ATOM     52  N   UNL A   1      41.158  29.317  32.242  1.00  0.00    -0.248 NA
ATOM     53  C   UNL A   1      42.201  27.681  30.947  1.00  0.00     0.031 C 
ATOM     54  C   UNL A   1      42.426  30.465  36.334  1.00  0.00     0.029 A 
ATOM     55  C   UNL A   1      42.077  30.109  35.041  1.00  0.00     0.049 A 
ATOM     56  H   UNL A   1      40.591  30.931  33.789  1.00  0.00     0.167 HD
ATOM     57  C   UNL A   1      42.212  28.766  32.964  1.00  0.00     0.074 A 
ATOM     58  C   UNL A   1      42.800  27.741  32.129  1.00  0.00     0.031 C 
ATOM     59  C   UNL A   1      42.652  29.085  34.206  1.00  0.00     0.037 A 
BRANCH  46  60
ATOM     60  C   UNL A   1      39.618  33.776  36.811  1.00  0.00     0.064 A 
ATOM     61  C   UNL A   1      40.233  35.035  36.867  1.00  0.00     0.173 A 
ATOM     62  C   UNL A   1      38.796  33.395  37.883  1.00  0.00     0.173 A 
ATOM     63  F   UNL A   1      41.043  35.436  35.875  1.00  0.00    -0.203 F 
ATOM     64  C   UNL A   1      40.043  35.875  37.960  1.00  0.00     0.198 A 
ATOM     65  C   UNL A   1      38.585  34.252  38.959  1.00  0.00     0.198 A 
ATOM     66  F   UNL A   1      38.185  32.202  37.877  1.00  0.00    -0.203 F 
ATOM     67  F   UNL A   1      40.673  37.058  38.010  1.00  0.00    -0.200 F 
ATOM     68  C   UNL A   1      39.212  35.488  39.000  1.00  0.00     0.200 A 
ATOM     69  F   UNL A   1      37.769  33.882  39.957  1.00  0.00    -0.200 F 
ATOM     70  F   UNL A   1      39.016  36.306  40.043  1.00  0.00    -0.200 F 
ENDBRANCH  46  60
BRANCH  47  71
ATOM     71  C   UNL A   1      40.302  27.985  28.730  1.00  0.00     0.064 A 
ATOM     72  C   UNL A   1      39.652  26.742  28.688  1.00  0.00     0.173 A 
ATOM     73  C   UNL A   1      41.071  28.352  27.615  1.00  0.00     0.173 A 
ATOM     74  F   UNL A   1      38.936  26.326  29.742  1.00  0.00    -0.203 F 
ATOM     75  C   UNL A   1      39.770  25.902  27.581  1.00  0.00     0.198 A 
ATOM     76  C   UNL A   1      41.166  27.524  26.498  1.00  0.00     0.198 A 
ATOM     77  F   UNL A   1      41.728  29.521  27.609  1.00  0.00    -0.203 F 
ATOM     78  F   UNL A   1      39.171  24.703  27.586  1.00  0.00    -0.200 F 
ATOM     79  C   UNL A   1      40.519  26.298  26.483  1.00  0.00     0.200 A 
ATOM     80  F   UNL A   1      41.886  27.913  25.437  1.00  0.00    -0.200 F 
ATOM     81  F   UNL A   1      40.625  25.494  25.416  1.00  0.00    -0.200 F 
ENDBRANCH  47  71
BRANCH  59  82
ATOM     82  C   UNL A   1      43.829  28.336  34.764  1.00  0.00     0.064 A 
ATOM     83  C   UNL A   1      45.128  28.858  34.680  1.00  0.00     0.173 A 
ATOM     84  C   UNL A   1      43.639  27.163  35.511  1.00  0.00     0.173 A 
ATOM     85  F   UNL A   1      45.363  29.972  33.973  1.00  0.00    -0.203 F 
ATOM     86  C   UNL A   1      46.192  28.235  35.329  1.00  0.00     0.198 A 
ATOM     87  C   UNL A   1      44.700  26.559  36.182  1.00  0.00     0.198 A 
ATOM     88  F   UNL A   1      42.413  26.629  35.633  1.00  0.00    -0.203 F 
ATOM     89  F   UNL A   1      47.426  28.744  35.226  1.00  0.00    -0.200 F 
ATOM     90  C   UNL A   1      45.974  27.097  36.092  1.00  0.00     0.200 A 
ATOM     91  F   UNL A   1      44.483  25.473  36.937  1.00  0.00    -0.200 F 
ATOM     92  F   UNL A   1      46.994  26.521  36.744  1.00  0.00    -0.200 F 
ENDBRANCH  59  82
ENDBRANCH  33  34
ENDBRANCH  26  28
ENDBRANCH  25  26
ENDBRANCH  24  25
ENDBRANCH  23  24
ENDBRANCH  22  23
ENDBRANCH   1  22
TORSDOF 17
ENDMDL
