MODEL 1
REMARK VINA RESULT:     -11.8      0.000      0.000
REMARK SMILES C[C@@H](C(=O)OCCOCCOCCOC(=O)c1ccc(-c2c3nc(c(-c4c(F)c(F)c(F)c(F)c4F)c4ccc([nH]4)c(-c4c(F)c(F)c(F)c(F)c4F)c4nc(c(-c5c(F)c(F)c(F)c(F)c5F)c5ccc2[nH]5)C=C4)C=C3)cc1)c1ccc2c3cc(Cl)ccc3n(C(=O)c3cocn3)c2c1
REMARK SMILES IDX 9 1 8 2 7 3 6 4 5 5 3 6 4 7 2 8 1 9 80 10 81 11 100 12 82 13
REMARK SMILES IDX 99 14 83 15 91 16 84 17 90 18 85 19 89 20 86 21 88 22 87 23
REMARK SMILES IDX 92 24 93 25 94 26 95 27 98 28 96 29 97 30 10 31 11 32 12 33
REMARK SMILES IDX 13 34 14 35 15 36 16 37 17 38 18 39 79 40 19 41 78 42 20 43
REMARK SMILES IDX 21 44 22 45 72 46 23 47 77 48 71 49 73 50 24 51 76 52 70 53
REMARK SMILES IDX 69 54 25 56 57 57 37 58 56 59 38 60 41 61 55 62 74 63 39 64
REMARK SMILES IDX 40 65 54 67 75 68 42 69 26 70 27 71 35 72 28 73 29 74 33 75
REMARK SMILES IDX 36 76 30 77 31 78 34 79 32 80 58 81 59 82 67 83 60 84 61 85
REMARK SMILES IDX 65 86 68 87 62 88 63 89 66 90 64 91 43 92 44 93 52 94 45 95
REMARK SMILES IDX 46 96 50 97 53 98 47 99 48 100 51 101 49 102
REMARK H PARENT 73 55 41 66
REMARK Flexibility Score: inf
ROOT
ATOM      1  C   UNL A   1      35.535  20.189  24.901  1.00  0.00     0.188 C 
ENDROOT
BRANCH   1   2
ATOM      2  O   UNL A   1      34.792  19.032  24.531  1.00  0.00    -0.376 OA
BRANCH   2   3
ATOM      3  C   UNL A   1      33.372  19.126  24.447  1.00  0.00     0.202 C 
BRANCH   3   4
ATOM      4  C   UNL A   1      32.720  20.354  25.090  1.00  0.00     0.261 C 
BRANCH   4   5
ATOM      5  O   UNL A   1      32.116  21.235  24.125  1.00  0.00    -0.463 OA
BRANCH   5   6
ATOM      6  C   UNL A   1      31.860  22.503  24.547  1.00  0.00     0.313 C 
ATOM      7  O   UNL A   1      31.351  22.771  25.630  1.00  0.00    -0.252 OA
BRANCH   6   8
ATOM      8  C   UNL A   1      32.343  23.582  23.573  1.00  0.00     0.126 C 
ATOM      9  C   UNL A   1      33.446  23.114  22.606  1.00  0.00     0.025 C 
BRANCH   8  10
ATOM     10  C   UNL A   1      32.655  24.947  24.206  1.00  0.00    -0.032 A 
ATOM     11  C   UNL A   1      33.598  25.131  25.222  1.00  0.00     0.005 A 
ATOM     12  C   UNL A   1      31.902  26.063  23.794  1.00  0.00     0.032 A 
ATOM     13  C   UNL A   1      33.821  26.392  25.801  1.00  0.00     0.011 A 
ATOM     14  C   UNL A   1      32.079  27.319  24.414  1.00  0.00     0.058 A 
ATOM     15  C   UNL A   1      33.037  27.499  25.411  1.00  0.00     0.008 A 
ATOM     16  N   UNL A   1      31.452  28.556  24.193  1.00  0.00    -0.274 N 
ATOM     17  C   UNL A   1      32.934  28.848  25.867  1.00  0.00     0.009 A 
ATOM     18  C   UNL A   1      31.816  29.407  25.244  1.00  0.00     0.057 A 
ATOM     19  C   UNL A   1      33.639  29.618  26.817  1.00  0.00     0.031 A 
ATOM     20  C   UNL A   1      31.262  30.618  25.703  1.00  0.00     0.029 A 
ATOM     21  C   UNL A   1      33.174  30.892  27.145  1.00  0.00     0.041 A 
ATOM     22  C   UNL A   1      31.972  31.362  26.642  1.00  0.00     0.023 A 
ATOM     23  Cl  UNL A   1      34.084  31.911  28.179  1.00  0.00    -0.084 Cl
BRANCH  16  24
ATOM     24  C   UNL A   1      30.603  28.870  23.094  1.00  0.00     0.284 C 
ATOM     25  O   UNL A   1      31.151  29.062  22.011  1.00  0.00    -0.266 OA
BRANCH  24  26
ATOM     26  C   UNL A   1      29.152  29.019  23.193  1.00  0.00     0.167 A 
ATOM     27  C   UNL A   1      28.397  30.174  23.164  1.00  0.00     0.231 A 
ATOM     28  N   UNL A   1      28.292  27.933  23.251  1.00  0.00    -0.211 NA
ATOM     29  O   UNL A   1      27.079  29.831  23.244  1.00  0.00    -0.451 OA
ATOM     30  C   UNL A   1      27.096  28.472  23.279  1.00  0.00     0.308 A 
ENDBRANCH  24  26
ENDBRANCH  16  24
ENDBRANCH   8  10
ENDBRANCH   6   8
ENDBRANCH   5   6
ENDBRANCH   4   5
ENDBRANCH   3   4
ENDBRANCH   2   3
ENDBRANCH   1   2
BRANCH   1  31
ATOM     31  C   UNL A   1      37.064  20.092  25.023  1.00  0.00     0.188 C 
BRANCH  31  32
ATOM     32  O   UNL A   1      37.716  21.347  25.093  1.00  0.00    -0.376 OA
BRANCH  32  33
ATOM     33  C   UNL A   1      38.985  21.357  25.726  1.00  0.00     0.202 C 
BRANCH  33  34
ATOM     34  C   UNL A   1      39.487  19.959  26.103  1.00  0.00     0.261 C 
BRANCH  34  35
ATOM     35  O   UNL A   1      40.589  19.481  25.311  1.00  0.00    -0.460 OA
BRANCH  35  36
ATOM     36  C   UNL A   1      41.755  19.247  25.957  1.00  0.00     0.338 C 
ATOM     37  O   UNL A   1      42.341  18.189  26.067  1.00  0.00    -0.246 OA
BRANCH  36  38
ATOM     38  C   UNL A   1      42.307  20.559  26.355  1.00  0.00     0.060 A 
ATOM     39  C   UNL A   1      42.315  20.917  27.709  1.00  0.00     0.016 A 
ATOM     40  C   UNL A   1      42.819  21.428  25.388  1.00  0.00     0.016 A 
ATOM     41  C   UNL A   1      42.817  22.162  28.097  1.00  0.00     0.010 A 
ATOM     42  C   UNL A   1      43.299  22.680  25.773  1.00  0.00     0.010 A 
ATOM     43  C   UNL A   1      43.276  23.064  27.125  1.00  0.00    -0.014 A 
BRANCH  43  44
ATOM     44  C   UNL A   1      43.548  24.476  27.489  1.00  0.00     0.031 A 
ATOM     45  C   UNL A   1      44.968  24.964  27.410  1.00  0.00     0.074 A 
ATOM     46  C   UNL A   1      42.563  25.295  27.900  1.00  0.00     0.049 A 
ATOM     47  N   UNL A   1      45.460  26.144  27.680  1.00  0.00    -0.248 NA
ATOM     48  C   UNL A   1      45.973  23.978  26.977  1.00  0.00     0.031 C 
ATOM     49  C   UNL A   1      41.155  24.926  28.009  1.00  0.00     0.029 A 
ATOM     50  N   UNL A   1      42.595  26.611  28.294  1.00  0.00    -0.354 N 
ATOM     51  C   UNL A   1      46.832  26.031  27.493  1.00  0.00     0.074 A 
ATOM     52  C   UNL A   1      47.096  24.674  27.072  1.00  0.00     0.031 C 
ATOM     53  C   UNL A   1      40.450  26.003  28.401  1.00  0.00     0.029 A 
ATOM     54  C   UNL A   1      41.359  27.133  28.596  1.00  0.00     0.049 A 
ATOM     55  H   UNL A   1      43.429  27.133  28.354  1.00  0.00     0.167 HD
ATOM     56  C   UNL A   1      47.786  26.973  27.679  1.00  0.00     0.037 A 
ATOM     57  C   UNL A   1      41.012  28.388  28.959  1.00  0.00     0.037 A 
ATOM     58  C   UNL A   1      47.516  28.322  28.093  1.00  0.00     0.049 A 
ATOM     59  C   UNL A   1      42.104  29.424  29.119  1.00  0.00     0.074 A 
ATOM     60  C   UNL A   1      48.412  29.355  28.303  1.00  0.00     0.029 A 
ATOM     61  N   UNL A   1      46.252  28.824  28.364  1.00  0.00    -0.354 N 
ATOM     62  N   UNL A   1      43.393  29.321  28.892  1.00  0.00    -0.248 NA
ATOM     63  C   UNL A   1      41.689  30.752  29.592  1.00  0.00     0.031 C 
ATOM     64  C   UNL A   1      47.693  30.469  28.750  1.00  0.00     0.029 A 
ATOM     65  C   UNL A   1      46.346  30.146  28.765  1.00  0.00     0.049 A 
ATOM     66  H   UNL A   1      45.412  28.315  28.283  1.00  0.00     0.167 HD
ATOM     67  C   UNL A   1      43.932  30.573  29.161  1.00  0.00     0.074 A 
ATOM     68  C   UNL A   1      42.828  31.429  29.541  1.00  0.00     0.031 C 
ATOM     69  C   UNL A   1      45.226  30.980  29.117  1.00  0.00     0.037 A 
BRANCH  56  70
ATOM     70  C   UNL A   1      49.215  26.555  27.496  1.00  0.00     0.064 A 
ATOM     71  C   UNL A   1      49.806  26.456  26.229  1.00  0.00     0.173 A 
ATOM     72  C   UNL A   1      50.012  26.271  28.618  1.00  0.00     0.173 A 
ATOM     73  F   UNL A   1      49.081  26.696  25.126  1.00  0.00    -0.203 F 
ATOM     74  C   UNL A   1      51.137  26.067  26.089  1.00  0.00     0.198 A 
ATOM     75  C   UNL A   1      51.348  25.910  28.475  1.00  0.00     0.198 A 
ATOM     76  F   UNL A   1      49.493  26.351  29.852  1.00  0.00    -0.203 F 
ATOM     77  F   UNL A   1      51.669  25.934  24.866  1.00  0.00    -0.200 F 
ATOM     78  C   UNL A   1      51.908  25.801  27.212  1.00  0.00     0.200 A 
ATOM     79  F   UNL A   1      52.093  25.663  29.561  1.00  0.00    -0.200 F 
ATOM     80  F   UNL A   1      53.189  25.433  27.074  1.00  0.00    -0.200 F 
ENDBRANCH  56  70
BRANCH  57  81
ATOM     81  C   UNL A   1      39.574  28.767  29.118  1.00  0.00     0.064 A 
ATOM     82  C   UNL A   1      38.920  28.623  30.354  1.00  0.00     0.173 A 
ATOM     83  C   UNL A   1      38.813  29.275  28.056  1.00  0.00     0.173 A 
ATOM     84  F   UNL A   1      39.551  28.065  31.393  1.00  0.00    -0.203 F 
ATOM     85  C   UNL A   1      37.588  28.990  30.529  1.00  0.00     0.198 A 
ATOM     86  C   UNL A   1      37.483  29.661  28.235  1.00  0.00     0.198 A 
ATOM     87  F   UNL A   1      39.363  29.410  26.840  1.00  0.00    -0.203 F 
ATOM     88  F   UNL A   1      36.996  28.811  31.718  1.00  0.00    -0.200 F 
ATOM     89  C   UNL A   1      36.872  29.520  29.471  1.00  0.00     0.200 A 
ATOM     90  F   UNL A   1      36.792  30.170  27.206  1.00  0.00    -0.200 F 
ATOM     91  F   UNL A   1      35.592  29.879  29.639  1.00  0.00    -0.200 F 
ENDBRANCH  57  81
BRANCH  69  92
ATOM     92  C   UNL A   1      45.518  32.412  29.472  1.00  0.00     0.064 A 
ATOM     93  C   UNL A   1      45.866  32.788  30.777  1.00  0.00     0.173 A 
ATOM     94  C   UNL A   1      45.513  33.408  28.482  1.00  0.00     0.173 A 
ATOM     95  F   UNL A   1      45.881  31.875  31.761  1.00  0.00    -0.203 F 
ATOM     96  C   UNL A   1      46.171  34.111  31.086  1.00  0.00     0.198 A 
ATOM     97  C   UNL A   1      45.850  34.724  28.788  1.00  0.00     0.198 A 
ATOM     98  F   UNL A   1      45.204  33.100  27.213  1.00  0.00    -0.203 F 
ATOM     99  F   UNL A   1      46.458  34.452  32.349  1.00  0.00    -0.200 F 
ATOM    100  C   UNL A   1      46.171  35.075  30.090  1.00  0.00     0.200 A 
ATOM    101  F   UNL A   1      45.870  35.651  27.821  1.00  0.00    -0.200 F 
ATOM    102  F   UNL A   1      46.478  36.346  30.387  1.00  0.00    -0.200 F 
ENDBRANCH  69  92
ENDBRANCH  43  44
ENDBRANCH  36  38
ENDBRANCH  35  36
ENDBRANCH  34  35
ENDBRANCH  33  34
ENDBRANCH  32  33
ENDBRANCH  31  32
ENDBRANCH   1  31
TORSDOF 20
ENDMDL
MODEL 2
REMARK VINA RESULT:     -11.2      7.167     12.450
REMARK SMILES C[C@@H](C(=O)OCCOCCOCCOC(=O)c1ccc(-c2c3nc(c(-c4c(F)c(F)c(F)c(F)c4F)c4ccc([nH]4)c(-c4c(F)c(F)c(F)c(F)c4F)c4nc(c(-c5c(F)c(F)c(F)c(F)c5F)c5ccc2[nH]5)C=C4)C=C3)cc1)c1ccc2c3cc(Cl)ccc3n(C(=O)c3cocn3)c2c1
REMARK SMILES IDX 9 1 8 2 7 3 6 4 5 5 3 6 4 7 2 8 1 9 80 10 81 11 100 12 82 13
REMARK SMILES IDX 99 14 83 15 91 16 84 17 90 18 85 19 89 20 86 21 88 22 87 23
REMARK SMILES IDX 92 24 93 25 94 26 95 27 98 28 96 29 97 30 10 31 11 32 12 33
REMARK SMILES IDX 13 34 14 35 15 36 16 37 17 38 18 39 79 40 19 41 78 42 20 43
REMARK SMILES IDX 21 44 22 45 72 46 23 47 77 48 71 49 73 50 24 51 76 52 70 53
REMARK SMILES IDX 69 54 25 56 57 57 37 58 56 59 38 60 41 61 55 62 74 63 39 64
REMARK SMILES IDX 40 65 54 67 75 68 42 69 26 70 27 71 35 72 28 73 29 74 33 75
REMARK SMILES IDX 36 76 30 77 31 78 34 79 32 80 58 81 59 82 67 83 60 84 61 85
REMARK SMILES IDX 65 86 68 87 62 88 63 89 66 90 64 91 43 92 44 93 52 94 45 95
REMARK SMILES IDX 46 96 50 97 53 98 47 99 48 100 51 101 49 102
REMARK H PARENT 73 55 41 66
REMARK Flexibility Score: inf
ROOT
ATOM      1  C   UNL A   1      38.799  32.065  41.413  1.00  0.00     0.188 C 
ENDROOT
BRANCH   1   2
ATOM      2  O   UNL A   1      37.638  31.244  41.495  1.00  0.00    -0.376 OA
BRANCH   2   3
ATOM      3  C   UNL A   1      36.811  31.108  40.343  1.00  0.00     0.202 C 
BRANCH   3   4
ATOM      4  C   UNL A   1      36.776  32.292  39.371  1.00  0.00     0.261 C 
BRANCH   4   5
ATOM      5  O   UNL A   1      37.052  31.907  38.011  1.00  0.00    -0.463 OA
BRANCH   5   6
ATOM      6  C   UNL A   1      38.179  32.430  37.457  1.00  0.00     0.313 C 
ATOM      7  O   UNL A   1      39.280  32.406  37.998  1.00  0.00    -0.252 OA
BRANCH   6   8
ATOM      8  C   UNL A   1      37.964  32.989  36.047  1.00  0.00     0.126 C 
ATOM      9  C   UNL A   1      36.624  33.721  35.853  1.00  0.00     0.025 C 
BRANCH   8  10
ATOM     10  C   UNL A   1      38.275  32.015  34.900  1.00  0.00    -0.032 A 
ATOM     11  C   UNL A   1      38.479  30.644  35.083  1.00  0.00     0.005 A 
ATOM     12  C   UNL A   1      38.437  32.538  33.603  1.00  0.00     0.032 A 
ATOM     13  C   UNL A   1      38.803  29.797  34.010  1.00  0.00     0.011 A 
ATOM     14  C   UNL A   1      38.820  31.702  32.532  1.00  0.00     0.058 A 
ATOM     15  C   UNL A   1      39.000  30.332  32.719  1.00  0.00     0.008 A 
ATOM     16  N   UNL A   1      39.052  31.983  31.176  1.00  0.00    -0.274 N 
ATOM     17  C   UNL A   1      39.431  29.781  31.476  1.00  0.00     0.009 A 
ATOM     18  C   UNL A   1      39.651  30.853  30.607  1.00  0.00     0.057 A 
ATOM     19  C   UNL A   1      39.738  28.476  31.035  1.00  0.00     0.031 A 
ATOM     20  C   UNL A   1      40.366  30.677  29.407  1.00  0.00     0.029 A 
ATOM     21  C   UNL A   1      40.297  28.294  29.769  1.00  0.00     0.041 A 
ATOM     22  C   UNL A   1      40.662  29.381  28.990  1.00  0.00     0.023 A 
ATOM     23  Cl  UNL A   1      40.543  26.719  29.143  1.00  0.00    -0.084 Cl
BRANCH  16  24
ATOM     24  C   UNL A   1      38.729  33.204  30.516  1.00  0.00     0.284 C 
ATOM     25  O   UNL A   1      39.616  34.053  30.466  1.00  0.00    -0.266 OA
BRANCH  24  26
ATOM     26  C   UNL A   1      37.416  33.511  29.951  1.00  0.00     0.167 A 
ATOM     27  C   UNL A   1      36.971  33.344  28.656  1.00  0.00     0.231 A 
ATOM     28  N   UNL A   1      36.359  33.964  30.725  1.00  0.00    -0.211 NA
ATOM     29  O   UNL A   1      35.662  33.724  28.597  1.00  0.00    -0.451 OA
ATOM     30  C   UNL A   1      35.363  34.069  29.877  1.00  0.00     0.308 A 
ENDBRANCH  24  26
ENDBRANCH  16  24
ENDBRANCH   8  10
ENDBRANCH   6   8
ENDBRANCH   5   6
ENDBRANCH   4   5
ENDBRANCH   3   4
ENDBRANCH   2   3
ENDBRANCH   1   2
BRANCH   1  31
ATOM     31  C   UNL A   1      38.798  33.437  42.105  1.00  0.00     0.188 C 
BRANCH  31  32
ATOM     32  O   UNL A   1      39.089  34.518  41.238  1.00  0.00    -0.376 OA
BRANCH  32  33
ATOM     33  C   UNL A   1      40.430  34.615  40.788  1.00  0.00     0.202 C 
BRANCH  33  34
ATOM     34  C   UNL A   1      40.960  36.052  40.762  1.00  0.00     0.261 C 
BRANCH  34  35
ATOM     35  O   UNL A   1      41.428  36.499  39.477  1.00  0.00    -0.460 OA
BRANCH  35  36
ATOM     36  C   UNL A   1      40.498  36.673  38.510  1.00  0.00     0.338 C 
ATOM     37  O   UNL A   1      39.511  37.378  38.550  1.00  0.00    -0.246 OA
BRANCH  36  38
ATOM     38  C   UNL A   1      40.995  35.993  37.295  1.00  0.00     0.060 A 
ATOM     39  C   UNL A   1      40.110  35.744  36.239  1.00  0.00     0.016 A 
ATOM     40  C   UNL A   1      42.335  35.609  37.203  1.00  0.00     0.016 A 
ATOM     41  C   UNL A   1      40.562  35.084  35.092  1.00  0.00     0.010 A 
ATOM     42  C   UNL A   1      42.781  34.931  36.067  1.00  0.00     0.010 A 
ATOM     43  C   UNL A   1      41.891  34.642  35.019  1.00  0.00    -0.014 A 
BRANCH  43  44
ATOM     44  C   UNL A   1      42.307  33.709  33.943  1.00  0.00     0.031 A 
ATOM     45  C   UNL A   1      42.686  34.294  32.611  1.00  0.00     0.074 A 
ATOM     46  C   UNL A   1      42.325  32.378  34.139  1.00  0.00     0.049 A 
ATOM     47  N   UNL A   1      43.075  33.693  31.517  1.00  0.00    -0.248 NA
ATOM     48  C   UNL A   1      42.603  35.760  32.494  1.00  0.00     0.031 C 
ATOM     49  C   UNL A   1      41.981  31.709  35.390  1.00  0.00     0.029 A 
ATOM     50  N   UNL A   1      42.657  31.351  33.289  1.00  0.00    -0.354 N 
ATOM     51  C   UNL A   1      43.240  34.698  30.573  1.00  0.00     0.074 A 
ATOM     52  C   UNL A   1      42.925  35.950  31.224  1.00  0.00     0.031 C 
ATOM     53  C   UNL A   1      42.159  30.384  35.239  1.00  0.00     0.029 A 
ATOM     54  C   UNL A   1      42.607  30.106  33.874  1.00  0.00     0.049 A 
ATOM     55  H   UNL A   1      42.907  31.492  32.347  1.00  0.00     0.167 HD
ATOM     56  C   UNL A   1      43.601  34.582  29.274  1.00  0.00     0.037 A 
ATOM     57  C   UNL A   1      42.915  28.894  33.362  1.00  0.00     0.037 A 
ATOM     58  C   UNL A   1      43.919  33.334  28.636  1.00  0.00     0.049 A 
ATOM     59  C   UNL A   1      43.353  28.809  31.916  1.00  0.00     0.074 A 
ATOM     60  C   UNL A   1      44.303  33.109  27.326  1.00  0.00     0.029 A 
ATOM     61  N   UNL A   1      43.884  32.098  29.264  1.00  0.00    -0.354 N 
ATOM     62  N   UNL A   1      43.554  29.770  31.046  1.00  0.00    -0.248 NA
ATOM     63  C   UNL A   1      43.601  27.463  31.380  1.00  0.00     0.031 C 
ATOM     64  C   UNL A   1      44.451  31.730  27.148  1.00  0.00     0.029 A 
ATOM     65  C   UNL A   1      44.214  31.101  28.361  1.00  0.00     0.049 A 
ATOM     66  H   UNL A   1      43.657  31.951  30.211  1.00  0.00     0.167 HD
ATOM     67  C   UNL A   1      43.982  29.150  29.878  1.00  0.00     0.074 A 
ATOM     68  C   UNL A   1      44.040  27.731  30.158  1.00  0.00     0.031 C 
ATOM     69  C   UNL A   1      44.284  29.697  28.674  1.00  0.00     0.037 A 
BRANCH  56  70
ATOM     70  C   UNL A   1      43.611  35.831  28.444  1.00  0.00     0.064 A 
ATOM     71  C   UNL A   1      42.444  36.355  27.873  1.00  0.00     0.173 A 
ATOM     72  C   UNL A   1      44.814  36.525  28.237  1.00  0.00     0.173 A 
ATOM     73  F   UNL A   1      41.273  35.717  28.024  1.00  0.00    -0.203 F 
ATOM     74  C   UNL A   1      42.483  37.518  27.107  1.00  0.00     0.198 A 
ATOM     75  C   UNL A   1      44.845  37.702  27.495  1.00  0.00     0.198 A 
ATOM     76  F   UNL A   1      45.960  36.065  28.761  1.00  0.00    -0.203 F 
ATOM     77  F   UNL A   1      41.362  37.977  26.532  1.00  0.00    -0.200 F 
ATOM     78  C   UNL A   1      43.681  38.194  26.924  1.00  0.00     0.200 A 
ATOM     79  F   UNL A   1      46.001  38.358  27.327  1.00  0.00    -0.200 F 
ATOM     80  F   UNL A   1      43.714  39.316  26.192  1.00  0.00    -0.200 F 
ENDBRANCH  56  70
BRANCH  57  81
ATOM     81  C   UNL A   1      42.906  27.675  34.228  1.00  0.00     0.064 A 
ATOM     82  C   UNL A   1      44.083  27.217  34.847  1.00  0.00     0.173 A 
ATOM     83  C   UNL A   1      41.740  26.934  34.463  1.00  0.00     0.173 A 
ATOM     84  F   UNL A   1      45.253  27.818  34.604  1.00  0.00    -0.203 F 
ATOM     85  C   UNL A   1      44.091  26.097  35.675  1.00  0.00     0.198 A 
ATOM     86  C   UNL A   1      41.743  25.822  35.308  1.00  0.00     0.198 A 
ATOM     87  F   UNL A   1      40.586  27.294  33.881  1.00  0.00    -0.203 F 
ATOM     88  F   UNL A   1      45.241  25.681  36.223  1.00  0.00    -0.200 F 
ATOM     89  C   UNL A   1      42.918  25.405  35.914  1.00  0.00     0.200 A 
ATOM     90  F   UNL A   1      40.605  25.152  35.533  1.00  0.00    -0.200 F 
ATOM     91  F   UNL A   1      42.923  24.331  36.715  1.00  0.00    -0.200 F 
ENDBRANCH  57  81
BRANCH  69  92
ATOM     92  C   UNL A   1      44.720  28.767  27.575  1.00  0.00     0.064 A 
ATOM     93  C   UNL A   1      46.053  28.349  27.454  1.00  0.00     0.173 A 
ATOM     94  C   UNL A   1      43.781  28.236  26.676  1.00  0.00     0.173 A 
ATOM     95  F   UNL A   1      46.989  28.830  28.286  1.00  0.00    -0.203 F 
ATOM     96  C   UNL A   1      46.437  27.458  26.456  1.00  0.00     0.198 A 
ATOM     97  C   UNL A   1      44.164  27.320  25.699  1.00  0.00     0.198 A 
ATOM     98  F   UNL A   1      42.489  28.589  26.758  1.00  0.00    -0.203 F 
ATOM     99  F   UNL A   1      47.724  27.108  26.333  1.00  0.00    -0.200 F 
ATOM    100  C   UNL A   1      45.491  26.938  25.585  1.00  0.00     0.200 A 
ATOM    101  F   UNL A   1      43.246  26.804  24.871  1.00  0.00    -0.200 F 
ATOM    102  F   UNL A   1      45.861  26.070  24.633  1.00  0.00    -0.200 F 
ENDBRANCH  69  92
ENDBRANCH  43  44
ENDBRANCH  36  38
ENDBRANCH  35  36
ENDBRANCH  34  35
ENDBRANCH  33  34
ENDBRANCH  32  33
ENDBRANCH  31  32
ENDBRANCH   1  31
TORSDOF 20
ENDMDL
MODEL 3
REMARK VINA RESULT:     -11.2      1.840      3.003
REMARK SMILES C[C@@H](C(=O)OCCOCCOCCOC(=O)c1ccc(-c2c3nc(c(-c4c(F)c(F)c(F)c(F)c4F)c4ccc([nH]4)c(-c4c(F)c(F)c(F)c(F)c4F)c4nc(c(-c5c(F)c(F)c(F)c(F)c5F)c5ccc2[nH]5)C=C4)C=C3)cc1)c1ccc2c3cc(Cl)ccc3n(C(=O)c3cocn3)c2c1
REMARK SMILES IDX 9 1 8 2 7 3 6 4 5 5 3 6 4 7 2 8 1 9 80 10 81 11 100 12 82 13
REMARK SMILES IDX 99 14 83 15 91 16 84 17 90 18 85 19 89 20 86 21 88 22 87 23
REMARK SMILES IDX 92 24 93 25 94 26 95 27 98 28 96 29 97 30 10 31 11 32 12 33
REMARK SMILES IDX 13 34 14 35 15 36 16 37 17 38 18 39 79 40 19 41 78 42 20 43
REMARK SMILES IDX 21 44 22 45 72 46 23 47 77 48 71 49 73 50 24 51 76 52 70 53
REMARK SMILES IDX 69 54 25 56 57 57 37 58 56 59 38 60 41 61 55 62 74 63 39 64
REMARK SMILES IDX 40 65 54 67 75 68 42 69 26 70 27 71 35 72 28 73 29 74 33 75
REMARK SMILES IDX 36 76 30 77 31 78 34 79 32 80 58 81 59 82 67 83 60 84 61 85
REMARK SMILES IDX 65 86 68 87 62 88 63 89 66 90 64 91 43 92 44 93 52 94 45 95
REMARK SMILES IDX 46 96 50 97 53 98 47 99 48 100 51 101 49 102
REMARK H PARENT 73 55 41 66
REMARK Flexibility Score: inf
ROOT
ATOM      1  C   UNL A   1      35.561  19.045  24.488  1.00  0.00     0.188 C 
ENDROOT
BRANCH   1   2
ATOM      2  O   UNL A   1      35.064  17.726  24.693  1.00  0.00    -0.376 OA
BRANCH   2   3
ATOM      3  C   UNL A   1      33.665  17.490  24.553  1.00  0.00     0.202 C 
BRANCH   3   4
ATOM      4  C   UNL A   1      32.729  18.338  25.420  1.00  0.00     0.261 C 
BRANCH   4   5
ATOM      5  O   UNL A   1      32.144  19.439  24.700  1.00  0.00    -0.463 OA
BRANCH   5   6
ATOM      6  C   UNL A   1      32.400  20.682  25.193  1.00  0.00     0.313 C 
ATOM      7  O   UNL A   1      32.926  20.888  26.282  1.00  0.00    -0.252 OA
BRANCH   6   8
ATOM      8  C   UNL A   1      32.041  21.811  24.222  1.00  0.00     0.126 C 
ATOM      9  C   UNL A   1      32.350  21.499  22.746  1.00  0.00     0.025 C 
BRANCH   8  10
ATOM     10  C   UNL A   1      32.514  23.211  24.640  1.00  0.00    -0.032 A 
ATOM     11  C   UNL A   1      33.780  23.474  25.173  1.00  0.00     0.005 A 
ATOM     12  C   UNL A   1      31.602  24.280  24.550  1.00  0.00     0.032 A 
ATOM     13  C   UNL A   1      34.155  24.765  25.582  1.00  0.00     0.011 A 
ATOM     14  C   UNL A   1      31.953  25.567  25.014  1.00  0.00     0.058 A 
ATOM     15  C   UNL A   1      33.224  25.824  25.525  1.00  0.00     0.008 A 
ATOM     16  N   UNL A   1      31.227  26.768  25.044  1.00  0.00    -0.274 N 
ATOM     17  C   UNL A   1      33.248  27.186  25.952  1.00  0.00     0.009 A 
ATOM     18  C   UNL A   1      31.945  27.676  25.832  1.00  0.00     0.057 A 
ATOM     19  C   UNL A   1      34.239  28.021  26.510  1.00  0.00     0.031 A 
ATOM     20  C   UNL A   1      31.567  28.883  26.451  1.00  0.00     0.029 A 
ATOM     21  C   UNL A   1      33.885  29.289  26.972  1.00  0.00     0.041 A 
ATOM     22  C   UNL A   1      32.559  29.692  26.999  1.00  0.00     0.023 A 
ATOM     23  Cl  UNL A   1      35.084  30.384  27.518  1.00  0.00    -0.084 Cl
BRANCH  16  24
ATOM     24  C   UNL A   1      29.987  27.004  24.384  1.00  0.00     0.284 C 
ATOM     25  O   UNL A   1      29.056  26.258  24.679  1.00  0.00    -0.266 OA
BRANCH  24  26
ATOM     26  C   UNL A   1      29.780  28.032  23.365  1.00  0.00     0.167 A 
ATOM     27  C   UNL A   1      30.654  28.478  22.395  1.00  0.00     0.231 A 
ATOM     28  N   UNL A   1      28.562  28.671  23.187  1.00  0.00    -0.211 NA
ATOM     29  O   UNL A   1      30.018  29.416  21.638  1.00  0.00    -0.451 OA
ATOM     30  C   UNL A   1      28.765  29.467  22.164  1.00  0.00     0.308 A 
ENDBRANCH  24  26
ENDBRANCH  16  24
ENDBRANCH   8  10
ENDBRANCH   6   8
ENDBRANCH   5   6
ENDBRANCH   4   5
ENDBRANCH   3   4
ENDBRANCH   2   3
ENDBRANCH   1   2
BRANCH   1  31
ATOM     31  C   UNL A   1      36.983  19.392  24.957  1.00  0.00     0.188 C 
BRANCH  31  32
ATOM     32  O   UNL A   1      37.339  20.747  24.757  1.00  0.00    -0.376 OA
BRANCH  32  33
ATOM     33  C   UNL A   1      38.514  21.189  25.418  1.00  0.00     0.202 C 
BRANCH  33  34
ATOM     34  C   UNL A   1      39.423  20.042  25.871  1.00  0.00     0.261 C 
BRANCH  34  35
ATOM     35  O   UNL A   1      40.107  20.272  27.116  1.00  0.00    -0.460 OA
BRANCH  35  36
ATOM     36  C   UNL A   1      41.426  20.569  27.048  1.00  0.00     0.338 C 
ATOM     37  O   UNL A   1      42.326  19.855  26.655  1.00  0.00    -0.246 OA
BRANCH  36  38
ATOM     38  C   UNL A   1      41.569  22.007  27.358  1.00  0.00     0.060 A 
ATOM     39  C   UNL A   1      41.088  22.955  26.447  1.00  0.00     0.016 A 
ATOM     40  C   UNL A   1      42.174  22.411  28.551  1.00  0.00     0.016 A 
ATOM     41  C   UNL A   1      41.234  24.318  26.720  1.00  0.00     0.010 A 
ATOM     42  C   UNL A   1      42.340  23.772  28.812  1.00  0.00     0.010 A 
ATOM     43  C   UNL A   1      41.895  24.731  27.886  1.00  0.00    -0.014 A 
BRANCH  43  44
ATOM     44  C   UNL A   1      42.300  26.149  28.051  1.00  0.00     0.031 A 
ATOM     45  C   UNL A   1      43.584  26.595  27.409  1.00  0.00     0.074 A 
ATOM     46  C   UNL A   1      41.557  27.010  28.770  1.00  0.00     0.049 A 
ATOM     47  N   UNL A   1      44.154  27.771  27.414  1.00  0.00    -0.248 NA
ATOM     48  C   UNL A   1      44.335  25.565  26.670  1.00  0.00     0.031 C 
ATOM     49  C   UNL A   1      40.296  26.682  29.429  1.00  0.00     0.029 A 
ATOM     50  N   UNL A   1      41.751  28.339  29.059  1.00  0.00    -0.354 N 
ATOM     51  C   UNL A   1      45.347  27.614  26.719  1.00  0.00     0.074 A 
ATOM     52  C   UNL A   1      45.415  26.235  26.293  1.00  0.00     0.031 C 
ATOM     53  C   UNL A   1      39.807  27.793  30.011  1.00  0.00     0.029 A 
ATOM     54  C   UNL A   1      40.731  28.905  29.788  1.00  0.00     0.049 A 
ATOM     55  H   UNL A   1      42.548  28.840  28.769  1.00  0.00     0.167 HD
ATOM     56  C   UNL A   1      46.307  28.537  26.479  1.00  0.00     0.037 A 
ATOM     57  C   UNL A   1      40.563  30.182  30.198  1.00  0.00     0.037 A 
ATOM     58  C   UNL A   1      46.230  29.908  26.901  1.00  0.00     0.049 A 
ATOM     59  C   UNL A   1      41.642  31.194  29.877  1.00  0.00     0.074 A 
ATOM     60  C   UNL A   1      47.148  30.925  26.702  1.00  0.00     0.029 A 
ATOM     61  N   UNL A   1      45.173  30.454  27.614  1.00  0.00    -0.354 N 
ATOM     62  N   UNL A   1      42.743  31.048  29.177  1.00  0.00    -0.248 NA
ATOM     63  C   UNL A   1      41.454  32.551  30.411  1.00  0.00     0.031 C 
ATOM     64  C   UNL A   1      46.667  32.074  27.338  1.00  0.00     0.029 A 
ATOM     65  C   UNL A   1      45.426  31.788  27.886  1.00  0.00     0.049 A 
ATOM     66  H   UNL A   1      44.362  29.965  27.886  1.00  0.00     0.167 HD
ATOM     67  C   UNL A   1      43.356  32.295  29.159  1.00  0.00     0.074 A 
ATOM     68  C   UNL A   1      42.492  33.194  29.894  1.00  0.00     0.031 C 
ATOM     69  C   UNL A   1      44.537  32.665  28.602  1.00  0.00     0.037 A 
BRANCH  56  70
ATOM     70  C   UNL A   1      47.551  28.074  25.781  1.00  0.00     0.064 A 
ATOM     71  C   UNL A   1      48.733  27.785  26.476  1.00  0.00     0.173 A 
ATOM     72  C   UNL A   1      47.548  27.897  24.387  1.00  0.00     0.173 A 
ATOM     73  F   UNL A   1      48.794  27.959  27.805  1.00  0.00    -0.203 F 
ATOM     74  C   UNL A   1      49.874  27.356  25.800  1.00  0.00     0.198 A 
ATOM     75  C   UNL A   1      48.680  27.442  23.719  1.00  0.00     0.198 A 
ATOM     76  F   UNL A   1      46.442  28.161  23.675  1.00  0.00    -0.203 F 
ATOM     77  F   UNL A   1      51.006  27.128  26.480  1.00  0.00    -0.200 F 
ATOM     78  C   UNL A   1      49.844  27.178  24.424  1.00  0.00     0.200 A 
ATOM     79  F   UNL A   1      48.647  27.263  22.391  1.00  0.00    -0.200 F 
ATOM     80  F   UNL A   1      50.941  26.759  23.778  1.00  0.00    -0.200 F 
ENDBRANCH  56  70
BRANCH  57  81
ATOM     81  C   UNL A   1      39.301  30.605  30.880  1.00  0.00     0.064 A 
ATOM     82  C   UNL A   1      38.223  31.132  30.147  1.00  0.00     0.173 A 
ATOM     83  C   UNL A   1      39.131  30.502  32.267  1.00  0.00     0.173 A 
ATOM     84  F   UNL A   1      38.339  31.343  28.831  1.00  0.00    -0.203 F 
ATOM     85  C   UNL A   1      37.032  31.511  30.760  1.00  0.00     0.198 A 
ATOM     86  C   UNL A   1      37.930  30.864  32.881  1.00  0.00     0.198 A 
ATOM     87  F   UNL A   1      40.128  30.036  33.034  1.00  0.00    -0.203 F 
ATOM     88  F   UNL A   1      36.040  32.034  30.025  1.00  0.00    -0.200 F 
ATOM     89  C   UNL A   1      36.881  31.366  32.127  1.00  0.00     0.200 A 
ATOM     90  F   UNL A   1      37.790  30.726  34.206  1.00  0.00    -0.200 F 
ATOM     91  F   UNL A   1      35.733  31.726  32.718  1.00  0.00    -0.200 F 
ENDBRANCH  57  81
BRANCH  69  92
ATOM     92  C   UNL A   1      44.956  34.102  28.750  1.00  0.00     0.064 A 
ATOM     93  C   UNL A   1      44.578  35.076  27.814  1.00  0.00     0.173 A 
ATOM     94  C   UNL A   1      45.688  34.520  29.873  1.00  0.00     0.173 A 
ATOM     95  F   UNL A   1      43.882  34.727  26.721  1.00  0.00    -0.203 F 
ATOM     96  C   UNL A   1      44.941  36.409  27.981  1.00  0.00     0.198 A 
ATOM     97  C   UNL A   1      46.021  35.860  30.052  1.00  0.00     0.198 A 
ATOM     98  F   UNL A   1      46.060  33.633  30.807  1.00  0.00    -0.203 F 
ATOM     99  F   UNL A   1      44.605  37.313  27.051  1.00  0.00    -0.200 F 
ATOM    100  C   UNL A   1      45.654  36.801  29.103  1.00  0.00     0.200 A 
ATOM    101  F   UNL A   1      46.692  36.241  31.147  1.00  0.00    -0.200 F 
ATOM    102  F   UNL A   1      45.990  38.088  29.268  1.00  0.00    -0.200 F 
ENDBRANCH  69  92
ENDBRANCH  43  44
ENDBRANCH  36  38
ENDBRANCH  35  36
ENDBRANCH  34  35
ENDBRANCH  33  34
ENDBRANCH  32  33
ENDBRANCH  31  32
ENDBRANCH   1  31
TORSDOF 20
ENDMDL
