MODEL 1
REMARK VINA RESULT:      -9.8      0.000      0.000
REMARK SMILES CC(C)CCN(C(=O)N[C@H](C(=O)OCCOCCOCCOC(=O)c1ccc(-c2c3nc(c(-c4c(F)c(F)c(F)c(F)c4F)c4ccc([nH]4)c(-c4c(F)c(F)c(F)c(F)c4F)c4nc(c(-c5c(F)c(F)c(F)c(F)c5F)c5ccc2[nH]5)C=C4)C=C3)cc1)[C@H](C)O)C1CCCC1
REMARK SMILES IDX 16 1 15 2 14 3 13 4 11 5 12 6 10 7 9 8 7 9 8 10 6 12 5 13
REMARK SMILES IDX 4 14 2 15 1 16 3 17 91 18 92 19 95 20 93 21 94 22 88 23
REMARK SMILES IDX 89 24 90 25 17 27 18 28 19 29 20 30 21 31 22 32 23 33 24 34
REMARK SMILES IDX 25 35 26 36 87 37 27 38 86 39 28 40 29 41 30 42 80 43 31 44
REMARK SMILES IDX 85 45 79 46 81 47 32 48 84 49 78 50 77 51 33 53 65 54 45 55
REMARK SMILES IDX 64 56 46 57 49 58 63 59 82 60 47 61 48 62 62 64 83 65 50 66
REMARK SMILES IDX 34 67 35 68 43 69 36 70 37 71 41 72 44 73 38 74 39 75 42 76
REMARK SMILES IDX 40 77 66 78 67 79 75 80 68 81 69 82 73 83 76 84 70 85 71 86
REMARK SMILES IDX 74 87 72 88 51 89 52 90 60 91 53 92 54 93 58 94 61 95 55 96
REMARK SMILES IDX 56 97 59 98 57 99
REMARK H PARENT 9 11 90 26 81 52 49 63
REMARK Flexibility Score: inf
ROOT
ATOM      1  O   UNL A   1      39.392  23.095  26.748  1.00  0.00    -0.376 OA
ENDROOT
BRANCH   1   2
ATOM      2  C   UNL A   1      38.178  23.528  26.160  1.00  0.00     0.202 C 
BRANCH   2   3
ATOM      3  C   UNL A   1      37.449  22.519  25.260  1.00  0.00     0.261 C 
BRANCH   3   4
ATOM      4  O   UNL A   1      36.083  22.835  24.938  1.00  0.00    -0.462 OA
BRANCH   4   5
ATOM      5  C   UNL A   1      35.797  23.100  23.633  1.00  0.00     0.331 C 
ATOM      6  O   UNL A   1      36.577  22.874  22.717  1.00  0.00    -0.250 OA
BRANCH   5   7
ATOM      7  C   UNL A   1      34.299  23.466  23.467  1.00  0.00     0.222 C 
BRANCH   7   8
ATOM      8  N   UNL A   1      33.958  24.355  22.323  1.00  0.00    -0.322 N 
ATOM      9  C   UNL A   1      33.265  25.493  22.109  1.00  0.00     0.318 C 
ATOM     10  O   UNL A   1      33.134  25.792  20.919  1.00  0.00    -0.249 OA
ATOM     11  H   UNL A   1      34.349  24.017  21.485  1.00  0.00     0.166 HD
BRANCH   9  12
ATOM     12  N   UNL A   1      32.718  26.252  23.112  1.00  0.00    -0.322 N 
BRANCH  12  13
ATOM     13  C   UNL A   1      31.295  26.444  23.326  1.00  0.00     0.122 C 
BRANCH  13  14
ATOM     14  C   UNL A   1      30.673  27.585  22.528  1.00  0.00     0.024 C 
BRANCH  14  15
ATOM     15  C   UNL A   1      29.757  28.523  23.321  1.00  0.00    -0.016 C 
ATOM     16  C   UNL A   1      30.493  29.569  24.161  1.00  0.00     0.007 C 
ATOM     17  C   UNL A   1      28.818  29.232  22.343  1.00  0.00     0.007 C 
ENDBRANCH  14  15
ENDBRANCH  13  14
ENDBRANCH  12  13
BRANCH  12  18
ATOM     18  C   UNL A   1      33.660  26.782  24.139  1.00  0.00     0.087 C 
ATOM     19  C   UNL A   1      33.989  28.285  24.105  1.00  0.00     0.025 C 
ATOM     20  C   UNL A   1      33.228  26.461  25.576  1.00  0.00     0.025 C 
ATOM     21  C   UNL A   1      33.716  28.859  25.486  1.00  0.00     0.002 C 
ATOM     22  C   UNL A   1      33.488  27.694  26.426  1.00  0.00     0.002 C 
ENDBRANCH  12  18
ENDBRANCH   9  12
ENDBRANCH   7   8
BRANCH   7  23
ATOM     23  C   UNL A   1      33.221  22.414  23.858  1.00  0.00     0.145 C 
ATOM     24  C   UNL A   1      32.359  21.804  22.755  1.00  0.00     0.041 C 
BRANCH  23  25
ATOM     25  O   UNL A   1      32.357  22.903  24.889  1.00  0.00    -0.391 OA
ATOM     26  H   UNL A   1      31.882  22.159  25.293  1.00  0.00     0.211 HD
ENDBRANCH  23  25
ENDBRANCH   7  23
ENDBRANCH   5   7
ENDBRANCH   4   5
ENDBRANCH   3   4
ENDBRANCH   2   3
ENDBRANCH   1   2
BRANCH   1  27
ATOM     27  C   UNL A   1      39.840  21.792  26.430  1.00  0.00     0.188 C 
BRANCH  27  28
ATOM     28  C   UNL A   1      41.372  21.690  26.251  1.00  0.00     0.188 C 
BRANCH  28  29
ATOM     29  O   UNL A   1      42.142  20.886  27.128  1.00  0.00    -0.376 OA
BRANCH  29  30
ATOM     30  C   UNL A   1      42.001  19.477  27.071  1.00  0.00     0.202 C 
BRANCH  30  31
ATOM     31  C   UNL A   1      42.836  18.682  26.051  1.00  0.00     0.261 C 
BRANCH  31  32
ATOM     32  O   UNL A   1      43.085  19.327  24.783  1.00  0.00    -0.460 OA
BRANCH  32  33
ATOM     33  C   UNL A   1      44.381  19.521  24.441  1.00  0.00     0.338 C 
ATOM     34  O   UNL A   1      45.112  18.736  23.848  1.00  0.00    -0.246 OA
BRANCH  33  35
ATOM     35  C   UNL A   1      44.794  20.917  24.721  1.00  0.00     0.060 A 
ATOM     36  C   UNL A   1      45.356  21.223  25.973  1.00  0.00     0.016 A 
ATOM     37  C   UNL A   1      44.569  21.938  23.797  1.00  0.00     0.016 A 
ATOM     38  C   UNL A   1      45.678  22.542  26.308  1.00  0.00     0.010 A 
ATOM     39  C   UNL A   1      44.864  23.264  24.146  1.00  0.00     0.010 A 
ATOM     40  C   UNL A   1      45.395  23.580  25.413  1.00  0.00    -0.014 A 
BRANCH  40  41
ATOM     41  C   UNL A   1      45.467  25.001  25.855  1.00  0.00     0.031 A 
ATOM     42  C   UNL A   1      46.795  25.708  25.789  1.00  0.00     0.074 A 
ATOM     43  C   UNL A   1      44.389  25.659  26.317  1.00  0.00     0.049 A 
ATOM     44  N   UNL A   1      47.133  26.897  26.222  1.00  0.00    -0.248 NA
ATOM     45  C   UNL A   1      47.891  24.967  25.147  1.00  0.00     0.031 C 
ATOM     46  C   UNL A   1      43.032  25.125  26.378  1.00  0.00     0.029 A 
ATOM     47  N   UNL A   1      44.276  26.925  26.843  1.00  0.00    -0.354 N 
ATOM     48  C   UNL A   1      48.484  27.034  25.931  1.00  0.00     0.074 A 
ATOM     49  C   UNL A   1      48.907  25.803  25.299  1.00  0.00     0.031 C 
ATOM     50  C   UNL A   1      42.224  26.050  26.928  1.00  0.00     0.029 A 
ATOM     51  C   UNL A   1      43.014  27.224  27.298  1.00  0.00     0.049 A 
ATOM     52  H   UNL A   1      45.029  27.558  26.890  1.00  0.00     0.167 HD
ATOM     53  C   UNL A   1      49.301  28.089  26.168  1.00  0.00     0.037 A 
ATOM     54  C   UNL A   1      42.560  28.305  27.964  1.00  0.00     0.037 A 
ATOM     55  C   UNL A   1      48.882  29.317  26.794  1.00  0.00     0.049 A 
ATOM     56  C   UNL A   1      43.511  29.427  28.306  1.00  0.00     0.074 A 
ATOM     57  C   UNL A   1      49.629  30.455  27.047  1.00  0.00     0.029 A 
ATOM     58  N   UNL A   1      47.606  29.562  27.280  1.00  0.00    -0.354 N 
ATOM     59  N   UNL A   1      44.780  29.563  28.007  1.00  0.00    -0.248 NA
ATOM     60  C   UNL A   1      42.962  30.547  29.087  1.00  0.00     0.031 C 
ATOM     61  C   UNL A   1      48.826  31.359  27.749  1.00  0.00     0.029 A 
ATOM     62  C   UNL A   1      47.557  30.815  27.869  1.00  0.00     0.049 A 
ATOM     63  H   UNL A   1      46.849  28.937  27.217  1.00  0.00     0.167 HD
ATOM     64  C   UNL A   1      45.169  30.793  28.526  1.00  0.00     0.074 A 
ATOM     65  C   UNL A   1      43.999  31.370  29.153  1.00  0.00     0.031 C 
ATOM     66  C   UNL A   1      46.386  31.391  28.482  1.00  0.00     0.037 A 
BRANCH  53  67
ATOM     67  C   UNL A   1      50.749  27.945  25.793  1.00  0.00     0.064 A 
ATOM     68  C   UNL A   1      51.203  28.145  24.480  1.00  0.00     0.173 A 
ATOM     69  C   UNL A   1      51.702  27.624  26.772  1.00  0.00     0.173 A 
ATOM     70  F   UNL A   1      50.333  28.443  23.503  1.00  0.00    -0.203 F 
ATOM     71  C   UNL A   1      52.549  27.992  24.156  1.00  0.00     0.198 A 
ATOM     72  C   UNL A   1      53.052  27.507  26.451  1.00  0.00     0.198 A 
ATOM     73  F   UNL A   1      51.326  27.428  28.045  1.00  0.00    -0.203 F 
ATOM     74  F   UNL A   1      52.950  28.130  22.885  1.00  0.00    -0.200 F 
ATOM     75  C   UNL A   1      53.473  27.681  25.142  1.00  0.00     0.200 A 
ATOM     76  F   UNL A   1      53.944  27.223  27.410  1.00  0.00    -0.200 F 
ATOM     77  F   UNL A   1      54.768  27.540  24.830  1.00  0.00    -0.200 F 
ENDBRANCH  53  67
BRANCH  54  78
ATOM     78  C   UNL A   1      41.131  28.387  28.373  1.00  0.00     0.064 A 
ATOM     79  C   UNL A   1      40.163  28.913  27.504  1.00  0.00     0.173 A 
ATOM     80  C   UNL A   1      40.708  27.979  29.646  1.00  0.00     0.173 A 
ATOM     81  F   UNL A   1      40.523  29.350  26.289  1.00  0.00    -0.203 F 
ATOM     82  C   UNL A   1      38.832  29.042  27.899  1.00  0.00     0.198 A 
ATOM     83  C   UNL A   1      39.370  28.078  30.029  1.00  0.00     0.198 A 
ATOM     84  F   UNL A   1      41.592  27.477  30.521  1.00  0.00    -0.203 F 
ATOM     85  F   UNL A   1      37.940  29.598  27.069  1.00  0.00    -0.200 F 
ATOM     86  C   UNL A   1      38.436  28.618  29.159  1.00  0.00     0.200 A 
ATOM     87  F   UNL A   1      38.990  27.659  31.243  1.00  0.00    -0.200 F 
ATOM     88  F   UNL A   1      37.156  28.740  29.536  1.00  0.00    -0.200 F 
ENDBRANCH  54  78
BRANCH  66  89
ATOM     89  C   UNL A   1      46.514  32.765  29.083  1.00  0.00     0.064 A 
ATOM     90  C   UNL A   1      46.934  32.960  30.407  1.00  0.00     0.173 A 
ATOM     91  C   UNL A   1      46.261  33.905  28.303  1.00  0.00     0.173 A 
ATOM     92  F   UNL A   1      47.177  31.908  31.201  1.00  0.00    -0.203 F 
ATOM     93  C   UNL A   1      47.071  34.243  30.933  1.00  0.00     0.198 A 
ATOM     94  C   UNL A   1      46.433  35.185  28.821  1.00  0.00     0.198 A 
ATOM     95  F   UNL A   1      45.864  33.777  27.027  1.00  0.00    -0.203 F 
ATOM     96  F   UNL A   1      47.426  34.405  32.216  1.00  0.00    -0.200 F 
ATOM     97  C   UNL A   1      46.830  35.354  30.139  1.00  0.00     0.200 A 
ATOM     98  F   UNL A   1      46.216  36.257  28.045  1.00  0.00    -0.200 F 
ATOM     99  F   UNL A   1      46.974  36.587  30.644  1.00  0.00    -0.200 F 
ENDBRANCH  66  89
ENDBRANCH  40  41
ENDBRANCH  33  35
ENDBRANCH  32  33
ENDBRANCH  31  32
ENDBRANCH  30  31
ENDBRANCH  29  30
ENDBRANCH  28  29
ENDBRANCH  27  28
ENDBRANCH   1  27
TORSDOF 25
ENDMDL
MODEL 2
REMARK VINA RESULT:      -9.8      2.287      3.928
REMARK SMILES CC(C)CCN(C(=O)N[C@H](C(=O)OCCOCCOCCOC(=O)c1ccc(-c2c3nc(c(-c4c(F)c(F)c(F)c(F)c4F)c4ccc([nH]4)c(-c4c(F)c(F)c(F)c(F)c4F)c4nc(c(-c5c(F)c(F)c(F)c(F)c5F)c5ccc2[nH]5)C=C4)C=C3)cc1)[C@H](C)O)C1CCCC1
REMARK SMILES IDX 16 1 15 2 14 3 13 4 11 5 12 6 10 7 9 8 7 9 8 10 6 12 5 13
REMARK SMILES IDX 4 14 2 15 1 16 3 17 91 18 92 19 95 20 93 21 94 22 88 23
REMARK SMILES IDX 89 24 90 25 17 27 18 28 19 29 20 30 21 31 22 32 23 33 24 34
REMARK SMILES IDX 25 35 26 36 87 37 27 38 86 39 28 40 29 41 30 42 80 43 31 44
REMARK SMILES IDX 85 45 79 46 81 47 32 48 84 49 78 50 77 51 33 53 65 54 45 55
REMARK SMILES IDX 64 56 46 57 49 58 63 59 82 60 47 61 48 62 62 64 83 65 50 66
REMARK SMILES IDX 34 67 35 68 43 69 36 70 37 71 41 72 44 73 38 74 39 75 42 76
REMARK SMILES IDX 40 77 66 78 67 79 75 80 68 81 69 82 73 83 76 84 70 85 71 86
REMARK SMILES IDX 74 87 72 88 51 89 52 90 60 91 53 92 54 93 58 94 61 95 55 96
REMARK SMILES IDX 56 97 59 98 57 99
REMARK H PARENT 9 11 90 26 81 52 49 63
REMARK Flexibility Score: inf
ROOT
ATOM      1  O   UNL A   1      34.832  20.601  24.820  1.00  0.00    -0.376 OA
ENDROOT
BRANCH   1   2
ATOM      2  C   UNL A   1      33.419  20.704  24.847  1.00  0.00     0.202 C 
BRANCH   2   3
ATOM      3  C   UNL A   1      32.781  21.699  23.865  1.00  0.00     0.261 C 
BRANCH   3   4
ATOM      4  O   UNL A   1      33.064  23.088  24.105  1.00  0.00    -0.462 OA
BRANCH   4   5
ATOM      5  C   UNL A   1      33.433  23.842  23.033  1.00  0.00     0.331 C 
ATOM      6  O   UNL A   1      34.452  23.636  22.387  1.00  0.00    -0.250 OA
BRANCH   5   7
ATOM      7  C   UNL A   1      32.280  24.792  22.612  1.00  0.00     0.222 C 
BRANCH   7   8
ATOM      8  N   UNL A   1      31.282  25.126  23.665  1.00  0.00    -0.322 N 
ATOM      9  C   UNL A   1      30.747  26.231  24.225  1.00  0.00     0.318 C 
ATOM     10  O   UNL A   1      30.027  26.008  25.203  1.00  0.00    -0.249 OA
ATOM     11  H   UNL A   1      30.904  24.310  24.065  1.00  0.00     0.166 HD
BRANCH   9  12
ATOM     12  N   UNL A   1      30.993  27.506  23.782  1.00  0.00    -0.322 N 
BRANCH  12  13
ATOM     13  C   UNL A   1      32.136  28.314  24.167  1.00  0.00     0.122 C 
BRANCH  13  14
ATOM     14  C   UNL A   1      31.865  29.320  25.281  1.00  0.00     0.024 C 
BRANCH  14  15
ATOM     15  C   UNL A   1      32.963  29.441  26.342  1.00  0.00    -0.016 C 
ATOM     16  C   UNL A   1      32.875  30.701  27.207  1.00  0.00     0.007 C 
ATOM     17  C   UNL A   1      32.912  28.206  27.244  1.00  0.00     0.007 C 
ENDBRANCH  14  15
ENDBRANCH  13  14
ENDBRANCH  12  13
BRANCH  12  18
ATOM     18  C   UNL A   1      30.097  28.024  22.709  1.00  0.00     0.087 C 
ATOM     19  C   UNL A   1      28.622  28.283  23.065  1.00  0.00     0.025 C 
ATOM     20  C   UNL A   1      30.621  29.310  22.054  1.00  0.00     0.025 C 
ATOM     21  C   UNL A   1      28.286  29.713  22.672  1.00  0.00     0.002 C 
ATOM     22  C   UNL A   1      29.437  30.239  21.841  1.00  0.00     0.002 C 
ENDBRANCH  12  18
ENDBRANCH   9  12
ENDBRANCH   7   8
BRANCH   7  23
ATOM     23  C   UNL A   1      32.569  25.908  21.568  1.00  0.00     0.145 C 
ATOM     24  C   UNL A   1      32.343  25.604  20.088  1.00  0.00     0.041 C 
BRANCH  23  25
ATOM     25  O   UNL A   1      33.887  26.445  21.722  1.00  0.00    -0.391 OA
ATOM     26  H   UNL A   1      34.252  26.166  22.577  1.00  0.00     0.211 HD
ENDBRANCH  23  25
ENDBRANCH   7  23
ENDBRANCH   5   7
ENDBRANCH   4   5
ENDBRANCH   3   4
ENDBRANCH   2   3
ENDBRANCH   1   2
BRANCH   1  27
ATOM     27  C   UNL A   1      35.556  21.352  25.773  1.00  0.00     0.188 C 
BRANCH  27  28
ATOM     28  C   UNL A   1      36.938  21.828  25.268  1.00  0.00     0.188 C 
BRANCH  28  29
ATOM     29  O   UNL A   1      37.764  20.956  24.517  1.00  0.00    -0.376 OA
BRANCH  29  30
ATOM     30  C   UNL A   1      38.138  19.710  25.079  1.00  0.00     0.202 C 
BRANCH  30  31
ATOM     31  C   UNL A   1      39.583  19.519  25.577  1.00  0.00     0.261 C 
BRANCH  31  32
ATOM     32  O   UNL A   1      39.853  19.931  26.934  1.00  0.00    -0.460 OA
BRANCH  32  33
ATOM     33  C   UNL A   1      41.133  20.261  27.227  1.00  0.00     0.338 C 
ATOM     34  O   UNL A   1      42.124  19.548  27.111  1.00  0.00    -0.246 OA
BRANCH  33  35
ATOM     35  C   UNL A   1      41.241  21.703  27.557  1.00  0.00     0.060 A 
ATOM     36  C   UNL A   1      40.520  22.633  26.786  1.00  0.00     0.016 A 
ATOM     37  C   UNL A   1      42.094  22.154  28.563  1.00  0.00     0.016 A 
ATOM     38  C   UNL A   1      40.661  24.006  27.009  1.00  0.00     0.010 A 
ATOM     39  C   UNL A   1      42.258  23.533  28.764  1.00  0.00     0.010 A 
ATOM     40  C   UNL A   1      41.565  24.470  27.971  1.00  0.00    -0.014 A 
BRANCH  40  41
ATOM     41  C   UNL A   1      41.935  25.911  28.029  1.00  0.00     0.031 A 
ATOM     42  C   UNL A   1      43.248  26.341  27.430  1.00  0.00     0.074 A 
ATOM     43  C   UNL A   1      41.140  26.829  28.607  1.00  0.00     0.049 A 
ATOM     44  N   UNL A   1      43.840  27.509  27.460  1.00  0.00    -0.248 NA
ATOM     45  C   UNL A   1      43.996  25.306  26.700  1.00  0.00     0.031 C 
ATOM     46  C   UNL A   1      39.818  26.571  29.169  1.00  0.00     0.029 A 
ATOM     47  N   UNL A   1      41.345  28.170  28.832  1.00  0.00    -0.354 N 
ATOM     48  C   UNL A   1      45.039  27.341  26.778  1.00  0.00     0.074 A 
ATOM     49  C   UNL A   1      45.098  25.957  26.360  1.00  0.00     0.031 C 
ATOM     50  C   UNL A   1      39.335  27.714  29.690  1.00  0.00     0.029 A 
ATOM     51  C   UNL A   1      40.332  28.773  29.538  1.00  0.00     0.049 A 
ATOM     52  H   UNL A   1      42.142  28.654  28.516  1.00  0.00     0.167 HD
ATOM     53  C   UNL A   1      46.006  28.257  26.523  1.00  0.00     0.037 A 
ATOM     54  C   UNL A   1      40.237  30.025  30.032  1.00  0.00     0.037 A 
ATOM     55  C   UNL A   1      45.948  29.636  26.935  1.00  0.00     0.049 A 
ATOM     56  C   UNL A   1      41.371  31.000  29.821  1.00  0.00     0.074 A 
ATOM     57  C   UNL A   1      46.863  30.646  26.694  1.00  0.00     0.029 A 
ATOM     58  N   UNL A   1      44.926  30.195  27.688  1.00  0.00    -0.354 N 
ATOM     59  N   UNL A   1      42.489  30.845  29.155  1.00  0.00    -0.248 NA
ATOM     60  C   UNL A   1      41.227  32.328  30.439  1.00  0.00     0.031 C 
ATOM     61  C   UNL A   1      46.430  31.798  27.362  1.00  0.00     0.029 A 
ATOM     62  C   UNL A   1      45.209  31.525  27.956  1.00  0.00     0.049 A 
ATOM     63  H   UNL A   1      44.120  29.717  27.988  1.00  0.00     0.167 HD
ATOM     64  C   UNL A   1      43.161  32.059  29.241  1.00  0.00     0.074 A 
ATOM     65  C   UNL A   1      42.321  32.946  30.017  1.00  0.00     0.031 C 
ATOM     66  C   UNL A   1      44.364  32.408  28.719  1.00  0.00     0.037 A 
BRANCH  53  67
ATOM     67  C   UNL A   1      47.237  27.785  25.802  1.00  0.00     0.064 A 
ATOM     68  C   UNL A   1      47.314  27.751  24.401  1.00  0.00     0.173 A 
ATOM     69  C   UNL A   1      48.368  27.381  26.529  1.00  0.00     0.173 A 
ATOM     70  F   UNL A   1      46.258  28.117  23.658  1.00  0.00    -0.203 F 
ATOM     71  C   UNL A   1      48.462  27.297  23.758  1.00  0.00     0.198 A 
ATOM     72  C   UNL A   1      49.526  26.961  25.881  1.00  0.00     0.198 A 
ATOM     73  F   UNL A   1      48.352  27.399  27.871  1.00  0.00    -0.203 F 
ATOM     74  F   UNL A   1      48.492  27.218  22.420  1.00  0.00    -0.200 F 
ATOM     75  C   UNL A   1      49.570  26.910  24.497  1.00  0.00     0.200 A 
ATOM     76  F   UNL A   1      50.600  26.604  26.599  1.00  0.00    -0.200 F 
ATOM     77  F   UNL A   1      50.675  26.478  23.876  1.00  0.00    -0.200 F 
ENDBRANCH  53  67
BRANCH  54  78
ATOM     78  C   UNL A   1      39.027  30.439  30.794  1.00  0.00     0.064 A 
ATOM     79  C   UNL A   1      37.928  31.017  30.140  1.00  0.00     0.173 A 
ATOM     80  C   UNL A   1      38.956  30.304  32.188  1.00  0.00     0.173 A 
ATOM     81  F   UNL A   1      37.962  31.201  28.812  1.00  0.00    -0.203 F 
ATOM     82  C   UNL A   1      36.814  31.457  30.853  1.00  0.00     0.198 A 
ATOM     83  C   UNL A   1      37.827  30.715  32.897  1.00  0.00     0.198 A 
ATOM     84  F   UNL A   1      39.981  29.768  32.865  1.00  0.00    -0.203 F 
ATOM     85  F   UNL A   1      35.802  32.054  30.208  1.00  0.00    -0.200 F 
ATOM     86  C   UNL A   1      36.761  31.298  32.229  1.00  0.00     0.200 A 
ATOM     87  F   UNL A   1      37.776  30.551  34.225  1.00  0.00    -0.200 F 
ATOM     88  F   UNL A   1      35.688  31.719  32.913  1.00  0.00    -0.200 F 
ENDBRANCH  54  78
BRANCH  66  89
ATOM     89  C   UNL A   1      44.831  33.825  28.921  1.00  0.00     0.064 A 
ATOM     90  C   UNL A   1      45.601  34.202  30.031  1.00  0.00     0.173 A 
ATOM     91  C   UNL A   1      44.546  34.807  27.959  1.00  0.00     0.173 A 
ATOM     92  F   UNL A   1      45.893  33.307  30.986  1.00  0.00    -0.203 F 
ATOM     93  C   UNL A   1      46.046  35.514  30.182  1.00  0.00     0.198 A 
ATOM     94  C   UNL A   1      45.021  36.108  28.096  1.00  0.00     0.198 A 
ATOM     95  F   UNL A   1      43.819  34.501  26.873  1.00  0.00    -0.203 F 
ATOM     96  F   UNL A   1      46.739  35.863  31.276  1.00  0.00    -0.200 F 
ATOM     97  C   UNL A   1      45.764  36.464  29.212  1.00  0.00     0.200 A 
ATOM     98  F   UNL A   1      44.762  37.020  27.147  1.00  0.00    -0.200 F 
ATOM     99  F   UNL A   1      46.203  37.721  29.354  1.00  0.00    -0.200 F 
ENDBRANCH  66  89
ENDBRANCH  40  41
ENDBRANCH  33  35
ENDBRANCH  32  33
ENDBRANCH  31  32
ENDBRANCH  30  31
ENDBRANCH  29  30
ENDBRANCH  28  29
ENDBRANCH  27  28
ENDBRANCH   1  27
TORSDOF 25
ENDMDL
MODEL 3
REMARK VINA RESULT:      -9.5      3.725      9.093
REMARK SMILES CC(C)CCN(C(=O)N[C@H](C(=O)OCCOCCOCCOC(=O)c1ccc(-c2c3nc(c(-c4c(F)c(F)c(F)c(F)c4F)c4ccc([nH]4)c(-c4c(F)c(F)c(F)c(F)c4F)c4nc(c(-c5c(F)c(F)c(F)c(F)c5F)c5ccc2[nH]5)C=C4)C=C3)cc1)[C@H](C)O)C1CCCC1
REMARK SMILES IDX 16 1 15 2 14 3 13 4 11 5 12 6 10 7 9 8 7 9 8 10 6 12 5 13
REMARK SMILES IDX 4 14 2 15 1 16 3 17 91 18 92 19 95 20 93 21 94 22 88 23
REMARK SMILES IDX 89 24 90 25 17 27 18 28 19 29 20 30 21 31 22 32 23 33 24 34
REMARK SMILES IDX 25 35 26 36 87 37 27 38 86 39 28 40 29 41 30 42 80 43 31 44
REMARK SMILES IDX 85 45 79 46 81 47 32 48 84 49 78 50 77 51 33 53 65 54 45 55
REMARK SMILES IDX 64 56 46 57 49 58 63 59 82 60 47 61 48 62 62 64 83 65 50 66
REMARK SMILES IDX 34 67 35 68 43 69 36 70 37 71 41 72 44 73 38 74 39 75 42 76
REMARK SMILES IDX 40 77 66 78 67 79 75 80 68 81 69 82 73 83 76 84 70 85 71 86
REMARK SMILES IDX 74 87 72 88 51 89 52 90 60 91 53 92 54 93 58 94 61 95 55 96
REMARK SMILES IDX 56 97 59 98 57 99
REMARK H PARENT 9 11 90 26 81 52 49 63
REMARK Flexibility Score: inf
ROOT
ATOM      1  O   UNL A   1      34.435  31.310  27.295  1.00  0.00    -0.376 OA
ENDROOT
BRANCH   1   2
ATOM      2  C   UNL A   1      34.545  29.948  27.672  1.00  0.00     0.202 C 
BRANCH   2   3
ATOM      3  C   UNL A   1      34.295  28.906  26.572  1.00  0.00     0.261 C 
BRANCH   3   4
ATOM      4  O   UNL A   1      33.453  27.797  26.935  1.00  0.00    -0.462 OA
BRANCH   4   5
ATOM      5  C   UNL A   1      32.107  27.999  26.896  1.00  0.00     0.331 C 
ATOM      6  O   UNL A   1      31.458  28.378  27.861  1.00  0.00    -0.250 OA
BRANCH   5   7
ATOM      7  C   UNL A   1      31.589  27.933  25.434  1.00  0.00     0.222 C 
BRANCH   7   8
ATOM      8  N   UNL A   1      30.669  26.810  25.109  1.00  0.00    -0.322 N 
ATOM      9  C   UNL A   1      30.758  25.519  24.729  1.00  0.00     0.318 C 
ATOM     10  O   UNL A   1      29.678  25.002  24.426  1.00  0.00    -0.249 OA
ATOM     11  H   UNL A   1      29.728  27.088  25.196  1.00  0.00     0.166 HD
BRANCH   9  12
ATOM     12  N   UNL A   1      31.940  24.828  24.649  1.00  0.00    -0.322 N 
BRANCH  12  13
ATOM     13  C   UNL A   1      32.384  23.827  25.602  1.00  0.00     0.122 C 
BRANCH  13  14
ATOM     14  C   UNL A   1      33.651  24.187  26.370  1.00  0.00     0.024 C 
BRANCH  14  15
ATOM     15  C   UNL A   1      34.823  23.215  26.203  1.00  0.00    -0.016 C 
ATOM     16  C   UNL A   1      34.544  22.038  25.265  1.00  0.00     0.007 C 
ATOM     17  C   UNL A   1      36.035  23.993  25.687  1.00  0.00     0.007 C 
ENDBRANCH  14  15
ENDBRANCH  13  14
ENDBRANCH  12  13
BRANCH  12  18
ATOM     18  C   UNL A   1      32.741  25.017  23.406  1.00  0.00     0.087 C 
ATOM     19  C   UNL A   1      31.983  25.114  22.069  1.00  0.00     0.025 C 
ATOM     20  C   UNL A   1      33.673  26.235  23.470  1.00  0.00     0.025 C 
ATOM     21  C   UNL A   1      32.423  26.390  21.369  1.00  0.00     0.002 C 
ATOM     22  C   UNL A   1      33.623  26.930  22.119  1.00  0.00     0.002 C 
ENDBRANCH  12  18
ENDBRANCH   9  12
ENDBRANCH   7   8
BRANCH   7  23
ATOM     23  C   UNL A   1      31.342  29.263  24.666  1.00  0.00     0.145 C 
ATOM     24  C   UNL A   1      30.176  29.334  23.681  1.00  0.00     0.041 C 
BRANCH  23  25
ATOM     25  O   UNL A   1      32.524  29.714  23.998  1.00  0.00    -0.391 OA
ATOM     26  H   UNL A   1      33.059  28.948  23.735  1.00  0.00     0.211 HD
ENDBRANCH  23  25
ENDBRANCH   7  23
ENDBRANCH   5   7
ENDBRANCH   4   5
ENDBRANCH   3   4
ENDBRANCH   2   3
ENDBRANCH   1   2
BRANCH   1  27
ATOM     27  C   UNL A   1      34.079  32.237  28.300  1.00  0.00     0.188 C 
BRANCH  27  28
ATOM     28  C   UNL A   1      34.499  33.690  27.982  1.00  0.00     0.188 C 
BRANCH  28  29
ATOM     29  O   UNL A   1      34.850  34.578  29.029  1.00  0.00    -0.376 OA
BRANCH  29  30
ATOM     30  C   UNL A   1      34.080  34.577  30.219  1.00  0.00     0.202 C 
BRANCH  30  31
ATOM     31  C   UNL A   1      34.794  34.759  31.571  1.00  0.00     0.261 C 
BRANCH  31  32
ATOM     32  O   UNL A   1      36.038  34.046  31.741  1.00  0.00    -0.460 OA
BRANCH  32  33
ATOM     33  C   UNL A   1      35.953  32.772  32.193  1.00  0.00     0.338 C 
ATOM     34  O   UNL A   1      35.074  32.298  32.905  1.00  0.00    -0.246 OA
BRANCH  33  35
ATOM     35  C   UNL A   1      36.995  31.922  31.566  1.00  0.00     0.060 A 
ATOM     36  C   UNL A   1      37.941  31.287  32.389  1.00  0.00     0.016 A 
ATOM     37  C   UNL A   1      37.094  31.804  30.180  1.00  0.00     0.016 A 
ATOM     38  C   UNL A   1      38.990  30.548  31.832  1.00  0.00     0.010 A 
ATOM     39  C   UNL A   1      38.165  31.088  29.622  1.00  0.00     0.010 A 
ATOM     40  C   UNL A   1      39.136  30.479  30.442  1.00  0.00    -0.014 A 
BRANCH  40  41
ATOM     41  C   UNL A   1      40.387  29.943  29.838  1.00  0.00     0.031 A 
ATOM     42  C   UNL A   1      41.550  30.880  29.642  1.00  0.00     0.074 A 
ATOM     43  C   UNL A   1      40.502  28.658  29.457  1.00  0.00     0.049 A 
ATOM     44  N   UNL A   1      42.694  30.680  29.036  1.00  0.00    -0.248 NA
ATOM     45  C   UNL A   1      41.395  32.229  30.207  1.00  0.00     0.031 C 
ATOM     46  C   UNL A   1      39.487  27.626  29.642  1.00  0.00     0.029 A 
ATOM     47  N   UNL A   1      41.529  28.009  28.812  1.00  0.00    -0.354 N 
ATOM     48  C   UNL A   1      43.381  31.885  29.123  1.00  0.00     0.074 A 
ATOM     49  C   UNL A   1      42.521  32.812  29.825  1.00  0.00     0.031 C 
ATOM     50  C   UNL A   1      39.934  26.475  29.108  1.00  0.00     0.029 A 
ATOM     51  C   UNL A   1      41.247  26.699  28.504  1.00  0.00     0.049 A 
ATOM     52  H   UNL A   1      42.385  28.440  28.593  1.00  0.00     0.167 HD
ATOM     53  C   UNL A   1      44.618  32.191  28.660  1.00  0.00     0.037 A 
ATOM     54  C   UNL A   1      41.952  25.799  27.790  1.00  0.00     0.037 A 
ATOM     55  C   UNL A   1      45.477  31.268  27.963  1.00  0.00     0.049 A 
ATOM     56  C   UNL A   1      43.285  26.194  27.197  1.00  0.00     0.074 A 
ATOM     57  C   UNL A   1      46.759  31.477  27.485  1.00  0.00     0.029 A 
ATOM     58  N   UNL A   1      45.135  29.965  27.632  1.00  0.00    -0.354 N 
ATOM     59  N   UNL A   1      43.941  27.323  27.303  1.00  0.00    -0.248 NA
ATOM     60  C   UNL A   1      43.972  25.183  26.378  1.00  0.00     0.031 C 
ATOM     61  C   UNL A   1      47.165  30.325  26.802  1.00  0.00     0.029 A 
ATOM     62  C   UNL A   1      46.165  29.373  26.918  1.00  0.00     0.049 A 
ATOM     63  H   UNL A   1      44.286  29.527  27.867  1.00  0.00     0.167 HD
ATOM     64  C   UNL A   1      45.128  27.147  26.601  1.00  0.00     0.074 A 
ATOM     65  C   UNL A   1      45.107  25.797  26.079  1.00  0.00     0.031 C 
ATOM     66  C   UNL A   1      46.146  28.024  26.411  1.00  0.00     0.037 A 
BRANCH  53  67
ATOM     67  C   UNL A   1      45.099  33.602  28.847  1.00  0.00     0.064 A 
ATOM     68  C   UNL A   1      44.907  34.592  27.871  1.00  0.00     0.173 A 
ATOM     69  C   UNL A   1      45.744  33.975  30.037  1.00  0.00     0.173 A 
ATOM     70  F   UNL A   1      44.305  34.288  26.711  1.00  0.00    -0.203 F 
ATOM     71  C   UNL A   1      45.374  35.889  28.063  1.00  0.00     0.198 A 
ATOM     72  C   UNL A   1      46.178  35.282  30.240  1.00  0.00     0.198 A 
ATOM     73  F   UNL A   1      45.949  33.071  31.007  1.00  0.00    -0.203 F 
ATOM     74  F   UNL A   1      45.231  36.802  27.093  1.00  0.00    -0.200 F 
ATOM     75  C   UNL A   1      46.002  36.235  29.250  1.00  0.00     0.200 A 
ATOM     76  F   UNL A   1      46.770  35.616  31.395  1.00  0.00    -0.200 F 
ATOM     77  F   UNL A   1      46.446  37.486  29.436  1.00  0.00    -0.200 F 
ENDBRANCH  53  67
BRANCH  54  78
ATOM     78  C   UNL A   1      41.415  24.428  27.574  1.00  0.00     0.064 A 
ATOM     79  C   UNL A   1      42.006  23.318  28.196  1.00  0.00     0.173 A 
ATOM     80  C   UNL A   1      40.331  24.191  26.716  1.00  0.00     0.173 A 
ATOM     81  F   UNL A   1      43.067  23.487  28.997  1.00  0.00    -0.203 F 
ATOM     82  C   UNL A   1      41.542  22.025  27.956  1.00  0.00     0.198 A 
ATOM     83  C   UNL A   1      39.848  22.901  26.502  1.00  0.00     0.198 A 
ATOM     84  F   UNL A   1      39.735  25.214  26.086  1.00  0.00    -0.203 F 
ATOM     85  F   UNL A   1      42.159  20.979  28.522  1.00  0.00    -0.200 F 
ATOM     86  C   UNL A   1      40.459  21.818  27.116  1.00  0.00     0.200 A 
ATOM     87  F   UNL A   1      38.795  22.706  25.697  1.00  0.00    -0.200 F 
ATOM     88  F   UNL A   1      40.013  20.576  26.889  1.00  0.00    -0.200 F 
ENDBRANCH  54  78
BRANCH  66  89
ATOM     89  C   UNL A   1      47.351  27.545  25.648  1.00  0.00     0.064 A 
ATOM     90  C   UNL A   1      47.454  27.687  24.256  1.00  0.00     0.173 A 
ATOM     91  C   UNL A   1      48.442  26.982  26.330  1.00  0.00     0.173 A 
ATOM     92  F   UNL A   1      46.437  28.206  23.553  1.00  0.00    -0.203 F 
ATOM     93  C   UNL A   1      48.592  27.260  23.575  1.00  0.00     0.198 A 
ATOM     94  C   UNL A   1      49.591  26.588  25.650  1.00  0.00     0.198 A 
ATOM     95  F   UNL A   1      48.401  26.829  27.662  1.00  0.00    -0.203 F 
ATOM     96  F   UNL A   1      48.648  27.360  22.239  1.00  0.00    -0.200 F 
ATOM     97  C   UNL A   1      49.663  26.720  24.271  1.00  0.00     0.200 A 
ATOM     98  F   UNL A   1      50.631  26.084  26.328  1.00  0.00    -0.200 F 
ATOM     99  F   UNL A   1      50.761  26.322  23.615  1.00  0.00    -0.200 F 
ENDBRANCH  66  89
ENDBRANCH  40  41
ENDBRANCH  33  35
ENDBRANCH  32  33
ENDBRANCH  31  32
ENDBRANCH  30  31
ENDBRANCH  29  30
ENDBRANCH  28  29
ENDBRANCH  27  28
ENDBRANCH   1  27
TORSDOF 25
ENDMDL
