MODEL 1
REMARK VINA RESULT:     -10.3      0.000      0.000
REMARK SMILES O=C(OCCOCCOCCOC(=O)[C@@]1([NH2+]C2CC2)CC[C@H](SC2CCCC2)C1)c1ccc(-c2c3nc(c(-c4c(F)c(F)c(F)c(F)c4F)c4ccc([nH]4)c(-c4c(F)c(F)c(F)c(F)c4F)c4nc(c(-c5c(F)c(F)c(F)c(F)c5F)c5ccc2[nH]5)C=C4)C=C3)cc1
REMARK SMILES IDX 7 1 6 2 5 3 4 4 3 5 2 6 1 7 30 8 31 9 92 10 32 11 91 12
REMARK SMILES IDX 33 13 34 14 35 15 85 16 36 17 90 18 84 19 86 20 37 21 89 22
REMARK SMILES IDX 83 23 82 24 38 26 70 27 50 28 69 29 51 30 54 31 68 32 87 33
REMARK SMILES IDX 52 34 53 35 67 37 88 38 55 39 39 40 40 41 48 42 41 43 42 44
REMARK SMILES IDX 46 45 49 46 43 47 44 48 47 49 45 50 71 51 72 52 80 53 73 54
REMARK SMILES IDX 74 55 78 56 81 57 75 58 76 59 79 60 77 61 56 62 57 63 65 64
REMARK SMILES IDX 58 65 59 66 63 67 66 68 60 69 61 70 64 71 62 72 8 73 9 74
REMARK SMILES IDX 10 75 11 76 12 77 13 78 14 79 15 80 20 81 29 82 21 83 22 84
REMARK SMILES IDX 16 85 17 88 18 89 19 90 23 91 24 92 25 93 28 94 26 95 27 96
REMARK H PARENT 86 25 54 36 16 86 16 87
REMARK Flexibility Score: inf
ROOT
ATOM      1  C   UNL A   1      32.707  29.047  26.364  1.00  0.00     0.188 C 
ENDROOT
BRANCH   1   2
ATOM      2  O   UNL A   1      32.843  30.465  26.237  1.00  0.00    -0.376 OA
BRANCH   2   3
ATOM      3  C   UNL A   1      31.759  31.231  26.754  1.00  0.00     0.202 C 
BRANCH   3   4
ATOM      4  C   UNL A   1      31.802  32.759  26.603  1.00  0.00     0.261 C 
BRANCH   4   5
ATOM      5  O   UNL A   1      32.442  33.510  27.646  1.00  0.00    -0.460 OA
BRANCH   5   6
ATOM      6  C   UNL A   1      33.730  33.869  27.839  1.00  0.00     0.338 C 
ATOM      7  O   UNL A   1      34.071  35.001  27.495  1.00  0.00    -0.246 OA
BRANCH   6   8
ATOM      8  C   UNL A   1      34.789  32.965  28.383  1.00  0.00     0.060 A 
ATOM      9  C   UNL A   1      34.575  31.673  28.858  1.00  0.00     0.016 A 
ATOM     10  C   UNL A   1      36.098  33.491  28.466  1.00  0.00     0.016 A 
ATOM     11  C   UNL A   1      35.626  30.923  29.381  1.00  0.00     0.010 A 
ATOM     12  C   UNL A   1      37.152  32.760  29.027  1.00  0.00     0.010 A 
ATOM     13  C   UNL A   1      36.909  31.474  29.503  1.00  0.00    -0.014 A 
BRANCH  13  14
ATOM     14  C   UNL A   1      37.844  30.751  30.391  1.00  0.00     0.031 A 
ATOM     15  C   UNL A   1      38.874  29.905  29.712  1.00  0.00     0.074 A 
ATOM     16  C   UNL A   1      37.888  30.991  31.712  1.00  0.00     0.049 A 
ATOM     17  N   UNL A   1      39.981  29.401  30.179  1.00  0.00    -0.248 NA
ATOM     18  C   UNL A   1      38.621  29.604  28.291  1.00  0.00     0.031 C 
ATOM     19  C   UNL A   1      36.921  31.792  32.447  1.00  0.00     0.029 A 
ATOM     20  N   UNL A   1      38.832  30.659  32.651  1.00  0.00    -0.354 N 
ATOM     21  C   UNL A   1      40.546  28.708  29.119  1.00  0.00     0.074 A 
ATOM     22  C   UNL A   1      39.685  28.889  27.973  1.00  0.00     0.031 C 
ATOM     23  C   UNL A   1      37.389  32.013  33.686  1.00  0.00     0.029 A 
ATOM     24  C   UNL A   1      38.658  31.312  33.851  1.00  0.00     0.049 A 
ATOM     25  H   UNL A   1      39.562  30.020  32.483  1.00  0.00     0.167 HD
ATOM     26  C   UNL A   1      41.660  27.942  29.123  1.00  0.00     0.037 A 
ATOM     27  C   UNL A   1      39.456  31.346  34.938  1.00  0.00     0.037 A 
ATOM     28  C   UNL A   1      42.447  27.711  30.301  1.00  0.00     0.049 A 
ATOM     29  C   UNL A   1      40.696  30.485  34.917  1.00  0.00     0.074 A 
ATOM     30  C   UNL A   1      43.531  26.871  30.470  1.00  0.00     0.029 A 
ATOM     31  N   UNL A   1      42.205  28.312  31.531  1.00  0.00    -0.354 N 
ATOM     32  N   UNL A   1      41.220  29.806  33.923  1.00  0.00    -0.248 NA
ATOM     33  C   UNL A   1      41.428  30.352  36.183  1.00  0.00     0.031 C 
ATOM     34  C   UNL A   1      43.903  26.916  31.817  1.00  0.00     0.029 A 
ATOM     35  C   UNL A   1      43.105  27.844  32.470  1.00  0.00     0.049 A 
ATOM     36  H   UNL A   1      41.497  28.973  31.706  1.00  0.00     0.167 HD
ATOM     37  C   UNL A   1      42.332  29.158  34.443  1.00  0.00     0.074 A 
ATOM     38  C   UNL A   1      42.437  29.569  35.830  1.00  0.00     0.031 C 
ATOM     39  C   UNL A   1      43.176  28.281  33.844  1.00  0.00     0.037 A 
BRANCH  26  40
ATOM     40  C   UNL A   1      41.963  27.202  27.854  1.00  0.00     0.064 A 
ATOM     41  C   UNL A   1      41.429  25.934  27.581  1.00  0.00     0.173 A 
ATOM     42  C   UNL A   1      42.891  27.734  26.946  1.00  0.00     0.173 A 
ATOM     43  F   UNL A   1      40.571  25.362  28.441  1.00  0.00    -0.203 F 
ATOM     44  C   UNL A   1      41.848  25.207  26.469  1.00  0.00     0.198 A 
ATOM     45  C   UNL A   1      43.282  27.019  25.818  1.00  0.00     0.198 A 
ATOM     46  F   UNL A   1      43.445  28.935  27.170  1.00  0.00    -0.203 F 
ATOM     47  F   UNL A   1      41.392  23.962  26.272  1.00  0.00    -0.200 F 
ATOM     48  C   UNL A   1      42.772  25.751  25.588  1.00  0.00     0.200 A 
ATOM     49  F   UNL A   1      44.176  27.546  24.970  1.00  0.00    -0.200 F 
ATOM     50  F   UNL A   1      43.191  25.042  24.531  1.00  0.00    -0.200 F 
ENDBRANCH  26  40
BRANCH  27  51
ATOM     51  C   UNL A   1      39.128  32.191  36.126  1.00  0.00     0.064 A 
ATOM     52  C   UNL A   1      39.719  33.453  36.303  1.00  0.00     0.173 A 
ATOM     53  C   UNL A   1      38.255  31.750  37.133  1.00  0.00     0.173 A 
ATOM     54  F   UNL A   1      40.582  33.924  35.390  1.00  0.00    -0.203 F 
ATOM     55  C   UNL A   1      39.470  34.223  37.441  1.00  0.00     0.198 A 
ATOM     56  C   UNL A   1      37.971  32.538  38.248  1.00  0.00     0.198 A 
ATOM     57  F   UNL A   1      37.667  30.549  37.038  1.00  0.00    -0.203 F 
ATOM     58  F   UNL A   1      40.100  35.394  37.608  1.00  0.00    -0.200 F 
ATOM     59  C   UNL A   1      38.588  33.769  38.409  1.00  0.00     0.200 A 
ATOM     60  F   UNL A   1      37.104  32.100  39.171  1.00  0.00    -0.200 F 
ATOM     61  F   UNL A   1      38.344  34.507  39.499  1.00  0.00    -0.200 F 
ENDBRANCH  27  51
BRANCH  39  62
ATOM     62  C   UNL A   1      44.294  27.727  34.678  1.00  0.00     0.064 A 
ATOM     63  C   UNL A   1      44.168  26.515  35.374  1.00  0.00     0.173 A 
ATOM     64  C   UNL A   1      45.526  28.394  34.734  1.00  0.00     0.173 A 
ATOM     65  F   UNL A   1      43.006  25.845  35.358  1.00  0.00    -0.203 F 
ATOM     66  C   UNL A   1      45.227  26.007  36.119  1.00  0.00     0.198 A 
ATOM     67  C   UNL A   1      46.595  27.865  35.450  1.00  0.00     0.198 A 
ATOM     68  F   UNL A   1      45.700  29.551  34.077  1.00  0.00    -0.203 F 
ATOM     69  F   UNL A   1      45.070  24.874  36.817  1.00  0.00    -0.200 F 
ATOM     70  C   UNL A   1      46.442  26.677  36.150  1.00  0.00     0.200 A 
ATOM     71  F   UNL A   1      47.772  28.503  35.463  1.00  0.00    -0.200 F 
ATOM     72  F   UNL A   1      47.465  26.180  36.858  1.00  0.00    -0.200 F 
ENDBRANCH  39  62
ENDBRANCH  13  14
ENDBRANCH   6   8
ENDBRANCH   5   6
ENDBRANCH   4   5
ENDBRANCH   3   4
ENDBRANCH   2   3
ENDBRANCH   1   2
BRANCH   1  73
ATOM     73  C   UNL A   1      31.829  28.395  25.292  1.00  0.00     0.188 C 
BRANCH  73  74
ATOM     74  O   UNL A   1      31.975  28.886  23.958  1.00  0.00    -0.376 OA
BRANCH  74  75
ATOM     75  C   UNL A   1      32.084  27.924  22.916  1.00  0.00     0.202 C 
BRANCH  75  76
ATOM     76  C   UNL A   1      33.496  27.570  22.453  1.00  0.00     0.261 C 
BRANCH  76  77
ATOM     77  O   UNL A   1      33.714  26.159  22.429  1.00  0.00    -0.459 OA
BRANCH  77  78
ATOM     78  C   UNL A   1      33.728  25.505  23.616  1.00  0.00     0.368 C 
ATOM     79  O   UNL A   1      34.364  25.889  24.600  1.00  0.00    -0.245 OA
BRANCH  78  80
ATOM     80  C   UNL A   1      32.895  24.208  23.625  1.00  0.00     0.195 C 
ATOM     81  C   UNL A   1      32.965  23.533  22.252  1.00  0.00     0.082 C 
ATOM     82  C   UNL A   1      33.615  23.145  24.505  1.00  0.00     0.095 C 
ATOM     83  C   UNL A   1      32.633  22.078  22.535  1.00  0.00     0.022 C 
ATOM     84  C   UNL A   1      33.304  21.767  23.875  1.00  0.00     0.054 C 
BRANCH  80  85
ATOM     85  N   UNL A   1      31.531  24.308  24.172  1.00  0.00    -0.330 N 
ATOM     86  H   UNL A   1      31.154  23.361  24.128  1.00  0.00     0.347 HD
ATOM     87  H   UNL A   1      31.166  25.068  23.599  1.00  0.00     0.347 HD
BRANCH  85  88
ATOM     88  C   UNL A   1      31.182  24.797  25.493  1.00  0.00     0.183 C 
ATOM     89  C   UNL A   1      29.837  25.225  25.990  1.00  0.00     0.071 C 
ATOM     90  C   UNL A   1      30.431  23.950  26.482  1.00  0.00     0.071 C 
ENDBRANCH  85  88
ENDBRANCH  80  85
BRANCH  84  91
ATOM     91  S   UNL A   1      32.249  20.746  24.978  1.00  0.00    -0.155 SA
BRANCH  91  92
ATOM     92  C   UNL A   1      32.955  19.057  24.838  1.00  0.00     0.047 C 
ATOM     93  C   UNL A   1      32.371  18.208  23.716  1.00  0.00     0.014 C 
ATOM     94  C   UNL A   1      34.465  18.937  24.656  1.00  0.00     0.014 C 
ATOM     95  C   UNL A   1      33.319  17.022  23.625  1.00  0.00     0.001 C 
ATOM     96  C   UNL A   1      34.686  17.543  24.061  1.00  0.00     0.001 C 
ENDBRANCH  91  92
ENDBRANCH  84  91
ENDBRANCH  78  80
ENDBRANCH  77  78
ENDBRANCH  76  77
ENDBRANCH  75  76
ENDBRANCH  74  75
ENDBRANCH  73  74
ENDBRANCH   1  73
TORSDOF 21
ENDMDL
MODEL 2
REMARK VINA RESULT:     -10.2      4.563      7.121
REMARK SMILES O=C(OCCOCCOCCOC(=O)[C@@]1([NH2+]C2CC2)CC[C@H](SC2CCCC2)C1)c1ccc(-c2c3nc(c(-c4c(F)c(F)c(F)c(F)c4F)c4ccc([nH]4)c(-c4c(F)c(F)c(F)c(F)c4F)c4nc(c(-c5c(F)c(F)c(F)c(F)c5F)c5ccc2[nH]5)C=C4)C=C3)cc1
REMARK SMILES IDX 7 1 6 2 5 3 4 4 3 5 2 6 1 7 30 8 31 9 92 10 32 11 91 12
REMARK SMILES IDX 33 13 34 14 35 15 85 16 36 17 90 18 84 19 86 20 37 21 89 22
REMARK SMILES IDX 83 23 82 24 38 26 70 27 50 28 69 29 51 30 54 31 68 32 87 33
REMARK SMILES IDX 52 34 53 35 67 37 88 38 55 39 39 40 40 41 48 42 41 43 42 44
REMARK SMILES IDX 46 45 49 46 43 47 44 48 47 49 45 50 71 51 72 52 80 53 73 54
REMARK SMILES IDX 74 55 78 56 81 57 75 58 76 59 79 60 77 61 56 62 57 63 65 64
REMARK SMILES IDX 58 65 59 66 63 67 66 68 60 69 61 70 64 71 62 72 8 73 9 74
REMARK SMILES IDX 10 75 11 76 12 77 13 78 14 79 15 80 20 81 29 82 21 83 22 84
REMARK SMILES IDX 16 85 17 88 18 89 19 90 23 91 24 92 25 93 28 94 26 95 27 96
REMARK H PARENT 86 25 54 36 16 86 16 87
REMARK Flexibility Score: inf
ROOT
ATOM      1  C   UNL A   1      34.419  32.047  27.745  1.00  0.00     0.188 C 
ENDROOT
BRANCH   1   2
ATOM      2  O   UNL A   1      33.929  33.302  28.226  1.00  0.00    -0.376 OA
BRANCH   2   3
ATOM      3  C   UNL A   1      34.737  33.935  29.214  1.00  0.00     0.202 C 
BRANCH   3   4
ATOM      4  C   UNL A   1      34.444  33.652  30.694  1.00  0.00     0.261 C 
BRANCH   4   5
ATOM      5  O   UNL A   1      34.713  32.328  31.181  1.00  0.00    -0.460 OA
BRANCH   5   6
ATOM      6  C   UNL A   1      35.710  31.834  31.946  1.00  0.00     0.338 C 
ATOM      7  O   UNL A   1      35.672  32.053  33.157  1.00  0.00    -0.246 OA
BRANCH   6   8
ATOM      8  C   UNL A   1      36.895  31.090  31.417  1.00  0.00     0.060 A 
ATOM      9  C   UNL A   1      37.863  30.463  32.198  1.00  0.00     0.016 A 
ATOM     10  C   UNL A   1      37.064  31.072  30.014  1.00  0.00     0.016 A 
ATOM     11  C   UNL A   1      38.952  29.826  31.607  1.00  0.00     0.010 A 
ATOM     12  C   UNL A   1      38.176  30.468  29.414  1.00  0.00     0.010 A 
ATOM     13  C   UNL A   1      39.135  29.858  30.218  1.00  0.00    -0.014 A 
BRANCH  13  14
ATOM     14  C   UNL A   1      40.480  29.487  29.731  1.00  0.00     0.031 A 
ATOM     15  C   UNL A   1      40.600  28.136  29.099  1.00  0.00     0.074 A 
ATOM     16  C   UNL A   1      41.483  30.379  29.685  1.00  0.00     0.049 A 
ATOM     17  N   UNL A   1      41.539  27.652  28.335  1.00  0.00    -0.248 NA
ATOM     18  C   UNL A   1      39.484  27.207  29.353  1.00  0.00     0.031 C 
ATOM     19  C   UNL A   1      41.448  31.705  30.283  1.00  0.00     0.029 A 
ATOM     20  N   UNL A   1      42.689  30.336  29.032  1.00  0.00    -0.354 N 
ATOM     21  C   UNL A   1      41.139  26.359  28.035  1.00  0.00     0.074 A 
ATOM     22  C   UNL A   1      39.853  26.145  28.661  1.00  0.00     0.031 C 
ATOM     23  C   UNL A   1      42.511  32.405  29.853  1.00  0.00     0.029 A 
ATOM     24  C   UNL A   1      43.335  31.552  29.004  1.00  0.00     0.049 A 
ATOM     25  H   UNL A   1      43.054  29.519  28.622  1.00  0.00     0.167 HD
ATOM     26  C   UNL A   1      41.816  25.417  27.341  1.00  0.00     0.037 A 
ATOM     27  C   UNL A   1      44.451  31.921  28.343  1.00  0.00     0.037 A 
ATOM     28  C   UNL A   1      43.130  25.631  26.806  1.00  0.00     0.049 A 
ATOM     29  C   UNL A   1      45.187  30.852  27.572  1.00  0.00     0.074 A 
ATOM     30  C   UNL A   1      43.971  24.731  26.182  1.00  0.00     0.029 A 
ATOM     31  N   UNL A   1      43.806  26.845  26.863  1.00  0.00    -0.354 N 
ATOM     32  N   UNL A   1      44.824  29.618  27.307  1.00  0.00    -0.248 NA
ATOM     33  C   UNL A   1      46.514  31.209  27.052  1.00  0.00     0.031 C 
ATOM     34  C   UNL A   1      45.181  25.383  25.920  1.00  0.00     0.029 A 
ATOM     35  C   UNL A   1      45.064  26.711  26.306  1.00  0.00     0.049 A 
ATOM     36  H   UNL A   1      43.442  27.676  27.245  1.00  0.00     0.167 HD
ATOM     37  C   UNL A   1      45.876  29.049  26.604  1.00  0.00     0.074 A 
ATOM     38  C   UNL A   1      46.871  30.091  26.436  1.00  0.00     0.031 C 
ATOM     39  C   UNL A   1      46.026  27.777  26.158  1.00  0.00     0.037 A 
BRANCH  26  40
ATOM     40  C   UNL A   1      41.190  24.055  27.283  1.00  0.00     0.064 A 
ATOM     41  C   UNL A   1      41.730  22.952  27.962  1.00  0.00     0.173 A 
ATOM     42  C   UNL A   1      40.086  23.834  26.445  1.00  0.00     0.173 A 
ATOM     43  F   UNL A   1      42.813  23.103  28.741  1.00  0.00    -0.203 F 
ATOM     44  C   UNL A   1      41.218  21.671  27.767  1.00  0.00     0.198 A 
ATOM     45  C   UNL A   1      39.556  22.558  26.278  1.00  0.00     0.198 A 
ATOM     46  F   UNL A   1      39.543  24.851  25.760  1.00  0.00    -0.203 F 
ATOM     47  F   UNL A   1      41.803  20.619  28.355  1.00  0.00    -0.200 F 
ATOM     48  C   UNL A   1      40.130  21.476  26.927  1.00  0.00     0.200 A 
ATOM     49  F   UNL A   1      38.507  22.373  25.466  1.00  0.00    -0.200 F 
ATOM     50  F   UNL A   1      39.652  20.242  26.723  1.00  0.00    -0.200 F 
ENDBRANCH  26  40
BRANCH  27  51
ATOM     51  C   UNL A   1      44.953  33.328  28.375  1.00  0.00     0.064 A 
ATOM     52  C   UNL A   1      45.840  33.759  29.376  1.00  0.00     0.173 A 
ATOM     53  C   UNL A   1      44.534  34.288  27.441  1.00  0.00     0.173 A 
ATOM     54  F   UNL A   1      46.261  32.897  30.315  1.00  0.00    -0.203 F 
ATOM     55  C   UNL A   1      46.265  35.086  29.454  1.00  0.00     0.198 A 
ATOM     56  C   UNL A   1      44.993  35.605  27.492  1.00  0.00     0.198 A 
ATOM     57  F   UNL A   1      43.675  33.952  26.467  1.00  0.00    -0.203 F 
ATOM     58  F   UNL A   1      47.061  35.477  30.459  1.00  0.00    -0.200 F 
ATOM     59  C   UNL A   1      45.848  36.006  28.506  1.00  0.00     0.200 A 
ATOM     60  F   UNL A   1      44.599  36.485  26.562  1.00  0.00    -0.200 F 
ATOM     61  F   UNL A   1      46.257  37.280  28.576  1.00  0.00    -0.200 F 
ENDBRANCH  27  51
BRANCH  39  62
ATOM     62  C   UNL A   1      47.298  27.450  25.432  1.00  0.00     0.064 A 
ATOM     63  C   UNL A   1      47.446  27.685  24.056  1.00  0.00     0.173 A 
ATOM     64  C   UNL A   1      48.402  26.949  26.137  1.00  0.00     0.173 A 
ATOM     65  F   UNL A   1      46.416  28.155  23.336  1.00  0.00    -0.203 F 
ATOM     66  C   UNL A   1      48.644  27.400  23.409  1.00  0.00     0.198 A 
ATOM     67  C   UNL A   1      49.610  26.700  25.493  1.00  0.00     0.198 A 
ATOM     68  F   UNL A   1      48.314  26.718  27.456  1.00  0.00    -0.203 F 
ATOM     69  F   UNL A   1      48.748  27.583  22.085  1.00  0.00    -0.200 F 
ATOM     70  C   UNL A   1      49.727  26.917  24.129  1.00  0.00     0.200 A 
ATOM     71  F   UNL A   1      50.660  26.252  26.194  1.00  0.00    -0.200 F 
ATOM     72  F   UNL A   1      50.884  26.655  23.505  1.00  0.00    -0.200 F 
ENDBRANCH  39  62
ENDBRANCH  13  14
ENDBRANCH   6   8
ENDBRANCH   5   6
ENDBRANCH   4   5
ENDBRANCH   3   4
ENDBRANCH   2   3
ENDBRANCH   1   2
BRANCH   1  73
ATOM     73  C   UNL A   1      33.327  31.035  27.388  1.00  0.00     0.188 C 
BRANCH  73  74
ATOM     74  O   UNL A   1      33.758  29.706  27.086  1.00  0.00    -0.376 OA
BRANCH  74  75
ATOM     75  C   UNL A   1      32.795  28.666  27.200  1.00  0.00     0.202 C 
BRANCH  75  76
ATOM     76  C   UNL A   1      32.562  27.806  25.959  1.00  0.00     0.261 C 
BRANCH  76  77
ATOM     77  O   UNL A   1      33.390  26.644  25.950  1.00  0.00    -0.459 OA
BRANCH  77  78
ATOM     78  C   UNL A   1      33.665  26.076  24.749  1.00  0.00     0.368 C 
ATOM     79  O   UNL A   1      33.769  26.715  23.700  1.00  0.00    -0.245 OA
BRANCH  78  80
ATOM     80  C   UNL A   1      33.806  24.542  24.801  1.00  0.00     0.195 C 
ATOM     81  C   UNL A   1      35.108  24.115  24.117  1.00  0.00     0.082 C 
ATOM     82  C   UNL A   1      34.094  24.105  26.267  1.00  0.00     0.095 C 
ATOM     83  C   UNL A   1      35.411  22.750  24.713  1.00  0.00     0.022 C 
ATOM     84  C   UNL A   1      35.002  22.856  26.184  1.00  0.00     0.054 C 
BRANCH  80  85
ATOM     85  N   UNL A   1      32.629  23.761  24.385  1.00  0.00    -0.330 N 
ATOM     86  H   UNL A   1      31.832  24.225  24.821  1.00  0.00     0.347 HD
ATOM     87  H   UNL A   1      32.932  22.826  24.655  1.00  0.00     0.347 HD
BRANCH  85  88
ATOM     88  C   UNL A   1      32.221  23.509  23.015  1.00  0.00     0.183 C 
ATOM     89  C   UNL A   1      33.088  23.436  21.796  1.00  0.00     0.071 C 
ATOM     90  C   UNL A   1      32.475  22.190  22.339  1.00  0.00     0.071 C 
ENDBRANCH  85  88
ENDBRANCH  80  85
BRANCH  84  91
ATOM     91  S   UNL A   1      34.137  21.354  26.791  1.00  0.00    -0.155 SA
BRANCH  91  92
ATOM     92  C   UNL A   1      33.759  20.405  25.265  1.00  0.00     0.047 C 
ATOM     93  C   UNL A   1      34.642  19.184  25.034  1.00  0.00     0.014 C 
ATOM     94  C   UNL A   1      32.337  19.879  25.096  1.00  0.00     0.014 C 
ATOM     95  C   UNL A   1      33.934  18.430  23.918  1.00  0.00     0.001 C 
ATOM     96  C   UNL A   1      32.449  18.744  24.075  1.00  0.00     0.001 C 
ENDBRANCH  91  92
ENDBRANCH  84  91
ENDBRANCH  78  80
ENDBRANCH  77  78
ENDBRANCH  76  77
ENDBRANCH  75  76
ENDBRANCH  74  75
ENDBRANCH  73  74
ENDBRANCH   1  73
TORSDOF 21
ENDMDL
MODEL 3
REMARK VINA RESULT:     -10.1      1.662      3.080
REMARK SMILES O=C(OCCOCCOCCOC(=O)[C@@]1([NH2+]C2CC2)CC[C@H](SC2CCCC2)C1)c1ccc(-c2c3nc(c(-c4c(F)c(F)c(F)c(F)c4F)c4ccc([nH]4)c(-c4c(F)c(F)c(F)c(F)c4F)c4nc(c(-c5c(F)c(F)c(F)c(F)c5F)c5ccc2[nH]5)C=C4)C=C3)cc1
REMARK SMILES IDX 7 1 6 2 5 3 4 4 3 5 2 6 1 7 30 8 31 9 92 10 32 11 91 12
REMARK SMILES IDX 33 13 34 14 35 15 85 16 36 17 90 18 84 19 86 20 37 21 89 22
REMARK SMILES IDX 83 23 82 24 38 26 70 27 50 28 69 29 51 30 54 31 68 32 87 33
REMARK SMILES IDX 52 34 53 35 67 37 88 38 55 39 39 40 40 41 48 42 41 43 42 44
REMARK SMILES IDX 46 45 49 46 43 47 44 48 47 49 45 50 71 51 72 52 80 53 73 54
REMARK SMILES IDX 74 55 78 56 81 57 75 58 76 59 79 60 77 61 56 62 57 63 65 64
REMARK SMILES IDX 58 65 59 66 63 67 66 68 60 69 61 70 64 71 62 72 8 73 9 74
REMARK SMILES IDX 10 75 11 76 12 77 13 78 14 79 15 80 20 81 29 82 21 83 22 84
REMARK SMILES IDX 16 85 17 88 18 89 19 90 23 91 24 92 25 93 28 94 26 95 27 96
REMARK H PARENT 86 25 54 36 16 86 16 87
REMARK Flexibility Score: inf
ROOT
ATOM      1  C   UNL A   1      30.625  28.275  22.554  1.00  0.00     0.188 C 
ENDROOT
BRANCH   1   2
ATOM      2  O   UNL A   1      31.576  29.149  23.168  1.00  0.00    -0.376 OA
BRANCH   2   3
ATOM      3  C   UNL A   1      31.415  29.341  24.570  1.00  0.00     0.202 C 
BRANCH   3   4
ATOM      4  C   UNL A   1      32.634  29.774  25.397  1.00  0.00     0.261 C 
BRANCH   4   5
ATOM      5  O   UNL A   1      32.421  30.747  26.431  1.00  0.00    -0.460 OA
BRANCH   5   6
ATOM      6  C   UNL A   1      33.281  31.466  27.185  1.00  0.00     0.338 C 
ATOM      7  O   UNL A   1      33.041  32.662  27.350  1.00  0.00    -0.246 OA
BRANCH   6   8
ATOM      8  C   UNL A   1      34.541  30.926  27.781  1.00  0.00     0.060 A 
ATOM      9  C   UNL A   1      34.795  29.581  28.039  1.00  0.00     0.016 A 
ATOM     10  C   UNL A   1      35.525  31.868  28.157  1.00  0.00     0.016 A 
ATOM     11  C   UNL A   1      35.990  29.183  28.633  1.00  0.00     0.010 A 
ATOM     12  C   UNL A   1      36.712  31.480  28.792  1.00  0.00     0.010 A 
ATOM     13  C   UNL A   1      36.936  30.130  29.047  1.00  0.00    -0.014 A 
BRANCH  13  14
ATOM     14  C   UNL A   1      37.974  29.646  29.981  1.00  0.00     0.031 A 
ATOM     15  C   UNL A   1      39.107  28.883  29.367  1.00  0.00     0.074 A 
ATOM     16  C   UNL A   1      37.999  30.031  31.267  1.00  0.00     0.049 A 
ATOM     17  N   UNL A   1      40.279  28.593  29.856  1.00  0.00    -0.248 NA
ATOM     18  C   UNL A   1      38.882  28.397  27.993  1.00  0.00     0.031 C 
ATOM     19  C   UNL A   1      36.937  30.764  31.939  1.00  0.00     0.029 A 
ATOM     20  N   UNL A   1      38.992  29.938  32.210  1.00  0.00    -0.354 N 
ATOM     21  C   UNL A   1      40.924  27.875  28.860  1.00  0.00     0.074 A 
ATOM     22  C   UNL A   1      40.033  27.808  27.724  1.00  0.00     0.031 C 
ATOM     23  C   UNL A   1      37.383  31.181  33.135  1.00  0.00     0.029 A 
ATOM     24  C   UNL A   1      38.740  30.687  33.339  1.00  0.00     0.049 A 
ATOM     25  H   UNL A   1      39.802  29.393  32.091  1.00  0.00     0.167 HD
ATOM     26  C   UNL A   1      42.136  27.277  28.915  1.00  0.00     0.037 A 
ATOM     27  C   UNL A   1      39.537  30.949  34.395  1.00  0.00     0.037 A 
ATOM     28  C   UNL A   1      42.961  27.287  30.089  1.00  0.00     0.049 A 
ATOM     29  C   UNL A   1      40.887  30.273  34.431  1.00  0.00     0.074 A 
ATOM     30  C   UNL A   1      44.155  26.631  30.317  1.00  0.00     0.029 A 
ATOM     31  N   UNL A   1      42.650  27.979  31.255  1.00  0.00    -0.354 N 
ATOM     32  N   UNL A   1      41.491  29.570  33.501  1.00  0.00    -0.248 NA
ATOM     33  C   UNL A   1      41.645  30.382  35.685  1.00  0.00     0.031 C 
ATOM     34  C   UNL A   1      44.533  26.873  31.642  1.00  0.00     0.029 A 
ATOM     35  C   UNL A   1      43.619  27.746  32.214  1.00  0.00     0.049 A 
ATOM     36  H   UNL A   1      41.857  28.549  31.378  1.00  0.00     0.167 HD
ATOM     37  C   UNL A   1      42.689  29.144  34.057  1.00  0.00     0.074 A 
ATOM     38  C   UNL A   1      42.751  29.714  35.389  1.00  0.00     0.031 C 
ATOM     39  C   UNL A   1      43.642  28.334  33.531  1.00  0.00     0.037 A 
BRANCH  26  40
ATOM     40  C   UNL A   1      42.527  26.454  27.724  1.00  0.00     0.064 A 
ATOM     41  C   UNL A   1      42.248  25.081  27.638  1.00  0.00     0.173 A 
ATOM     42  C   UNL A   1      43.287  27.035  26.698  1.00  0.00     0.173 A 
ATOM     43  F   UNL A   1      41.561  24.469  28.615  1.00  0.00    -0.203 F 
ATOM     44  C   UNL A   1      42.755  24.313  26.592  1.00  0.00     0.198 A 
ATOM     45  C   UNL A   1      43.766  26.271  25.638  1.00  0.00     0.198 A 
ATOM     46  F   UNL A   1      43.597  28.340  26.742  1.00  0.00    -0.203 F 
ATOM     47  F   UNL A   1      42.552  22.989  26.575  1.00  0.00    -0.200 F 
ATOM     48  C   UNL A   1      43.512  24.909  25.594  1.00  0.00     0.200 A 
ATOM     49  F   UNL A   1      44.497  26.849  24.676  1.00  0.00    -0.200 F 
ATOM     50  F   UNL A   1      44.018  24.166  24.600  1.00  0.00    -0.200 F 
ENDBRANCH  26  40
BRANCH  27  51
ATOM     51  C   UNL A   1      39.106  31.863  35.495  1.00  0.00     0.064 A 
ATOM     52  C   UNL A   1      38.346  31.387  36.577  1.00  0.00     0.173 A 
ATOM     53  C   UNL A   1      39.400  33.236  35.479  1.00  0.00     0.173 A 
ATOM     54  F   UNL A   1      38.010  30.090  36.641  1.00  0.00    -0.203 F 
ATOM     55  C   UNL A   1      37.883  32.244  37.577  1.00  0.00     0.198 A 
ATOM     56  C   UNL A   1      38.975  34.084  36.501  1.00  0.00     0.198 A 
ATOM     57  F   UNL A   1      40.107  33.763  34.469  1.00  0.00    -0.203 F 
ATOM     58  F   UNL A   1      37.107  31.767  38.561  1.00  0.00    -0.200 F 
ATOM     59  C   UNL A   1      38.206  33.591  37.543  1.00  0.00     0.200 A 
ATOM     60  F   UNL A   1      39.305  35.382  36.471  1.00  0.00    -0.200 F 
ATOM     61  F   UNL A   1      37.766  34.415  38.503  1.00  0.00    -0.200 F 
ENDBRANCH  27  51
BRANCH  39  62
ATOM     62  C   UNL A   1      44.837  28.036  34.390  1.00  0.00     0.064 A 
ATOM     63  C   UNL A   1      46.002  28.817  34.333  1.00  0.00     0.173 A 
ATOM     64  C   UNL A   1      44.789  26.988  35.321  1.00  0.00     0.173 A 
ATOM     65  F   UNL A   1      46.098  29.824  33.452  1.00  0.00    -0.203 F 
ATOM     66  C   UNL A   1      47.087  28.538  35.158  1.00  0.00     0.198 A 
ATOM     67  C   UNL A   1      45.863  26.736  36.169  1.00  0.00     0.198 A 
ATOM     68  F   UNL A   1      43.694  26.221  35.421  1.00  0.00    -0.203 F 
ATOM     69  F   UNL A   1      48.209  29.264  35.052  1.00  0.00    -0.200 F 
ATOM     70  C   UNL A   1      47.014  27.505  36.081  1.00  0.00     0.200 A 
ATOM     71  F   UNL A   1      45.782  25.751  37.073  1.00  0.00    -0.200 F 
ATOM     72  F   UNL A   1      48.056  27.246  36.883  1.00  0.00    -0.200 F 
ENDBRANCH  39  62
ENDBRANCH  13  14
ENDBRANCH   6   8
ENDBRANCH   5   6
ENDBRANCH   4   5
ENDBRANCH   3   4
ENDBRANCH   2   3
ENDBRANCH   1   2
BRANCH   1  73
ATOM     73  C   UNL A   1      29.221  28.337  23.162  1.00  0.00     0.188 C 
BRANCH  73  74
ATOM     74  O   UNL A   1      28.760  27.163  23.834  1.00  0.00    -0.376 OA
BRANCH  74  75
ATOM     75  C   UNL A   1      29.725  26.162  24.137  1.00  0.00     0.202 C 
BRANCH  75  76
ATOM     76  C   UNL A   1      29.700  25.590  25.553  1.00  0.00     0.261 C 
BRANCH  76  77
ATOM     77  O   UNL A   1      30.958  25.025  25.923  1.00  0.00    -0.459 OA
BRANCH  77  78
ATOM     78  C   UNL A   1      31.397  23.952  25.220  1.00  0.00     0.368 C 
ATOM     79  O   UNL A   1      30.672  23.270  24.492  1.00  0.00    -0.245 OA
BRANCH  78  80
ATOM     80  C   UNL A   1      32.889  23.632  25.434  1.00  0.00     0.195 C 
ATOM     81  C   UNL A   1      33.130  23.209  26.886  1.00  0.00     0.082 C 
ATOM     82  C   UNL A   1      33.240  22.312  24.687  1.00  0.00     0.095 C 
ATOM     83  C   UNL A   1      34.417  22.403  26.830  1.00  0.00     0.022 C 
ATOM     84  C   UNL A   1      34.338  21.612  25.522  1.00  0.00     0.054 C 
BRANCH  80  85
ATOM     85  N   UNL A   1      33.851  24.630  24.936  1.00  0.00    -0.330 N 
ATOM     86  H   UNL A   1      34.764  24.303  25.252  1.00  0.00     0.347 HD
ATOM     87  H   UNL A   1      33.423  25.483  25.293  1.00  0.00     0.347 HD
BRANCH  85  88
ATOM     88  C   UNL A   1      34.040  25.004  23.546  1.00  0.00     0.183 C 
ATOM     89  C   UNL A   1      32.988  25.244  22.507  1.00  0.00     0.071 C 
ATOM     90  C   UNL A   1      33.760  26.397  23.052  1.00  0.00     0.071 C 
ENDBRANCH  85  88
ENDBRANCH  80  85
BRANCH  84  91
ATOM     91  S   UNL A   1      35.939  21.564  24.624  1.00  0.00    -0.155 SA
BRANCH  91  92
ATOM     92  C   UNL A   1      37.143  22.280  25.811  1.00  0.00     0.047 C 
ATOM     93  C   UNL A   1      38.546  21.691  25.734  1.00  0.00     0.014 C 
ATOM     94  C   UNL A   1      37.364  23.789  25.767  1.00  0.00     0.014 C 
ATOM     95  C   UNL A   1      39.388  22.647  26.567  1.00  0.00     0.001 C 
ATOM     96  C   UNL A   1      38.721  24.014  26.438  1.00  0.00     0.001 C 
ENDBRANCH  91  92
ENDBRANCH  84  91
ENDBRANCH  78  80
ENDBRANCH  77  78
ENDBRANCH  76  77
ENDBRANCH  75  76
ENDBRANCH  74  75
ENDBRANCH  73  74
ENDBRANCH   1  73
TORSDOF 21
ENDMDL
