MODEL 1
REMARK VINA RESULT:     -10.9      0.000      0.000
REMARK SMILES CCc1ccnc(C(=O)c2[nH]c3ccc(OC(F)(F)F)cc3c2CC(=O)OCCOCCOCCOC(=O)c2ccc(-c3c4nc(c(-c5c(F)c(F)c(F)c(F)c5F)c5ccc([nH]5)c(-c5c(F)c(F)c(F)c(F)c5F)c5nc(c(-c6c(F)c(F)c(F)c(F)c6F)c6ccc3[nH]6)C=C5)C=C4)cc2)c1
REMARK SMILES IDX 31 1 30 2 29 3 28 4 27 5 25 6 26 7 24 8 23 9 10 10 11 11
REMARK SMILES IDX 12 12 22 14 13 15 21 16 14 17 15 18 8 19 9 20 7 21 3 22 4 23
REMARK SMILES IDX 102 24 5 25 6 26 2 27 1 28 16 29 17 30 18 31 19 32 20 33
REMARK SMILES IDX 32 34 33 35 34 36 35 37 36 38 37 39 38 40 39 41 40 42 101 43
REMARK SMILES IDX 41 44 100 45 42 46 43 47 44 48 94 49 45 50 99 51 93 52 95 53
REMARK SMILES IDX 46 54 98 55 92 56 91 57 47 59 79 60 59 61 78 62 60 63 63 64
REMARK SMILES IDX 77 65 96 66 61 67 62 68 76 70 97 71 64 72 48 73 49 74 57 75
REMARK SMILES IDX 50 76 51 77 55 78 58 79 52 80 53 81 56 82 54 83 80 84 81 85
REMARK SMILES IDX 89 86 82 87 83 88 87 89 90 90 84 91 85 92 88 93 86 94 65 95
REMARK SMILES IDX 66 96 74 97 67 98 68 99 72 100 75 101 69 102 70 103 73 104
REMARK SMILES IDX 71 105
REMARK H PARENT 11 13 95 58 63 69
REMARK Flexibility Score: inf
ROOT
ATOM      1  C   UNL A   1      31.993  28.901  27.147  1.00  0.00     0.188 C 
ENDROOT
BRANCH   1   2
ATOM      2  O   UNL A   1      32.163  27.628  26.533  1.00  0.00    -0.376 OA
BRANCH   2   3
ATOM      3  C   UNL A   1      31.130  26.667  26.718  1.00  0.00     0.202 C 
BRANCH   3   4
ATOM      4  C   UNL A   1      31.539  25.218  26.453  1.00  0.00     0.261 C 
BRANCH   4   5
ATOM      5  O   UNL A   1      30.452  24.436  25.906  1.00  0.00    -0.463 OA
BRANCH   5   6
ATOM      6  C   UNL A   1      30.780  23.621  24.872  1.00  0.00     0.310 C 
ATOM      7  O   UNL A   1      31.126  22.449  25.020  1.00  0.00    -0.252 OA
BRANCH   6   8
ATOM      8  C   UNL A   1      30.645  24.212  23.483  1.00  0.00     0.161 C 
BRANCH   8   9
ATOM      9  C   UNL A   1      31.720  25.115  22.923  1.00  0.00     0.000 A 
ATOM     10  C   UNL A   1      33.051  24.790  22.623  1.00  0.00     0.093 A 
ATOM     11  N   UNL A   1      33.638  25.933  22.125  1.00  0.00    -0.352 N 
ATOM     12  C   UNL A   1      32.863  27.028  22.412  1.00  0.00     0.046 A 
ATOM     13  H   UNL A   1      34.491  25.960  21.634  1.00  0.00     0.167 HD
ATOM     14  C   UNL A   1      31.642  26.550  22.877  1.00  0.00     0.008 A 
ATOM     15  C   UNL A   1      33.162  28.391  22.317  1.00  0.00     0.030 A 
ATOM     16  C   UNL A   1      30.670  27.490  23.278  1.00  0.00     0.057 A 
ATOM     17  C   UNL A   1      32.203  29.299  22.783  1.00  0.00     0.049 A 
ATOM     18  C   UNL A   1      30.977  28.859  23.280  1.00  0.00     0.130 A 
BRANCH  10  19
ATOM     19  C   UNL A   1      33.747  23.524  22.796  1.00  0.00     0.227 C 
ATOM     20  O   UNL A   1      33.554  22.546  22.075  1.00  0.00    -0.285 OA
BRANCH  19  21
ATOM     21  C   UNL A   1      34.732  23.359  23.904  1.00  0.00     0.113 A 
ATOM     22  C   UNL A   1      36.725  22.344  24.789  1.00  0.00    -0.044 A 
ATOM     23  C   UNL A   1      36.819  23.437  25.658  1.00  0.00     0.024 A 
ATOM     24  C   UNL A   1      35.654  22.317  23.880  1.00  0.00     0.036 A 
ATOM     25  C   UNL A   1      35.825  24.402  25.635  1.00  0.00     0.112 A 
ATOM     26  N   UNL A   1      34.767  24.373  24.799  1.00  0.00    -0.253 NA
BRANCH  22  27
ATOM     27  C   UNL A   1      37.714  21.198  24.800  1.00  0.00     0.032 C 
ATOM     28  C   UNL A   1      37.134  19.789  24.878  1.00  0.00     0.009 C 
ENDBRANCH  22  27
ENDBRANCH  19  21
ENDBRANCH  10  19
BRANCH  18  29
ATOM     29  O   UNL A   1      29.995  29.653  23.808  1.00  0.00    -0.406 OA
BRANCH  29  30
ATOM     30  C   UNL A   1      28.916  30.003  22.957  1.00  0.00     0.573 C 
ATOM     31  F   UNL A   1      28.377  31.195  23.299  1.00  0.00    -0.132 F 
ATOM     32  F   UNL A   1      29.315  30.043  21.668  1.00  0.00    -0.132 F 
ATOM     33  F   UNL A   1      27.953  29.063  23.069  1.00  0.00    -0.132 F 
ENDBRANCH  29  30
ENDBRANCH  18  29
ENDBRANCH   8   9
ENDBRANCH   6   8
ENDBRANCH   5   6
ENDBRANCH   4   5
ENDBRANCH   3   4
ENDBRANCH   2   3
ENDBRANCH   1   2
BRANCH   1  34
ATOM     34  C   UNL A   1      32.625  30.133  26.464  1.00  0.00     0.188 C 
BRANCH  34  35
ATOM     35  O   UNL A   1      31.767  31.166  25.993  1.00  0.00    -0.376 OA
BRANCH  35  36
ATOM     36  C   UNL A   1      31.355  32.146  26.938  1.00  0.00     0.202 C 
BRANCH  36  37
ATOM     37  C   UNL A   1      32.126  33.457  26.834  1.00  0.00     0.261 C 
BRANCH  37  38
ATOM     38  O   UNL A   1      32.580  33.863  28.136  1.00  0.00    -0.460 OA
BRANCH  38  39
ATOM     39  C   UNL A   1      33.822  34.392  28.140  1.00  0.00     0.338 C 
ATOM     40  O   UNL A   1      34.114  35.564  27.981  1.00  0.00    -0.246 OA
BRANCH  39  41
ATOM     41  C   UNL A   1      34.843  33.353  28.396  1.00  0.00     0.060 A 
ATOM     42  C   UNL A   1      34.486  32.097  28.889  1.00  0.00     0.016 A 
ATOM     43  C   UNL A   1      36.185  33.725  28.361  1.00  0.00     0.016 A 
ATOM     44  C   UNL A   1      35.446  31.280  29.489  1.00  0.00     0.010 A 
ATOM     45  C   UNL A   1      37.157  32.867  28.879  1.00  0.00     0.010 A 
ATOM     46  C   UNL A   1      36.790  31.666  29.510  1.00  0.00    -0.014 A 
BRANCH  46  47
ATOM     47  C   UNL A   1      37.814  30.884  30.255  1.00  0.00     0.031 A 
ATOM     48  C   UNL A   1      38.067  31.177  31.711  1.00  0.00     0.074 A 
ATOM     49  C   UNL A   1      38.522  29.915  29.647  1.00  0.00     0.049 A 
ATOM     50  N   UNL A   1      39.052  30.788  32.482  1.00  0.00    -0.248 NA
ATOM     51  C   UNL A   1      37.071  32.019  32.394  1.00  0.00     0.031 C 
ATOM     52  C   UNL A   1      38.312  29.438  28.283  1.00  0.00     0.029 A 
ATOM     53  N   UNL A   1      39.583  29.171  30.103  1.00  0.00    -0.354 N 
ATOM     54  C   UNL A   1      38.810  31.356  33.726  1.00  0.00     0.074 A 
ATOM     55  C   UNL A   1      37.592  32.130  33.607  1.00  0.00     0.031 C 
ATOM     56  C   UNL A   1      39.216  28.487  28.008  1.00  0.00     0.029 A 
ATOM     57  C   UNL A   1      40.127  28.358  29.141  1.00  0.00     0.049 A 
ATOM     58  H   UNL A   1      39.919  29.215  31.028  1.00  0.00     0.167 HD
ATOM     59  C   UNL A   1      39.542  31.245  34.862  1.00  0.00     0.037 A 
ATOM     60  C   UNL A   1      41.271  27.646  29.139  1.00  0.00     0.037 A 
ATOM     61  C   UNL A   1      40.760  30.484  34.972  1.00  0.00     0.049 A 
ATOM     62  C   UNL A   1      42.163  27.681  30.346  1.00  0.00     0.074 A 
ATOM     63  C   UNL A   1      41.588  30.329  36.070  1.00  0.00     0.029 A 
ATOM     64  N   UNL A   1      41.331  29.757  33.938  1.00  0.00    -0.354 N 
ATOM     65  N   UNL A   1      41.970  28.268  31.502  1.00  0.00    -0.248 NA
ATOM     66  C   UNL A   1      43.447  26.975  30.238  1.00  0.00     0.031 C 
ATOM     67  C   UNL A   1      42.691  29.557  35.682  1.00  0.00     0.029 A 
ATOM     68  C   UNL A   1      42.522  29.185  34.359  1.00  0.00     0.049 A 
ATOM     69  H   UNL A   1      40.946  29.660  33.036  1.00  0.00     0.167 HD
ATOM     70  C   UNL A   1      43.097  27.991  32.264  1.00  0.00     0.074 A 
ATOM     71  C   UNL A   1      43.965  27.171  31.443  1.00  0.00     0.031 C 
ATOM     72  C   UNL A   1      43.384  28.380  33.531  1.00  0.00     0.037 A 
BRANCH  59  73
ATOM     73  C   UNL A   1      39.071  32.011  36.065  1.00  0.00     0.064 A 
ATOM     74  C   UNL A   1      38.204  31.447  37.012  1.00  0.00     0.173 A 
ATOM     75  C   UNL A   1      39.513  33.325  36.282  1.00  0.00     0.173 A 
ATOM     76  F   UNL A   1      37.735  30.201  36.841  1.00  0.00    -0.203 F 
ATOM     77  C   UNL A   1      37.780  32.178  38.120  1.00  0.00     0.198 A 
ATOM     78  C   UNL A   1      39.108  34.044  37.403  1.00  0.00     0.198 A 
ATOM     79  F   UNL A   1      40.344  33.912  35.407  1.00  0.00    -0.203 F 
ATOM     80  F   UNL A   1      36.915  31.635  38.987  1.00  0.00    -0.200 F 
ATOM     81  C   UNL A   1      38.236  33.473  38.317  1.00  0.00     0.200 A 
ATOM     82  F   UNL A   1      39.556  35.293  37.595  1.00  0.00    -0.200 F 
ATOM     83  F   UNL A   1      37.826  34.174  39.383  1.00  0.00    -0.200 F 
ENDBRANCH  59  73
BRANCH  60  84
ATOM     84  C   UNL A   1      41.661  26.900  27.915  1.00  0.00     0.064 A 
ATOM     85  C   UNL A   1      42.444  27.503  26.923  1.00  0.00     0.173 A 
ATOM     86  C   UNL A   1      41.281  25.562  27.726  1.00  0.00     0.173 A 
ATOM     87  F   UNL A   1      42.803  28.790  27.042  1.00  0.00    -0.203 F 
ATOM     88  C   UNL A   1      42.839  26.792  25.791  1.00  0.00     0.198 A 
ATOM     89  C   UNL A   1      41.702  24.845  26.611  1.00  0.00     0.198 A 
ATOM     90  F   UNL A   1      40.521  24.944  28.642  1.00  0.00    -0.203 F 
ATOM     91  F   UNL A   1      43.562  27.400  24.841  1.00  0.00    -0.200 F 
ATOM     92  C   UNL A   1      42.479  25.461  25.642  1.00  0.00     0.200 A 
ATOM     93  F   UNL A   1      41.360  23.556  26.478  1.00  0.00    -0.200 F 
ATOM     94  F   UNL A   1      42.873  24.775  24.561  1.00  0.00    -0.200 F 
ENDBRANCH  60  84
BRANCH  72  95
ATOM     95  C   UNL A   1      44.679  27.900  34.117  1.00  0.00     0.064 A 
ATOM     96  C   UNL A   1      44.782  26.653  34.750  1.00  0.00     0.173 A 
ATOM     97  C   UNL A   1      45.837  28.688  34.027  1.00  0.00     0.173 A 
ATOM     98  F   UNL A   1      43.700  25.870  34.878  1.00  0.00    -0.203 F 
ATOM     99  C   UNL A   1      45.990  26.223  35.294  1.00  0.00     0.198 A 
ATOM    100  C   UNL A   1      47.049  28.244  34.546  1.00  0.00     0.198 A 
ATOM    101  F   UNL A   1      45.793  29.887  33.426  1.00  0.00    -0.203 F 
ATOM    102  F   UNL A   1      46.054  25.050  35.938  1.00  0.00    -0.200 F 
ATOM    103  C   UNL A   1      47.123  27.016  35.187  1.00  0.00     0.200 A 
ATOM    104  F   UNL A   1      48.145  29.006  34.431  1.00  0.00    -0.200 F 
ATOM    105  F   UNL A   1      48.286  26.600  35.709  1.00  0.00    -0.200 F 
ENDBRANCH  72  95
ENDBRANCH  46  47
ENDBRANCH  39  41
ENDBRANCH  38  39
ENDBRANCH  37  38
ENDBRANCH  36  37
ENDBRANCH  35  36
ENDBRANCH  34  35
ENDBRANCH   1  34
TORSDOF 23
ENDMDL
MODEL 2
REMARK VINA RESULT:     -10.7      3.304      5.128
REMARK SMILES CCc1ccnc(C(=O)c2[nH]c3ccc(OC(F)(F)F)cc3c2CC(=O)OCCOCCOCCOC(=O)c2ccc(-c3c4nc(c(-c5c(F)c(F)c(F)c(F)c5F)c5ccc([nH]5)c(-c5c(F)c(F)c(F)c(F)c5F)c5nc(c(-c6c(F)c(F)c(F)c(F)c6F)c6ccc3[nH]6)C=C5)C=C4)cc2)c1
REMARK SMILES IDX 31 1 30 2 29 3 28 4 27 5 25 6 26 7 24 8 23 9 10 10 11 11
REMARK SMILES IDX 12 12 22 14 13 15 21 16 14 17 15 18 8 19 9 20 7 21 3 22 4 23
REMARK SMILES IDX 102 24 5 25 6 26 2 27 1 28 16 29 17 30 18 31 19 32 20 33
REMARK SMILES IDX 32 34 33 35 34 36 35 37 36 38 37 39 38 40 39 41 40 42 101 43
REMARK SMILES IDX 41 44 100 45 42 46 43 47 44 48 94 49 45 50 99 51 93 52 95 53
REMARK SMILES IDX 46 54 98 55 92 56 91 57 47 59 79 60 59 61 78 62 60 63 63 64
REMARK SMILES IDX 77 65 96 66 61 67 62 68 76 70 97 71 64 72 48 73 49 74 57 75
REMARK SMILES IDX 50 76 51 77 55 78 58 79 52 80 53 81 56 82 54 83 80 84 81 85
REMARK SMILES IDX 89 86 82 87 83 88 87 89 90 90 84 91 85 92 88 93 86 94 65 95
REMARK SMILES IDX 66 96 74 97 67 98 68 99 72 100 75 101 69 102 70 103 73 104
REMARK SMILES IDX 71 105
REMARK H PARENT 11 13 95 58 63 69
REMARK Flexibility Score: inf
ROOT
ATOM      1  C   UNL A   1      33.021  29.040  23.870  1.00  0.00     0.188 C 
ENDROOT
BRANCH   1   2
ATOM      2  O   UNL A   1      33.324  27.674  23.605  1.00  0.00    -0.376 OA
BRANCH   2   3
ATOM      3  C   UNL A   1      32.679  27.062  22.495  1.00  0.00     0.202 C 
BRANCH   3   4
ATOM      4  C   UNL A   1      32.882  25.551  22.380  1.00  0.00     0.261 C 
BRANCH   4   5
ATOM      5  O   UNL A   1      34.282  25.186  22.410  1.00  0.00    -0.463 OA
BRANCH   5   6
ATOM      6  C   UNL A   1      34.574  24.040  23.075  1.00  0.00     0.310 C 
ATOM      7  O   UNL A   1      34.834  22.979  22.509  1.00  0.00    -0.252 OA
BRANCH   6   8
ATOM      8  C   UNL A   1      34.625  24.136  24.587  1.00  0.00     0.161 C 
BRANCH   8   9
ATOM      9  C   UNL A   1      33.598  23.424  25.438  1.00  0.00     0.000 A 
ATOM     10  C   UNL A   1      33.570  22.070  25.805  1.00  0.00     0.093 A 
ATOM     11  N   UNL A   1      32.454  21.894  26.594  1.00  0.00    -0.352 N 
ATOM     12  C   UNL A   1      31.606  22.965  26.461  1.00  0.00     0.046 A 
ATOM     13  H   UNL A   1      32.287  21.113  27.169  1.00  0.00     0.167 HD
ATOM     14  C   UNL A   1      32.306  23.954  25.776  1.00  0.00     0.008 A 
ATOM     15  C   UNL A   1      30.278  23.117  26.873  1.00  0.00     0.030 A 
ATOM     16  C   UNL A   1      31.634  25.157  25.479  1.00  0.00     0.057 A 
ATOM     17  C   UNL A   1      29.617  24.296  26.508  1.00  0.00     0.049 A 
ATOM     18  C   UNL A   1      30.274  25.300  25.799  1.00  0.00     0.130 A 
BRANCH  10  19
ATOM     19  C   UNL A   1      34.492  21.004  25.447  1.00  0.00     0.227 C 
ATOM     20  O   UNL A   1      35.675  20.994  25.784  1.00  0.00    -0.285 OA
BRANCH  19  21
ATOM     21  C   UNL A   1      34.022  19.861  24.611  1.00  0.00     0.113 A 
ATOM     22  C   UNL A   1      34.048  17.514  24.081  1.00  0.00    -0.044 A 
ATOM     23  C   UNL A   1      32.797  17.701  23.483  1.00  0.00     0.024 A 
ATOM     24  C   UNL A   1      34.668  18.629  24.671  1.00  0.00     0.036 A 
ATOM     25  C   UNL A   1      32.257  18.977  23.435  1.00  0.00     0.112 A 
ATOM     26  N   UNL A   1      32.855  20.067  23.958  1.00  0.00    -0.253 NA
BRANCH  22  27
ATOM     27  C   UNL A   1      34.756  16.177  24.106  1.00  0.00     0.032 C 
ATOM     28  C   UNL A   1      35.529  15.830  25.375  1.00  0.00     0.009 C 
ENDBRANCH  22  27
ENDBRANCH  19  21
ENDBRANCH  10  19
BRANCH  18  29
ATOM     29  O   UNL A   1      29.711  26.462  25.346  1.00  0.00    -0.406 OA
BRANCH  29  30
ATOM     30  C   UNL A   1      29.046  26.416  24.094  1.00  0.00     0.573 C 
ATOM     31  F   UNL A   1      29.273  27.533  23.367  1.00  0.00    -0.132 F 
ATOM     32  F   UNL A   1      29.431  25.333  23.386  1.00  0.00    -0.132 F 
ATOM     33  F   UNL A   1      27.716  26.324  24.313  1.00  0.00    -0.132 F 
ENDBRANCH  29  30
ENDBRANCH  18  29
ENDBRANCH   8   9
ENDBRANCH   6   8
ENDBRANCH   5   6
ENDBRANCH   4   5
ENDBRANCH   3   4
ENDBRANCH   2   3
ENDBRANCH   1   2
BRANCH   1  34
ATOM     34  C   UNL A   1      31.702  29.369  24.602  1.00  0.00     0.188 C 
BRANCH  34  35
ATOM     35  O   UNL A   1      31.746  29.627  26.001  1.00  0.00    -0.376 OA
BRANCH  35  36
ATOM     36  C   UNL A   1      31.935  30.978  26.404  1.00  0.00     0.202 C 
BRANCH  36  37
ATOM     37  C   UNL A   1      32.885  31.135  27.586  1.00  0.00     0.261 C 
BRANCH  37  38
ATOM     38  O   UNL A   1      34.229  30.832  27.177  1.00  0.00    -0.460 OA
BRANCH  38  39
ATOM     39  C   UNL A   1      34.673  29.632  27.609  1.00  0.00     0.338 C 
ATOM     40  O   UNL A   1      34.062  28.579  27.584  1.00  0.00    -0.246 OA
BRANCH  39  41
ATOM     41  C   UNL A   1      36.058  29.727  28.118  1.00  0.00     0.060 A 
ATOM     42  C   UNL A   1      37.127  29.982  27.258  1.00  0.00     0.016 A 
ATOM     43  C   UNL A   1      36.307  29.327  29.429  1.00  0.00     0.016 A 
ATOM     44  C   UNL A   1      38.432  29.687  27.654  1.00  0.00     0.010 A 
ATOM     45  C   UNL A   1      37.621  29.119  29.854  1.00  0.00     0.010 A 
ATOM     46  C   UNL A   1      38.693  29.232  28.951  1.00  0.00    -0.014 A 
BRANCH  46  47
ATOM     47  C   UNL A   1      40.051  28.784  29.362  1.00  0.00     0.031 A 
ATOM     48  C   UNL A   1      40.921  29.692  30.191  1.00  0.00     0.074 A 
ATOM     49  C   UNL A   1      40.520  27.576  29.000  1.00  0.00     0.049 A 
ATOM     50  N   UNL A   1      42.199  29.606  30.461  1.00  0.00    -0.248 NA
ATOM     51  C   UNL A   1      40.257  30.854  30.806  1.00  0.00     0.031 C 
ATOM     52  C   UNL A   1      39.758  26.544  28.301  1.00  0.00     0.029 A 
ATOM     53  N   UNL A   1      41.767  27.023  29.160  1.00  0.00    -0.354 N 
ATOM     54  C   UNL A   1      42.498  30.709  31.251  1.00  0.00     0.074 A 
ATOM     55  C   UNL A   1      41.271  31.461  31.407  1.00  0.00     0.031 C 
ATOM     56  C   UNL A   1      40.552  25.485  28.085  1.00  0.00     0.029 A 
ATOM     57  C   UNL A   1      41.901  25.804  28.544  1.00  0.00     0.049 A 
ATOM     58  H   UNL A   1      42.492  27.456  29.666  1.00  0.00     0.167 HD
ATOM     59  C   UNL A   1      43.690  31.063  31.792  1.00  0.00     0.037 A 
ATOM     60  C   UNL A   1      42.997  25.057  28.306  1.00  0.00     0.037 A 
ATOM     61  C   UNL A   1      44.910  30.318  31.624  1.00  0.00     0.049 A 
ATOM     62  C   UNL A   1      44.340  25.556  28.756  1.00  0.00     0.074 A 
ATOM     63  C   UNL A   1      46.175  30.606  32.108  1.00  0.00     0.029 A 
ATOM     64  N   UNL A   1      45.021  29.138  30.902  1.00  0.00    -0.354 N 
ATOM     65  N   UNL A   1      44.636  26.630  29.446  1.00  0.00    -0.248 NA
ATOM     66  C   UNL A   1      45.507  24.751  28.368  1.00  0.00     0.031 C 
ATOM     67  C   UNL A   1      47.061  29.632  31.630  1.00  0.00     0.029 A 
ATOM     68  C   UNL A   1      46.339  28.707  30.894  1.00  0.00     0.049 A 
ATOM     69  H   UNL A   1      44.272  28.674  30.461  1.00  0.00     0.167 HD
ATOM     70  C   UNL A   1      46.017  26.623  29.591  1.00  0.00     0.074 A 
ATOM     71  C   UNL A   1      46.500  25.430  28.926  1.00  0.00     0.031 C 
ATOM     72  C   UNL A   1      46.811  27.524  30.220  1.00  0.00     0.037 A 
BRANCH  59  73
ATOM     73  C   UNL A   1      43.740  32.345  32.572  1.00  0.00     0.064 A 
ATOM     74  C   UNL A   1      43.983  33.580  31.955  1.00  0.00     0.173 A 
ATOM     75  C   UNL A   1      43.518  32.337  33.958  1.00  0.00     0.173 A 
ATOM     76  F   UNL A   1      44.221  33.642  30.636  1.00  0.00    -0.203 F 
ATOM     77  C   UNL A   1      44.025  34.757  32.700  1.00  0.00     0.198 A 
ATOM     78  C   UNL A   1      43.536  33.517  34.696  1.00  0.00     0.198 A 
ATOM     79  F   UNL A   1      43.280  31.182  34.598  1.00  0.00    -0.203 F 
ATOM     80  F   UNL A   1      44.306  35.920  32.097  1.00  0.00    -0.200 F 
ATOM     81  C   UNL A   1      43.797  34.725  34.068  1.00  0.00     0.200 A 
ATOM     82  F   UNL A   1      43.308  33.484  36.017  1.00  0.00    -0.200 F 
ATOM     83  F   UNL A   1      43.839  35.858  34.783  1.00  0.00    -0.200 F 
ENDBRANCH  59  73
BRANCH  60  84
ATOM     84  C   UNL A   1      42.863  23.792  27.539  1.00  0.00     0.064 A 
ATOM     85  C   UNL A   1      42.455  22.609  28.167  1.00  0.00     0.173 A 
ATOM     86  C   UNL A   1      43.116  23.747  26.159  1.00  0.00     0.173 A 
ATOM     87  F   UNL A   1      42.236  22.594  29.490  1.00  0.00    -0.203 F 
ATOM     88  C   UNL A   1      42.297  21.430  27.441  1.00  0.00     0.198 A 
ATOM     89  C   UNL A   1      42.927  22.577  25.430  1.00  0.00     0.198 A 
ATOM     90  F   UNL A   1      43.520  24.852  25.514  1.00  0.00    -0.203 F 
ATOM     91  F   UNL A   1      41.935  20.303  28.070  1.00  0.00    -0.200 F 
ATOM     92  C   UNL A   1      42.520  21.418  26.072  1.00  0.00     0.200 A 
ATOM     93  F   UNL A   1      43.133  22.575  24.106  1.00  0.00    -0.200 F 
ATOM     94  F   UNL A   1      42.351  20.287  25.373  1.00  0.00    -0.200 F 
ENDBRANCH  60  84
BRANCH  72  95
ATOM     95  C   UNL A   1      48.285  27.239  30.242  1.00  0.00     0.064 A 
ATOM     96  C   UNL A   1      49.147  27.755  29.263  1.00  0.00     0.173 A 
ATOM     97  C   UNL A   1      48.844  26.459  31.264  1.00  0.00     0.173 A 
ATOM     98  F   UNL A   1      48.658  28.493  28.254  1.00  0.00    -0.203 F 
ATOM     99  C   UNL A   1      50.511  27.478  29.293  1.00  0.00     0.198 A 
ATOM    100  C   UNL A   1      50.212  26.208  31.308  1.00  0.00     0.198 A 
ATOM    101  F   UNL A   1      48.064  25.946  32.228  1.00  0.00    -0.203 F 
ATOM    102  F   UNL A   1      51.309  27.940  28.320  1.00  0.00    -0.200 F 
ATOM    103  C   UNL A   1      51.043  26.710  30.318  1.00  0.00     0.200 A 
ATOM    104  F   UNL A   1      50.726  25.475  32.305  1.00  0.00    -0.200 F 
ATOM    105  F   UNL A   1      52.358  26.446  30.346  1.00  0.00    -0.200 F 
ENDBRANCH  72  95
ENDBRANCH  46  47
ENDBRANCH  39  41
ENDBRANCH  38  39
ENDBRANCH  37  38
ENDBRANCH  36  37
ENDBRANCH  35  36
ENDBRANCH  34  35
ENDBRANCH   1  34
TORSDOF 23
ENDMDL
MODEL 3
REMARK VINA RESULT:     -10.1      3.714      9.408
REMARK SMILES CCc1ccnc(C(=O)c2[nH]c3ccc(OC(F)(F)F)cc3c2CC(=O)OCCOCCOCCOC(=O)c2ccc(-c3c4nc(c(-c5c(F)c(F)c(F)c(F)c5F)c5ccc([nH]5)c(-c5c(F)c(F)c(F)c(F)c5F)c5nc(c(-c6c(F)c(F)c(F)c(F)c6F)c6ccc3[nH]6)C=C5)C=C4)cc2)c1
REMARK SMILES IDX 31 1 30 2 29 3 28 4 27 5 25 6 26 7 24 8 23 9 10 10 11 11
REMARK SMILES IDX 12 12 22 14 13 15 21 16 14 17 15 18 8 19 9 20 7 21 3 22 4 23
REMARK SMILES IDX 102 24 5 25 6 26 2 27 1 28 16 29 17 30 18 31 19 32 20 33
REMARK SMILES IDX 32 34 33 35 34 36 35 37 36 38 37 39 38 40 39 41 40 42 101 43
REMARK SMILES IDX 41 44 100 45 42 46 43 47 44 48 94 49 45 50 99 51 93 52 95 53
REMARK SMILES IDX 46 54 98 55 92 56 91 57 47 59 79 60 59 61 78 62 60 63 63 64
REMARK SMILES IDX 77 65 96 66 61 67 62 68 76 70 97 71 64 72 48 73 49 74 57 75
REMARK SMILES IDX 50 76 51 77 55 78 58 79 52 80 53 81 56 82 54 83 80 84 81 85
REMARK SMILES IDX 89 86 82 87 83 88 87 89 90 90 84 91 85 92 88 93 86 94 65 95
REMARK SMILES IDX 66 96 74 97 67 98 68 99 72 100 75 101 69 102 70 103 73 104
REMARK SMILES IDX 71 105
REMARK H PARENT 11 13 95 58 63 69
REMARK Flexibility Score: inf
ROOT
ATOM      1  C   UNL A   1      40.840  23.172  26.489  1.00  0.00     0.188 C 
ENDROOT
BRANCH   1   2
ATOM      2  O   UNL A   1      39.507  22.917  26.918  1.00  0.00    -0.376 OA
BRANCH   2   3
ATOM      3  C   UNL A   1      38.498  23.833  26.509  1.00  0.00     0.202 C 
BRANCH   3   4
ATOM      4  C   UNL A   1      37.332  23.212  25.740  1.00  0.00     0.261 C 
BRANCH   4   5
ATOM      5  O   UNL A   1      36.517  22.360  26.579  1.00  0.00    -0.463 OA
BRANCH   5   6
ATOM      6  C   UNL A   1      35.181  22.581  26.514  1.00  0.00     0.310 C 
ATOM      7  O   UNL A   1      34.418  22.387  27.461  1.00  0.00    -0.252 OA
BRANCH   6   8
ATOM      8  C   UNL A   1      34.657  23.149  25.210  1.00  0.00     0.161 C 
BRANCH   8   9
ATOM      9  C   UNL A   1      33.601  22.411  24.419  1.00  0.00     0.000 A 
ATOM     10  C   UNL A   1      32.325  22.864  24.049  1.00  0.00     0.093 A 
ATOM     11  N   UNL A   1      31.736  21.848  23.328  1.00  0.00    -0.352 N 
ATOM     12  C   UNL A   1      32.421  20.674  23.515  1.00  0.00     0.046 A 
ATOM     13  H   UNL A   1      30.937  21.950  22.761  1.00  0.00     0.167 HD
ATOM     14  C   UNL A   1      33.611  20.997  24.160  1.00  0.00     0.008 A 
ATOM     15  C   UNL A   1      32.065  19.363  23.183  1.00  0.00     0.030 A 
ATOM     16  C   UNL A   1      34.487  19.947  24.501  1.00  0.00     0.057 A 
ATOM     17  C   UNL A   1      32.924  18.335  23.592  1.00  0.00     0.049 A 
ATOM     18  C   UNL A   1      34.113  18.615  24.263  1.00  0.00     0.130 A 
BRANCH  10  19
ATOM     19  C   UNL A   1      31.680  24.133  24.349  1.00  0.00     0.227 C 
ATOM     20  O   UNL A   1      30.670  24.227  25.044  1.00  0.00    -0.285 OA
BRANCH  19  21
ATOM     21  C   UNL A   1      32.227  25.400  23.784  1.00  0.00     0.113 A 
ATOM     22  C   UNL A   1      33.321  27.521  24.092  1.00  0.00    -0.044 A 
ATOM     23  C   UNL A   1      33.702  27.446  22.748  1.00  0.00     0.024 A 
ATOM     24  C   UNL A   1      32.571  26.457  24.622  1.00  0.00     0.036 A 
ATOM     25  C   UNL A   1      33.271  26.374  21.983  1.00  0.00     0.112 A 
ATOM     26  N   UNL A   1      32.517  25.364  22.462  1.00  0.00    -0.253 NA
BRANCH  22  27
ATOM     27  C   UNL A   1      33.670  28.694  24.982  1.00  0.00     0.032 C 
ATOM     28  C   UNL A   1      32.555  29.696  25.269  1.00  0.00     0.009 C 
ENDBRANCH  22  27
ENDBRANCH  19  21
ENDBRANCH  10  19
BRANCH  18  29
ATOM     29  O   UNL A   1      34.994  17.689  24.753  1.00  0.00    -0.406 OA
BRANCH  29  30
ATOM     30  C   UNL A   1      34.474  16.413  25.088  1.00  0.00     0.573 C 
ATOM     31  F   UNL A   1      35.451  15.560  25.470  1.00  0.00    -0.132 F 
ATOM     32  F   UNL A   1      33.554  16.512  26.071  1.00  0.00    -0.132 F 
ATOM     33  F   UNL A   1      33.870  15.892  23.998  1.00  0.00    -0.132 F 
ENDBRANCH  29  30
ENDBRANCH  18  29
ENDBRANCH   8   9
ENDBRANCH   6   8
ENDBRANCH   5   6
ENDBRANCH   4   5
ENDBRANCH   3   4
ENDBRANCH   2   3
ENDBRANCH   1   2
BRANCH   1  34
ATOM     34  C   UNL A   1      41.743  21.968  26.150  1.00  0.00     0.188 C 
BRANCH  34  35
ATOM     35  O   UNL A   1      42.615  22.064  25.029  1.00  0.00    -0.376 OA
BRANCH  35  36
ATOM     36  C   UNL A   1      44.011  22.114  25.298  1.00  0.00     0.202 C 
BRANCH  36  37
ATOM     37  C   UNL A   1      44.696  23.356  24.739  1.00  0.00     0.261 C 
BRANCH  37  38
ATOM     38  O   UNL A   1      43.926  24.526  25.060  1.00  0.00    -0.460 OA
BRANCH  38  39
ATOM     39  C   UNL A   1      44.675  25.588  25.427  1.00  0.00     0.338 C 
ATOM     40  O   UNL A   1      45.455  26.206  24.724  1.00  0.00    -0.246 OA
BRANCH  39  41
ATOM     41  C   UNL A   1      44.418  25.961  26.834  1.00  0.00     0.060 A 
ATOM     42  C   UNL A   1      43.596  25.182  27.649  1.00  0.00     0.016 A 
ATOM     43  C   UNL A   1      44.817  27.224  27.265  1.00  0.00     0.016 A 
ATOM     44  C   UNL A   1      43.048  25.720  28.814  1.00  0.00     0.010 A 
ATOM     45  C   UNL A   1      44.340  27.728  28.476  1.00  0.00     0.010 A 
ATOM     46  C   UNL A   1      43.397  27.009  29.231  1.00  0.00    -0.014 A 
BRANCH  46  47
ATOM     47  C   UNL A   1      42.732  27.660  30.392  1.00  0.00     0.031 A 
ATOM     48  C   UNL A   1      41.441  28.411  30.191  1.00  0.00     0.074 A 
ATOM     49  C   UNL A   1      43.267  27.591  31.624  1.00  0.00     0.049 A 
ATOM     50  N   UNL A   1      40.821  29.235  30.998  1.00  0.00    -0.248 NA
ATOM     51  C   UNL A   1      40.753  28.201  28.906  1.00  0.00     0.031 C 
ATOM     52  C   UNL A   1      44.442  26.807  31.997  1.00  0.00     0.029 A 
ATOM     53  N   UNL A   1      42.894  28.213  32.791  1.00  0.00    -0.354 N 
ATOM     54  C   UNL A   1      39.689  29.660  30.314  1.00  0.00     0.074 A 
ATOM     55  C   UNL A   1      39.713  29.015  29.018  1.00  0.00     0.031 C 
ATOM     56  C   UNL A   1      44.699  26.998  33.299  1.00  0.00     0.029 A 
ATOM     57  C   UNL A   1      43.767  27.990  33.825  1.00  0.00     0.049 A 
ATOM     58  H   UNL A   1      42.081  28.763  32.876  1.00  0.00     0.167 HD
ATOM     59  C   UNL A   1      38.722  30.514  30.729  1.00  0.00     0.037 A 
ATOM     60  C   UNL A   1      43.857  28.572  35.037  1.00  0.00     0.037 A 
ATOM     61  C   UNL A   1      38.709  31.163  32.015  1.00  0.00     0.049 A 
ATOM     62  C   UNL A   1      42.881  29.651  35.412  1.00  0.00     0.074 A 
ATOM     63  C   UNL A   1      37.789  32.065  32.522  1.00  0.00     0.029 A 
ATOM     64  N   UNL A   1      39.674  30.986  32.997  1.00  0.00    -0.354 N 
ATOM     65  N   UNL A   1      41.848  30.101  34.742  1.00  0.00    -0.248 NA
ATOM     66  C   UNL A   1      43.102  30.321  36.700  1.00  0.00     0.031 C 
ATOM     67  C   UNL A   1      38.229  32.478  33.786  1.00  0.00     0.029 A 
ATOM     68  C   UNL A   1      39.393  31.792  34.090  1.00  0.00     0.049 A 
ATOM     69  H   UNL A   1      40.444  30.375  32.928  1.00  0.00     0.167 HD
ATOM     70  C   UNL A   1      41.286  31.094  35.532  1.00  0.00     0.074 A 
ATOM     71  C   UNL A   1      42.086  31.173  36.738  1.00  0.00     0.031 C 
ATOM     72  C   UNL A   1      40.202  31.870  35.280  1.00  0.00     0.037 A 
BRANCH  59  73
ATOM     73  C   UNL A   1      37.624  30.839  29.758  1.00  0.00     0.064 A 
ATOM     74  C   UNL A   1      37.549  32.080  29.109  1.00  0.00     0.173 A 
ATOM     75  C   UNL A   1      36.643  29.882  29.456  1.00  0.00     0.173 A 
ATOM     76  F   UNL A   1      38.450  33.038  29.377  1.00  0.00    -0.203 F 
ATOM     77  C   UNL A   1      36.521  32.358  28.212  1.00  0.00     0.198 A 
ATOM     78  C   UNL A   1      35.630  30.154  28.540  1.00  0.00     0.198 A 
ATOM     79  F   UNL A   1      36.668  28.678  30.048  1.00  0.00    -0.203 F 
ATOM     80  F   UNL A   1      36.443  33.567  27.639  1.00  0.00    -0.200 F 
ATOM     81  C   UNL A   1      35.566  31.394  27.924  1.00  0.00     0.200 A 
ATOM     82  F   UNL A   1      34.713  29.217  28.258  1.00  0.00    -0.200 F 
ATOM     83  F   UNL A   1      34.577  31.665  27.061  1.00  0.00    -0.200 F 
ENDBRANCH  59  73
BRANCH  60  84
ATOM     84  C   UNL A   1      44.964  28.185  35.949  1.00  0.00     0.064 A 
ATOM     85  C   UNL A   1      46.200  28.841  35.901  1.00  0.00     0.173 A 
ATOM     86  C   UNL A   1      44.798  27.170  36.905  1.00  0.00     0.173 A 
ATOM     87  F   UNL A   1      46.417  29.794  34.982  1.00  0.00    -0.203 F 
ATOM     88  C   UNL A   1      47.226  28.501  36.780  1.00  0.00     0.198 A 
ATOM     89  C   UNL A   1      45.813  26.854  37.803  1.00  0.00     0.198 A 
ATOM     90  F   UNL A   1      43.636  26.504  36.983  1.00  0.00    -0.203 F 
ATOM     91  F   UNL A   1      48.411  29.122  36.694  1.00  0.00    -0.200 F 
ATOM     92  C   UNL A   1      47.028  27.518  37.738  1.00  0.00     0.200 A 
ATOM     93  F   UNL A   1      45.612  25.910  38.733  1.00  0.00    -0.200 F 
ATOM     94  F   UNL A   1      48.011  27.204  38.593  1.00  0.00    -0.200 F 
ENDBRANCH  60  84
BRANCH  72  95
ATOM     95  C   UNL A   1      39.803  32.854  36.342  1.00  0.00     0.064 A 
ATOM     96  C   UNL A   1      40.406  34.116  36.437  1.00  0.00     0.173 A 
ATOM     97  C   UNL A   1      38.792  32.537  37.261  1.00  0.00     0.173 A 
ATOM     98  F   UNL A   1      41.390  34.460  35.592  1.00  0.00    -0.203 F 
ATOM     99  C   UNL A   1      40.029  35.017  37.431  1.00  0.00     0.198 A 
ATOM    100  C   UNL A   1      38.397  33.449  38.235  1.00  0.00     0.198 A 
ATOM    101  F   UNL A   1      38.179  31.344  37.209  1.00  0.00    -0.203 F 
ATOM    102  F   UNL A   1      40.652  36.198  37.534  1.00  0.00    -0.200 F 
ATOM    103  C   UNL A   1      39.022  34.684  38.325  1.00  0.00     0.200 A 
ATOM    104  F   UNL A   1      37.416  33.132  39.091  1.00  0.00    -0.200 F 
ATOM    105  F   UNL A   1      38.658  35.553  39.279  1.00  0.00    -0.200 F 
ENDBRANCH  72  95
ENDBRANCH  46  47
ENDBRANCH  39  41
ENDBRANCH  38  39
ENDBRANCH  37  38
ENDBRANCH  36  37
ENDBRANCH  35  36
ENDBRANCH  34  35
ENDBRANCH   1  34
TORSDOF 23
ENDMDL
