MODEL 1
REMARK VINA RESULT:     -13.2      0.000      0.000
REMARK SMILES Cc1ccc(-c2cc([C@@H](C)C(=O)OCCOCCOCCOC(=O)c3ccc(-c4c5nc(c(-c6c(F)c(F)c(F)c(F)c6F)c6ccc([nH]6)c(-c6c(F)c(F)c(F)c(F)c6F)c6nc(c(-c7c(F)c(F)c(F)c(F)c7F)c7ccc4[nH]7)C=C6)C=C5)cc3)ccc2C[C@H]2CCCC2=O)cc1
REMARK SMILES IDX 17 1 16 2 15 3 14 4 13 5 11 6 12 7 9 8 10 9 8 10 6 11 7 12
REMARK SMILES IDX 90 13 89 14 88 15 5 16 1 17 2 18 3 19 99 20 4 21 98 22 91 23
REMARK SMILES IDX 92 24 93 25 96 26 94 27 95 28 97 29 18 30 19 31 20 32 21 33
REMARK SMILES IDX 22 34 23 35 24 36 25 37 26 38 87 39 27 40 86 41 28 42 29 43
REMARK SMILES IDX 30 44 80 45 31 46 85 47 79 48 81 49 32 50 84 51 78 52 77 53
REMARK SMILES IDX 33 55 65 56 45 57 64 58 46 59 49 60 63 61 82 62 47 63 48 64
REMARK SMILES IDX 62 66 83 67 50 68 34 69 35 70 43 71 36 72 37 73 41 74 44 75
REMARK SMILES IDX 38 76 39 77 42 78 40 79 66 80 67 81 75 82 68 83 69 84 73 85
REMARK SMILES IDX 76 86 70 87 71 88 74 89 72 90 51 91 52 92 60 93 53 94 54 95
REMARK SMILES IDX 58 96 61 97 55 98 56 99 59 100 57 101
REMARK H PARENT 81 54 49 65
REMARK Flexibility Score: inf
ROOT
ATOM      1  C   UNL A   1      41.463  20.454  26.947  1.00  0.00     0.188 C 
ENDROOT
BRANCH   1   2
ATOM      2  O   UNL A   1      40.080  20.443  26.547  1.00  0.00    -0.376 OA
BRANCH   2   3
ATOM      3  C   UNL A   1      39.416  19.480  25.705  1.00  0.00     0.202 C 
BRANCH   3   4
ATOM      4  C   UNL A   1      37.876  19.428  24.898  1.00  0.00     0.261 C 
BRANCH   4   5
ATOM      5  O   UNL A   1      36.289  20.270  25.098  1.00  0.00    -0.463 OA
BRANCH   5   6
ATOM      6  C   UNL A   1      35.676  21.545  25.543  1.00  0.00     0.313 C 
ATOM      7  O   UNL A   1      34.748  21.724  26.349  1.00  0.00    -0.252 OA
BRANCH   6   8
ATOM      8  C   UNL A   1      36.129  22.886  25.085  1.00  0.00     0.126 C 
ATOM      9  C   UNL A   1      36.868  23.635  26.209  1.00  0.00     0.025 C 
BRANCH   8  10
ATOM     10  C   UNL A   1      35.130  23.660  24.345  1.00  0.00    -0.033 A 
ATOM     11  C   UNL A   1      33.888  25.725  24.135  1.00  0.00    -0.015 A 
ATOM     12  C   UNL A   1      34.772  24.917  24.837  1.00  0.00     0.013 A 
ATOM     13  C   UNL A   1      33.399  25.247  22.898  1.00  0.00    -0.039 A 
ATOM     14  C   UNL A   1      33.729  23.948  22.464  1.00  0.00     0.004 A 
ATOM     15  C   UNL A   1      34.593  23.155  23.177  1.00  0.00     0.005 A 
BRANCH  11  16
ATOM     16  C   UNL A   1      33.452  26.966  24.783  1.00  0.00    -0.018 A 
ATOM     17  C   UNL A   1      32.007  30.520  26.765  1.00  0.00     0.044 C 
ATOM     18  C   UNL A   1      32.565  29.303  26.090  1.00  0.00    -0.051 A 
ATOM     19  C   UNL A   1      32.442  28.056  26.709  1.00  0.00     0.004 A 
ATOM     20  C   UNL A   1      33.189  29.385  24.841  1.00  0.00     0.004 A 
ATOM     21  C   UNL A   1      32.890  26.904  26.067  1.00  0.00     0.009 A 
ATOM     22  C   UNL A   1      33.637  28.226  24.198  1.00  0.00     0.009 A 
ENDBRANCH  11  16
BRANCH  13  23
ATOM     23  C   UNL A   1      32.488  26.056  22.001  1.00  0.00     0.047 C 
BRANCH  23  24
ATOM     24  C   UNL A   1      30.998  26.040  22.360  1.00  0.00     0.060 C 
ATOM     25  C   UNL A   1      30.670  25.183  23.579  1.00  0.00     0.012 C 
ATOM     26  C   UNL A   1      30.395  27.387  22.699  1.00  0.00     0.136 C 
ATOM     27  C   UNL A   1      29.662  25.959  24.402  1.00  0.00     0.009 C 
ATOM     28  C   UNL A   1      29.788  27.429  24.066  1.00  0.00     0.076 C 
ATOM     29  O   UNL A   1      30.408  28.358  21.950  1.00  0.00    -0.299 OA
ENDBRANCH  23  24
ENDBRANCH  13  23
ENDBRANCH   8  10
ENDBRANCH   6   8
ENDBRANCH   5   6
ENDBRANCH   4   5
ENDBRANCH   3   4
ENDBRANCH   2   3
ENDBRANCH   1   2
BRANCH   1  30
ATOM     30  C   UNL A   1      42.558  20.763  25.967  1.00  0.00     0.188 C 
BRANCH  30  31
ATOM     31  O   UNL A   1      42.816  19.575  25.276  1.00  0.00    -0.376 OA
BRANCH  31  32
ATOM     32  C   UNL A   1      44.122  19.090  25.350  1.00  0.00     0.202 C 
BRANCH  32  33
ATOM     33  C   UNL A   1      44.982  19.535  24.149  1.00  0.00     0.261 C 
BRANCH  33  34
ATOM     34  O   UNL A   1      45.763  20.776  24.320  1.00  0.00    -0.460 OA
BRANCH  34  35
ATOM     35  C   UNL A   1      45.274  22.062  24.179  1.00  0.00     0.338 C 
ATOM     36  O   UNL A   1      44.483  22.389  23.299  1.00  0.00    -0.246 OA
BRANCH  35  37
ATOM     37  C   UNL A   1      45.591  22.947  25.346  1.00  0.00     0.060 A 
ATOM     38  C   UNL A   1      45.514  22.755  26.739  1.00  0.00     0.016 A 
ATOM     39  C   UNL A   1      45.931  24.186  24.981  1.00  0.00     0.016 A 
ATOM     40  C   UNL A   1      45.430  23.888  27.683  1.00  0.00     0.010 A 
ATOM     41  C   UNL A   1      45.518  25.183  25.836  1.00  0.00     0.010 A 
ATOM     42  C   UNL A   1      45.261  25.204  27.243  1.00  0.00    -0.014 A 
BRANCH  42  43
ATOM     43  C   UNL A   1      44.837  26.614  28.188  1.00  0.00     0.031 A 
ATOM     44  C   UNL A   1      43.288  27.466  28.479  1.00  0.00     0.074 A 
ATOM     45  C   UNL A   1      45.872  27.205  28.813  1.00  0.00     0.049 A 
ATOM     46  N   UNL A   1      43.142  28.776  28.505  1.00  0.00    -0.248 NA
ATOM     47  C   UNL A   1      41.815  26.936  28.478  1.00  0.00     0.031 C 
ATOM     48  C   UNL A   1      45.842  28.161  29.909  1.00  0.00     0.029 A 
ATOM     49  N   UNL A   1      47.236  26.965  28.625  1.00  0.00    -0.354 N 
ATOM     50  C   UNL A   1      41.759  29.031  28.681  1.00  0.00     0.074 A 
ATOM     51  C   UNL A   1      41.074  27.957  28.114  1.00  0.00     0.031 C 
ATOM     52  C   UNL A   1      47.087  28.647  30.080  1.00  0.00     0.029 A 
ATOM     53  C   UNL A   1      47.902  28.143  28.984  1.00  0.00     0.049 A 
ATOM     54  H   UNL A   1      47.649  26.130  28.304  1.00  0.00     0.167 HD
ATOM     55  C   UNL A   1      41.269  29.853  29.656  1.00  0.00     0.037 A 
ATOM     56  C   UNL A   1      48.502  28.848  27.983  1.00  0.00     0.037 A 
ATOM     57  C   UNL A   1      42.386  30.621  30.145  1.00  0.00     0.049 A 
ATOM     58  C   UNL A   1      47.757  30.146  27.733  1.00  0.00     0.074 A 
ATOM     59  C   UNL A   1      43.270  30.528  31.199  1.00  0.00     0.029 A 
ATOM     60  N   UNL A   1      43.009  31.376  29.187  1.00  0.00    -0.354 N 
ATOM     61  N   UNL A   1      46.681  30.498  28.391  1.00  0.00    -0.248 NA
ATOM     62  C   UNL A   1      48.127  31.140  26.733  1.00  0.00     0.031 C 
ATOM     63  C   UNL A   1      44.491  31.167  30.775  1.00  0.00     0.029 A 
ATOM     64  C   UNL A   1      44.318  31.649  29.485  1.00  0.00     0.049 A 
ATOM     65  H   UNL A   1      42.561  31.691  28.369  1.00  0.00     0.167 HD
ATOM     66  C   UNL A   1      46.202  31.679  27.924  1.00  0.00     0.074 A 
ATOM     67  C   UNL A   1      47.138  32.043  26.872  1.00  0.00     0.031 C 
ATOM     68  C   UNL A   1      45.078  32.276  28.412  1.00  0.00     0.037 A 
BRANCH  55  69
ATOM     69  C   UNL A   1      39.863  29.825  30.293  1.00  0.00     0.064 A 
ATOM     70  C   UNL A   1      39.013  30.930  30.076  1.00  0.00     0.173 A 
ATOM     71  C   UNL A   1      39.277  28.836  31.132  1.00  0.00     0.173 A 
ATOM     72  F   UNL A   1      39.378  31.929  29.262  1.00  0.00    -0.203 F 
ATOM     73  C   UNL A   1      37.750  31.062  30.675  1.00  0.00     0.198 A 
ATOM     74  C   UNL A   1      38.028  28.982  31.757  1.00  0.00     0.198 A 
ATOM     75  F   UNL A   1      39.831  27.649  31.375  1.00  0.00    -0.203 F 
ATOM     76  F   UNL A   1      37.006  32.144  30.414  1.00  0.00    -0.200 F 
ATOM     77  C   UNL A   1      37.263  30.097  31.530  1.00  0.00     0.200 A 
ATOM     78  F   UNL A   1      37.576  28.016  32.573  1.00  0.00    -0.200 F 
ATOM     79  F   UNL A   1      36.064  30.230  32.112  1.00  0.00    -0.200 F 
ENDBRANCH  55  69
BRANCH  56  80
ATOM     80  C   UNL A   1      49.177  27.921  27.000  1.00  0.00     0.064 A 
ATOM     81  C   UNL A   1      48.512  27.705  25.761  1.00  0.00     0.173 A 
ATOM     82  C   UNL A   1      50.539  27.604  27.032  1.00  0.00     0.173 A 
ATOM     83  F   UNL A   1      47.199  27.963  25.652  1.00  0.00    -0.203 F 
ATOM     84  C   UNL A   1      49.203  27.384  24.592  1.00  0.00     0.198 A 
ATOM     85  C   UNL A   1      51.218  27.215  25.864  1.00  0.00     0.198 A 
ATOM     86  F   UNL A   1      51.258  27.800  28.146  1.00  0.00    -0.203 F 
ATOM     87  F   UNL A   1      48.569  27.398  23.410  1.00  0.00    -0.200 F 
ATOM     88  C   UNL A   1      50.563  27.161  24.641  1.00  0.00     0.200 A 
ATOM     89  F   UNL A   1      52.550  27.048  25.891  1.00  0.00    -0.200 F 
ATOM     90  F   UNL A   1      51.252  26.972  23.505  1.00  0.00    -0.200 F 
ENDBRANCH  56  80
BRANCH  68  91
ATOM     91  C   UNL A   1      44.569  33.563  27.838  1.00  0.00     0.064 A 
ATOM     92  C   UNL A   1      44.575  34.724  28.612  1.00  0.00     0.173 A 
ATOM     93  C   UNL A   1      43.938  33.648  26.575  1.00  0.00     0.173 A 
ATOM     94  F   UNL A   1      45.122  34.724  29.837  1.00  0.00    -0.203 F 
ATOM     95  C   UNL A   1      44.011  35.906  28.140  1.00  0.00     0.198 A 
ATOM     96  C   UNL A   1      43.290  34.797  26.150  1.00  0.00     0.198 A 
ATOM     97  F   UNL A   1      43.952  32.629  25.702  1.00  0.00    -0.203 F 
ATOM     98  F   UNL A   1      44.111  37.022  28.873  1.00  0.00    -0.200 F 
ATOM     99  C   UNL A   1      43.347  35.936  26.924  1.00  0.00     0.200 A 
ATOM    100  F   UNL A   1      42.621  34.793  24.988  1.00  0.00    -0.200 F 
ATOM    101  F   UNL A   1      42.775  37.066  26.490  1.00  0.00    -0.200 F 
ENDBRANCH  68  91
ENDBRANCH  42  43
ENDBRANCH  35  37
ENDBRANCH  34  35
ENDBRANCH  33  34
ENDBRANCH  32  33
ENDBRANCH  31  32
ENDBRANCH  30  31
ENDBRANCH   1  30
TORSDOF 21
ENDMDL
MODEL 2
REMARK VINA RESULT:     -12.9      1.382      2.162
REMARK SMILES Cc1ccc(-c2cc([C@@H](C)C(=O)OCCOCCOCCOC(=O)c3ccc(-c4c5nc(c(-c6c(F)c(F)c(F)c(F)c6F)c6ccc([nH]6)c(-c6c(F)c(F)c(F)c(F)c6F)c6nc(c(-c7c(F)c(F)c(F)c(F)c7F)c7ccc4[nH]7)C=C6)C=C5)cc3)ccc2C[C@H]2CCCC2=O)cc1
REMARK SMILES IDX 17 1 16 2 15 3 14 4 13 5 11 6 12 7 9 8 10 9 8 10 6 11 7 12
REMARK SMILES IDX 90 13 89 14 88 15 5 16 1 17 2 18 3 19 99 20 4 21 98 22 91 23
REMARK SMILES IDX 92 24 93 25 96 26 94 27 95 28 97 29 18 30 19 31 20 32 21 33
REMARK SMILES IDX 22 34 23 35 24 36 25 37 26 38 87 39 27 40 86 41 28 42 29 43
REMARK SMILES IDX 30 44 80 45 31 46 85 47 79 48 81 49 32 50 84 51 78 52 77 53
REMARK SMILES IDX 33 55 65 56 45 57 64 58 46 59 49 60 63 61 82 62 47 63 48 64
REMARK SMILES IDX 62 66 83 67 50 68 34 69 35 70 43 71 36 72 37 73 41 74 44 75
REMARK SMILES IDX 38 76 39 77 42 78 40 79 66 80 67 81 75 82 68 83 69 84 73 85
REMARK SMILES IDX 76 86 70 87 71 88 74 89 72 90 51 91 52 92 60 93 53 94 54 95
REMARK SMILES IDX 58 96 61 97 55 98 56 99 59 100 57 101
REMARK H PARENT 81 54 49 65
REMARK Flexibility Score: inf
ROOT
ATOM      1  C   UNL A   1      40.423  20.500  26.493  1.00  0.00     0.188 C 
ENDROOT
BRANCH   1   2
ATOM      2  O   UNL A   1      39.744  21.706  26.097  1.00  0.00    -0.376 OA
BRANCH   2   3
ATOM      3  C   UNL A   1      38.420  21.828  25.538  1.00  0.00     0.202 C 
BRANCH   3   4
ATOM      4  C   UNL A   1      37.072  22.887  25.826  1.00  0.00     0.261 C 
BRANCH   4   5
ATOM      5  O   UNL A   1      35.273  22.706  25.839  1.00  0.00    -0.463 OA
BRANCH   5   6
ATOM      6  C   UNL A   1      34.111  22.517  26.742  1.00  0.00     0.313 C 
ATOM      7  O   UNL A   1      34.075  22.548  27.982  1.00  0.00    -0.252 OA
BRANCH   6   8
ATOM      8  C   UNL A   1      32.722  22.278  26.263  1.00  0.00     0.126 C 
ATOM      9  C   UNL A   1      32.637  20.981  25.439  1.00  0.00     0.025 C 
BRANCH   8  10
ATOM     10  C   UNL A   1      32.051  23.448  25.694  1.00  0.00    -0.033 A 
ATOM     11  C   UNL A   1      31.950  25.857  25.507  1.00  0.00    -0.015 A 
ATOM     12  C   UNL A   1      32.498  24.715  26.074  1.00  0.00     0.013 A 
ATOM     13  C   UNL A   1      30.958  25.689  24.513  1.00  0.00    -0.039 A 
ATOM     14  C   UNL A   1      30.485  24.398  24.202  1.00  0.00     0.004 A 
ATOM     15  C   UNL A   1      31.028  23.280  24.782  1.00  0.00     0.005 A 
BRANCH  11  16
ATOM     16  C   UNL A   1      32.369  27.150  26.059  1.00  0.00    -0.018 A 
ATOM     17  C   UNL A   1      33.425  31.031  27.626  1.00  0.00     0.044 C 
ATOM     18  C   UNL A   1      33.087  29.659  27.128  1.00  0.00    -0.051 A 
ATOM     19  C   UNL A   1      31.778  29.185  27.252  1.00  0.00     0.004 A 
ATOM     20  C   UNL A   1      34.051  28.847  26.521  1.00  0.00     0.004 A 
ATOM     21  C   UNL A   1      31.428  27.941  26.733  1.00  0.00     0.009 A 
ATOM     22  C   UNL A   1      33.696  27.599  25.999  1.00  0.00     0.009 A 
ENDBRANCH  11  16
BRANCH  13  23
ATOM     23  C   UNL A   1      30.332  26.845  23.766  1.00  0.00     0.047 C 
BRANCH  23  24
ATOM     24  C   UNL A   1      31.190  27.480  22.665  1.00  0.00     0.060 C 
ATOM     25  C   UNL A   1      31.902  28.756  23.101  1.00  0.00     0.012 C 
ATOM     26  C   UNL A   1      32.310  26.612  22.130  1.00  0.00     0.136 C 
ATOM     27  C   UNL A   1      33.306  28.690  22.535  1.00  0.00     0.009 C 
ATOM     28  C   UNL A   1      33.660  27.242  22.277  1.00  0.00     0.076 C 
ATOM     29  O   UNL A   1      32.148  25.499  21.640  1.00  0.00    -0.299 OA
ENDBRANCH  23  24
ENDBRANCH  13  23
ENDBRANCH   8  10
ENDBRANCH   6   8
ENDBRANCH   5   6
ENDBRANCH   4   5
ENDBRANCH   3   4
ENDBRANCH   2   3
ENDBRANCH   1   2
BRANCH   1  30
ATOM     30  C   UNL A   1      41.921  20.405  26.482  1.00  0.00     0.188 C 
BRANCH  30  31
ATOM     31  O   UNL A   1      42.250  19.473  25.493  1.00  0.00    -0.376 OA
BRANCH  31  32
ATOM     32  C   UNL A   1      43.181  18.497  25.850  1.00  0.00     0.202 C 
BRANCH  32  33
ATOM     33  C   UNL A   1      44.543  18.703  25.156  1.00  0.00     0.261 C 
BRANCH  33  34
ATOM     34  O   UNL A   1      45.034  20.092  25.062  1.00  0.00    -0.460 OA
BRANCH  34  35
ATOM     35  C   UNL A   1      44.901  20.921  23.964  1.00  0.00     0.338 C 
ATOM     36  O   UNL A   1      44.547  20.522  22.857  1.00  0.00    -0.246 OA
BRANCH  35  37
ATOM     37  C   UNL A   1      44.973  22.378  24.309  1.00  0.00     0.060 A 
ATOM     38  C   UNL A   1      46.046  23.231  24.629  1.00  0.00     0.016 A 
ATOM     39  C   UNL A   1      43.769  22.947  24.415  1.00  0.00     0.016 A 
ATOM     40  C   UNL A   1      45.851  24.490  25.376  1.00  0.00     0.010 A 
ATOM     41  C   UNL A   1      43.666  23.924  25.379  1.00  0.00     0.010 A 
ATOM     42  C   UNL A   1      44.620  24.827  25.946  1.00  0.00    -0.014 A 
BRANCH  42  43
ATOM     43  C   UNL A   1      44.274  26.091  27.104  1.00  0.00     0.031 A 
ATOM     44  C   UNL A   1      42.787  27.008  27.501  1.00  0.00     0.074 A 
ATOM     45  C   UNL A   1      45.329  26.484  27.842  1.00  0.00     0.049 A 
ATOM     46  N   UNL A   1      42.742  28.302  27.744  1.00  0.00    -0.248 NA
ATOM     47  C   UNL A   1      41.277  26.608  27.380  1.00  0.00     0.031 C 
ATOM     48  C   UNL A   1      45.335  27.243  29.082  1.00  0.00     0.029 A 
ATOM     49  N   UNL A   1      46.677  26.166  27.646  1.00  0.00    -0.354 N 
ATOM     50  C   UNL A   1      41.377  28.638  27.930  1.00  0.00     0.074 A 
ATOM     51  C   UNL A   1      40.631  27.732  27.176  1.00  0.00     0.031 C 
ATOM     52  C   UNL A   1      46.607  27.591  29.359  1.00  0.00     0.029 A 
ATOM     53  C   UNL A   1      47.418  27.210  28.212  1.00  0.00     0.049 A 
ATOM     54  H   UNL A   1      47.034  25.365  27.198  1.00  0.00     0.167 HD
ATOM     55  C   UNL A   1      40.917  29.324  29.018  1.00  0.00     0.037 A 
ATOM     56  C   UNL A   1      48.106  28.020  27.357  1.00  0.00     0.037 A 
ATOM     57  C   UNL A   1      42.073  29.905  29.654  1.00  0.00     0.049 A 
ATOM     58  C   UNL A   1      47.472  29.398  27.313  1.00  0.00     0.074 A 
ATOM     59  C   UNL A   1      42.910  29.567  30.696  1.00  0.00     0.029 A 
ATOM     60  N   UNL A   1      42.786  30.755  28.850  1.00  0.00    -0.354 N 
ATOM     61  N   UNL A   1      46.405  29.723  27.997  1.00  0.00    -0.248 NA
ATOM     62  C   UNL A   1      47.953  30.510  26.502  1.00  0.00     0.031 C 
ATOM     63  C   UNL A   1      44.191  30.165  30.412  1.00  0.00     0.029 A 
ATOM     64  C   UNL A   1      44.100  30.866  29.218  1.00  0.00     0.049 A 
ATOM     65  H   UNL A   1      42.393  31.237  28.087  1.00  0.00     0.167 HD
ATOM     66  C   UNL A   1      46.035  31.000  27.725  1.00  0.00     0.074 A 
ATOM     67  C   UNL A   1      47.032  31.455  26.770  1.00  0.00     0.031 C 
ATOM     68  C   UNL A   1      44.944  31.598  28.283  1.00  0.00     0.037 A 
BRANCH  55  69
ATOM     69  C   UNL A   1      39.493  29.306  29.611  1.00  0.00     0.064 A 
ATOM     70  C   UNL A   1      38.453  29.895  28.861  1.00  0.00     0.173 A 
ATOM     71  C   UNL A   1      39.048  28.802  30.866  1.00  0.00     0.173 A 
ATOM     72  F   UNL A   1      38.678  30.369  27.628  1.00  0.00    -0.203 F 
ATOM     73  C   UNL A   1      37.137  30.021  29.331  1.00  0.00     0.198 A 
ATOM     74  C   UNL A   1      37.739  28.957  31.350  1.00  0.00     0.198 A 
ATOM     75  F   UNL A   1      39.814  28.090  31.691  1.00  0.00    -0.203 F 
ATOM     76  F   UNL A   1      36.209  30.593  28.553  1.00  0.00    -0.200 F 
ATOM     77  C   UNL A   1      36.782  29.568  30.584  1.00  0.00     0.200 A 
ATOM     78  F   UNL A   1      37.422  28.490  32.569  1.00  0.00    -0.200 F 
ATOM     79  F   UNL A   1      35.528  29.701  31.037  1.00  0.00    -0.200 F 
ENDBRANCH  55  69
BRANCH  56  80
ATOM     80  C   UNL A   1      48.740  27.216  26.247  1.00  0.00     0.064 A 
ATOM     81  C   UNL A   1      48.132  27.300  24.964  1.00  0.00     0.173 A 
ATOM     82  C   UNL A   1      50.060  26.752  26.274  1.00  0.00     0.173 A 
ATOM     83  F   UNL A   1      46.860  27.717  24.853  1.00  0.00    -0.203 F 
ATOM     84  C   UNL A   1      48.855  27.121  23.784  1.00  0.00     0.198 A 
ATOM     85  C   UNL A   1      50.764  26.506  25.081  1.00  0.00     0.198 A 
ATOM     86  F   UNL A   1      50.728  26.664  27.432  1.00  0.00    -0.203 F 
ATOM     87  F   UNL A   1      48.296  27.418  22.601  1.00  0.00    -0.200 F 
ATOM     88  C   UNL A   1      50.180  26.745  23.844  1.00  0.00     0.200 A 
ATOM     89  F   UNL A   1      52.068  26.193  25.130  1.00  0.00    -0.200 F 
ATOM     90  F   UNL A   1      50.913  26.690  22.722  1.00  0.00    -0.200 F 
ENDBRANCH  56  80
BRANCH  68  91
ATOM     91  C   UNL A   1      44.556  33.001  27.922  1.00  0.00     0.064 A 
ATOM     92  C   UNL A   1      44.030  33.277  26.660  1.00  0.00     0.173 A 
ATOM     93  C   UNL A   1      44.825  34.113  28.753  1.00  0.00     0.173 A 
ATOM     94  F   UNL A   1      43.777  32.283  25.794  1.00  0.00    -0.203 F 
ATOM     95  C   UNL A   1      43.761  34.584  26.263  1.00  0.00     0.198 A 
ATOM     96  C   UNL A   1      44.651  35.418  28.318  1.00  0.00     0.198 A 
ATOM     97  F   UNL A   1      45.241  33.971  30.021  1.00  0.00    -0.203 F 
ATOM     98  F   UNL A   1      43.176  34.806  25.079  1.00  0.00    -0.200 F 
ATOM     99  C   UNL A   1      44.095  35.653  27.079  1.00  0.00     0.200 A 
ATOM    100  F   UNL A   1      45.017  36.437  29.109  1.00  0.00    -0.200 F 
ATOM    101  F   UNL A   1      43.867  36.910  26.679  1.00  0.00    -0.200 F 
ENDBRANCH  68  91
ENDBRANCH  42  43
ENDBRANCH  35  37
ENDBRANCH  34  35
ENDBRANCH  33  34
ENDBRANCH  32  33
ENDBRANCH  31  32
ENDBRANCH  30  31
ENDBRANCH   1  30
TORSDOF 21
ENDMDL
MODEL 3
REMARK VINA RESULT:     -12.8      4.948     10.787
REMARK SMILES Cc1ccc(-c2cc([C@@H](C)C(=O)OCCOCCOCCOC(=O)c3ccc(-c4c5nc(c(-c6c(F)c(F)c(F)c(F)c6F)c6ccc([nH]6)c(-c6c(F)c(F)c(F)c(F)c6F)c6nc(c(-c7c(F)c(F)c(F)c(F)c7F)c7ccc4[nH]7)C=C6)C=C5)cc3)ccc2C[C@H]2CCCC2=O)cc1
REMARK SMILES IDX 17 1 16 2 15 3 14 4 13 5 11 6 12 7 9 8 10 9 8 10 6 11 7 12
REMARK SMILES IDX 90 13 89 14 88 15 5 16 1 17 2 18 3 19 99 20 4 21 98 22 91 23
REMARK SMILES IDX 92 24 93 25 96 26 94 27 95 28 97 29 18 30 19 31 20 32 21 33
REMARK SMILES IDX 22 34 23 35 24 36 25 37 26 38 87 39 27 40 86 41 28 42 29 43
REMARK SMILES IDX 30 44 80 45 31 46 85 47 79 48 81 49 32 50 84 51 78 52 77 53
REMARK SMILES IDX 33 55 65 56 45 57 64 58 46 59 49 60 63 61 82 62 47 63 48 64
REMARK SMILES IDX 62 66 83 67 50 68 34 69 35 70 43 71 36 72 37 73 41 74 44 75
REMARK SMILES IDX 38 76 39 77 42 78 40 79 66 80 67 81 75 82 68 83 69 84 73 85
REMARK SMILES IDX 76 86 70 87 71 88 74 89 72 90 51 91 52 92 60 93 53 94 54 95
REMARK SMILES IDX 58 96 61 97 55 98 56 99 59 100 57 101
REMARK H PARENT 81 54 49 65
REMARK Flexibility Score: inf
ROOT
ATOM      1  C   UNL A   1      34.599  30.076  27.658  1.00  0.00     0.188 C 
ENDROOT
BRANCH   1   2
ATOM      2  O   UNL A   1      33.463  30.342  26.815  1.00  0.00    -0.376 OA
BRANCH   2   3
ATOM      3  C   UNL A   1      32.643  29.385  26.115  1.00  0.00     0.202 C 
BRANCH   3   4
ATOM      4  C   UNL A   1      32.466  28.924  24.448  1.00  0.00     0.261 C 
BRANCH   4   5
ATOM      5  O   UNL A   1      32.674  27.396  23.506  1.00  0.00    -0.463 OA
BRANCH   5   6
ATOM      6  C   UNL A   1      32.213  26.687  22.287  1.00  0.00     0.313 C 
ATOM      7  O   UNL A   1      31.145  26.816  21.667  1.00  0.00    -0.252 OA
BRANCH   6   8
ATOM      8  C   UNL A   1      33.027  25.673  21.562  1.00  0.00     0.126 C 
ATOM      9  C   UNL A   1      32.596  25.569  20.088  1.00  0.00     0.025 C 
BRANCH   8  10
ATOM     10  C   UNL A   1      33.212  24.404  22.269  1.00  0.00    -0.033 A 
ATOM     11  C   UNL A   1      34.526  23.110  23.834  1.00  0.00    -0.015 A 
ATOM     12  C   UNL A   1      34.340  24.260  23.081  1.00  0.00     0.013 A 
ATOM     13  C   UNL A   1      33.522  22.115  23.777  1.00  0.00    -0.039 A 
ATOM     14  C   UNL A   1      32.431  22.266  22.898  1.00  0.00     0.004 A 
ATOM     15  C   UNL A   1      32.269  23.404  22.149  1.00  0.00     0.005 A 
BRANCH  11  16
ATOM     16  C   UNL A   1      35.799  22.972  24.548  1.00  0.00    -0.018 A 
ATOM     17  C   UNL A   1      39.570  22.767  26.640  1.00  0.00     0.044 C 
ATOM     18  C   UNL A   1      38.241  22.794  25.949  1.00  0.00    -0.051 A 
ATOM     19  C   UNL A   1      37.357  23.847  26.199  1.00  0.00     0.004 A 
ATOM     20  C   UNL A   1      37.873  21.797  25.040  1.00  0.00     0.004 A 
ATOM     21  C   UNL A   1      36.146  23.927  25.514  1.00  0.00     0.009 A 
ATOM     22  C   UNL A   1      36.658  21.881  24.352  1.00  0.00     0.009 A 
ENDBRANCH  11  16
BRANCH  13  23
ATOM     23  C   UNL A   1      33.566  20.848  24.602  1.00  0.00     0.047 C 
BRANCH  23  24
ATOM     24  C   UNL A   1      33.062  20.965  26.046  1.00  0.00     0.060 C 
ATOM     25  C   UNL A   1      34.127  21.437  27.031  1.00  0.00     0.012 C 
ATOM     26  C   UNL A   1      31.922  21.939  26.260  1.00  0.00     0.136 C 
ATOM     27  C   UNL A   1      33.458  22.436  27.953  1.00  0.00     0.009 C 
ATOM     28  C   UNL A   1      32.246  23.010  27.253  1.00  0.00     0.076 C 
ATOM     29  O   UNL A   1      30.844  21.879  25.677  1.00  0.00    -0.299 OA
ENDBRANCH  23  24
ENDBRANCH  13  23
ENDBRANCH   8  10
ENDBRANCH   6   8
ENDBRANCH   5   6
ENDBRANCH   4   5
ENDBRANCH   3   4
ENDBRANCH   2   3
ENDBRANCH   1   2
BRANCH   1  30
ATOM     30  C   UNL A   1      35.581  31.156  28.012  1.00  0.00     0.188 C 
BRANCH  30  31
ATOM     31  O   UNL A   1      35.078  32.342  27.468  1.00  0.00    -0.376 OA
BRANCH  31  32
ATOM     32  C   UNL A   1      35.439  33.521  28.119  1.00  0.00     0.202 C 
BRANCH  32  33
ATOM     33  C   UNL A   1      34.307  34.069  29.012  1.00  0.00     0.261 C 
BRANCH  33  34
ATOM     34  O   UNL A   1      34.065  33.359  30.283  1.00  0.00    -0.460 OA
BRANCH  34  35
ATOM     35  C   UNL A   1      34.428  33.807  31.539  1.00  0.00     0.338 C 
ATOM     36  O   UNL A   1      33.615  34.100  32.411  1.00  0.00    -0.246 OA
BRANCH  35  37
ATOM     37  C   UNL A   1      35.892  33.654  31.822  1.00  0.00     0.060 A 
ATOM     38  C   UNL A   1      37.028  34.363  31.387  1.00  0.00     0.016 A 
ATOM     39  C   UNL A   1      36.167  32.579  32.566  1.00  0.00     0.016 A 
ATOM     40  C   UNL A   1      38.380  33.770  31.414  1.00  0.00     0.010 A 
ATOM     41  C   UNL A   1      37.355  31.949  32.267  1.00  0.00     0.010 A 
ATOM     42  C   UNL A   1      38.589  32.422  31.720  1.00  0.00    -0.014 A 
BRANCH  42  43
ATOM     43  C   UNL A   1      40.045  31.477  31.507  1.00  0.00     0.031 A 
ATOM     44  C   UNL A   1      40.399  29.966  30.611  1.00  0.00     0.074 A 
ATOM     45  C   UNL A   1      41.125  31.951  32.156  1.00  0.00     0.049 A 
ATOM     46  N   UNL A   1      41.154  28.983  31.059  1.00  0.00    -0.248 NA
ATOM     47  C   UNL A   1      39.732  29.358  29.330  1.00  0.00     0.031 C 
ATOM     48  C   UNL A   1      42.526  31.624  31.943  1.00  0.00     0.029 A 
ATOM     49  N   UNL A   1      41.167  32.955  33.128  1.00  0.00    -0.354 N 
ATOM     50  C   UNL A   1      41.106  27.954  30.085  1.00  0.00     0.074 A 
ATOM     51  C   UNL A   1      39.872  28.059  29.445  1.00  0.00     0.031 C 
ATOM     52  C   UNL A   1      43.244  32.165  32.947  1.00  0.00     0.029 A 
ATOM     53  C   UNL A   1      42.297  32.701  33.915  1.00  0.00     0.049 A 
ATOM     54  H   UNL A   1      40.527  33.696  33.239  1.00  0.00     0.167 HD
ATOM     55  C   UNL A   1      42.225  27.376  29.553  1.00  0.00     0.037 A 
ATOM     56  C   UNL A   1      42.083  32.298  35.200  1.00  0.00     0.037 A 
ATOM     57  C   UNL A   1      43.323  27.742  30.412  1.00  0.00     0.049 A 
ATOM     58  C   UNL A   1      42.474  30.842  35.367  1.00  0.00     0.074 A 
ATOM     59  C   UNL A   1      44.295  28.720  30.421  1.00  0.00     0.029 A 
ATOM     60  N   UNL A   1      43.177  27.334  31.711  1.00  0.00    -0.354 N 
ATOM     61  N   UNL A   1      42.930  30.101  34.390  1.00  0.00    -0.248 NA
ATOM     62  C   UNL A   1      42.375  30.091  36.613  1.00  0.00     0.031 C 
ATOM     63  C   UNL A   1      44.637  28.953  31.802  1.00  0.00     0.029 A 
ATOM     64  C   UNL A   1      43.883  28.103  32.598  1.00  0.00     0.049 A 
ATOM     65  H   UNL A   1      42.623  26.566  31.979  1.00  0.00     0.167 HD
ATOM     66  C   UNL A   1      43.148  28.831  34.817  1.00  0.00     0.074 A 
ATOM     67  C   UNL A   1      42.776  28.866  36.221  1.00  0.00     0.031 C 
ATOM     68  C   UNL A   1      43.606  27.837  34.004  1.00  0.00     0.037 A 
BRANCH  55  69
ATOM     69  C   UNL A   1      42.362  26.671  28.187  1.00  0.00     0.064 A 
ATOM     70  C   UNL A   1      42.542  25.272  28.176  1.00  0.00     0.173 A 
ATOM     71  C   UNL A   1      42.375  27.237  26.881  1.00  0.00     0.173 A 
ATOM     72  F   UNL A   1      42.498  24.565  29.314  1.00  0.00    -0.203 F 
ATOM     73  C   UNL A   1      42.769  24.531  27.006  1.00  0.00     0.198 A 
ATOM     74  C   UNL A   1      42.634  26.501  25.713  1.00  0.00     0.198 A 
ATOM     75  F   UNL A   1      42.096  28.515  26.626  1.00  0.00    -0.203 F 
ATOM     76  F   UNL A   1      42.929  23.204  27.085  1.00  0.00    -0.200 F 
ATOM     77  C   UNL A   1      42.833  25.147  25.775  1.00  0.00     0.200 A 
ATOM     78  F   UNL A   1      42.674  27.130  24.527  1.00  0.00    -0.200 F 
ATOM     79  F   UNL A   1      43.062  24.441  24.659  1.00  0.00    -0.200 F 
ENDBRANCH  55  69
BRANCH  56  80
ATOM     80  C   UNL A   1      40.941  33.066  35.822  1.00  0.00     0.064 A 
ATOM     81  C   UNL A   1      39.702  32.380  35.955  1.00  0.00     0.173 A 
ATOM     82  C   UNL A   1      41.107  34.200  36.625  1.00  0.00     0.173 A 
ATOM     83  F   UNL A   1      39.455  31.294  35.204  1.00  0.00    -0.203 F 
ATOM     84  C   UNL A   1      38.783  32.691  36.958  1.00  0.00     0.198 A 
ATOM     85  C   UNL A   1      40.144  34.550  37.589  1.00  0.00     0.198 A 
ATOM     86  F   UNL A   1      42.251  34.897  36.591  1.00  0.00    -0.203 F 
ATOM     87  F   UNL A   1      37.733  31.887  37.181  1.00  0.00    -0.200 F 
ATOM     88  C   UNL A   1      39.016  33.765  37.790  1.00  0.00     0.200 A 
ATOM     89  F   UNL A   1      40.388  35.560  38.439  1.00  0.00    -0.200 F 
ATOM     90  F   UNL A   1      38.201  33.996  38.830  1.00  0.00    -0.200 F 
ENDBRANCH  56  80
BRANCH  68  91
ATOM     91  C   UNL A   1      43.797  26.440  34.514  1.00  0.00     0.064 A 
ATOM     92  C   UNL A   1      45.074  25.880  34.555  1.00  0.00     0.173 A 
ATOM     93  C   UNL A   1      42.720  25.583  34.836  1.00  0.00     0.173 A 
ATOM     94  F   UNL A   1      46.151  26.613  34.231  1.00  0.00    -0.203 F 
ATOM     95  C   UNL A   1      45.265  24.552  34.924  1.00  0.00     0.198 A 
ATOM     96  C   UNL A   1      42.904  24.236  35.105  1.00  0.00     0.198 A 
ATOM     97  F   UNL A   1      41.457  26.029  34.925  1.00  0.00    -0.203 F 
ATOM     98  F   UNL A   1      46.510  24.072  35.037  1.00  0.00    -0.200 F 
ATOM     99  C   UNL A   1      44.182  23.724  35.173  1.00  0.00     0.200 A 
ATOM    100  F   UNL A   1      41.839  23.445  35.304  1.00  0.00    -0.200 F 
ATOM    101  F   UNL A   1      44.369  22.438  35.493  1.00  0.00    -0.200 F 
ENDBRANCH  68  91
ENDBRANCH  42  43
ENDBRANCH  35  37
ENDBRANCH  34  35
ENDBRANCH  33  34
ENDBRANCH  32  33
ENDBRANCH  31  32
ENDBRANCH  30  31
ENDBRANCH   1  30
TORSDOF 21
ENDMDL
