MODEL 1
REMARK VINA RESULT:      -8.8      0.000      0.000
REMARK SMILES CCC[C@@](C)(C(=O)OCCOCCOCCOC(=O)c1ccc(-c2c3nc(c(-c4c(F)c(F)c(F)c(F)c4F)c4ccc([nH]4)c(-c4c(F)c(F)c(F)c(F)c4F)c4nc(c(-c5c(F)c(F)c(F)c(F)c5F)c5ccc2[nH]5)C=C4)C=C3)cc1)[C@H]1CCOC1
REMARK SMILES IDX 12 1 11 2 10 3 9 4 8 5 6 6 7 7 4 8 5 9 3 10 2 11 1 12 83 13
REMARK SMILES IDX 84 14 87 15 85 16 86 17 13 18 14 19 15 20 16 21 17 22 18 23
REMARK SMILES IDX 19 24 20 25 21 26 82 27 22 28 81 29 23 30 24 31 25 32 75 33
REMARK SMILES IDX 26 34 80 35 74 36 76 37 27 38 79 39 73 40 72 41 28 43 60 44
REMARK SMILES IDX 40 45 59 46 41 47 44 48 58 49 77 50 42 51 43 52 57 54 78 55
REMARK SMILES IDX 45 56 29 57 30 58 38 59 31 60 32 61 36 62 39 63 33 64 34 65
REMARK SMILES IDX 37 66 35 67 61 68 62 69 70 70 63 71 64 72 68 73 71 74 65 75
REMARK SMILES IDX 66 76 69 77 67 78 46 79 47 80 55 81 48 82 49 83 53 84 56 85
REMARK SMILES IDX 50 86 51 87 54 88 52 89
REMARK H PARENT 76 42 44 53
REMARK Flexibility Score: inf
ROOT
ATOM      1  C   UNL A   1      44.753  20.323  25.008  1.00  0.00     0.188 C 
ENDROOT
BRANCH   1   2
ATOM      2  O   UNL A   1      44.610  21.023  23.782  1.00  0.00    -0.376 OA
BRANCH   2   3
ATOM      3  C   UNL A   1      44.782  22.436  23.783  1.00  0.00     0.202 C 
BRANCH   3   4
ATOM      4  C   UNL A   1      46.130  23.046  24.218  1.00  0.00     0.261 C 
BRANCH   4   5
ATOM      5  O   UNL A   1      46.185  24.490  24.343  1.00  0.00    -0.463 OA
BRANCH   5   6
ATOM      6  C   UNL A   1      46.682  24.968  25.512  1.00  0.00     0.312 C 
ATOM      7  O   UNL A   1      47.844  24.770  25.862  1.00  0.00    -0.252 OA
BRANCH   6   8
ATOM      8  C   UNL A   1      45.690  25.794  26.399  1.00  0.00     0.070 C 
ATOM      9  C   UNL A   1      46.402  25.767  27.779  1.00  0.00     0.024 C 
BRANCH   8  10
ATOM     10  C   UNL A   1      44.270  25.154  26.596  1.00  0.00     0.018 C 
BRANCH  10  11
ATOM     11  C   UNL A   1      44.140  23.750  27.234  1.00  0.00    -0.002 C 
ATOM     12  C   UNL A   1      43.648  23.695  28.673  1.00  0.00     0.004 C 
ENDBRANCH  10  11
ENDBRANCH   8  10
BRANCH   8  13
ATOM     13  C   UNL A   1      45.606  27.282  25.904  1.00  0.00     0.034 C 
ATOM     14  C   UNL A   1      45.797  28.396  26.926  1.00  0.00     0.035 C 
ATOM     15  C   UNL A   1      46.592  27.746  24.841  1.00  0.00     0.165 C 
ATOM     16  C   UNL A   1      46.008  29.626  26.066  1.00  0.00     0.160 C 
ATOM     17  O   UNL A   1      46.478  29.173  24.790  1.00  0.00    -0.381 OA
ENDBRANCH   8  13
ENDBRANCH   6   8
ENDBRANCH   5   6
ENDBRANCH   4   5
ENDBRANCH   3   4
ENDBRANCH   2   3
ENDBRANCH   1   2
BRANCH   1  18
ATOM     18  C   UNL A   1      43.670  19.309  25.421  1.00  0.00     0.188 C 
BRANCH  18  19
ATOM     19  O   UNL A   1      42.388  19.851  25.596  1.00  0.00    -0.376 OA
BRANCH  19  20
ATOM     20  C   UNL A   1      41.873  20.029  26.897  1.00  0.00     0.202 C 
BRANCH  20  21
ATOM     21  C   UNL A   1      41.242  21.351  27.377  1.00  0.00     0.261 C 
BRANCH  21  22
ATOM     22  O   UNL A   1      41.085  22.412  26.423  1.00  0.00    -0.460 OA
BRANCH  22  23
ATOM     23  C   UNL A   1      39.844  22.928  26.280  1.00  0.00     0.338 C 
ATOM     24  O   UNL A   1      38.853  22.348  25.855  1.00  0.00    -0.246 OA
BRANCH  23  25
ATOM     25  C   UNL A   1      39.803  24.259  26.929  1.00  0.00     0.060 A 
ATOM     26  C   UNL A   1      40.479  25.322  26.316  1.00  0.00     0.016 A 
ATOM     27  C   UNL A   1      39.138  24.459  28.141  1.00  0.00     0.016 A 
ATOM     28  C   UNL A   1      40.527  26.575  26.931  1.00  0.00     0.010 A 
ATOM     29  C   UNL A   1      39.213  25.710  28.773  1.00  0.00     0.010 A 
ATOM     30  C   UNL A   1      39.940  26.765  28.188  1.00  0.00    -0.014 A 
BRANCH  30  31
ATOM     31  C   UNL A   1      40.293  27.977  28.975  1.00  0.00     0.031 A 
ATOM     32  C   UNL A   1      41.695  28.093  29.512  1.00  0.00     0.074 A 
ATOM     33  C   UNL A   1      39.426  28.989  29.164  1.00  0.00     0.049 A 
ATOM     34  N   UNL A   1      42.239  29.039  30.235  1.00  0.00    -0.248 NA
ATOM     35  C   UNL A   1      42.609  26.988  29.183  1.00  0.00     0.031 C 
ATOM     36  C   UNL A   1      38.065  29.042  28.645  1.00  0.00     0.029 A 
ATOM     37  N   UNL A   1      39.574  30.176  29.844  1.00  0.00    -0.354 N 
ATOM     38  C   UNL A   1      43.552  28.639  30.452  1.00  0.00     0.074 A 
ATOM     39  C   UNL A   1      43.716  27.356  29.805  1.00  0.00     0.031 C 
ATOM     40  C   UNL A   1      37.495  30.199  29.028  1.00  0.00     0.029 A 
ATOM     41  C   UNL A   1      38.442  30.954  29.849  1.00  0.00     0.049 A 
ATOM     42  H   UNL A   1      40.412  30.443  30.286  1.00  0.00     0.167 HD
ATOM     43  C   UNL A   1      44.532  29.284  31.127  1.00  0.00     0.037 A 
ATOM     44  C   UNL A   1      38.194  32.129  30.462  1.00  0.00     0.037 A 
ATOM     45  C   UNL A   1      44.374  30.558  31.777  1.00  0.00     0.049 A 
ATOM     46  C   UNL A   1      39.285  32.789  31.274  1.00  0.00     0.074 A 
ATOM     47  C   UNL A   1      45.311  31.282  32.494  1.00  0.00     0.029 A 
ATOM     48  N   UNL A   1      43.200  31.296  31.795  1.00  0.00    -0.354 N 
ATOM     49  N   UNL A   1      40.523  32.408  31.473  1.00  0.00    -0.248 NA
ATOM     50  C   UNL A   1      38.940  34.053  31.944  1.00  0.00     0.031 C 
ATOM     51  C   UNL A   1      44.688  32.429  32.997  1.00  0.00     0.029 A 
ATOM     52  C   UNL A   1      43.384  32.457  32.531  1.00  0.00     0.049 A 
ATOM     53  H   UNL A   1      42.361  31.035  31.351  1.00  0.00     0.167 HD
ATOM     54  C   UNL A   1      41.112  33.399  32.251  1.00  0.00     0.074 A 
ATOM     55  C   UNL A   1      40.100  34.408  32.475  1.00  0.00     0.031 C 
ATOM     56  C   UNL A   1      42.377  33.468  32.735  1.00  0.00     0.037 A 
BRANCH  43  57
ATOM     57  C   UNL A   1      45.859  28.592  31.239  1.00  0.00     0.064 A 
ATOM     58  C   UNL A   1      46.939  28.915  30.403  1.00  0.00     0.173 A 
ATOM     59  C   UNL A   1      46.058  27.606  32.217  1.00  0.00     0.173 A 
ATOM     60  F   UNL A   1      46.796  29.837  29.440  1.00  0.00    -0.203 F 
ATOM     61  C   UNL A   1      48.161  28.257  30.526  1.00  0.00     0.198 A 
ATOM     62  C   UNL A   1      47.291  26.975  32.359  1.00  0.00     0.198 A 
ATOM     63  F   UNL A   1      45.059  27.260  33.043  1.00  0.00    -0.203 F 
ATOM     64  F   UNL A   1      49.163  28.545  29.683  1.00  0.00    -0.200 F 
ATOM     65  C   UNL A   1      48.338  27.295  31.509  1.00  0.00     0.200 A 
ATOM     66  F   UNL A   1      47.463  26.054  33.317  1.00  0.00    -0.200 F 
ATOM     67  F   UNL A   1      49.516  26.668  31.631  1.00  0.00    -0.200 F 
ENDBRANCH  43  57
BRANCH  44  68
ATOM     68  C   UNL A   1      36.847  32.761  30.373  1.00  0.00     0.064 A 
ATOM     69  C   UNL A   1      36.468  33.517  29.253  1.00  0.00     0.173 A 
ATOM     70  C   UNL A   1      35.939  32.683  31.440  1.00  0.00     0.173 A 
ATOM     71  F   UNL A   1      37.312  33.652  28.219  1.00  0.00    -0.203 F 
ATOM     72  C   UNL A   1      35.252  34.200  29.221  1.00  0.00     0.198 A 
ATOM     73  C   UNL A   1      34.709  33.335  31.390  1.00  0.00     0.198 A 
ATOM     74  F   UNL A   1      36.252  31.982  32.539  1.00  0.00    -0.203 F 
ATOM     75  F   UNL A   1      34.951  34.976  28.171  1.00  0.00    -0.200 F 
ATOM     76  C   UNL A   1      34.373  34.105  30.288  1.00  0.00     0.200 A 
ATOM     77  F   UNL A   1      33.857  33.233  32.420  1.00  0.00    -0.200 F 
ATOM     78  F   UNL A   1      33.209  34.769  30.261  1.00  0.00    -0.200 F 
ENDBRANCH  44  68
BRANCH  56  79
ATOM     79  C   UNL A   1      42.765  34.706  33.497  1.00  0.00     0.064 A 
ATOM     80  C   UNL A   1      42.685  34.780  34.896  1.00  0.00     0.173 A 
ATOM     81  C   UNL A   1      43.246  35.835  32.812  1.00  0.00     0.173 A 
ATOM     82  F   UNL A   1      42.226  33.735  35.603  1.00  0.00    -0.203 F 
ATOM     83  C   UNL A   1      43.026  35.948  35.575  1.00  0.00     0.198 A 
ATOM     84  C   UNL A   1      43.624  36.987  33.497  1.00  0.00     0.198 A 
ATOM     85  F   UNL A   1      43.358  35.819  31.475  1.00  0.00    -0.203 F 
ATOM     86  F   UNL A   1      42.876  36.016  36.904  1.00  0.00    -0.200 F 
ATOM     87  C   UNL A   1      43.501  37.048  34.876  1.00  0.00     0.200 A 
ATOM     88  F   UNL A   1      44.100  38.041  32.821  1.00  0.00    -0.200 F 
ATOM     89  F   UNL A   1      43.829  38.170  35.530  1.00  0.00    -0.200 F 
ENDBRANCH  56  79
ENDBRANCH  30  31
ENDBRANCH  23  25
ENDBRANCH  22  23
ENDBRANCH  21  22
ENDBRANCH  20  21
ENDBRANCH  19  20
ENDBRANCH  18  19
ENDBRANCH   1  18
TORSDOF 20
ENDMDL
MODEL 2
REMARK VINA RESULT:      -8.7      5.006     10.651
REMARK SMILES CCC[C@@](C)(C(=O)OCCOCCOCCOC(=O)c1ccc(-c2c3nc(c(-c4c(F)c(F)c(F)c(F)c4F)c4ccc([nH]4)c(-c4c(F)c(F)c(F)c(F)c4F)c4nc(c(-c5c(F)c(F)c(F)c(F)c5F)c5ccc2[nH]5)C=C4)C=C3)cc1)[C@H]1CCOC1
REMARK SMILES IDX 12 1 11 2 10 3 9 4 8 5 6 6 7 7 4 8 5 9 3 10 2 11 1 12 83 13
REMARK SMILES IDX 84 14 87 15 85 16 86 17 13 18 14 19 15 20 16 21 17 22 18 23
REMARK SMILES IDX 19 24 20 25 21 26 82 27 22 28 81 29 23 30 24 31 25 32 75 33
REMARK SMILES IDX 26 34 80 35 74 36 76 37 27 38 79 39 73 40 72 41 28 43 60 44
REMARK SMILES IDX 40 45 59 46 41 47 44 48 58 49 77 50 42 51 43 52 57 54 78 55
REMARK SMILES IDX 45 56 29 57 30 58 38 59 31 60 32 61 36 62 39 63 33 64 34 65
REMARK SMILES IDX 37 66 35 67 61 68 62 69 70 70 63 71 64 72 68 73 71 74 65 75
REMARK SMILES IDX 66 76 69 77 67 78 46 79 47 80 55 81 48 82 49 83 53 84 56 85
REMARK SMILES IDX 50 86 51 87 54 88 52 89
REMARK H PARENT 76 42 44 53
REMARK Flexibility Score: inf
ROOT
ATOM      1  C   UNL A   1      29.602  27.824  23.099  1.00  0.00     0.188 C 
ENDROOT
BRANCH   1   2
ATOM      2  O   UNL A   1      29.230  26.989  24.183  1.00  0.00    -0.376 OA
BRANCH   2   3
ATOM      3  C   UNL A   1      30.198  26.087  24.708  1.00  0.00     0.202 C 
BRANCH   3   4
ATOM      4  C   UNL A   1      30.686  26.245  26.163  1.00  0.00     0.261 C 
BRANCH   4   5
ATOM      5  O   UNL A   1      31.723  25.333  26.608  1.00  0.00    -0.463 OA
BRANCH   5   6
ATOM      6  C   UNL A   1      32.973  25.580  26.141  1.00  0.00     0.312 C 
ATOM      7  O   UNL A   1      33.487  26.696  26.196  1.00  0.00    -0.252 OA
BRANCH   6   8
ATOM      8  C   UNL A   1      33.735  24.358  25.527  1.00  0.00     0.070 C 
ATOM      9  C   UNL A   1      33.467  23.253  26.584  1.00  0.00     0.024 C 
BRANCH   8  10
ATOM     10  C   UNL A   1      35.291  24.524  25.410  1.00  0.00     0.018 C 
BRANCH  10  11
ATOM     11  C   UNL A   1      36.228  23.498  26.094  1.00  0.00    -0.002 C 
ATOM     12  C   UNL A   1      36.879  22.459  25.193  1.00  0.00     0.004 C 
ENDBRANCH  10  11
ENDBRANCH   8  10
BRANCH   8  13
ATOM     13  C   UNL A   1      33.082  23.922  24.166  1.00  0.00     0.034 C 
ATOM     14  C   UNL A   1      33.996  23.419  23.055  1.00  0.00     0.035 C 
ATOM     15  C   UNL A   1      32.063  22.791  24.184  1.00  0.00     0.165 C 
ATOM     16  C   UNL A   1      33.033  22.773  22.077  1.00  0.00     0.160 C 
ATOM     17  O   UNL A   1      31.855  22.424  22.814  1.00  0.00    -0.381 OA
ENDBRANCH   8  13
ENDBRANCH   6   8
ENDBRANCH   5   6
ENDBRANCH   4   5
ENDBRANCH   3   4
ENDBRANCH   2   3
ENDBRANCH   1   2
BRANCH   1  18
ATOM     18  C   UNL A   1      30.806  28.770  23.260  1.00  0.00     0.188 C 
BRANCH  18  19
ATOM     19  O   UNL A   1      30.671  29.732  24.273  1.00  0.00    -0.376 OA
BRANCH  19  20
ATOM     20  C   UNL A   1      31.522  29.692  25.397  1.00  0.00     0.202 C 
BRANCH  20  21
ATOM     21  C   UNL A   1      31.778  30.914  26.301  1.00  0.00     0.261 C 
BRANCH  21  22
ATOM     22  O   UNL A   1      32.765  30.795  27.337  1.00  0.00    -0.460 OA
BRANCH  22  23
ATOM     23  C   UNL A   1      33.552  31.870  27.560  1.00  0.00     0.338 C 
ATOM     24  O   UNL A   1      33.194  33.038  27.638  1.00  0.00    -0.246 OA
BRANCH  23  25
ATOM     25  C   UNL A   1      34.910  31.401  27.923  1.00  0.00     0.060 A 
ATOM     26  C   UNL A   1      35.120  30.025  28.081  1.00  0.00     0.016 A 
ATOM     27  C   UNL A   1      35.957  32.299  28.140  1.00  0.00     0.016 A 
ATOM     28  C   UNL A   1      36.365  29.545  28.494  1.00  0.00     0.010 A 
ATOM     29  C   UNL A   1      37.199  31.818  28.585  1.00  0.00     0.010 A 
ATOM     30  C   UNL A   1      37.397  30.440  28.800  1.00  0.00    -0.014 A 
BRANCH  30  31
ATOM     31  C   UNL A   1      38.578  29.949  29.560  1.00  0.00     0.031 A 
ATOM     32  C   UNL A   1      38.780  30.453  30.964  1.00  0.00     0.074 A 
ATOM     33  C   UNL A   1      39.423  29.029  29.059  1.00  0.00     0.049 A 
ATOM     34  N   UNL A   1      39.735  30.187  31.820  1.00  0.00    -0.248 NA
ATOM     35  C   UNL A   1      37.760  31.384  31.473  1.00  0.00     0.031 C 
ATOM     36  C   UNL A   1      39.311  28.406  27.746  1.00  0.00     0.029 A 
ATOM     37  N   UNL A   1      40.547  28.456  29.609  1.00  0.00    -0.354 N 
ATOM     38  C   UNL A   1      39.434  30.922  32.960  1.00  0.00     0.074 A 
ATOM     39  C   UNL A   1      38.223  31.663  32.680  1.00  0.00     0.031 C 
ATOM     40  C   UNL A   1      40.325  27.537  27.585  1.00  0.00     0.029 A 
ATOM     41  C   UNL A   1      41.181  27.570  28.772  1.00  0.00     0.049 A 
ATOM     42  H   UNL A   1      40.867  28.660  30.517  1.00  0.00     0.167 HD
ATOM     43  C   UNL A   1      40.105  30.975  34.135  1.00  0.00     0.037 A 
ATOM     44  C   UNL A   1      42.328  26.882  28.938  1.00  0.00     0.037 A 
ATOM     45  C   UNL A   1      41.312  30.245  34.419  1.00  0.00     0.049 A 
ATOM     46  C   UNL A   1      43.098  27.019  30.232  1.00  0.00     0.074 A 
ATOM     47  C   UNL A   1      42.066  30.245  35.579  1.00  0.00     0.029 A 
ATOM     48  N   UNL A   1      41.946  29.390  33.531  1.00  0.00    -0.354 N 
ATOM     49  N   UNL A   1      42.807  27.712  31.305  1.00  0.00    -0.248 NA
ATOM     50  C   UNL A   1      44.358  26.266  30.337  1.00  0.00     0.031 C 
ATOM     51  C   UNL A   1      43.190  29.438  35.373  1.00  0.00     0.029 A 
ATOM     52  C   UNL A   1      43.096  28.875  34.111  1.00  0.00     0.049 A 
ATOM     53  H   UNL A   1      41.627  29.179  32.624  1.00  0.00     0.167 HD
ATOM     54  C   UNL A   1      43.820  27.449  32.221  1.00  0.00     0.074 A 
ATOM     55  C   UNL A   1      44.726  26.519  31.584  1.00  0.00     0.031 C 
ATOM     56  C   UNL A   1      43.984  27.933  33.478  1.00  0.00     0.037 A 
BRANCH  43  57
ATOM     57  C   UNL A   1      39.568  31.895  35.192  1.00  0.00     0.064 A 
ATOM     58  C   UNL A   1      39.919  33.253  35.245  1.00  0.00     0.173 A 
ATOM     59  C   UNL A   1      38.667  31.413  36.154  1.00  0.00     0.173 A 
ATOM     60  F   UNL A   1      40.791  33.760  34.360  1.00  0.00    -0.203 F 
ATOM     61  C   UNL A   1      39.408  34.086  36.236  1.00  0.00     0.198 A 
ATOM     62  C   UNL A   1      38.133  32.257  37.123  1.00  0.00     0.198 A 
ATOM     63  F   UNL A   1      38.298  30.123  36.149  1.00  0.00    -0.203 F 
ATOM     64  F   UNL A   1      39.797  35.368  36.299  1.00  0.00    -0.200 F 
ATOM     65  C   UNL A   1      38.509  33.590  37.169  1.00  0.00     0.200 A 
ATOM     66  F   UNL A   1      37.255  31.777  38.015  1.00  0.00    -0.200 F 
ATOM     67  F   UNL A   1      38.012  34.395  38.118  1.00  0.00    -0.200 F 
ENDBRANCH  43  57
BRANCH  44  68
ATOM     68  C   UNL A   1      42.858  26.018  27.846  1.00  0.00     0.064 A 
ATOM     69  C   UNL A   1      43.709  26.531  26.855  1.00  0.00     0.173 A 
ATOM     70  C   UNL A   1      42.462  24.677  27.727  1.00  0.00     0.173 A 
ATOM     71  F   UNL A   1      44.092  27.817  26.901  1.00  0.00    -0.203 F 
ATOM     72  C   UNL A   1      44.112  25.750  25.772  1.00  0.00     0.198 A 
ATOM     73  C   UNL A   1      42.895  23.886  26.665  1.00  0.00     0.198 A 
ATOM     74  F   UNL A   1      41.643  24.134  28.639  1.00  0.00    -0.203 F 
ATOM     75  F   UNL A   1      44.862  26.290  24.802  1.00  0.00    -0.200 F 
ATOM     76  C   UNL A   1      43.708  24.427  25.680  1.00  0.00     0.200 A 
ATOM     77  F   UNL A   1      42.511  22.605  26.585  1.00  0.00    -0.200 F 
ATOM     78  F   UNL A   1      44.086  23.679  24.635  1.00  0.00    -0.200 F 
ENDBRANCH  44  68
BRANCH  56  79
ATOM     79  C   UNL A   1      45.149  27.415  34.277  1.00  0.00     0.064 A 
ATOM     80  C   UNL A   1      46.372  28.099  34.347  1.00  0.00     0.173 A 
ATOM     81  C   UNL A   1      45.030  26.218  35.004  1.00  0.00     0.173 A 
ATOM     82  F   UNL A   1      46.547  29.243  33.668  1.00  0.00    -0.203 F 
ATOM     83  C   UNL A   1      47.443  27.583  35.074  1.00  0.00     0.198 A 
ATOM     84  C   UNL A   1      46.089  25.726  35.761  1.00  0.00     0.198 A 
ATOM     85  F   UNL A   1      43.880  25.527  34.985  1.00  0.00    -0.203 F 
ATOM     86  F   UNL A   1      48.622  28.220  35.070  1.00  0.00    -0.200 F 
ATOM     87  C   UNL A   1      47.299  26.400  35.785  1.00  0.00     0.200 A 
ATOM     88  F   UNL A   1      45.941  24.594  36.462  1.00  0.00    -0.200 F 
ATOM     89  F   UNL A   1      48.330  25.907  36.484  1.00  0.00    -0.200 F 
ENDBRANCH  56  79
ENDBRANCH  30  31
ENDBRANCH  23  25
ENDBRANCH  22  23
ENDBRANCH  21  22
ENDBRANCH  20  21
ENDBRANCH  19  20
ENDBRANCH  18  19
ENDBRANCH   1  18
TORSDOF 20
ENDMDL
MODEL 3
REMARK VINA RESULT:      -8.6      4.901      9.193
REMARK SMILES CCC[C@@](C)(C(=O)OCCOCCOCCOC(=O)c1ccc(-c2c3nc(c(-c4c(F)c(F)c(F)c(F)c4F)c4ccc([nH]4)c(-c4c(F)c(F)c(F)c(F)c4F)c4nc(c(-c5c(F)c(F)c(F)c(F)c5F)c5ccc2[nH]5)C=C4)C=C3)cc1)[C@H]1CCOC1
REMARK SMILES IDX 12 1 11 2 10 3 9 4 8 5 6 6 7 7 4 8 5 9 3 10 2 11 1 12 83 13
REMARK SMILES IDX 84 14 87 15 85 16 86 17 13 18 14 19 15 20 16 21 17 22 18 23
REMARK SMILES IDX 19 24 20 25 21 26 82 27 22 28 81 29 23 30 24 31 25 32 75 33
REMARK SMILES IDX 26 34 80 35 74 36 76 37 27 38 79 39 73 40 72 41 28 43 60 44
REMARK SMILES IDX 40 45 59 46 41 47 44 48 58 49 77 50 42 51 43 52 57 54 78 55
REMARK SMILES IDX 45 56 29 57 30 58 38 59 31 60 32 61 36 62 39 63 33 64 34 65
REMARK SMILES IDX 37 66 35 67 61 68 62 69 70 70 63 71 64 72 68 73 71 74 65 75
REMARK SMILES IDX 66 76 69 77 67 78 46 79 47 80 55 81 48 82 49 83 53 84 56 85
REMARK SMILES IDX 50 86 51 87 54 88 52 89
REMARK H PARENT 76 42 44 53
REMARK Flexibility Score: inf
ROOT
ATOM      1  C   UNL A   1      30.597  27.529  22.831  1.00  0.00     0.188 C 
ENDROOT
BRANCH   1   2
ATOM      2  O   UNL A   1      31.764  26.723  22.804  1.00  0.00    -0.376 OA
BRANCH   2   3
ATOM      3  C   UNL A   1      31.708  25.468  22.136  1.00  0.00     0.202 C 
BRANCH   3   4
ATOM      4  C   UNL A   1      32.921  24.517  22.182  1.00  0.00     0.261 C 
BRANCH   4   5
ATOM      5  O   UNL A   1      33.796  24.628  23.333  1.00  0.00    -0.463 OA
BRANCH   5   6
ATOM      6  C   UNL A   1      34.673  23.607  23.516  1.00  0.00     0.312 C 
ATOM      7  O   UNL A   1      35.573  23.363  22.714  1.00  0.00    -0.252 OA
BRANCH   6   8
ATOM      8  C   UNL A   1      34.478  22.752  24.812  1.00  0.00     0.070 C 
ATOM      9  C   UNL A   1      33.708  23.740  25.731  1.00  0.00     0.024 C 
BRANCH   8  10
ATOM     10  C   UNL A   1      35.798  22.353  25.561  1.00  0.00     0.018 C 
BRANCH  10  11
ATOM     11  C   UNL A   1      36.597  23.427  26.338  1.00  0.00    -0.002 C 
ATOM     12  C   UNL A   1      37.878  23.931  25.689  1.00  0.00     0.004 C 
ENDBRANCH  10  11
ENDBRANCH   8  10
BRANCH   8  13
ATOM     13  C   UNL A   1      33.559  21.510  24.528  1.00  0.00     0.034 C 
ATOM     14  C   UNL A   1      34.149  20.117  24.717  1.00  0.00     0.035 C 
ATOM     15  C   UNL A   1      32.282  21.355  25.340  1.00  0.00     0.165 C 
ATOM     16  C   UNL A   1      32.927  19.218  24.710  1.00  0.00     0.160 C 
ATOM     17  O   UNL A   1      31.805  20.029  25.080  1.00  0.00    -0.381 OA
ENDBRANCH   8  13
ENDBRANCH   6   8
ENDBRANCH   5   6
ENDBRANCH   4   5
ENDBRANCH   3   4
ENDBRANCH   2   3
ENDBRANCH   1   2
BRANCH   1  18
ATOM     18  C   UNL A   1      30.739  29.056  22.698  1.00  0.00     0.188 C 
BRANCH  18  19
ATOM     19  O   UNL A   1      30.551  29.774  23.889  1.00  0.00    -0.376 OA
BRANCH  19  20
ATOM     20  C   UNL A   1      31.414  29.558  24.984  1.00  0.00     0.202 C 
BRANCH  20  21
ATOM     21  C   UNL A   1      31.597  30.578  26.124  1.00  0.00     0.261 C 
BRANCH  21  22
ATOM     22  O   UNL A   1      32.723  30.419  27.001  1.00  0.00    -0.460 OA
BRANCH  22  23
ATOM     23  C   UNL A   1      33.400  31.538  27.339  1.00  0.00     0.338 C 
ATOM     24  O   UNL A   1      32.948  32.674  27.414  1.00  0.00    -0.246 OA
BRANCH  23  25
ATOM     25  C   UNL A   1      34.744  31.154  27.828  1.00  0.00     0.060 A 
ATOM     26  C   UNL A   1      34.958  29.826  28.218  1.00  0.00     0.016 A 
ATOM     27  C   UNL A   1      35.775  32.090  27.937  1.00  0.00     0.016 A 
ATOM     28  C   UNL A   1      36.188  29.438  28.754  1.00  0.00     0.010 A 
ATOM     29  C   UNL A   1      37.000  31.706  28.504  1.00  0.00     0.010 A 
ATOM     30  C   UNL A   1      37.200  30.385  28.950  1.00  0.00    -0.014 A 
BRANCH  30  31
ATOM     31  C   UNL A   1      38.352  30.042  29.827  1.00  0.00     0.031 A 
ATOM     32  C   UNL A   1      39.398  29.101  29.292  1.00  0.00     0.074 A 
ATOM     33  C   UNL A   1      38.517  30.592  31.044  1.00  0.00     0.049 A 
ATOM     34  N   UNL A   1      40.481  28.639  29.865  1.00  0.00    -0.248 NA
ATOM     35  C   UNL A   1      39.193  28.617  27.918  1.00  0.00     0.031 C 
ATOM     36  C   UNL A   1      37.623  31.566  31.658  1.00  0.00     0.029 A 
ATOM     37  N   UNL A   1      39.508  30.408  31.981  1.00  0.00    -0.354 N 
ATOM     38  C   UNL A   1      41.079  27.808  28.926  1.00  0.00     0.074 A 
ATOM     39  C   UNL A   1      40.228  27.809  27.756  1.00  0.00     0.031 C 
ATOM     40  C   UNL A   1      38.101  31.895  32.873  1.00  0.00     0.029 A 
ATOM     41  C   UNL A   1      39.317  31.125  33.136  1.00  0.00     0.049 A 
ATOM     42  H   UNL A   1      40.282  29.817  31.836  1.00  0.00     0.167 HD
ATOM     43  C   UNL A   1      42.233  27.108  29.028  1.00  0.00     0.037 A 
ATOM     44  C   UNL A   1      40.031  31.143  34.280  1.00  0.00     0.037 A 
ATOM     45  C   UNL A   1      43.082  27.098  30.190  1.00  0.00     0.049 A 
ATOM     46  C   UNL A   1      41.275  30.291  34.394  1.00  0.00     0.074 A 
ATOM     47  C   UNL A   1      44.266  26.409  30.387  1.00  0.00     0.029 A 
ATOM     48  N   UNL A   1      42.833  27.806  31.357  1.00  0.00    -0.354 N 
ATOM     49  N   UNL A   1      41.836  29.511  33.503  1.00  0.00    -0.248 NA
ATOM     50  C   UNL A   1      41.990  30.332  35.679  1.00  0.00     0.031 C 
ATOM     51  C   UNL A   1      44.703  26.652  31.694  1.00  0.00     0.029 A 
ATOM     52  C   UNL A   1      43.831  27.551  32.285  1.00  0.00     0.049 A 
ATOM     53  H   UNL A   1      42.063  28.401  31.504  1.00  0.00     0.167 HD
ATOM     54  C   UNL A   1      42.983  29.003  34.102  1.00  0.00     0.074 A 
ATOM     55  C   UNL A   1      43.049  29.577  35.428  1.00  0.00     0.031 C 
ATOM     56  C   UNL A   1      43.901  28.140  33.599  1.00  0.00     0.037 A 
BRANCH  43  57
ATOM     57  C   UNL A   1      42.623  26.251  27.860  1.00  0.00     0.064 A 
ATOM     58  C   UNL A   1      42.111  24.956  27.683  1.00  0.00     0.173 A 
ATOM     59  C   UNL A   1      43.505  26.746  26.888  1.00  0.00     0.173 A 
ATOM     60  F   UNL A   1      41.278  24.429  28.593  1.00  0.00    -0.203 F 
ATOM     61  C   UNL A   1      42.489  24.180  26.590  1.00  0.00     0.198 A 
ATOM     62  C   UNL A   1      43.854  25.980  25.779  1.00  0.00     0.198 A 
ATOM     63  F   UNL A   1      44.023  27.978  27.008  1.00  0.00    -0.203 F 
ATOM     64  F   UNL A   1      42.028  22.927  26.468  1.00  0.00    -0.200 F 
ATOM     65  C   UNL A   1      43.353  24.696  25.635  1.00  0.00     0.200 A 
ATOM     66  F   UNL A   1      44.680  26.485  24.851  1.00  0.00    -0.200 F 
ATOM     67  F   UNL A   1      43.710  23.951  24.580  1.00  0.00    -0.200 F 
ENDBRANCH  43  57
BRANCH  44  68
ATOM     68  C   UNL A   1      39.585  31.966  35.439  1.00  0.00     0.064 A 
ATOM     69  C   UNL A   1      38.685  31.462  36.391  1.00  0.00     0.173 A 
ATOM     70  C   UNL A   1      39.990  33.303  35.576  1.00  0.00     0.173 A 
ATOM     71  F   UNL A   1      38.239  30.200  36.288  1.00  0.00    -0.203 F 
ATOM     72  C   UNL A   1      38.182  32.270  37.409  1.00  0.00     0.198 A 
ATOM     73  C   UNL A   1      39.515  34.099  36.616  1.00  0.00     0.198 A 
ATOM     74  F   UNL A   1      40.841  33.841  34.691  1.00  0.00    -0.203 F 
ATOM     75  F   UNL A   1      37.266  31.783  38.257  1.00  0.00    -0.200 F 
ATOM     76  C   UNL A   1      38.600  33.587  37.523  1.00  0.00     0.200 A 
ATOM     77  F   UNL A   1      39.930  35.368  36.729  1.00  0.00    -0.200 F 
ATOM     78  F   UNL A   1      38.110  34.367  38.495  1.00  0.00    -0.200 F 
ENDBRANCH  44  68
BRANCH  56  79
ATOM     79  C   UNL A   1      45.095  27.815  34.455  1.00  0.00     0.064 A 
ATOM     80  C   UNL A   1      45.119  26.706  35.315  1.00  0.00     0.173 A 
ATOM     81  C   UNL A   1      46.245  28.620  34.398  1.00  0.00     0.173 A 
ATOM     82  F   UNL A   1      44.047  25.905  35.416  1.00  0.00    -0.203 F 
ATOM     83  C   UNL A   1      46.228  26.442  36.116  1.00  0.00     0.198 A 
ATOM     84  C   UNL A   1      47.366  28.331  35.171  1.00  0.00     0.198 A 
ATOM     85  F   UNL A   1      46.285  29.686  33.585  1.00  0.00    -0.203 F 
ATOM     86  F   UNL A   1      46.201  25.417  36.978  1.00  0.00    -0.200 F 
ATOM     87  C   UNL A   1      47.353  27.251  36.040  1.00  0.00     0.200 A 
ATOM     88  F   UNL A   1      48.458  29.103  35.081  1.00  0.00    -0.200 F 
ATOM     89  F   UNL A   1      48.418  26.996  36.811  1.00  0.00    -0.200 F 
ENDBRANCH  56  79
ENDBRANCH  30  31
ENDBRANCH  23  25
ENDBRANCH  22  23
ENDBRANCH  21  22
ENDBRANCH  20  21
ENDBRANCH  19  20
ENDBRANCH  18  19
ENDBRANCH   1  18
TORSDOF 20
ENDMDL
