MODEL 1
REMARK VINA RESULT:     -12.8      0.000      0.000
REMARK SMILES COc1cc(-c2ccc(NC(=O)CCC(=O)OCCOCCOCCOC(=O)c3ccc(-c4c5nc(c(-c6c(F)c(F)c(F)c(F)c6F)c6ccc([nH]6)c(-c6c(F)c(F)c(F)c(F)c6F)c6nc(c(-c7c(F)c(F)c(F)c(F)c7F)c7ccc4[nH]7)C=C6)C=C5)cc3)c(OC)c2)ccc1N
REMARK SMILES IDX 20 1 19 2 18 3 17 4 15 5 16 6 14 7 13 8 11 9 10 10 12 12
REMARK SMILES IDX 9 13 6 14 7 15 95 16 8 17 92 18 5 19 3 20 4 21 98 22 97 23
REMARK SMILES IDX 96 24 2 25 1 26 99 27 93 30 94 31 21 32 22 33 23 34 24 35
REMARK SMILES IDX 25 36 26 37 27 38 28 39 29 40 30 41 91 42 31 43 90 44 32 45
REMARK SMILES IDX 33 46 34 47 84 48 35 49 89 50 83 51 85 52 36 53 88 54 82 55
REMARK SMILES IDX 81 56 37 58 69 59 49 60 68 61 50 62 53 63 67 64 86 65 51 66
REMARK SMILES IDX 52 67 66 69 87 70 54 71 38 72 39 73 47 74 40 75 41 76 45 77
REMARK SMILES IDX 48 78 42 79 43 80 46 81 44 82 70 83 71 84 79 85 72 86 73 87
REMARK SMILES IDX 77 88 80 89 74 90 75 91 78 92 76 93 55 94 56 95 64 96 57 97
REMARK SMILES IDX 58 98 62 99 65 100 59 101 60 102 63 103 61 104
REMARK H PARENT 10 11 99 28 99 29 85 57 53 68
REMARK Flexibility Score: inf
ROOT
ATOM      1  O   UNL A   1      37.035  33.081  28.554  1.00  0.00    -0.376 OA
ENDROOT
BRANCH   1   2
ATOM      2  C   UNL A   1      35.655  32.646  28.042  1.00  0.00     0.202 C 
BRANCH   2   3
ATOM      3  C   UNL A   1      34.892  30.643  27.543  1.00  0.00     0.261 C 
BRANCH   3   4
ATOM      4  O   UNL A   1      33.115  30.238  27.655  1.00  0.00    -0.463 OA
BRANCH   4   5
ATOM      5  C   UNL A   1      32.101  29.576  26.857  1.00  0.00     0.306 C 
ATOM      6  O   UNL A   1      31.574  28.559  27.326  1.00  0.00    -0.252 OA
BRANCH   5   7
ATOM      7  C   UNL A   1      31.486  30.139  25.290  1.00  0.00     0.132 C 
BRANCH   7   8
ATOM      8  C   UNL A   1      30.377  29.603  24.037  1.00  0.00     0.112 C 
BRANCH   8   9
ATOM      9  C   UNL A   1      30.337  28.639  22.550  1.00  0.00     0.225 C 
ATOM     10  N   UNL A   1      31.039  27.429  22.214  1.00  0.00    -0.323 N 
ATOM     11  H   UNL A   1      30.818  26.973  21.371  1.00  0.00     0.170 HD
ATOM     12  O   UNL A   1      29.593  29.080  21.656  1.00  0.00    -0.275 OA
BRANCH  10  13
ATOM     13  C   UNL A   1      32.038  26.867  23.051  1.00  0.00     0.083 A 
ATOM     14  C   UNL A   1      33.663  23.674  23.876  1.00  0.00    -0.014 A 
ATOM     15  C   UNL A   1      32.840  24.678  25.137  1.00  0.00     0.011 A 
ATOM     16  C   UNL A   1      33.736  24.376  22.204  1.00  0.00     0.057 A 
ATOM     17  C   UNL A   1      32.008  26.227  24.697  1.00  0.00     0.031 A 
ATOM     18  C   UNL A   1      32.943  26.051  21.900  1.00  0.00     0.142 A 
BRANCH  14  19
ATOM     19  C   UNL A   1      33.904  22.231  24.097  1.00  0.00    -0.014 A 
ATOM     20  C   UNL A   1      33.213  19.883  24.198  1.00  0.00     0.142 A 
ATOM     21  C   UNL A   1      32.940  21.237  23.895  1.00  0.00     0.057 A 
ATOM     22  C   UNL A   1      34.475  19.493  24.686  1.00  0.00     0.074 A 
ATOM     23  C   UNL A   1      35.408  20.495  24.951  1.00  0.00     0.030 A 
ATOM     24  C   UNL A   1      35.139  21.830  24.632  1.00  0.00     0.011 A 
BRANCH  20  25
ATOM     25  O   UNL A   1      32.208  18.997  23.884  1.00  0.00    -0.495 OA
ATOM     26  C   UNL A   1      32.219  18.534  22.533  1.00  0.00     0.278 C 
ENDBRANCH  20  25
BRANCH  22  27
ATOM     27  N   UNL A   1      34.811  18.177  24.995  1.00  0.00    -0.396 N 
ATOM     28  H   UNL A   1      35.736  17.951  25.244  1.00  0.00     0.156 HD
ATOM     29  H   UNL A   1      34.123  17.473  24.964  1.00  0.00     0.156 HD
ENDBRANCH  22  27
ENDBRANCH  14  19
BRANCH  18  30
ATOM     30  O   UNL A   1      33.856  27.377  21.707  1.00  0.00    -0.495 OA
ATOM     31  C   UNL A   1      34.131  28.481  22.583  1.00  0.00     0.278 C 
ENDBRANCH  18  30
ENDBRANCH  10  13
ENDBRANCH   8   9
ENDBRANCH   7   8
ENDBRANCH   5   7
ENDBRANCH   4   5
ENDBRANCH   3   4
ENDBRANCH   2   3
ENDBRANCH   1   2
BRANCH   1  32
ATOM     32  C   UNL A   1      37.058  34.019  29.626  1.00  0.00     0.188 C 
BRANCH  32  33
ATOM     33  C   UNL A   1      36.038  33.898  30.777  1.00  0.00     0.188 C 
BRANCH  33  34
ATOM     34  O   UNL A   1      36.110  34.761  31.894  1.00  0.00    -0.376 OA
BRANCH  34  35
ATOM     35  C   UNL A   1      36.404  34.195  33.161  1.00  0.00     0.202 C 
BRANCH  35  36
ATOM     36  C   UNL A   1      35.604  32.978  33.641  1.00  0.00     0.261 C 
BRANCH  36  37
ATOM     37  O   UNL A   1      36.172  31.709  33.265  1.00  0.00    -0.460 OA
BRANCH  37  38
ATOM     38  C   UNL A   1      37.358  31.382  33.842  1.00  0.00     0.338 C 
ATOM     39  O   UNL A   1      37.624  31.356  35.030  1.00  0.00    -0.246 OA
BRANCH  38  40
ATOM     40  C   UNL A   1      38.260  30.839  32.803  1.00  0.00     0.060 A 
ATOM     41  C   UNL A   1      39.458  30.203  33.183  1.00  0.00     0.016 A 
ATOM     42  C   UNL A   1      37.910  30.941  31.459  1.00  0.00     0.016 A 
ATOM     43  C   UNL A   1      40.303  29.656  32.217  1.00  0.00     0.010 A 
ATOM     44  C   UNL A   1      38.786  30.453  30.491  1.00  0.00     0.010 A 
ATOM     45  C   UNL A   1      39.995  29.834  30.865  1.00  0.00    -0.014 A 
BRANCH  45  46
ATOM     46  C   UNL A   1      41.037  29.640  29.832  1.00  0.00     0.031 A 
ATOM     47  C   UNL A   1      41.110  28.288  29.180  1.00  0.00     0.074 A 
ATOM     48  C   UNL A   1      41.922  30.602  29.528  1.00  0.00     0.049 A 
ATOM     49  N   UNL A   1      42.026  27.789  28.395  1.00  0.00    -0.248 NA
ATOM     50  C   UNL A   1      39.996  27.368  29.470  1.00  0.00     0.031 C 
ATOM     51  C   UNL A   1      41.909  31.964  30.052  1.00  0.00     0.029 A 
ATOM     52  N   UNL A   1      43.031  30.559  28.719  1.00  0.00    -0.354 N 
ATOM     53  C   UNL A   1      41.608  26.496  28.112  1.00  0.00     0.074 A 
ATOM     54  C   UNL A   1      40.370  26.277  28.822  1.00  0.00     0.031 C 
ATOM     55  C   UNL A   1      42.983  32.621  29.578  1.00  0.00     0.029 A 
ATOM     56  C   UNL A   1      43.780  31.708  28.760  1.00  0.00     0.049 A 
ATOM     57  H   UNL A   1      43.265  29.780  28.164  1.00  0.00     0.167 HD
ATOM     58  C   UNL A   1      42.212  25.571  27.330  1.00  0.00     0.037 A 
ATOM     59  C   UNL A   1      44.993  31.966  28.230  1.00  0.00     0.037 A 
ATOM     60  C   UNL A   1      43.458  25.792  26.649  1.00  0.00     0.049 A 
ATOM     61  C   UNL A   1      45.695  30.883  27.444  1.00  0.00     0.074 A 
ATOM     62  C   UNL A   1      44.157  24.928  25.827  1.00  0.00     0.029 A 
ATOM     63  N   UNL A   1      44.201  26.962  26.728  1.00  0.00    -0.354 N 
ATOM     64  N   UNL A   1      45.292  29.666  27.159  1.00  0.00    -0.248 NA
ATOM     65  C   UNL A   1      47.025  31.209  26.908  1.00  0.00     0.031 C 
ATOM     66  C   UNL A   1      45.356  25.549  25.465  1.00  0.00     0.029 A 
ATOM     67  C   UNL A   1      45.368  26.829  25.997  1.00  0.00     0.049 A 
ATOM     68  H   UNL A   1      43.936  27.766  27.230  1.00  0.00     0.167 HD
ATOM     69  C   UNL A   1      46.300  29.098  26.387  1.00  0.00     0.074 A 
ATOM     70  C   UNL A   1      47.324  30.109  26.232  1.00  0.00     0.031 C 
ATOM     71  C   UNL A   1      46.373  27.853  25.852  1.00  0.00     0.037 A 
BRANCH  58  72
ATOM     72  C   UNL A   1      41.554  24.228  27.208  1.00  0.00     0.064 A 
ATOM     73  C   UNL A   1      42.096  23.078  27.804  1.00  0.00     0.173 A 
ATOM     74  C   UNL A   1      40.346  24.093  26.506  1.00  0.00     0.173 A 
ATOM     75  F   UNL A   1      43.260  23.148  28.469  1.00  0.00    -0.203 F 
ATOM     76  C   UNL A   1      41.467  21.843  27.683  1.00  0.00     0.198 A 
ATOM     77  C   UNL A   1      39.702  22.862  26.416  1.00  0.00     0.198 A 
ATOM     78  F   UNL A   1      39.785  25.158  25.913  1.00  0.00    -0.203 F 
ATOM     79  F   UNL A   1      42.030  20.750  28.217  1.00  0.00    -0.200 F 
ATOM     80  C   UNL A   1      40.266  21.737  26.998  1.00  0.00     0.200 A 
ATOM     81  F   UNL A   1      38.534  22.765  25.765  1.00  0.00    -0.200 F 
ATOM     82  F   UNL A   1      39.654  20.550  26.892  1.00  0.00    -0.200 F 
ENDBRANCH  58  72
BRANCH  59  83
ATOM     83  C   UNL A   1      45.644  33.288  28.447  1.00  0.00     0.064 A 
ATOM     84  C   UNL A   1      46.567  33.477  29.485  1.00  0.00     0.173 A 
ATOM     85  C   UNL A   1      45.326  34.400  27.652  1.00  0.00     0.173 A 
ATOM     86  F   UNL A   1      46.881  32.455  30.295  1.00  0.00    -0.203 F 
ATOM     87  C   UNL A   1      47.123  34.730  29.738  1.00  0.00     0.198 A 
ATOM     88  C   UNL A   1      45.911  35.644  27.883  1.00  0.00     0.198 A 
ATOM     89  F   UNL A   1      44.443  34.282  26.649  1.00  0.00    -0.203 F 
ATOM     90  F   UNL A   1      47.949  34.894  30.781  1.00  0.00    -0.200 F 
ATOM     91  C   UNL A   1      46.799  35.811  28.934  1.00  0.00     0.200 A 
ATOM     92  F   UNL A   1      45.600  36.684  27.097  1.00  0.00    -0.200 F 
ATOM     93  F   UNL A   1      47.329  37.016  29.181  1.00  0.00    -0.200 F 
ENDBRANCH  59  83
BRANCH  71  94
ATOM     94  C   UNL A   1      47.579  27.527  25.015  1.00  0.00     0.064 A 
ATOM     95  C   UNL A   1      48.715  26.910  25.562  1.00  0.00     0.173 A 
ATOM     96  C   UNL A   1      47.579  27.793  23.637  1.00  0.00     0.173 A 
ATOM     97  F   UNL A   1      48.772  26.642  26.875  1.00  0.00    -0.203 F 
ATOM     98  C   UNL A   1      49.816  26.604  24.766  1.00  0.00     0.198 A 
ATOM     99  C   UNL A   1      48.665  27.449  22.837  1.00  0.00     0.198 A 
ATOM    100  F   UNL A   1      46.514  28.369  23.059  1.00  0.00    -0.203 F 
ATOM    101  F   UNL A   1      50.913  26.069  25.320  1.00  0.00    -0.200 F 
ATOM    102  C   UNL A   1      49.788  26.865  23.405  1.00  0.00     0.200 A 
ATOM    103  F   UNL A   1      48.624  27.681  21.518  1.00  0.00    -0.200 F 
ATOM    104  F   UNL A   1      50.844  26.560  22.639  1.00  0.00    -0.200 F 
ENDBRANCH  71  94
ENDBRANCH  45  46
ENDBRANCH  38  40
ENDBRANCH  37  38
ENDBRANCH  36  37
ENDBRANCH  35  36
ENDBRANCH  34  35
ENDBRANCH  33  34
ENDBRANCH  32  33
ENDBRANCH   1  32
TORSDOF 24
ENDMDL
MODEL 2
REMARK VINA RESULT:     -11.4      1.833      7.967
REMARK SMILES COc1cc(-c2ccc(NC(=O)CCC(=O)OCCOCCOCCOC(=O)c3ccc(-c4c5nc(c(-c6c(F)c(F)c(F)c(F)c6F)c6ccc([nH]6)c(-c6c(F)c(F)c(F)c(F)c6F)c6nc(c(-c7c(F)c(F)c(F)c(F)c7F)c7ccc4[nH]7)C=C6)C=C5)cc3)c(OC)c2)ccc1N
REMARK SMILES IDX 20 1 19 2 18 3 17 4 15 5 16 6 14 7 13 8 11 9 10 10 12 12
REMARK SMILES IDX 9 13 6 14 7 15 95 16 8 17 92 18 5 19 3 20 4 21 98 22 97 23
REMARK SMILES IDX 96 24 2 25 1 26 99 27 93 30 94 31 21 32 22 33 23 34 24 35
REMARK SMILES IDX 25 36 26 37 27 38 28 39 29 40 30 41 91 42 31 43 90 44 32 45
REMARK SMILES IDX 33 46 34 47 84 48 35 49 89 50 83 51 85 52 36 53 88 54 82 55
REMARK SMILES IDX 81 56 37 58 69 59 49 60 68 61 50 62 53 63 67 64 86 65 51 66
REMARK SMILES IDX 52 67 66 69 87 70 54 71 38 72 39 73 47 74 40 75 41 76 45 77
REMARK SMILES IDX 48 78 42 79 43 80 46 81 44 82 70 83 71 84 79 85 72 86 73 87
REMARK SMILES IDX 77 88 80 89 74 90 75 91 78 92 76 93 55 94 56 95 64 96 57 97
REMARK SMILES IDX 58 98 62 99 65 100 59 101 60 102 63 103 61 104
REMARK H PARENT 10 11 99 28 99 29 85 57 53 68
REMARK Flexibility Score: inf
ROOT
ATOM      1  O   UNL A   1      35.383  31.896  29.393  1.00  0.00    -0.376 OA
ENDROOT
BRANCH   1   2
ATOM      2  C   UNL A   1      35.510  31.282  27.992  1.00  0.00     0.202 C 
BRANCH   2   3
ATOM      3  C   UNL A   1      34.086  30.058  26.843  1.00  0.00     0.261 C 
BRANCH   3   4
ATOM      4  O   UNL A   1      34.245  28.243  26.742  1.00  0.00    -0.463 OA
BRANCH   4   5
ATOM      5  C   UNL A   1      33.416  27.098  26.413  1.00  0.00     0.306 C 
ATOM      6  O   UNL A   1      32.239  27.114  26.793  1.00  0.00    -0.252 OA
BRANCH   5   7
ATOM      7  C   UNL A   1      33.919  25.702  25.440  1.00  0.00     0.132 C 
BRANCH   7   8
ATOM      8  C   UNL A   1      34.992  24.317  25.573  1.00  0.00     0.112 C 
BRANCH   8   9
ATOM      9  C   UNL A   1      34.964  22.578  25.915  1.00  0.00     0.225 C 
ATOM     10  N   UNL A   1      33.854  21.664  25.969  1.00  0.00    -0.323 N 
ATOM     11  H   UNL A   1      34.037  20.704  26.077  1.00  0.00     0.170 HD
ATOM     12  O   UNL A   1      36.074  22.070  26.154  1.00  0.00    -0.275 OA
BRANCH  10  13
ATOM     13  C   UNL A   1      32.505  22.092  25.870  1.00  0.00     0.083 A 
ATOM     14  C   UNL A   1      30.413  24.776  24.478  1.00  0.00    -0.014 A 
ATOM     15  C   UNL A   1      30.404  24.379  26.243  1.00  0.00     0.011 A 
ATOM     16  C   UNL A   1      31.429  23.711  23.416  1.00  0.00     0.057 A 
ATOM     17  C   UNL A   1      31.477  23.080  26.913  1.00  0.00     0.031 A 
ATOM     18  C   UNL A   1      32.401  22.317  24.212  1.00  0.00     0.142 A 
BRANCH  14  19
ATOM     19  C   UNL A   1      29.950  26.096  23.997  1.00  0.00    -0.014 A 
ATOM     20  C   UNL A   1      30.272  28.455  23.417  1.00  0.00     0.142 A 
ATOM     21  C   UNL A   1      30.792  27.198  23.806  1.00  0.00     0.057 A 
ATOM     22  C   UNL A   1      28.895  28.625  23.182  1.00  0.00     0.074 A 
ATOM     23  C   UNL A   1      28.052  27.543  23.441  1.00  0.00     0.030 A 
ATOM     24  C   UNL A   1      28.573  26.298  23.808  1.00  0.00     0.011 A 
BRANCH  20  25
ATOM     25  O   UNL A   1      31.212  29.434  23.191  1.00  0.00    -0.495 OA
ATOM     26  C   UNL A   1      32.352  29.009  22.445  1.00  0.00     0.278 C 
ENDBRANCH  20  25
BRANCH  22  27
ATOM     27  N   UNL A   1      28.321  29.831  22.788  1.00  0.00    -0.396 N 
ATOM     28  H   UNL A   1      27.763  29.869  21.978  1.00  0.00     0.156 HD
ATOM     29  H   UNL A   1      28.473  30.645  23.320  1.00  0.00     0.156 HD
ENDBRANCH  22  27
ENDBRANCH  14  19
BRANCH  18  30
ATOM     30  O   UNL A   1      31.921  20.776  24.054  1.00  0.00    -0.495 OA
ATOM     31  C   UNL A   1      32.469  19.679  23.308  1.00  0.00     0.278 C 
ENDBRANCH  18  30
ENDBRANCH  10  13
ENDBRANCH   8   9
ENDBRANCH   7   8
ENDBRANCH   5   7
ENDBRANCH   4   5
ENDBRANCH   3   4
ENDBRANCH   2   3
ENDBRANCH   1   2
BRANCH   1  32
ATOM     32  C   UNL A   1      35.654  33.290  29.511  1.00  0.00     0.188 C 
BRANCH  32  33
ATOM     33  C   UNL A   1      34.743  34.182  30.379  1.00  0.00     0.188 C 
BRANCH  33  34
ATOM     34  O   UNL A   1      33.914  33.610  31.371  1.00  0.00    -0.376 OA
BRANCH  34  35
ATOM     35  C   UNL A   1      34.528  32.863  32.409  1.00  0.00     0.202 C 
BRANCH  35  36
ATOM     36  C   UNL A   1      35.471  33.575  33.387  1.00  0.00     0.261 C 
BRANCH  36  37
ATOM     37  O   UNL A   1      36.293  32.688  34.169  1.00  0.00    -0.460 OA
BRANCH  37  38
ATOM     38  C   UNL A   1      37.587  33.064  34.350  1.00  0.00     0.338 C 
ATOM     39  O   UNL A   1      38.017  33.887  35.138  1.00  0.00    -0.246 OA
BRANCH  38  40
ATOM     40  C   UNL A   1      38.461  32.155  33.578  1.00  0.00     0.060 A 
ATOM     41  C   UNL A   1      39.290  31.241  34.256  1.00  0.00     0.016 A 
ATOM     42  C   UNL A   1      38.442  32.194  32.186  1.00  0.00     0.016 A 
ATOM     43  C   UNL A   1      40.094  30.353  33.541  1.00  0.00     0.010 A 
ATOM     44  C   UNL A   1      39.296  31.353  31.473  1.00  0.00     0.010 A 
ATOM     45  C   UNL A   1      40.141  30.451  32.148  1.00  0.00    -0.014 A 
BRANCH  45  46
ATOM     46  C   UNL A   1      41.254  29.830  31.395  1.00  0.00     0.031 A 
ATOM     47  C   UNL A   1      42.538  30.606  31.310  1.00  0.00     0.074 A 
ATOM     48  C   UNL A   1      41.115  28.655  30.761  1.00  0.00     0.049 A 
ATOM     49  N   UNL A   1      43.594  30.394  30.571  1.00  0.00    -0.248 NA
ATOM     50  C   UNL A   1      42.633  31.798  32.171  1.00  0.00     0.031 C 
ATOM     51  C   UNL A   1      39.939  27.791  30.825  1.00  0.00     0.029 A 
ATOM     52  N   UNL A   1      41.970  28.004  29.908  1.00  0.00    -0.354 N 
ATOM     53  C   UNL A   1      44.469  31.431  30.867  1.00  0.00     0.074 A 
ATOM     54  C   UNL A   1      43.817  32.282  31.835  1.00  0.00     0.031 C 
ATOM     55  C   UNL A   1      40.133  26.737  30.013  1.00  0.00     0.029 A 
ATOM     56  C   UNL A   1      41.423  26.881  29.339  1.00  0.00     0.049 A 
ATOM     57  H   UNL A   1      42.887  28.313  29.722  1.00  0.00     0.167 HD
ATOM     58  C   UNL A   1      45.706  31.653  30.367  1.00  0.00     0.037 A 
ATOM     59  C   UNL A   1      41.901  26.093  28.355  1.00  0.00     0.037 A 
ATOM     60  C   UNL A   1      46.334  30.811  29.385  1.00  0.00     0.049 A 
ATOM     61  C   UNL A   1      43.242  26.419  27.740  1.00  0.00     0.074 A 
ATOM     62  C   UNL A   1      47.585  30.938  28.813  1.00  0.00     0.029 A 
ATOM     63  N   UNL A   1      45.742  29.692  28.816  1.00  0.00    -0.354 N 
ATOM     64  N   UNL A   1      44.079  27.387  28.033  1.00  0.00    -0.248 NA
ATOM     65  C   UNL A   1      43.705  25.542  26.654  1.00  0.00     0.031 C 
ATOM     66  C   UNL A   1      47.725  29.937  27.848  1.00  0.00     0.029 A 
ATOM     67  C   UNL A   1      46.592  29.138  27.873  1.00  0.00     0.049 A 
ATOM     68  H   UNL A   1      44.852  29.343  29.048  1.00  0.00     0.167 HD
ATOM     69  C   UNL A   1      45.175  27.216  27.194  1.00  0.00     0.074 A 
ATOM     70  C   UNL A   1      44.905  26.040  26.394  1.00  0.00     0.031 C 
ATOM     71  C   UNL A   1      46.305  27.962  27.092  1.00  0.00     0.037 A 
BRANCH  58  72
ATOM     72  C   UNL A   1      46.439  32.873  30.844  1.00  0.00     0.064 A 
ATOM     73  C   UNL A   1      47.255  32.849  31.986  1.00  0.00     0.173 A 
ATOM     74  C   UNL A   1      46.347  34.077  30.131  1.00  0.00     0.173 A 
ATOM     75  F   UNL A   1      47.362  31.728  32.717  1.00  0.00    -0.203 F 
ATOM     76  C   UNL A   1      47.930  33.990  32.408  1.00  0.00     0.198 A 
ATOM     77  C   UNL A   1      47.051  35.207  30.537  1.00  0.00     0.198 A 
ATOM     78  F   UNL A   1      45.578  34.157  29.034  1.00  0.00    -0.203 F 
ATOM     79  F   UNL A   1      48.662  33.957  33.531  1.00  0.00    -0.200 F 
ATOM     80  C   UNL A   1      47.836  35.165  31.678  1.00  0.00     0.200 A 
ATOM     81  F   UNL A   1      46.969  36.338  29.821  1.00  0.00    -0.200 F 
ATOM     82  F   UNL A   1      48.497  36.260  32.078  1.00  0.00    -0.200 F 
ENDBRANCH  58  72
BRANCH  59  83
ATOM     83  C   UNL A   1      41.099  24.940  27.858  1.00  0.00     0.064 A 
ATOM     84  C   UNL A   1      41.406  23.628  28.246  1.00  0.00     0.173 A 
ATOM     85  C   UNL A   1      40.041  25.118  26.953  1.00  0.00     0.173 A 
ATOM     86  F   UNL A   1      42.428  23.399  29.083  1.00  0.00    -0.203 F 
ATOM     87  C   UNL A   1      40.706  22.539  27.727  1.00  0.00     0.198 A 
ATOM     88  C   UNL A   1      39.319  24.031  26.464  1.00  0.00     0.198 A 
ATOM     89  F   UNL A   1      39.708  26.350  26.541  1.00  0.00    -0.203 F 
ATOM     90  F   UNL A   1      41.067  21.293  28.063  1.00  0.00    -0.200 F 
ATOM     91  C   UNL A   1      39.660  22.742  26.841  1.00  0.00     0.200 A 
ATOM     92  F   UNL A   1      38.303  24.235  25.613  1.00  0.00    -0.200 F 
ATOM     93  F   UNL A   1      38.992  21.696  26.338  1.00  0.00    -0.200 F 
ENDBRANCH  59  83
BRANCH  71  94
ATOM     94  C   UNL A   1      47.351  27.506  26.114  1.00  0.00     0.064 A 
ATOM     95  C   UNL A   1      47.307  27.870  24.759  1.00  0.00     0.173 A 
ATOM     96  C   UNL A   1      48.440  26.734  26.549  1.00  0.00     0.173 A 
ATOM     97  F   UNL A   1      46.284  28.599  24.288  1.00  0.00    -0.203 F 
ATOM     98  C   UNL A   1      48.295  27.448  23.873  1.00  0.00     0.198 A 
ATOM     99  C   UNL A   1      49.447  26.348  25.668  1.00  0.00     0.198 A 
ATOM    100  F   UNL A   1      48.540  26.370  27.836  1.00  0.00    -0.203 F 
ATOM    101  F   UNL A   1      48.201  27.759  22.572  1.00  0.00    -0.200 F 
ATOM    102  C   UNL A   1      49.367  26.696  24.328  1.00  0.00     0.200 A 
ATOM    103  F   UNL A   1      50.493  25.642  26.116  1.00  0.00    -0.200 F 
ATOM    104  F   UNL A   1      50.322  26.301  23.475  1.00  0.00    -0.200 F 
ENDBRANCH  71  94
ENDBRANCH  45  46
ENDBRANCH  38  40
ENDBRANCH  37  38
ENDBRANCH  36  37
ENDBRANCH  35  36
ENDBRANCH  34  35
ENDBRANCH  33  34
ENDBRANCH  32  33
ENDBRANCH   1  32
TORSDOF 24
ENDMDL
MODEL 3
REMARK VINA RESULT:     -11.1      5.179     11.658
REMARK SMILES COc1cc(-c2ccc(NC(=O)CCC(=O)OCCOCCOCCOC(=O)c3ccc(-c4c5nc(c(-c6c(F)c(F)c(F)c(F)c6F)c6ccc([nH]6)c(-c6c(F)c(F)c(F)c(F)c6F)c6nc(c(-c7c(F)c(F)c(F)c(F)c7F)c7ccc4[nH]7)C=C6)C=C5)cc3)c(OC)c2)ccc1N
REMARK SMILES IDX 20 1 19 2 18 3 17 4 15 5 16 6 14 7 13 8 11 9 10 10 12 12
REMARK SMILES IDX 9 13 6 14 7 15 95 16 8 17 92 18 5 19 3 20 4 21 98 22 97 23
REMARK SMILES IDX 96 24 2 25 1 26 99 27 93 30 94 31 21 32 22 33 23 34 24 35
REMARK SMILES IDX 25 36 26 37 27 38 28 39 29 40 30 41 91 42 31 43 90 44 32 45
REMARK SMILES IDX 33 46 34 47 84 48 35 49 89 50 83 51 85 52 36 53 88 54 82 55
REMARK SMILES IDX 81 56 37 58 69 59 49 60 68 61 50 62 53 63 67 64 86 65 51 66
REMARK SMILES IDX 52 67 66 69 87 70 54 71 38 72 39 73 47 74 40 75 41 76 45 77
REMARK SMILES IDX 48 78 42 79 43 80 46 81 44 82 70 83 71 84 79 85 72 86 73 87
REMARK SMILES IDX 77 88 80 89 74 90 75 91 78 92 76 93 55 94 56 95 64 96 57 97
REMARK SMILES IDX 58 98 62 99 65 100 59 101 60 102 63 103 61 104
REMARK H PARENT 10 11 99 28 99 29 85 57 53 68
REMARK Flexibility Score: inf
ROOT
ATOM      1  O   UNL A   1      34.400  25.511  24.527  1.00  0.00    -0.376 OA
ENDROOT
BRANCH   1   2
ATOM      2  C   UNL A   1      34.172  23.999  24.409  1.00  0.00     0.202 C 
BRANCH   2   3
ATOM      3  C   UNL A   1      35.605  22.332  24.536  1.00  0.00     0.261 C 
BRANCH   3   4
ATOM      4  O   UNL A   1      36.920  22.292  25.801  1.00  0.00    -0.463 OA
BRANCH   4   5
ATOM      5  C   UNL A   1      38.330  21.962  25.890  1.00  0.00     0.306 C 
ATOM      6  O   UNL A   1      38.712  20.923  25.337  1.00  0.00    -0.252 OA
BRANCH   5   7
ATOM      7  C   UNL A   1      39.580  22.961  26.657  1.00  0.00     0.132 C 
BRANCH   7   8
ATOM      8  C   UNL A   1      41.326  23.157  26.612  1.00  0.00     0.112 C 
BRANCH   8   9
ATOM      9  C   UNL A   1      42.666  23.330  25.465  1.00  0.00     0.225 C 
ATOM     10  N   UNL A   1      43.457  24.486  25.135  1.00  0.00    -0.323 N 
ATOM     11  H   UNL A   1      44.232  24.373  24.540  1.00  0.00     0.170 HD
ATOM     12  O   UNL A   1      42.963  22.295  24.842  1.00  0.00    -0.275 OA
BRANCH  10  13
ATOM     13  C   UNL A   1      43.165  25.781  25.635  1.00  0.00     0.083 A 
ATOM     14  C   UNL A   1      41.575  27.502  28.468  1.00  0.00    -0.014 A 
ATOM     15  C   UNL A   1      41.042  27.783  26.762  1.00  0.00     0.011 A 
ATOM     16  C   UNL A   1      43.005  26.407  28.698  1.00  0.00     0.057 A 
ATOM     17  C   UNL A   1      41.812  26.890  25.385  1.00  0.00     0.031 A 
ATOM     18  C   UNL A   1      43.797  25.636  27.180  1.00  0.00     0.142 A 
BRANCH  14  19
ATOM     19  C   UNL A   1      40.680  27.818  29.602  1.00  0.00    -0.014 A 
ATOM     20  C   UNL A   1      40.117  28.947  31.702  1.00  0.00     0.142 A 
ATOM     21  C   UNL A   1      40.984  28.748  30.603  1.00  0.00     0.057 A 
ATOM     22  C   UNL A   1      38.908  28.234  31.807  1.00  0.00     0.074 A 
ATOM     23  C   UNL A   1      38.644  27.258  30.845  1.00  0.00     0.030 A 
ATOM     24  C   UNL A   1      39.495  27.079  29.750  1.00  0.00     0.011 A 
BRANCH  20  25
ATOM     25  O   UNL A   1      40.495  29.943  32.574  1.00  0.00    -0.495 OA
ATOM     26  C   UNL A   1      41.510  30.816  32.083  1.00  0.00     0.278 C 
ENDBRANCH  20  25
BRANCH  22  27
ATOM     27  N   UNL A   1      38.007  28.390  32.857  1.00  0.00    -0.396 N 
ATOM     28  H   UNL A   1      37.039  28.349  32.684  1.00  0.00     0.156 HD
ATOM     29  H   UNL A   1      38.339  28.540  33.772  1.00  0.00     0.156 HD
ENDBRANCH  22  27
ENDBRANCH  14  19
BRANCH  18  30
ATOM     30  O   UNL A   1      45.223  26.175  26.626  1.00  0.00    -0.495 OA
ATOM     31  C   UNL A   1      45.682  27.496  26.303  1.00  0.00     0.278 C 
ENDBRANCH  18  30
ENDBRANCH  10  13
ENDBRANCH   8   9
ENDBRANCH   7   8
ENDBRANCH   5   7
ENDBRANCH   4   5
ENDBRANCH   3   4
ENDBRANCH   2   3
ENDBRANCH   1   2
BRANCH   1  32
ATOM     32  C   UNL A   1      33.555  26.221  25.428  1.00  0.00     0.188 C 
BRANCH  32  33
ATOM     33  C   UNL A   1      33.062  27.638  25.069  1.00  0.00     0.188 C 
BRANCH  33  34
ATOM     34  O   UNL A   1      32.660  28.536  26.083  1.00  0.00    -0.376 OA
BRANCH  34  35
ATOM     35  C   UNL A   1      32.773  29.927  25.831  1.00  0.00     0.202 C 
BRANCH  35  36
ATOM     36  C   UNL A   1      32.395  30.922  26.935  1.00  0.00     0.261 C 
BRANCH  36  37
ATOM     37  O   UNL A   1      33.514  31.416  27.696  1.00  0.00    -0.460 OA
BRANCH  37  38
ATOM     38  C   UNL A   1      33.468  32.725  28.060  1.00  0.00     0.338 C 
ATOM     39  O   UNL A   1      32.657  33.564  27.712  1.00  0.00    -0.246 OA
BRANCH  38  40
ATOM     40  C   UNL A   1      34.451  32.954  29.141  1.00  0.00     0.060 A 
ATOM     41  C   UNL A   1      34.527  34.219  29.758  1.00  0.00     0.016 A 
ATOM     42  C   UNL A   1      35.277  31.914  29.558  1.00  0.00     0.016 A 
ATOM     43  C   UNL A   1      35.424  34.441  30.802  1.00  0.00     0.010 A 
ATOM     44  C   UNL A   1      36.219  32.156  30.556  1.00  0.00     0.010 A 
ATOM     45  C   UNL A   1      36.314  33.424  31.162  1.00  0.00    -0.014 A 
BRANCH  45  46
ATOM     46  C   UNL A   1      37.522  33.739  31.956  1.00  0.00     0.031 A 
ATOM     47  C   UNL A   1      38.792  33.996  31.196  1.00  0.00     0.074 A 
ATOM     48  C   UNL A   1      37.510  33.737  33.298  1.00  0.00     0.049 A 
ATOM     49  N   UNL A   1      40.018  34.107  31.632  1.00  0.00    -0.248 NA
ATOM     50  C   UNL A   1      38.656  34.133  29.735  1.00  0.00     0.031 C 
ATOM     51  C   UNL A   1      36.327  33.560  34.136  1.00  0.00     0.029 A 
ATOM     52  N   UNL A   1      38.545  33.858  34.192  1.00  0.00    -0.354 N 
ATOM     53  C   UNL A   1      40.798  34.309  30.501  1.00  0.00     0.074 A 
ATOM     54  C   UNL A   1      39.915  34.287  29.358  1.00  0.00     0.031 C 
ATOM     55  C   UNL A   1      36.708  33.549  35.426  1.00  0.00     0.029 A 
ATOM     56  C   UNL A   1      38.164  33.668  35.496  1.00  0.00     0.049 A 
ATOM     57  H   UNL A   1      39.470  34.062  33.923  1.00  0.00     0.167 HD
ATOM     58  C   UNL A   1      42.136  34.492  30.427  1.00  0.00     0.037 A 
ATOM     59  C   UNL A   1      38.918  33.559  36.608  1.00  0.00     0.037 A 
ATOM     60  C   UNL A   1      43.008  34.487  31.569  1.00  0.00     0.049 A 
ATOM     61  C   UNL A   1      40.421  33.666  36.488  1.00  0.00     0.074 A 
ATOM     62  C   UNL A   1      44.377  34.668  31.611  1.00  0.00     0.029 A 
ATOM     63  N   UNL A   1      42.590  34.272  32.875  1.00  0.00    -0.354 N 
ATOM     64  N   UNL A   1      41.158  33.877  35.422  1.00  0.00    -0.248 NA
ATOM     65  C   UNL A   1      41.198  33.516  37.727  1.00  0.00     0.031 C 
ATOM     66  C   UNL A   1      44.798  34.493  32.933  1.00  0.00     0.029 A 
ATOM     67  C   UNL A   1      43.682  34.281  33.727  1.00  0.00     0.049 A 
ATOM     68  H   UNL A   1      41.657  34.133  33.155  1.00  0.00     0.167 HD
ATOM     69  C   UNL A   1      42.475  33.918  35.867  1.00  0.00     0.074 A 
ATOM     70  C   UNL A   1      42.435  33.728  37.301  1.00  0.00     0.031 C 
ATOM     71  C   UNL A   1      43.617  34.096  35.155  1.00  0.00     0.037 A 
BRANCH  58  72
ATOM     72  C   UNL A   1      42.739  34.669  29.063  1.00  0.00     0.064 A 
ATOM     73  C   UNL A   1      42.746  35.913  28.411  1.00  0.00     0.173 A 
ATOM     74  C   UNL A   1      43.342  33.584  28.410  1.00  0.00     0.173 A 
ATOM     75  F   UNL A   1      42.163  36.978  28.983  1.00  0.00    -0.203 F 
ATOM     76  C   UNL A   1      43.314  36.056  27.149  1.00  0.00     0.198 A 
ATOM     77  C   UNL A   1      43.940  33.740  27.163  1.00  0.00     0.198 A 
ATOM     78  F   UNL A   1      43.360  32.372  28.986  1.00  0.00    -0.203 F 
ATOM     79  F   UNL A   1      43.264  37.241  26.524  1.00  0.00    -0.200 F 
ATOM     80  C   UNL A   1      43.920  34.973  26.530  1.00  0.00     0.200 A 
ATOM     81  F   UNL A   1      44.536  32.695  26.573  1.00  0.00    -0.200 F 
ATOM     82  F   UNL A   1      44.477  35.115  25.320  1.00  0.00    -0.200 F 
ENDBRANCH  58  72
BRANCH  59  83
ATOM     83  C   UNL A   1      38.281  33.302  37.930  1.00  0.00     0.064 A 
ATOM     84  C   UNL A   1      38.257  34.290  38.924  1.00  0.00     0.173 A 
ATOM     85  C   UNL A   1      37.721  32.053  38.242  1.00  0.00     0.173 A 
ATOM     86  F   UNL A   1      38.808  35.490  38.689  1.00  0.00    -0.203 F 
ATOM     87  C   UNL A   1      37.727  34.030  40.188  1.00  0.00     0.198 A 
ATOM     88  C   UNL A   1      37.158  31.807  39.494  1.00  0.00     0.198 A 
ATOM     89  F   UNL A   1      37.722  31.068  37.332  1.00  0.00    -0.203 F 
ATOM     90  F   UNL A   1      37.782  34.972  41.140  1.00  0.00    -0.200 F 
ATOM     91  C   UNL A   1      37.173  32.792  40.469  1.00  0.00     0.200 A 
ATOM     92  F   UNL A   1      36.616  30.610  39.757  1.00  0.00    -0.200 F 
ATOM     93  F   UNL A   1      36.669  32.540  41.685  1.00  0.00    -0.200 F 
ENDBRANCH  59  83
BRANCH  71  94
ATOM     94  C   UNL A   1      44.912  34.138  35.919  1.00  0.00     0.064 A 
ATOM     95  C   UNL A   1      45.424  35.335  36.442  1.00  0.00     0.173 A 
ATOM     96  C   UNL A   1      45.625  32.956  36.171  1.00  0.00     0.173 A 
ATOM     97  F   UNL A   1      44.788  36.496  36.224  1.00  0.00    -0.203 F 
ATOM     98  C   UNL A   1      46.618  35.349  37.159  1.00  0.00     0.198 A 
ATOM     99  C   UNL A   1      46.797  32.968  36.922  1.00  0.00     0.198 A 
ATOM    100  F   UNL A   1      45.173  31.781  35.705  1.00  0.00    -0.203 F 
ATOM    101  F   UNL A   1      47.119  36.512  37.600  1.00  0.00    -0.200 F 
ATOM    102  C   UNL A   1      47.299  34.167  37.406  1.00  0.00     0.200 A 
ATOM    103  F   UNL A   1      47.438  31.820  37.178  1.00  0.00    -0.200 F 
ATOM    104  F   UNL A   1      48.441  34.181  38.105  1.00  0.00    -0.200 F 
ENDBRANCH  71  94
ENDBRANCH  45  46
ENDBRANCH  38  40
ENDBRANCH  37  38
ENDBRANCH  36  37
ENDBRANCH  35  36
ENDBRANCH  34  35
ENDBRANCH  33  34
ENDBRANCH  32  33
ENDBRANCH   1  32
TORSDOF 24
ENDMDL
