MODEL 1
REMARK VINA RESULT:     -10.6      0.000      0.000
REMARK SMILES CC(C)CC[C@@H](C(=O)OCCOCCOCCOC(=O)c1ccc(-c2c3nc(c(-c4c(F)c(F)c(F)c(F)c4F)c4ccc([nH]4)c(-c4c(F)c(F)c(F)c(F)c4F)c4nc(c(-c5c(F)c(F)c(F)c(F)c5F)c5ccc2[nH]5)C=C4)C=C3)cc1)c1ccc(Br)cc1
REMARK SMILES IDX 13 1 12 2 11 3 10 4 9 5 7 6 8 7 6 8 5 9 4 10 2 11 1 12 3 13
REMARK SMILES IDX 84 14 85 15 90 16 86 17 89 18 87 19 88 20 14 21 15 22 16 23
REMARK SMILES IDX 17 24 18 25 19 26 20 27 21 28 22 29 83 30 23 31 82 32 24 33
REMARK SMILES IDX 25 34 26 35 76 36 27 37 81 38 75 39 77 40 28 41 80 42 74 43
REMARK SMILES IDX 73 44 29 46 61 47 41 48 60 49 42 50 45 51 59 52 78 53 43 54
REMARK SMILES IDX 44 55 58 57 79 58 46 59 30 60 31 61 39 62 32 63 33 64 37 65
REMARK SMILES IDX 40 66 34 67 35 68 38 69 36 70 62 71 63 72 71 73 64 74 65 75
REMARK SMILES IDX 69 76 72 77 66 78 67 79 70 80 68 81 47 82 48 83 56 84 49 85
REMARK SMILES IDX 50 86 54 87 57 88 51 89 52 90 55 91 53 92
REMARK H PARENT 77 45 45 56
REMARK Flexibility Score: inf
ROOT
ATOM      1  C   UNL A   1      32.320  26.749  22.529  1.00  0.00     0.188 C 
ENDROOT
BRANCH   1   2
ATOM      2  O   UNL A   1      31.694  25.470  22.557  1.00  0.00    -0.376 OA
BRANCH   2   3
ATOM      3  C   UNL A   1      30.473  25.374  23.295  1.00  0.00     0.202 C 
BRANCH   3   4
ATOM      4  C   UNL A   1      30.588  24.943  24.769  1.00  0.00     0.261 C 
BRANCH   4   5
ATOM      5  O   UNL A   1      31.943  24.928  25.277  1.00  0.00    -0.463 OA
BRANCH   5   6
ATOM      6  C   UNL A   1      32.192  24.084  26.316  1.00  0.00     0.313 C 
ATOM      7  O   UNL A   1      31.416  23.920  27.254  1.00  0.00    -0.252 OA
BRANCH   6   8
ATOM      8  C   UNL A   1      33.515  23.292  26.197  1.00  0.00     0.129 C 
BRANCH   8   9
ATOM      9  C   UNL A   1      34.775  24.071  25.751  1.00  0.00     0.020 C 
BRANCH   9  10
ATOM     10  C   UNL A   1      36.145  23.424  25.971  1.00  0.00     0.004 C 
BRANCH  10  11
ATOM     11  C   UNL A   1      36.906  23.010  24.706  1.00  0.00    -0.017 C 
ATOM     12  C   UNL A   1      37.274  21.527  24.722  1.00  0.00     0.007 C 
ATOM     13  C   UNL A   1      36.050  23.328  23.477  1.00  0.00     0.007 C 
ENDBRANCH  10  11
ENDBRANCH   9  10
ENDBRANCH   8   9
BRANCH   8  14
ATOM     14  C   UNL A   1      33.319  21.968  25.421  1.00  0.00    -0.034 A 
ATOM     15  C   UNL A   1      33.664  20.703  25.933  1.00  0.00     0.006 A 
ATOM     16  C   UNL A   1      32.728  22.007  24.144  1.00  0.00     0.006 A 
ATOM     17  C   UNL A   1      33.425  19.533  25.200  1.00  0.00     0.016 A 
ATOM     18  C   UNL A   1      32.502  20.841  23.404  1.00  0.00     0.016 A 
ATOM     19  C   UNL A   1      32.850  19.607  23.937  1.00  0.00     0.017 A 
ATOM     20  Br  UNL A   1      32.532  18.027  22.950  1.00  0.00    -0.051 Br
ENDBRANCH   8  14
ENDBRANCH   6   8
ENDBRANCH   5   6
ENDBRANCH   4   5
ENDBRANCH   3   4
ENDBRANCH   2   3
ENDBRANCH   1   2
BRANCH   1  21
ATOM     21  C   UNL A   1      31.374  27.944  22.377  1.00  0.00     0.188 C 
BRANCH  21  22
ATOM     22  O   UNL A   1      31.534  28.965  23.339  1.00  0.00    -0.376 OA
BRANCH  22  23
ATOM     23  C   UNL A   1      31.433  28.647  24.724  1.00  0.00     0.202 C 
BRANCH  23  24
ATOM     24  C   UNL A   1      31.693  29.710  25.823  1.00  0.00     0.261 C 
BRANCH  24  25
ATOM     25  O   UNL A   1      33.027  30.238  25.963  1.00  0.00    -0.460 OA
BRANCH  25  26
ATOM     26  C   UNL A   1      33.224  31.219  26.871  1.00  0.00     0.338 C 
ATOM     27  O   UNL A   1      32.386  32.017  27.263  1.00  0.00    -0.246 OA
BRANCH  26  28
ATOM     28  C   UNL A   1      34.539  30.991  27.541  1.00  0.00     0.060 A 
ATOM     29  C   UNL A   1      34.921  29.664  27.787  1.00  0.00     0.016 A 
ATOM     30  C   UNL A   1      35.423  32.030  27.854  1.00  0.00     0.016 A 
ATOM     31  C   UNL A   1      36.158  29.373  28.372  1.00  0.00     0.010 A 
ATOM     32  C   UNL A   1      36.653  31.738  28.468  1.00  0.00     0.010 A 
ATOM     33  C   UNL A   1      37.016  30.410  28.757  1.00  0.00    -0.014 A 
BRANCH  33  34
ATOM     34  C   UNL A   1      38.150  30.123  29.679  1.00  0.00     0.031 A 
ATOM     35  C   UNL A   1      39.239  29.208  29.182  1.00  0.00     0.074 A 
ATOM     36  C   UNL A   1      38.262  30.678  30.901  1.00  0.00     0.049 A 
ATOM     37  N   UNL A   1      40.271  28.710  29.812  1.00  0.00    -0.248 NA
ATOM     38  C   UNL A   1      39.147  28.806  27.768  1.00  0.00     0.031 C 
ATOM     39  C   UNL A   1      37.347  31.658  31.478  1.00  0.00     0.029 A 
ATOM     40  N   UNL A   1      39.205  30.480  31.884  1.00  0.00    -0.354 N 
ATOM     41  C   UNL A   1      40.941  27.929  28.878  1.00  0.00     0.074 A 
ATOM     42  C   UNL A   1      40.191  28.003  27.644  1.00  0.00     0.031 C 
ATOM     43  C   UNL A   1      37.765  31.965  32.721  1.00  0.00     0.029 A 
ATOM     44  C   UNL A   1      38.949  31.168  33.046  1.00  0.00     0.049 A 
ATOM     45  H   UNL A   1      39.993  29.900  31.765  1.00  0.00     0.167 HD
ATOM     46  C   UNL A   1      42.081  27.214  29.032  1.00  0.00     0.037 A 
ATOM     47  C   UNL A   1      39.576  31.129  34.240  1.00  0.00     0.037 A 
ATOM     48  C   UNL A   1      42.825  27.127  30.258  1.00  0.00     0.049 A 
ATOM     49  C   UNL A   1      40.772  30.218  34.426  1.00  0.00     0.074 A 
ATOM     50  C   UNL A   1      43.971  26.397  30.521  1.00  0.00     0.029 A 
ATOM     51  N   UNL A   1      42.497  27.793  31.429  1.00  0.00    -0.354 N 
ATOM     52  N   UNL A   1      41.383  29.457  33.551  1.00  0.00    -0.248 NA
ATOM     53  C   UNL A   1      41.359  30.158  35.774  1.00  0.00     0.031 C 
ATOM     54  C   UNL A   1      44.304  26.575  31.867  1.00  0.00     0.029 A 
ATOM     55  C   UNL A   1      43.407  27.472  32.423  1.00  0.00     0.049 A 
ATOM     56  H   UNL A   1      41.731  28.402  31.538  1.00  0.00     0.167 HD
ATOM     57  C   UNL A   1      42.447  28.870  34.227  1.00  0.00     0.074 A 
ATOM     58  C   UNL A   1      42.404  29.364  35.586  1.00  0.00     0.031 C 
ATOM     59  C   UNL A   1      43.378  27.999  33.764  1.00  0.00     0.037 A 
BRANCH  46  60
ATOM     60  C   UNL A   1      42.565  26.427  27.849  1.00  0.00     0.064 A 
ATOM     61  C   UNL A   1      43.534  26.933  26.970  1.00  0.00     0.173 A 
ATOM     62  C   UNL A   1      42.071  25.136  27.610  1.00  0.00     0.173 A 
ATOM     63  F   UNL A   1      44.022  28.170  27.143  1.00  0.00    -0.203 F 
ATOM     64  C   UNL A   1      43.971  26.184  25.880  1.00  0.00     0.198 A 
ATOM     65  C   UNL A   1      42.535  24.378  26.539  1.00  0.00     0.198 A 
ATOM     66  F   UNL A   1      41.143  24.605  28.422  1.00  0.00    -0.203 F 
ATOM     67  F   UNL A   1      44.858  26.709  25.024  1.00  0.00    -0.200 F 
ATOM     68  C   UNL A   1      43.478  24.905  25.671  1.00  0.00     0.200 A 
ATOM     69  F   UNL A   1      42.066  23.137  26.346  1.00  0.00    -0.200 F 
ATOM     70  F   UNL A   1      43.907  24.184  24.626  1.00  0.00    -0.200 F 
ENDBRANCH  46  60
BRANCH  47  71
ATOM     71  C   UNL A   1      39.075  31.934  35.392  1.00  0.00     0.064 A 
ATOM     72  C   UNL A   1      39.462  33.272  35.566  1.00  0.00     0.173 A 
ATOM     73  C   UNL A   1      38.270  31.361  36.388  1.00  0.00     0.173 A 
ATOM     74  F   UNL A   1      40.265  33.860  34.665  1.00  0.00    -0.203 F 
ATOM     75  C   UNL A   1      39.093  33.990  36.703  1.00  0.00     0.198 A 
ATOM     76  C   UNL A   1      37.871  32.090  37.506  1.00  0.00     0.198 A 
ATOM     77  F   UNL A   1      37.884  30.080  36.284  1.00  0.00    -0.203 F 
ATOM     78  F   UNL A   1      39.542  35.240  36.879  1.00  0.00    -0.200 F 
ATOM     79  C   UNL A   1      38.294  33.400  37.670  1.00  0.00     0.200 A 
ATOM     80  F   UNL A   1      37.095  31.516  38.436  1.00  0.00    -0.200 F 
ATOM     81  F   UNL A   1      37.950  34.086  38.768  1.00  0.00    -0.200 F 
ENDBRANCH  47  71
BRANCH  59  82
ATOM     82  C   UNL A   1      44.478  27.576  34.698  1.00  0.00     0.064 A 
ATOM     83  C   UNL A   1      45.664  28.312  34.837  1.00  0.00     0.173 A 
ATOM     84  C   UNL A   1      44.309  26.447  35.517  1.00  0.00     0.173 A 
ATOM     85  F   UNL A   1      45.881  29.392  34.074  1.00  0.00    -0.203 F 
ATOM     86  C   UNL A   1      46.649  27.919  35.741  1.00  0.00     0.198 A 
ATOM     87  C   UNL A   1      45.280  26.079  36.445  1.00  0.00     0.198 A 
ATOM     88  F   UNL A   1      43.189  25.713  35.435  1.00  0.00    -0.203 F 
ATOM     89  F   UNL A   1      47.793  28.612  35.825  1.00  0.00    -0.200 F 
ATOM     90  C   UNL A   1      46.451  26.810  36.552  1.00  0.00     0.200 A 
ATOM     91  F   UNL A   1      45.077  25.019  37.239  1.00  0.00    -0.200 F 
ATOM     92  F   UNL A   1      47.393  26.445  37.432  1.00  0.00    -0.200 F 
ENDBRANCH  59  82
ENDBRANCH  33  34
ENDBRANCH  26  28
ENDBRANCH  25  26
ENDBRANCH  24  25
ENDBRANCH  23  24
ENDBRANCH  22  23
ENDBRANCH  21  22
ENDBRANCH   1  21
TORSDOF 21
ENDMDL
MODEL 2
REMARK VINA RESULT:     -10.5      4.472      9.993
REMARK SMILES CC(C)CC[C@@H](C(=O)OCCOCCOCCOC(=O)c1ccc(-c2c3nc(c(-c4c(F)c(F)c(F)c(F)c4F)c4ccc([nH]4)c(-c4c(F)c(F)c(F)c(F)c4F)c4nc(c(-c5c(F)c(F)c(F)c(F)c5F)c5ccc2[nH]5)C=C4)C=C3)cc1)c1ccc(Br)cc1
REMARK SMILES IDX 13 1 12 2 11 3 10 4 9 5 7 6 8 7 6 8 5 9 4 10 2 11 1 12 3 13
REMARK SMILES IDX 84 14 85 15 90 16 86 17 89 18 87 19 88 20 14 21 15 22 16 23
REMARK SMILES IDX 17 24 18 25 19 26 20 27 21 28 22 29 83 30 23 31 82 32 24 33
REMARK SMILES IDX 25 34 26 35 76 36 27 37 81 38 75 39 77 40 28 41 80 42 74 43
REMARK SMILES IDX 73 44 29 46 61 47 41 48 60 49 42 50 45 51 59 52 78 53 43 54
REMARK SMILES IDX 44 55 58 57 79 58 46 59 30 60 31 61 39 62 32 63 33 64 37 65
REMARK SMILES IDX 40 66 34 67 35 68 38 69 36 70 62 71 63 72 71 73 64 74 65 75
REMARK SMILES IDX 69 76 72 77 66 78 67 79 70 80 68 81 47 82 48 83 56 84 49 85
REMARK SMILES IDX 50 86 54 87 57 88 51 89 52 90 55 91 53 92
REMARK H PARENT 77 45 45 56
REMARK Flexibility Score: inf
ROOT
ATOM      1  C   UNL A   1      33.444  21.814  26.713  1.00  0.00     0.188 C 
ENDROOT
BRANCH   1   2
ATOM      2  O   UNL A   1      33.081  23.158  26.415  1.00  0.00    -0.376 OA
BRANCH   2   3
ATOM      3  C   UNL A   1      31.688  23.472  26.479  1.00  0.00     0.202 C 
BRANCH   3   4
ATOM      4  C   UNL A   1      30.977  23.741  25.140  1.00  0.00     0.261 C 
BRANCH   4   5
ATOM      5  O   UNL A   1      30.310  25.024  25.073  1.00  0.00    -0.463 OA
BRANCH   5   6
ATOM      6  C   UNL A   1      30.619  25.814  24.008  1.00  0.00     0.313 C 
ATOM      7  O   UNL A   1      30.924  25.371  22.904  1.00  0.00    -0.252 OA
BRANCH   6   8
ATOM      8  C   UNL A   1      30.497  27.332  24.279  1.00  0.00     0.129 C 
BRANCH   8   9
ATOM      9  C   UNL A   1      30.121  28.242  23.086  1.00  0.00     0.020 C 
BRANCH   9  10
ATOM     10  C   UNL A   1      29.598  29.650  23.382  1.00  0.00     0.004 C 
BRANCH  10  11
ATOM     11  C   UNL A   1      28.185  29.963  22.875  1.00  0.00    -0.017 C 
ATOM     12  C   UNL A   1      27.216  28.813  23.145  1.00  0.00     0.007 C 
ATOM     13  C   UNL A   1      27.683  31.245  23.544  1.00  0.00     0.007 C 
ENDBRANCH  10  11
ENDBRANCH   9  10
ENDBRANCH   8   9
BRANCH   8  14
ATOM     14  C   UNL A   1      31.703  27.866  25.087  1.00  0.00    -0.034 A 
ATOM     15  C   UNL A   1      32.965  28.131  24.524  1.00  0.00     0.006 A 
ATOM     16  C   UNL A   1      31.536  28.146  26.457  1.00  0.00     0.006 A 
ATOM     17  C   UNL A   1      34.010  28.655  25.298  1.00  0.00     0.016 A 
ATOM     18  C   UNL A   1      32.583  28.654  27.235  1.00  0.00     0.016 A 
ATOM     19  C   UNL A   1      33.816  28.909  26.651  1.00  0.00     0.017 A 
ATOM     20  Br  UNL A   1      35.228  29.612  27.692  1.00  0.00    -0.051 Br
ENDBRANCH   8  14
ENDBRANCH   6   8
ENDBRANCH   5   6
ENDBRANCH   4   5
ENDBRANCH   3   4
ENDBRANCH   2   3
ENDBRANCH   1   2
BRANCH   1  21
ATOM     21  C   UNL A   1      33.342  20.828  25.545  1.00  0.00     0.188 C 
BRANCH  21  22
ATOM     22  O   UNL A   1      34.421  20.859  24.635  1.00  0.00    -0.376 OA
BRANCH  22  23
ATOM     23  C   UNL A   1      35.667  20.274  25.003  1.00  0.00     0.202 C 
BRANCH  23  24
ATOM     24  C   UNL A   1      37.015  20.986  24.716  1.00  0.00     0.261 C 
BRANCH  24  25
ATOM     25  O   UNL A   1      37.635  21.732  25.781  1.00  0.00    -0.460 OA
BRANCH  25  26
ATOM     26  C   UNL A   1      38.913  21.430  26.101  1.00  0.00     0.338 C 
ATOM     27  O   UNL A   1      39.515  20.415  25.783  1.00  0.00    -0.246 OA
BRANCH  26  28
ATOM     28  C   UNL A   1      39.570  22.654  26.647  1.00  0.00     0.060 A 
ATOM     29  C   UNL A   1      39.057  23.899  26.252  1.00  0.00     0.016 A 
ATOM     30  C   UNL A   1      40.609  22.607  27.585  1.00  0.00     0.016 A 
ATOM     31  C   UNL A   1      39.595  25.087  26.756  1.00  0.00     0.010 A 
ATOM     32  C   UNL A   1      41.166  23.801  28.069  1.00  0.00     0.010 A 
ATOM     33  C   UNL A   1      40.682  25.050  27.637  1.00  0.00    -0.014 A 
BRANCH  33  34
ATOM     34  C   UNL A   1      41.465  26.291  27.893  1.00  0.00     0.031 A 
ATOM     35  C   UNL A   1      40.787  27.396  28.661  1.00  0.00     0.074 A 
ATOM     36  C   UNL A   1      42.748  26.442  27.514  1.00  0.00     0.049 A 
ATOM     37  N   UNL A   1      41.196  28.610  28.923  1.00  0.00    -0.248 NA
ATOM     38  C   UNL A   1      39.460  27.076  29.214  1.00  0.00     0.031 C 
ATOM     39  C   UNL A   1      43.568  25.427  26.859  1.00  0.00     0.029 A 
ATOM     40  N   UNL A   1      43.585  27.529  27.626  1.00  0.00    -0.354 N 
ATOM     41  C   UNL A   1      40.175  29.201  29.657  1.00  0.00     0.074 A 
ATOM     42  C   UNL A   1      39.120  28.220  29.785  1.00  0.00     0.031 C 
ATOM     43  C   UNL A   1      44.786  25.945  26.612  1.00  0.00     0.029 A 
ATOM     44  C   UNL A   1      44.818  27.341  27.047  1.00  0.00     0.049 A 
ATOM     45  H   UNL A   1      43.326  28.364  28.079  1.00  0.00     0.167 HD
ATOM     46  C   UNL A   1      40.119  30.448  30.182  1.00  0.00     0.037 A 
ATOM     47  C   UNL A   1      45.836  28.208  26.861  1.00  0.00     0.037 A 
ATOM     48  C   UNL A   1      41.160  31.431  30.050  1.00  0.00     0.049 A 
ATOM     49  C   UNL A   1      45.696  29.638  27.340  1.00  0.00     0.074 A 
ATOM     50  C   UNL A   1      41.177  32.735  30.514  1.00  0.00     0.029 A 
ATOM     51  N   UNL A   1      42.368  31.219  29.405  1.00  0.00    -0.354 N 
ATOM     52  N   UNL A   1      44.717  30.202  28.005  1.00  0.00    -0.248 NA
ATOM     53  C   UNL A   1      46.806  30.555  27.032  1.00  0.00     0.031 C 
ATOM     54  C   UNL A   1      42.373  33.329  30.100  1.00  0.00     0.029 A 
ATOM     55  C   UNL A   1      43.129  32.376  29.440  1.00  0.00     0.049 A 
ATOM     56  H   UNL A   1      42.643  30.373  28.983  1.00  0.00     0.167 HD
ATOM     57  C   UNL A   1      45.113  31.515  28.235  1.00  0.00     0.074 A 
ATOM     58  C   UNL A   1      46.423  31.667  27.642  1.00  0.00     0.031 C 
ATOM     59  C   UNL A   1      44.450  32.507  28.879  1.00  0.00     0.037 A 
BRANCH  46  60
ATOM     60  C   UNL A   1      38.864  30.835  30.909  1.00  0.00     0.064 A 
ATOM     61  C   UNL A   1      38.731  30.669  32.295  1.00  0.00     0.173 A 
ATOM     62  C   UNL A   1      37.790  31.404  30.209  1.00  0.00     0.173 A 
ATOM     63  F   UNL A   1      39.722  30.110  33.007  1.00  0.00    -0.203 F 
ATOM     64  C   UNL A   1      37.559  31.037  32.950  1.00  0.00     0.198 A 
ATOM     65  C   UNL A   1      36.633  31.801  30.871  1.00  0.00     0.198 A 
ATOM     66  F   UNL A   1      37.867  31.585  28.881  1.00  0.00    -0.203 F 
ATOM     67  F   UNL A   1      37.434  30.821  34.266  1.00  0.00    -0.200 F 
ATOM     68  C   UNL A   1      36.515  31.611  32.240  1.00  0.00     0.200 A 
ATOM     69  F   UNL A   1      35.631  32.367  30.185  1.00  0.00    -0.200 F 
ATOM     70  F   UNL A   1      35.391  31.972  32.873  1.00  0.00    -0.200 F 
ENDBRANCH  46  60
BRANCH  47  71
ATOM     71  C   UNL A   1      47.075  27.787  26.145  1.00  0.00     0.064 A 
ATOM     72  C   UNL A   1      47.133  27.768  24.743  1.00  0.00     0.173 A 
ATOM     73  C   UNL A   1      48.196  27.312  26.843  1.00  0.00     0.173 A 
ATOM     74  F   UNL A   1      46.075  28.172  24.023  1.00  0.00    -0.203 F 
ATOM     75  C   UNL A   1      48.245  27.262  24.071  1.00  0.00     0.198 A 
ATOM     76  C   UNL A   1      49.322  26.840  26.171  1.00  0.00     0.198 A 
ATOM     77  F   UNL A   1      48.192  27.290  28.185  1.00  0.00    -0.203 F 
ATOM     78  F   UNL A   1      48.239  27.183  22.733  1.00  0.00    -0.200 F 
ATOM     79  C   UNL A   1      49.341  26.802  24.786  1.00  0.00     0.200 A 
ATOM     80  F   UNL A   1      50.380  26.402  26.867  1.00  0.00    -0.200 F 
ATOM     81  F   UNL A   1      50.404  26.304  24.140  1.00  0.00    -0.200 F 
ENDBRANCH  47  71
BRANCH  59  82
ATOM     82  C   UNL A   1      45.149  33.827  29.055  1.00  0.00     0.064 A 
ATOM     83  C   UNL A   1      45.979  34.092  30.154  1.00  0.00     0.173 A 
ATOM     84  C   UNL A   1      45.035  34.819  28.067  1.00  0.00     0.173 A 
ATOM     85  F   UNL A   1      46.117  33.184  31.131  1.00  0.00    -0.203 F 
ATOM     86  C   UNL A   1      46.647  35.309  30.270  1.00  0.00     0.198 A 
ATOM     87  C   UNL A   1      45.732  36.020  28.169  1.00  0.00     0.198 A 
ATOM     88  F   UNL A   1      44.264  34.614  26.988  1.00  0.00    -0.203 F 
ATOM     89  F   UNL A   1      47.399  35.558  31.351  1.00  0.00    -0.200 F 
ATOM     90  C   UNL A   1      46.532  36.267  29.272  1.00  0.00     0.200 A 
ATOM     91  F   UNL A   1      45.634  36.934  27.194  1.00  0.00    -0.200 F 
ATOM     92  F   UNL A   1      47.189  37.431  29.378  1.00  0.00    -0.200 F 
ENDBRANCH  59  82
ENDBRANCH  33  34
ENDBRANCH  26  28
ENDBRANCH  25  26
ENDBRANCH  24  25
ENDBRANCH  23  24
ENDBRANCH  22  23
ENDBRANCH  21  22
ENDBRANCH   1  21
TORSDOF 21
ENDMDL
MODEL 3
REMARK VINA RESULT:     -10.2      1.274      2.399
REMARK SMILES CC(C)CC[C@@H](C(=O)OCCOCCOCCOC(=O)c1ccc(-c2c3nc(c(-c4c(F)c(F)c(F)c(F)c4F)c4ccc([nH]4)c(-c4c(F)c(F)c(F)c(F)c4F)c4nc(c(-c5c(F)c(F)c(F)c(F)c5F)c5ccc2[nH]5)C=C4)C=C3)cc1)c1ccc(Br)cc1
REMARK SMILES IDX 13 1 12 2 11 3 10 4 9 5 7 6 8 7 6 8 5 9 4 10 2 11 1 12 3 13
REMARK SMILES IDX 84 14 85 15 90 16 86 17 89 18 87 19 88 20 14 21 15 22 16 23
REMARK SMILES IDX 17 24 18 25 19 26 20 27 21 28 22 29 83 30 23 31 82 32 24 33
REMARK SMILES IDX 25 34 26 35 76 36 27 37 81 38 75 39 77 40 28 41 80 42 74 43
REMARK SMILES IDX 73 44 29 46 61 47 41 48 60 49 42 50 45 51 59 52 78 53 43 54
REMARK SMILES IDX 44 55 58 57 79 58 46 59 30 60 31 61 39 62 32 63 33 64 37 65
REMARK SMILES IDX 40 66 34 67 35 68 38 69 36 70 62 71 63 72 71 73 64 74 65 75
REMARK SMILES IDX 69 76 72 77 66 78 67 79 70 80 68 81 47 82 48 83 56 84 49 85
REMARK SMILES IDX 50 86 54 87 57 88 51 89 52 90 55 91 53 92
REMARK H PARENT 77 45 45 56
REMARK Flexibility Score: inf
ROOT
ATOM      1  C   UNL A   1      32.104  28.389  22.698  1.00  0.00     0.188 C 
ENDROOT
BRANCH   1   2
ATOM      2  O   UNL A   1      32.429  27.014  22.877  1.00  0.00    -0.376 OA
BRANCH   2   3
ATOM      3  C   UNL A   1      31.604  26.069  22.191  1.00  0.00     0.202 C 
BRANCH   3   4
ATOM      4  C   UNL A   1      31.106  24.863  23.007  1.00  0.00     0.261 C 
BRANCH   4   5
ATOM      5  O   UNL A   1      31.984  23.713  22.959  1.00  0.00    -0.463 OA
BRANCH   5   6
ATOM      6  C   UNL A   1      31.902  22.843  24.003  1.00  0.00     0.313 C 
ATOM      7  O   UNL A   1      31.015  22.887  24.852  1.00  0.00    -0.252 OA
BRANCH   6   8
ATOM      8  C   UNL A   1      32.989  21.743  24.007  1.00  0.00     0.129 C 
BRANCH   8   9
ATOM      9  C   UNL A   1      32.606  20.364  24.595  1.00  0.00     0.020 C 
BRANCH   9  10
ATOM     10  C   UNL A   1      32.505  19.170  23.642  1.00  0.00     0.004 C 
BRANCH  10  11
ATOM     11  C   UNL A   1      33.475  18.013  23.907  1.00  0.00    -0.017 C 
ATOM     12  C   UNL A   1      34.775  18.496  24.549  1.00  0.00     0.007 C 
ATOM     13  C   UNL A   1      32.793  16.981  24.809  1.00  0.00     0.007 C 
ENDBRANCH  10  11
ENDBRANCH   9  10
ENDBRANCH   8   9
BRANCH   8  14
ATOM     14  C   UNL A   1      34.337  22.274  24.547  1.00  0.00    -0.034 A 
ATOM     15  C   UNL A   1      35.518  22.333  23.782  1.00  0.00     0.006 A 
ATOM     16  C   UNL A   1      34.398  22.767  25.865  1.00  0.00     0.006 A 
ATOM     17  C   UNL A   1      36.701  22.864  24.313  1.00  0.00     0.016 A 
ATOM     18  C   UNL A   1      35.583  23.283  26.402  1.00  0.00     0.016 A 
ATOM     19  C   UNL A   1      36.731  23.331  25.622  1.00  0.00     0.017 A 
ATOM     20  Br  UNL A   1      38.329  24.044  26.335  1.00  0.00    -0.051 Br
ENDBRANCH   8  14
ENDBRANCH   6   8
ENDBRANCH   5   6
ENDBRANCH   4   5
ENDBRANCH   3   4
ENDBRANCH   2   3
ENDBRANCH   1   2
BRANCH   1  21
ATOM     21  C   UNL A   1      30.665  28.778  23.051  1.00  0.00     0.188 C 
BRANCH  21  22
ATOM     22  O   UNL A   1      30.527  29.611  24.183  1.00  0.00    -0.376 OA
BRANCH  22  23
ATOM     23  C   UNL A   1      31.654  29.848  25.021  1.00  0.00     0.202 C 
BRANCH  23  24
ATOM     24  C   UNL A   1      31.573  30.807  26.239  1.00  0.00     0.261 C 
BRANCH  24  25
ATOM     25  O   UNL A   1      32.646  30.784  27.201  1.00  0.00    -0.460 OA
BRANCH  25  26
ATOM     26  C   UNL A   1      33.346  31.925  27.392  1.00  0.00     0.338 C 
ATOM     27  O   UNL A   1      32.904  33.061  27.319  1.00  0.00    -0.246 OA
BRANCH  26  28
ATOM     28  C   UNL A   1      34.665  31.578  27.997  1.00  0.00     0.060 A 
ATOM     29  C   UNL A   1      34.877  30.244  28.375  1.00  0.00     0.016 A 
ATOM     30  C   UNL A   1      35.710  32.501  28.124  1.00  0.00     0.016 A 
ATOM     31  C   UNL A   1      36.104  29.838  28.910  1.00  0.00     0.010 A 
ATOM     32  C   UNL A   1      36.932  32.099  28.687  1.00  0.00     0.010 A 
ATOM     33  C   UNL A   1      37.128  30.771  29.110  1.00  0.00    -0.014 A 
BRANCH  33  34
ATOM     34  C   UNL A   1      38.283  30.422  29.984  1.00  0.00     0.031 A 
ATOM     35  C   UNL A   1      39.320  29.482  29.426  1.00  0.00     0.074 A 
ATOM     36  C   UNL A   1      38.457  30.941  31.214  1.00  0.00     0.049 A 
ATOM     37  N   UNL A   1      40.355  28.932  30.006  1.00  0.00    -0.248 NA
ATOM     38  C   UNL A   1      39.164  29.119  28.007  1.00  0.00     0.031 C 
ATOM     39  C   UNL A   1      37.599  31.938  31.846  1.00  0.00     0.029 A 
ATOM     40  N   UNL A   1      39.426  30.686  32.157  1.00  0.00    -0.354 N 
ATOM     41  C   UNL A   1      40.963  28.153  29.031  1.00  0.00     0.074 A 
ATOM     42  C   UNL A   1      40.174  28.284  27.826  1.00  0.00     0.031 C 
ATOM     43  C   UNL A   1      38.071  32.199  33.080  1.00  0.00     0.029 A 
ATOM     44  C   UNL A   1      39.235  31.354  33.344  1.00  0.00     0.049 A 
ATOM     45  H   UNL A   1      40.188  30.082  31.997  1.00  0.00     0.167 HD
ATOM     46  C   UNL A   1      42.081  27.394  29.127  1.00  0.00     0.037 A 
ATOM     47  C   UNL A   1      39.902  31.262  34.514  1.00  0.00     0.037 A 
ATOM     48  C   UNL A   1      42.865  27.251  30.323  1.00  0.00     0.049 A 
ATOM     49  C   UNL A   1      41.070  30.306  34.635  1.00  0.00     0.074 A 
ATOM     50  C   UNL A   1      43.992  26.474  30.528  1.00  0.00     0.029 A 
ATOM     51  N   UNL A   1      42.602  27.898  31.521  1.00  0.00    -0.354 N 
ATOM     52  N   UNL A   1      41.623  29.546  33.720  1.00  0.00    -0.248 NA
ATOM     53  C   UNL A   1      41.702  30.191  35.959  1.00  0.00     0.031 C 
ATOM     54  C   UNL A   1      44.377  26.607  31.865  1.00  0.00     0.029 A 
ATOM     55  C   UNL A   1      43.534  27.520  32.474  1.00  0.00     0.049 A 
ATOM     56  H   UNL A   1      41.862  28.530  31.672  1.00  0.00     0.167 HD
ATOM     57  C   UNL A   1      42.688  28.905  34.344  1.00  0.00     0.074 A 
ATOM     58  C   UNL A   1      42.710  29.366  35.714  1.00  0.00     0.031 C 
ATOM     59  C   UNL A   1      43.570  28.014  33.827  1.00  0.00     0.037 A 
BRANCH  46  60
ATOM     60  C   UNL A   1      42.496  26.620  27.909  1.00  0.00     0.064 A 
ATOM     61  C   UNL A   1      41.971  25.352  27.625  1.00  0.00     0.173 A 
ATOM     62  C   UNL A   1      43.412  27.171  27.001  1.00  0.00     0.173 A 
ATOM     63  F   UNL A   1      41.107  24.772  28.473  1.00  0.00    -0.203 F 
ATOM     64  C   UNL A   1      42.367  24.652  26.488  1.00  0.00     0.198 A 
ATOM     65  C   UNL A   1      43.780  26.484  25.849  1.00  0.00     0.198 A 
ATOM     66  F   UNL A   1      43.943  28.383  27.227  1.00  0.00    -0.203 F 
ATOM     67  F   UNL A   1      41.893  23.419  26.263  1.00  0.00    -0.200 F 
ATOM     68  C   UNL A   1      43.264  25.222  25.597  1.00  0.00     0.200 A 
ATOM     69  F   UNL A   1      44.638  27.042  24.983  1.00  0.00    -0.200 F 
ATOM     70  F   UNL A   1      43.638  24.551  24.499  1.00  0.00    -0.200 F 
ENDBRANCH  46  60
BRANCH  47  71
ATOM     71  C   UNL A   1      39.471  32.055  35.701  1.00  0.00     0.064 A 
ATOM     72  C   UNL A   1      40.073  33.285  36.011  1.00  0.00     0.173 A 
ATOM     73  C   UNL A   1      38.511  31.563  36.598  1.00  0.00     0.173 A 
ATOM     74  F   UNL A   1      41.027  33.785  35.211  1.00  0.00    -0.203 F 
ATOM     75  C   UNL A   1      39.756  33.970  37.184  1.00  0.00     0.198 A 
ATOM     76  C   UNL A   1      38.168  32.265  37.751  1.00  0.00     0.198 A 
ATOM     77  F   UNL A   1      37.914  30.384  36.363  1.00  0.00    -0.203 F 
ATOM     78  F   UNL A   1      40.405  35.101  37.493  1.00  0.00    -0.200 F 
ATOM     79  C   UNL A   1      38.801  33.462  38.051  1.00  0.00     0.200 A 
ATOM     80  F   UNL A   1      37.241  31.773  38.584  1.00  0.00    -0.200 F 
ATOM     81  F   UNL A   1      38.507  34.113  39.185  1.00  0.00    -0.200 F 
ENDBRANCH  47  71
BRANCH  59  82
ATOM     82  C   UNL A   1      44.686  27.530  34.711  1.00  0.00     0.064 A 
ATOM     83  C   UNL A   1      45.897  28.227  34.836  1.00  0.00     0.173 A 
ATOM     84  C   UNL A   1      44.511  26.379  35.497  1.00  0.00     0.173 A 
ATOM     85  F   UNL A   1      46.121  29.326  34.102  1.00  0.00    -0.203 F 
ATOM     86  C   UNL A   1      46.897  27.777  35.695  1.00  0.00     0.198 A 
ATOM     87  C   UNL A   1      45.499  25.952  36.380  1.00  0.00     0.198 A 
ATOM     88  F   UNL A   1      43.368  25.679  35.427  1.00  0.00    -0.203 F 
ATOM     89  F   UNL A   1      48.063  28.435  35.764  1.00  0.00    -0.200 F 
ATOM     90  C   UNL A   1      46.693  26.647  36.474  1.00  0.00     0.200 A 
ATOM     91  F   UNL A   1      45.290  24.872  37.146  1.00  0.00    -0.200 F 
ATOM     92  F   UNL A   1      47.652  26.226  37.311  1.00  0.00    -0.200 F 
ENDBRANCH  59  82
ENDBRANCH  33  34
ENDBRANCH  26  28
ENDBRANCH  25  26
ENDBRANCH  24  25
ENDBRANCH  23  24
ENDBRANCH  22  23
ENDBRANCH  21  22
ENDBRANCH   1  21
TORSDOF 21
ENDMDL
