MODEL 1
REMARK VINA RESULT:     -12.7      0.000      0.000
REMARK SMILES C[C@H](NC(=O)c1cccc(NC(=O)c2ccccc2C(=O)OCCOCCOCCOC(=O)c2ccc(-c3c4nc(c(-c5c(F)c(F)c(F)c(F)c5F)c5ccc([nH]5)c(-c5c(F)c(F)c(F)c(F)c5F)c5nc(c(-c6c(F)c(F)c(F)c(F)c6F)c6ccc3[nH]6)C=C5)C=C4)cc2)c1)c1ccccc1
REMARK SMILES IDX 25 1 24 2 23 3 22 4 20 5 21 6 19 7 14 8 15 9 16 10 18 11
REMARK SMILES IDX 17 12 12 13 11 14 13 16 10 17 6 18 7 19 97 20 8 21 9 22 4 23
REMARK SMILES IDX 3 24 5 26 2 27 1 28 98 29 99 30 103 31 100 32 102 33 101 34
REMARK SMILES IDX 26 35 27 36 28 37 29 38 30 39 31 40 32 41 33 42 34 43 35 44
REMARK SMILES IDX 96 45 36 46 95 47 37 48 38 49 39 50 89 51 40 52 94 53 88 54
REMARK SMILES IDX 90 55 41 56 93 57 87 58 86 59 42 61 74 62 54 63 73 64 55 65
REMARK SMILES IDX 58 66 72 67 91 68 56 69 57 70 71 72 92 73 59 74 43 75 44 76
REMARK SMILES IDX 52 77 45 78 46 79 50 80 53 81 47 82 48 83 51 84 49 85 75 86
REMARK SMILES IDX 76 87 84 88 77 89 78 90 82 91 85 92 79 93 80 94 83 95 81 96
REMARK SMILES IDX 60 97 61 98 69 99 62 100 63 101 67 102 70 103 64 104 65 105
REMARK SMILES IDX 68 106 66 107
REMARK H PARENT 11 15 3 25 90 60 58 71
REMARK Flexibility Score: inf
ROOT
ATOM      1  O   UNL A   1      38.898  21.920  26.359  1.00  0.00    -0.376 OA
ENDROOT
BRANCH   1   2
ATOM      2  C   UNL A   1      38.324  23.190  26.148  1.00  0.00     0.202 C 
BRANCH   2   3
ATOM      3  C   UNL A   1      37.322  23.310  25.011  1.00  0.00     0.261 C 
BRANCH   3   4
ATOM      4  O   UNL A   1      36.340  22.286  24.896  1.00  0.00    -0.460 OA
BRANCH   4   5
ATOM      5  C   UNL A   1      35.069  22.657  25.140  1.00  0.00     0.339 C 
ATOM      6  O   UNL A   1      34.682  23.701  25.637  1.00  0.00    -0.246 OA
BRANCH   5   7
ATOM      7  C   UNL A   1      34.168  21.628  24.589  1.00  0.00     0.072 A 
ATOM      8  C   UNL A   1      33.287  21.838  23.515  1.00  0.00     0.054 A 
ATOM      9  C   UNL A   1      32.392  20.800  23.187  1.00  0.00     0.015 A 
ATOM     10  C   UNL A   1      32.414  19.576  23.864  1.00  0.00     0.001 A 
ATOM     11  C   UNL A   1      34.211  20.381  25.244  1.00  0.00     0.016 A 
ATOM     12  C   UNL A   1      33.335  19.360  24.884  1.00  0.00     0.001 A 
BRANCH   8  13
ATOM     13  C   UNL A   1      33.119  23.102  22.737  1.00  0.00     0.256 C 
ATOM     14  N   UNL A   1      32.413  24.220  23.143  1.00  0.00    -0.322 N 
ATOM     15  H   UNL A   1      32.320  24.901  22.440  1.00  0.00     0.170 HD
ATOM     16  O   UNL A   1      33.632  23.135  21.613  1.00  0.00    -0.269 OA
BRANCH  14  17
ATOM     17  C   UNL A   1      31.801  24.581  24.356  1.00  0.00     0.042 A 
ATOM     18  C   UNL A   1      31.194  26.398  25.867  1.00  0.00     0.041 A 
ATOM     19  C   UNL A   1      30.287  25.525  26.492  1.00  0.00     0.014 A 
ATOM     20  C   UNL A   1      31.988  25.901  24.826  1.00  0.00     0.040 A 
ATOM     21  C   UNL A   1      30.204  24.184  26.118  1.00  0.00     0.003 A 
ATOM     22  C   UNL A   1      30.984  23.707  25.069  1.00  0.00     0.026 A 
BRANCH  18  23
ATOM     23  C   UNL A   1      31.400  27.697  26.547  1.00  0.00     0.251 C 
ATOM     24  N   UNL A   1      31.588  28.927  25.988  1.00  0.00    -0.346 N 
ATOM     25  H   UNL A   1      31.800  29.576  26.697  1.00  0.00     0.164 HD
ATOM     26  O   UNL A   1      31.378  27.666  27.782  1.00  0.00    -0.269 OA
BRANCH  24  27
ATOM     27  C   UNL A   1      31.583  29.606  24.693  1.00  0.00     0.109 C 
ATOM     28  C   UNL A   1      32.710  29.250  23.746  1.00  0.00     0.036 C 
BRANCH  27  29
ATOM     29  C   UNL A   1      30.224  29.672  24.017  1.00  0.00    -0.026 A 
ATOM     30  C   UNL A   1      29.574  30.918  23.910  1.00  0.00     0.006 A 
ATOM     31  C   UNL A   1      29.605  28.561  23.435  1.00  0.00     0.006 A 
ATOM     32  C   UNL A   1      28.365  31.053  23.223  1.00  0.00     0.000 A 
ATOM     33  C   UNL A   1      28.407  28.700  22.722  1.00  0.00     0.000 A 
ATOM     34  C   UNL A   1      27.788  29.944  22.614  1.00  0.00     0.000 A 
ENDBRANCH  27  29
ENDBRANCH  24  27
ENDBRANCH  18  23
ENDBRANCH  14  17
ENDBRANCH   8  13
ENDBRANCH   5   7
ENDBRANCH   4   5
ENDBRANCH   3   4
ENDBRANCH   2   3
ENDBRANCH   1   2
BRANCH   1  35
ATOM     35  C   UNL A   1      40.292  21.756  26.148  1.00  0.00     0.188 C 
BRANCH  35  36
ATOM     36  C   UNL A   1      40.980  20.368  26.194  1.00  0.00     0.188 C 
BRANCH  36  37
ATOM     37  O   UNL A   1      42.279  20.300  25.628  1.00  0.00    -0.376 OA
BRANCH  37  38
ATOM     38  C   UNL A   1      43.214  21.262  26.102  1.00  0.00     0.202 C 
BRANCH  38  39
ATOM     39  C   UNL A   1      43.853  22.113  24.998  1.00  0.00     0.261 C 
BRANCH  39  40
ATOM     40  O   UNL A   1      43.255  23.407  24.806  1.00  0.00    -0.460 OA
BRANCH  40  41
ATOM     41  C   UNL A   1      44.013  24.494  25.067  1.00  0.00     0.338 C 
ATOM     42  O   UNL A   1      45.069  24.802  24.543  1.00  0.00    -0.246 OA
BRANCH  41  43
ATOM     43  C   UNL A   1      43.219  25.393  25.934  1.00  0.00     0.060 A 
ATOM     44  C   UNL A   1      43.633  26.728  26.073  1.00  0.00     0.016 A 
ATOM     45  C   UNL A   1      42.031  24.958  26.528  1.00  0.00     0.016 A 
ATOM     46  C   UNL A   1      42.881  27.617  26.842  1.00  0.00     0.010 A 
ATOM     47  C   UNL A   1      41.295  25.839  27.326  1.00  0.00     0.010 A 
ATOM     48  C   UNL A   1      41.745  27.157  27.523  1.00  0.00    -0.014 A 
BRANCH  48  49
ATOM     49  C   UNL A   1      41.253  27.930  28.688  1.00  0.00     0.031 A 
ATOM     50  C   UNL A   1      42.011  27.760  29.979  1.00  0.00     0.074 A 
ATOM     51  C   UNL A   1      40.205  28.769  28.624  1.00  0.00     0.049 A 
ATOM     52  N   UNL A   1      41.810  28.310  31.149  1.00  0.00    -0.248 NA
ATOM     53  C   UNL A   1      43.158  26.836  29.940  1.00  0.00     0.031 C 
ATOM     54  C   UNL A   1      39.407  29.048  27.434  1.00  0.00     0.029 A 
ATOM     55  N   UNL A   1      39.631  29.541  29.605  1.00  0.00    -0.354 N 
ATOM     56  C   UNL A   1      42.808  27.806  31.972  1.00  0.00     0.074 A 
ATOM     57  C   UNL A   1      43.590  26.880  31.187  1.00  0.00     0.031 C 
ATOM     58  C   UNL A   1      38.438  29.925  27.756  1.00  0.00     0.029 A 
ATOM     59  C   UNL A   1      38.537  30.251  29.179  1.00  0.00     0.049 A 
ATOM     60  H   UNL A   1      39.973  29.580  30.527  1.00  0.00     0.167 HD
ATOM     61  C   UNL A   1      43.062  28.095  33.269  1.00  0.00     0.037 A 
ATOM     62  C   UNL A   1      37.708  31.059  29.872  1.00  0.00     0.037 A 
ATOM     63  C   UNL A   1      42.274  28.993  34.064  1.00  0.00     0.049 A 
ATOM     64  C   UNL A   1      37.963  31.304  31.341  1.00  0.00     0.074 A 
ATOM     65  C   UNL A   1      42.441  29.345  35.390  1.00  0.00     0.029 A 
ATOM     66  N   UNL A   1      41.156  29.671  33.603  1.00  0.00    -0.354 N 
ATOM     67  N   UNL A   1      38.929  30.855  32.105  1.00  0.00    -0.248 NA
ATOM     68  C   UNL A   1      37.009  32.179  32.042  1.00  0.00     0.031 C 
ATOM     69  C   UNL A   1      41.396  30.203  35.746  1.00  0.00     0.029 A 
ATOM     70  C   UNL A   1      40.611  30.428  34.626  1.00  0.00     0.049 A 
ATOM     71  H   UNL A   1      40.802  29.621  32.686  1.00  0.00     0.167 HD
ATOM     72  C   UNL A   1      38.724  31.419  33.358  1.00  0.00     0.074 A 
ATOM     73  C   UNL A   1      37.544  32.250  33.253  1.00  0.00     0.031 C 
ATOM     74  C   UNL A   1      39.448  31.267  34.495  1.00  0.00     0.037 A 
BRANCH  61  75
ATOM     75  C   UNL A   1      44.229  27.400  33.905  1.00  0.00     0.064 A 
ATOM     76  C   UNL A   1      44.078  26.174  34.571  1.00  0.00     0.173 A 
ATOM     77  C   UNL A   1      45.508  27.971  33.855  1.00  0.00     0.173 A 
ATOM     78  F   UNL A   1      42.868  25.603  34.668  1.00  0.00    -0.203 F 
ATOM     79  C   UNL A   1      45.163  25.558  35.186  1.00  0.00     0.198 A 
ATOM     80  C   UNL A   1      46.596  27.337  34.447  1.00  0.00     0.198 A 
ATOM     81  F   UNL A   1      45.702  29.146  33.237  1.00  0.00    -0.203 F 
ATOM     82  F   UNL A   1      44.986  24.415  35.864  1.00  0.00    -0.200 F 
ATOM     83  C   UNL A   1      46.422  26.136  35.118  1.00  0.00     0.200 A 
ATOM     84  F   UNL A   1      47.813  27.893  34.376  1.00  0.00    -0.200 F 
ATOM     85  F   UNL A   1      47.466  25.540  35.711  1.00  0.00    -0.200 F 
ENDBRANCH  61  75
BRANCH  62  86
ATOM     86  C   UNL A   1      36.552  31.707  29.196  1.00  0.00     0.064 A 
ATOM     87  C   UNL A   1      36.537  33.090  28.953  1.00  0.00     0.173 A 
ATOM     88  C   UNL A   1      35.418  30.970  28.825  1.00  0.00     0.173 A 
ATOM     89  F   UNL A   1      37.584  33.844  29.319  1.00  0.00    -0.203 F 
ATOM     90  C   UNL A   1      35.426  33.711  28.388  1.00  0.00     0.198 A 
ATOM     91  C   UNL A   1      34.318  31.588  28.234  1.00  0.00     0.198 A 
ATOM     92  F   UNL A   1      35.377  29.648  29.044  1.00  0.00    -0.203 F 
ATOM     93  F   UNL A   1      35.418  35.040  28.219  1.00  0.00    -0.200 F 
ATOM     94  C   UNL A   1      34.318  32.959  28.024  1.00  0.00     0.200 A 
ATOM     95  F   UNL A   1      33.251  30.858  27.882  1.00  0.00    -0.200 F 
ATOM     96  F   UNL A   1      33.247  33.558  27.486  1.00  0.00    -0.200 F 
ENDBRANCH  62  86
BRANCH  74  97
ATOM     97  C   UNL A   1      39.026  32.055  35.701  1.00  0.00     0.064 A 
ATOM     98  C   UNL A   1      38.208  31.504  36.698  1.00  0.00     0.173 A 
ATOM     99  C   UNL A   1      39.495  33.366  35.887  1.00  0.00     0.173 A 
ATOM    100  F   UNL A   1      37.727  30.260  36.565  1.00  0.00    -0.203 F 
ATOM    101  C   UNL A   1      37.852  32.247  37.823  1.00  0.00     0.198 A 
ATOM    102  C   UNL A   1      39.163  34.093  37.025  1.00  0.00     0.198 A 
ATOM    103  F   UNL A   1      40.291  33.936  34.968  1.00  0.00    -0.203 F 
ATOM    104  F   UNL A   1      37.032  31.716  38.740  1.00  0.00    -0.200 F 
ATOM    105  C   UNL A   1      38.336  33.536  37.988  1.00  0.00     0.200 A 
ATOM    106  F   UNL A   1      39.645  35.332  37.192  1.00  0.00    -0.200 F 
ATOM    107  F   UNL A   1      38.000  34.245  39.075  1.00  0.00    -0.200 F 
ENDBRANCH  74  97
ENDBRANCH  48  49
ENDBRANCH  41  43
ENDBRANCH  40  41
ENDBRANCH  39  40
ENDBRANCH  38  39
ENDBRANCH  37  38
ENDBRANCH  36  37
ENDBRANCH  35  36
ENDBRANCH   1  35
TORSDOF 22
ENDMDL
MODEL 2
REMARK VINA RESULT:     -11.8      0.998      6.865
REMARK SMILES C[C@H](NC(=O)c1cccc(NC(=O)c2ccccc2C(=O)OCCOCCOCCOC(=O)c2ccc(-c3c4nc(c(-c5c(F)c(F)c(F)c(F)c5F)c5ccc([nH]5)c(-c5c(F)c(F)c(F)c(F)c5F)c5nc(c(-c6c(F)c(F)c(F)c(F)c6F)c6ccc3[nH]6)C=C5)C=C4)cc2)c1)c1ccccc1
REMARK SMILES IDX 25 1 24 2 23 3 22 4 20 5 21 6 19 7 14 8 15 9 16 10 18 11
REMARK SMILES IDX 17 12 12 13 11 14 13 16 10 17 6 18 7 19 97 20 8 21 9 22 4 23
REMARK SMILES IDX 3 24 5 26 2 27 1 28 98 29 99 30 103 31 100 32 102 33 101 34
REMARK SMILES IDX 26 35 27 36 28 37 29 38 30 39 31 40 32 41 33 42 34 43 35 44
REMARK SMILES IDX 96 45 36 46 95 47 37 48 38 49 39 50 89 51 40 52 94 53 88 54
REMARK SMILES IDX 90 55 41 56 93 57 87 58 86 59 42 61 74 62 54 63 73 64 55 65
REMARK SMILES IDX 58 66 72 67 91 68 56 69 57 70 71 72 92 73 59 74 43 75 44 76
REMARK SMILES IDX 52 77 45 78 46 79 50 80 53 81 47 82 48 83 51 84 49 85 75 86
REMARK SMILES IDX 76 87 84 88 77 89 78 90 82 91 85 92 79 93 80 94 83 95 81 96
REMARK SMILES IDX 60 97 61 98 69 99 62 100 63 101 67 102 70 103 64 104 65 105
REMARK SMILES IDX 68 106 66 107
REMARK H PARENT 11 15 3 25 90 60 58 71
REMARK Flexibility Score: inf
ROOT
ATOM      1  O   UNL A   1      38.465  22.202  26.101  1.00  0.00    -0.376 OA
ENDROOT
BRANCH   1   2
ATOM      2  C   UNL A   1      37.769  23.427  26.077  1.00  0.00     0.202 C 
BRANCH   2   3
ATOM      3  C   UNL A   1      36.903  23.701  24.858  1.00  0.00     0.261 C 
BRANCH   3   4
ATOM      4  O   UNL A   1      36.381  22.575  24.162  1.00  0.00    -0.460 OA
BRANCH   4   5
ATOM      5  C   UNL A   1      35.161  22.732  23.615  1.00  0.00     0.339 C 
ATOM      6  O   UNL A   1      34.850  23.469  22.695  1.00  0.00    -0.246 OA
BRANCH   5   7
ATOM      7  C   UNL A   1      34.243  21.758  24.233  1.00  0.00     0.072 A 
ATOM      8  C   UNL A   1      32.917  21.546  23.820  1.00  0.00     0.054 A 
ATOM      9  C   UNL A   1      32.119  20.679  24.594  1.00  0.00     0.015 A 
ATOM     10  C   UNL A   1      32.640  20.003  25.703  1.00  0.00     0.001 A 
ATOM     11  C   UNL A   1      34.772  21.048  25.329  1.00  0.00     0.016 A 
ATOM     12  C   UNL A   1      33.972  20.175  26.062  1.00  0.00     0.001 A 
BRANCH   8  13
ATOM     13  C   UNL A   1      32.216  22.231  22.693  1.00  0.00     0.256 C 
ATOM     14  N   UNL A   1      31.618  23.478  22.745  1.00  0.00    -0.322 N 
ATOM     15  H   UNL A   1      31.107  23.700  21.934  1.00  0.00     0.170 HD
ATOM     16  O   UNL A   1      32.137  21.610  21.629  1.00  0.00    -0.269 OA
BRANCH  14  17
ATOM     17  C   UNL A   1      31.593  24.491  23.718  1.00  0.00     0.042 A 
ATOM     18  C   UNL A   1      31.897  26.865  24.192  1.00  0.00     0.041 A 
ATOM     19  C   UNL A   1      31.196  26.677  25.394  1.00  0.00     0.014 A 
ATOM     20  C   UNL A   1      32.136  25.751  23.378  1.00  0.00     0.040 A 
ATOM     21  C   UNL A   1      30.782  25.407  25.795  1.00  0.00     0.003 A 
ATOM     22  C   UNL A   1      31.007  24.311  24.968  1.00  0.00     0.026 A 
BRANCH  18  23
ATOM     23  C   UNL A   1      32.538  28.191  24.028  1.00  0.00     0.251 C 
ATOM     24  N   UNL A   1      32.002  29.425  24.250  1.00  0.00    -0.346 N 
ATOM     25  H   UNL A   1      32.639  30.113  23.953  1.00  0.00     0.164 HD
ATOM     26  O   UNL A   1      33.717  28.175  23.662  1.00  0.00    -0.269 OA
BRANCH  24  27
ATOM     27  C   UNL A   1      30.802  30.071  24.780  1.00  0.00     0.109 C 
ATOM     28  C   UNL A   1      31.028  31.198  25.766  1.00  0.00     0.036 C 
BRANCH  27  29
ATOM     29  C   UNL A   1      29.738  30.382  23.740  1.00  0.00    -0.026 A 
ATOM     30  C   UNL A   1      28.988  31.569  23.865  1.00  0.00     0.006 A 
ATOM     31  C   UNL A   1      29.504  29.577  22.620  1.00  0.00     0.006 A 
ATOM     32  C   UNL A   1      28.059  31.949  22.894  1.00  0.00     0.000 A 
ATOM     33  C   UNL A   1      28.593  29.971  21.632  1.00  0.00     0.000 A 
ATOM     34  C   UNL A   1      27.872  31.157  21.767  1.00  0.00     0.000 A 
ENDBRANCH  27  29
ENDBRANCH  24  27
ENDBRANCH  18  23
ENDBRANCH  14  17
ENDBRANCH   8  13
ENDBRANCH   5   7
ENDBRANCH   4   5
ENDBRANCH   3   4
ENDBRANCH   2   3
ENDBRANCH   1   2
BRANCH   1  35
ATOM     35  C   UNL A   1      39.830  22.197  26.493  1.00  0.00     0.188 C 
BRANCH  35  36
ATOM     36  C   UNL A   1      40.663  20.894  26.581  1.00  0.00     0.188 C 
BRANCH  36  37
ATOM     37  O   UNL A   1      41.787  20.816  25.720  1.00  0.00    -0.376 OA
BRANCH  37  38
ATOM     38  C   UNL A   1      42.992  21.386  26.218  1.00  0.00     0.202 C 
BRANCH  38  39
ATOM     39  C   UNL A   1      43.677  22.355  25.246  1.00  0.00     0.261 C 
BRANCH  39  40
ATOM     40  O   UNL A   1      43.031  23.632  25.106  1.00  0.00    -0.460 OA
BRANCH  40  41
ATOM     41  C   UNL A   1      43.784  24.739  25.286  1.00  0.00     0.338 C 
ATOM     42  O   UNL A   1      44.740  25.099  24.622  1.00  0.00    -0.246 OA
BRANCH  41  43
ATOM     43  C   UNL A   1      43.098  25.587  26.288  1.00  0.00     0.060 A 
ATOM     44  C   UNL A   1      43.533  26.911  26.457  1.00  0.00     0.016 A 
ATOM     45  C   UNL A   1      41.980  25.117  26.985  1.00  0.00     0.016 A 
ATOM     46  C   UNL A   1      42.877  27.753  27.355  1.00  0.00     0.010 A 
ATOM     47  C   UNL A   1      41.345  25.950  27.911  1.00  0.00     0.010 A 
ATOM     48  C   UNL A   1      41.822  27.254  28.132  1.00  0.00    -0.014 A 
BRANCH  48  49
ATOM     49  C   UNL A   1      41.469  27.958  29.388  1.00  0.00     0.031 A 
ATOM     50  C   UNL A   1      40.250  28.843  29.346  1.00  0.00     0.074 A 
ATOM     51  C   UNL A   1      42.163  27.815  30.530  1.00  0.00     0.049 A 
ATOM     52  N   UNL A   1      39.709  29.571  30.288  1.00  0.00    -0.248 NA
ATOM     53  C   UNL A   1      39.546  28.914  28.053  1.00  0.00     0.031 C 
ATOM     54  C   UNL A   1      43.338  26.969  30.715  1.00  0.00     0.029 A 
ATOM     55  N   UNL A   1      41.968  28.397  31.759  1.00  0.00    -0.354 N 
ATOM     56  C   UNL A   1      38.602  30.172  29.703  1.00  0.00     0.074 A 
ATOM     57  C   UNL A   1      38.567  29.760  28.319  1.00  0.00     0.031 C 
ATOM     58  C   UNL A   1      43.767  27.093  31.984  1.00  0.00     0.029 A 
ATOM     59  C   UNL A   1      42.909  28.043  32.693  1.00  0.00     0.049 A 
ATOM     60  H   UNL A   1      41.223  29.011  31.952  1.00  0.00     0.167 HD
ATOM     61  C   UNL A   1      37.685  30.989  30.269  1.00  0.00     0.037 A 
ATOM     62  C   UNL A   1      43.059  28.455  33.969  1.00  0.00     0.037 A 
ATOM     63  C   UNL A   1      37.728  31.425  31.635  1.00  0.00     0.049 A 
ATOM     64  C   UNL A   1      42.068  29.433  34.556  1.00  0.00     0.074 A 
ATOM     65  C   UNL A   1      36.853  32.263  32.302  1.00  0.00     0.029 A 
ATOM     66  N   UNL A   1      38.714  31.066  32.541  1.00  0.00    -0.354 N 
ATOM     67  N   UNL A   1      41.003  29.969  34.011  1.00  0.00    -0.248 NA
ATOM     68  C   UNL A   1      42.301  29.858  35.946  1.00  0.00     0.031 C 
ATOM     69  C   UNL A   1      37.335  32.447  33.601  1.00  0.00     0.029 A 
ATOM     70  C   UNL A   1      38.479  31.681  33.759  1.00  0.00     0.049 A 
ATOM     71  H   UNL A   1      39.469  30.466  32.347  1.00  0.00     0.167 HD
ATOM     72  C   UNL A   1      40.420  30.757  34.995  1.00  0.00     0.074 A 
ATOM     73  C   UNL A   1      41.246  30.627  36.176  1.00  0.00     0.031 C 
ATOM     74  C   UNL A   1      39.300  31.521  34.930  1.00  0.00     0.037 A 
BRANCH  61  75
ATOM     75  C   UNL A   1      36.577  31.482  29.387  1.00  0.00     0.064 A 
ATOM     76  C   UNL A   1      36.521  32.817  28.957  1.00  0.00     0.173 A 
ATOM     77  C   UNL A   1      35.558  30.613  28.975  1.00  0.00     0.173 A 
ATOM     78  F   UNL A   1      37.460  33.692  29.347  1.00  0.00    -0.203 F 
ATOM     79  C   UNL A   1      35.469  33.269  28.167  1.00  0.00     0.198 A 
ATOM     80  C   UNL A   1      34.522  31.062  28.161  1.00  0.00     0.198 A 
ATOM     81  F   UNL A   1      35.562  29.329  29.366  1.00  0.00    -0.203 F 
ATOM     82  F   UNL A   1      35.405  34.560  27.813  1.00  0.00    -0.200 F 
ATOM     83  C   UNL A   1      34.473  32.390  27.764  1.00  0.00     0.200 A 
ATOM     84  F   UNL A   1      33.564  30.211  27.768  1.00  0.00    -0.200 F 
ATOM     85  F   UNL A   1      33.461  32.827  27.002  1.00  0.00    -0.200 F 
ENDBRANCH  61  75
BRANCH  62  86
ATOM     86  C   UNL A   1      44.189  27.949  34.794  1.00  0.00     0.064 A 
ATOM     87  C   UNL A   1      45.388  28.671  34.899  1.00  0.00     0.173 A 
ATOM     88  C   UNL A   1      44.115  26.713  35.452  1.00  0.00     0.173 A 
ATOM     89  F   UNL A   1      45.520  29.844  34.262  1.00  0.00    -0.203 F 
ATOM     90  C   UNL A   1      46.474  28.166  35.610  1.00  0.00     0.198 A 
ATOM     91  C   UNL A   1      45.193  26.221  36.185  1.00  0.00     0.198 A 
ATOM     92  F   UNL A   1      42.996  25.978  35.375  1.00  0.00    -0.203 F 
ATOM     93  F   UNL A   1      47.625  28.851  35.647  1.00  0.00    -0.200 F 
ATOM     94  C   UNL A   1      46.375  26.943  36.257  1.00  0.00     0.200 A 
ATOM     95  F   UNL A   1      45.092  25.040  36.811  1.00  0.00    -0.200 F 
ATOM     96  F   UNL A   1      47.422  26.454  36.935  1.00  0.00    -0.200 F 
ENDBRANCH  62  86
BRANCH  74  97
ATOM     97  C   UNL A   1      38.865  32.227  36.182  1.00  0.00     0.064 A 
ATOM     98  C   UNL A   1      38.108  31.584  37.171  1.00  0.00     0.173 A 
ATOM     99  C   UNL A   1      39.260  33.554  36.416  1.00  0.00     0.173 A 
ATOM    100  F   UNL A   1      37.698  30.320  36.992  1.00  0.00    -0.203 F 
ATOM    101  C   UNL A   1      37.739  32.252  38.337  1.00  0.00     0.198 A 
ATOM    102  C   UNL A   1      38.917  34.208  37.595  1.00  0.00     0.198 A 
ATOM    103  F   UNL A   1      39.996  34.211  35.507  1.00  0.00    -0.203 F 
ATOM    104  F   UNL A   1      36.978  31.632  39.249  1.00  0.00    -0.200 F 
ATOM    105  C   UNL A   1      38.150  33.559  38.551  1.00  0.00     0.200 A 
ATOM    106  F   UNL A   1      39.329  35.465  37.808  1.00  0.00    -0.200 F 
ATOM    107  F   UNL A   1      37.803  34.197  39.677  1.00  0.00    -0.200 F 
ENDBRANCH  74  97
ENDBRANCH  48  49
ENDBRANCH  41  43
ENDBRANCH  40  41
ENDBRANCH  39  40
ENDBRANCH  38  39
ENDBRANCH  37  38
ENDBRANCH  36  37
ENDBRANCH  35  36
ENDBRANCH   1  35
TORSDOF 22
ENDMDL
MODEL 3
REMARK VINA RESULT:     -11.6      4.168      7.512
REMARK SMILES C[C@H](NC(=O)c1cccc(NC(=O)c2ccccc2C(=O)OCCOCCOCCOC(=O)c2ccc(-c3c4nc(c(-c5c(F)c(F)c(F)c(F)c5F)c5ccc([nH]5)c(-c5c(F)c(F)c(F)c(F)c5F)c5nc(c(-c6c(F)c(F)c(F)c(F)c6F)c6ccc3[nH]6)C=C5)C=C4)cc2)c1)c1ccccc1
REMARK SMILES IDX 25 1 24 2 23 3 22 4 20 5 21 6 19 7 14 8 15 9 16 10 18 11
REMARK SMILES IDX 17 12 12 13 11 14 13 16 10 17 6 18 7 19 97 20 8 21 9 22 4 23
REMARK SMILES IDX 3 24 5 26 2 27 1 28 98 29 99 30 103 31 100 32 102 33 101 34
REMARK SMILES IDX 26 35 27 36 28 37 29 38 30 39 31 40 32 41 33 42 34 43 35 44
REMARK SMILES IDX 96 45 36 46 95 47 37 48 38 49 39 50 89 51 40 52 94 53 88 54
REMARK SMILES IDX 90 55 41 56 93 57 87 58 86 59 42 61 74 62 54 63 73 64 55 65
REMARK SMILES IDX 58 66 72 67 91 68 56 69 57 70 71 72 92 73 59 74 43 75 44 76
REMARK SMILES IDX 52 77 45 78 46 79 50 80 53 81 47 82 48 83 51 84 49 85 75 86
REMARK SMILES IDX 76 87 84 88 77 89 78 90 82 91 85 92 79 93 80 94 83 95 81 96
REMARK SMILES IDX 60 97 61 98 69 99 62 100 63 101 67 102 70 103 64 104 65 105
REMARK SMILES IDX 68 106 66 107
REMARK H PARENT 11 15 3 25 90 60 58 71
REMARK Flexibility Score: inf
ROOT
ATOM      1  O   UNL A   1      34.609  23.015  26.287  1.00  0.00    -0.376 OA
ENDROOT
BRANCH   1   2
ATOM      2  C   UNL A   1      33.845  24.174  26.534  1.00  0.00     0.202 C 
BRANCH   2   3
ATOM      3  C   UNL A   1      32.334  24.033  26.438  1.00  0.00     0.261 C 
BRANCH   3   4
ATOM      4  O   UNL A   1      31.544  24.951  27.185  1.00  0.00    -0.460 OA
BRANCH   4   5
ATOM      5  C   UNL A   1      30.717  25.737  26.471  1.00  0.00     0.339 C 
ATOM      6  O   UNL A   1      29.547  25.530  26.199  1.00  0.00    -0.246 OA
BRANCH   5   7
ATOM      7  C   UNL A   1      31.425  26.991  26.152  1.00  0.00     0.072 A 
ATOM      8  C   UNL A   1      31.383  27.628  24.900  1.00  0.00     0.054 A 
ATOM      9  C   UNL A   1      32.219  28.746  24.705  1.00  0.00     0.015 A 
ATOM     10  C   UNL A   1      33.021  29.247  25.736  1.00  0.00     0.001 A 
ATOM     11  C   UNL A   1      32.207  27.521  27.198  1.00  0.00     0.016 A 
ATOM     12  C   UNL A   1      33.004  28.643  26.989  1.00  0.00     0.001 A 
BRANCH   8  13
ATOM     13  C   UNL A   1      30.618  27.180  23.699  1.00  0.00     0.256 C 
ATOM     14  N   UNL A   1      30.940  26.114  22.879  1.00  0.00    -0.322 N 
ATOM     15  H   UNL A   1      30.379  26.056  22.073  1.00  0.00     0.170 HD
ATOM     16  O   UNL A   1      29.623  27.846  23.395  1.00  0.00    -0.269 OA
BRANCH  14  17
ATOM     17  C   UNL A   1      31.907  25.097  22.962  1.00  0.00     0.042 A 
ATOM     18  C   UNL A   1      32.449  22.763  22.501  1.00  0.00     0.041 A 
ATOM     19  C   UNL A   1      33.807  23.086  22.663  1.00  0.00     0.014 A 
ATOM     20  C   UNL A   1      31.497  23.769  22.703  1.00  0.00     0.040 A 
ATOM     21  C   UNL A   1      34.202  24.364  23.056  1.00  0.00     0.003 A 
ATOM     22  C   UNL A   1      33.247  25.361  23.233  1.00  0.00     0.026 A 
BRANCH  18  23
ATOM     23  C   UNL A   1      32.148  21.318  22.381  1.00  0.00     0.251 C 
ATOM     24  N   UNL A   1      32.466  20.310  23.243  1.00  0.00    -0.346 N 
ATOM     25  H   UNL A   1      32.222  19.447  22.838  1.00  0.00     0.164 HD
ATOM     26  O   UNL A   1      31.507  20.985  21.379  1.00  0.00    -0.269 OA
BRANCH  24  27
ATOM     27  C   UNL A   1      33.047  20.078  24.564  1.00  0.00     0.109 C 
ATOM     28  C   UNL A   1      32.340  20.736  25.731  1.00  0.00     0.036 C 
BRANCH  27  29
ATOM     29  C   UNL A   1      33.451  18.639  24.836  1.00  0.00    -0.026 A 
ATOM     30  C   UNL A   1      32.606  17.829  25.621  1.00  0.00     0.006 A 
ATOM     31  C   UNL A   1      34.597  18.050  24.291  1.00  0.00     0.006 A 
ATOM     32  C   UNL A   1      32.882  16.476  25.831  1.00  0.00     0.000 A 
ATOM     33  C   UNL A   1      34.861  16.687  24.479  1.00  0.00     0.000 A 
ATOM     34  C   UNL A   1      34.003  15.900  25.245  1.00  0.00     0.000 A 
ENDBRANCH  27  29
ENDBRANCH  24  27
ENDBRANCH  18  23
ENDBRANCH  14  17
ENDBRANCH   8  13
ENDBRANCH   5   7
ENDBRANCH   4   5
ENDBRANCH   3   4
ENDBRANCH   2   3
ENDBRANCH   1   2
BRANCH   1  35
ATOM     35  C   UNL A   1      36.011  23.146  26.109  1.00  0.00     0.188 C 
BRANCH  35  36
ATOM     36  C   UNL A   1      36.776  22.412  24.979  1.00  0.00     0.188 C 
BRANCH  36  37
ATOM     37  O   UNL A   1      37.416  21.202  25.347  1.00  0.00    -0.376 OA
BRANCH  37  38
ATOM     38  C   UNL A   1      38.788  21.310  25.708  1.00  0.00     0.202 C 
BRANCH  38  39
ATOM     39  C   UNL A   1      39.451  19.973  26.064  1.00  0.00     0.261 C 
BRANCH  39  40
ATOM     40  O   UNL A   1      40.634  19.662  25.307  1.00  0.00    -0.460 OA
BRANCH  40  41
ATOM     41  C   UNL A   1      41.766  19.392  25.994  1.00  0.00     0.338 C 
ATOM     42  O   UNL A   1      42.328  18.317  26.100  1.00  0.00    -0.246 OA
BRANCH  41  43
ATOM     43  C   UNL A   1      42.357  20.686  26.404  1.00  0.00     0.060 A 
ATOM     44  C   UNL A   1      42.343  21.028  27.766  1.00  0.00     0.016 A 
ATOM     45  C   UNL A   1      43.003  21.510  25.477  1.00  0.00     0.016 A 
ATOM     46  C   UNL A   1      42.936  22.216  28.195  1.00  0.00     0.010 A 
ATOM     47  C   UNL A   1      43.567  22.716  25.901  1.00  0.00     0.010 A 
ATOM     48  C   UNL A   1      43.493  23.094  27.254  1.00  0.00    -0.014 A 
BRANCH  48  49
ATOM     49  C   UNL A   1      43.664  24.519  27.625  1.00  0.00     0.031 A 
ATOM     50  C   UNL A   1      45.079  25.030  27.704  1.00  0.00     0.074 A 
ATOM     51  C   UNL A   1      42.631  25.346  27.859  1.00  0.00     0.049 A 
ATOM     52  N   UNL A   1      45.524  26.224  27.999  1.00  0.00    -0.248 NA
ATOM     53  C   UNL A   1      46.139  24.051  27.408  1.00  0.00     0.031 C 
ATOM     54  C   UNL A   1      41.217  24.988  27.785  1.00  0.00     0.029 A 
ATOM     55  N   UNL A   1      42.626  26.673  28.214  1.00  0.00    -0.354 N 
ATOM     56  C   UNL A   1      46.907  26.137  27.913  1.00  0.00     0.074 A 
ATOM     57  C   UNL A   1      47.234  24.771  27.577  1.00  0.00     0.031 C 
ATOM     58  C   UNL A   1      40.479  26.069  28.096  1.00  0.00     0.029 A 
ATOM     59  C   UNL A   1      41.369  27.188  28.410  1.00  0.00     0.049 A 
ATOM     60  H   UNL A   1      43.448  27.205  28.319  1.00  0.00     0.167 HD
ATOM     61  C   UNL A   1      47.829  27.110  28.086  1.00  0.00     0.037 A 
ATOM     62  C   UNL A   1      40.991  28.420  28.810  1.00  0.00     0.037 A 
ATOM     63  C   UNL A   1      47.515  28.463  28.447  1.00  0.00     0.049 A 
ATOM     64  C   UNL A   1      42.044  29.470  29.078  1.00  0.00     0.074 A 
ATOM     65  C   UNL A   1      48.378  29.523  28.658  1.00  0.00     0.029 A 
ATOM     66  N   UNL A   1      46.231  28.937  28.663  1.00  0.00    -0.354 N 
ATOM     67  N   UNL A   1      43.348  29.392  28.958  1.00  0.00    -0.248 NA
ATOM     68  C   UNL A   1      41.567  30.786  29.531  1.00  0.00     0.031 C 
ATOM     69  C   UNL A   1      47.617  30.630  29.047  1.00  0.00     0.029 A 
ATOM     70  C   UNL A   1      46.278  30.273  29.024  1.00  0.00     0.049 A 
ATOM     71  H   UNL A   1      45.408  28.404  28.575  1.00  0.00     0.167 HD
ATOM     72  C   UNL A   1      43.841  30.651  29.281  1.00  0.00     0.074 A 
ATOM     73  C   UNL A   1      42.696  31.478  29.597  1.00  0.00     0.031 C 
ATOM     74  C   UNL A   1      45.125  31.086  29.313  1.00  0.00     0.037 A 
BRANCH  61  75
ATOM     75  C   UNL A   1      49.267  26.723  27.915  1.00  0.00     0.064 A 
ATOM     76  C   UNL A   1      50.081  26.419  29.017  1.00  0.00     0.173 A 
ATOM     77  C   UNL A   1      49.839  26.663  26.637  1.00  0.00     0.173 A 
ATOM     78  F   UNL A   1      49.586  26.489  30.262  1.00  0.00    -0.203 F 
ATOM     79  C   UNL A   1      51.424  26.095  28.846  1.00  0.00     0.198 A 
ATOM     80  C   UNL A   1      51.175  26.310  26.468  1.00  0.00     0.198 A 
ATOM     81  F   UNL A   1      49.104  26.953  25.552  1.00  0.00    -0.203 F 
ATOM     82  F   UNL A   1      52.197  25.863  29.916  1.00  0.00    -0.200 F 
ATOM     83  C   UNL A   1      51.968  26.034  27.571  1.00  0.00     0.200 A 
ATOM     84  F   UNL A   1      51.698  26.247  25.236  1.00  0.00    -0.200 F 
ATOM     85  F   UNL A   1      53.261  25.721  27.408  1.00  0.00    -0.200 F 
ENDBRANCH  61  75
BRANCH  62  86
ATOM     86  C   UNL A   1      39.550  28.745  28.984  1.00  0.00     0.064 A 
ATOM     87  C   UNL A   1      38.786  29.243  27.918  1.00  0.00     0.173 A 
ATOM     88  C   UNL A   1      38.920  28.614  30.230  1.00  0.00     0.173 A 
ATOM     89  F   UNL A   1      39.352  29.417  26.714  1.00  0.00    -0.203 F 
ATOM     90  C   UNL A   1      37.456  29.618  28.096  1.00  0.00     0.198 A 
ATOM     91  C   UNL A   1      37.582  28.963  30.401  1.00  0.00     0.198 A 
ATOM     92  F   UNL A   1      39.607  28.152  31.285  1.00  0.00    -0.203 F 
ATOM     93  F   UNL A   1      36.767  30.143  27.074  1.00  0.00    -0.200 F 
ATOM     94  C   UNL A   1      36.853  29.474  29.337  1.00  0.00     0.200 A 
ATOM     95  F   UNL A   1      37.002  28.820  31.600  1.00  0.00    -0.200 F 
ATOM     96  F   UNL A   1      35.576  29.841  29.510  1.00  0.00    -0.200 F 
ENDBRANCH  62  86
BRANCH  74  97
ATOM     97  C   UNL A   1      45.364  32.532  29.641  1.00  0.00     0.064 A 
ATOM     98  C   UNL A   1      45.631  32.960  30.950  1.00  0.00     0.173 A 
ATOM     99  C   UNL A   1      45.378  33.494  28.619  1.00  0.00     0.173 A 
ATOM    100  F   UNL A   1      45.620  32.082  31.963  1.00  0.00    -0.203 F 
ATOM    101  C   UNL A   1      45.877  34.303  31.226  1.00  0.00     0.198 A 
ATOM    102  C   UNL A   1      45.654  34.829  28.894  1.00  0.00     0.198 A 
ATOM    103  F   UNL A   1      45.140  33.135  27.348  1.00  0.00    -0.203 F 
ATOM    104  F   UNL A   1      46.085  34.697  32.490  1.00  0.00    -0.200 F 
ATOM    105  C   UNL A   1      45.895  35.234  30.198  1.00  0.00     0.200 A 
ATOM    106  F   UNL A   1      45.689  35.725  27.898  1.00  0.00    -0.200 F 
ATOM    107  F   UNL A   1      46.141  36.525  30.465  1.00  0.00    -0.200 F 
ENDBRANCH  74  97
ENDBRANCH  48  49
ENDBRANCH  41  43
ENDBRANCH  40  41
ENDBRANCH  39  40
ENDBRANCH  38  39
ENDBRANCH  37  38
ENDBRANCH  36  37
ENDBRANCH  35  36
ENDBRANCH   1  35
TORSDOF 22
ENDMDL
