MODEL 1
REMARK VINA RESULT:     -10.4      0.000      0.000
REMARK SMILES CC[N@@H+]1CCO[C@@H](C[N@@H+](CCC(=O)OCCOCCOCCOC(=O)c2ccc(-c3c4nc(c(-c5c(F)c(F)c(F)c(F)c5F)c5ccc([nH]5)c(-c5c(F)c(F)c(F)c(F)c5F)c5nc(c(-c6c(F)c(F)c(F)c(F)c6F)c6ccc3[nH]6)C=C5)C=C4)cc2)C2CC2)C1
REMARK SMILES IDX 17 1 16 2 15 3 14 4 12 5 13 6 11 7 10 8 9 9 8 11 7 12 3 13
REMARK SMILES IDX 4 14 92 15 5 17 6 18 2 19 1 20 89 21 90 22 91 23 18 24 19 25
REMARK SMILES IDX 20 26 21 27 22 28 23 29 24 30 25 31 26 32 27 33 88 34 28 35
REMARK SMILES IDX 87 36 29 37 30 38 31 39 81 40 32 41 86 42 80 43 82 44 33 45
REMARK SMILES IDX 85 46 79 47 78 48 34 50 66 51 46 52 65 53 47 54 50 55 64 56
REMARK SMILES IDX 83 57 48 58 49 59 63 61 84 62 51 63 35 64 36 65 44 66 37 67
REMARK SMILES IDX 38 68 42 69 45 70 39 71 40 72 43 73 41 74 67 75 68 76 76 77
REMARK SMILES IDX 69 78 70 79 74 80 77 81 71 82 72 83 75 84 73 85 52 86 53 87
REMARK SMILES IDX 61 88 54 89 55 90 59 91 62 92 56 93 57 94 60 95 58 96
REMARK H PARENT 9 10 3 16 82 49 50 60
REMARK Flexibility Score: inf
ROOT
ATOM      1  O   UNL A   1      41.071  21.019  27.374  1.00  0.00    -0.376 OA
ENDROOT
BRANCH   1   2
ATOM      2  C   UNL A   1      39.977  21.870  27.025  1.00  0.00     0.202 C 
BRANCH   2   3
ATOM      3  C   UNL A   1      39.241  21.397  25.766  1.00  0.00     0.261 C 
BRANCH   3   4
ATOM      4  O   UNL A   1      38.109  22.232  25.437  1.00  0.00    -0.463 OA
BRANCH   4   5
ATOM      5  C   UNL A   1      37.153  21.694  24.641  1.00  0.00     0.311 C 
ATOM      6  O   UNL A   1      36.826  20.512  24.649  1.00  0.00    -0.252 OA
BRANCH   5   7
ATOM      7  C   UNL A   1      36.570  22.671  23.649  1.00  0.00     0.184 C 
BRANCH   7   8
ATOM      8  C   UNL A   1      35.049  22.775  23.516  1.00  0.00     0.274 C 
BRANCH   8   9
ATOM      9  N   UNL A   1      34.226  23.126  24.675  1.00  0.00    -0.330 N 
ATOM     10  H   UNL A   1      34.919  23.412  25.367  1.00  0.00     0.348 HD
BRANCH   9  11
ATOM     11  C   UNL A   1      33.615  21.984  25.383  1.00  0.00     0.300 C 
BRANCH  11  12
ATOM     12  C   UNL A   1      33.537  20.598  24.685  1.00  0.00     0.228 C 
ATOM     13  N   UNL A   1      33.204  18.116  25.098  1.00  0.00    -0.331 N 
ATOM     14  C   UNL A   1      32.148  18.165  24.061  1.00  0.00     0.291 C 
ATOM     15  C   UNL A   1      33.297  19.458  25.705  1.00  0.00     0.300 C 
ATOM     16  H   UNL A   1      32.980  17.474  25.858  1.00  0.00     0.348 HD
ATOM     17  C   UNL A   1      32.287  19.357  23.090  1.00  0.00     0.222 C 
ATOM     18  O   UNL A   1      32.409  20.614  23.773  1.00  0.00    -0.361 OA
BRANCH  13  19
ATOM     19  C   UNL A   1      34.447  17.546  24.555  1.00  0.00     0.258 C 
ATOM     20  C   UNL A   1      34.370  16.859  23.196  1.00  0.00     0.071 C 
ENDBRANCH  13  19
ENDBRANCH  11  12
ENDBRANCH   9  11
BRANCH   9  21
ATOM     21  C   UNL A   1      33.514  24.399  24.638  1.00  0.00     0.184 C 
ATOM     22  C   UNL A   1      33.419  25.178  25.933  1.00  0.00     0.071 C 
ATOM     23  C   UNL A   1      34.151  25.749  24.769  1.00  0.00     0.071 C 
ENDBRANCH   9  21
ENDBRANCH   8   9
ENDBRANCH   7   8
ENDBRANCH   5   7
ENDBRANCH   4   5
ENDBRANCH   3   4
ENDBRANCH   2   3
ENDBRANCH   1   2
BRANCH   1  24
ATOM     24  C   UNL A   1      41.100  19.788  26.658  1.00  0.00     0.188 C 
BRANCH  24  25
ATOM     25  C   UNL A   1      42.493  19.490  26.128  1.00  0.00     0.188 C 
BRANCH  25  26
ATOM     26  O   UNL A   1      42.942  20.572  25.312  1.00  0.00    -0.376 OA
BRANCH  26  27
ATOM     27  C   UNL A   1      44.346  20.620  25.078  1.00  0.00     0.202 C 
BRANCH  27  28
ATOM     28  C   UNL A   1      44.971  21.945  25.525  1.00  0.00     0.261 C 
BRANCH  28  29
ATOM     29  O   UNL A   1      43.944  22.869  25.905  1.00  0.00    -0.460 OA
BRANCH  29  30
ATOM     30  C   UNL A   1      44.124  24.133  25.443  1.00  0.00     0.338 C 
ATOM     31  O   UNL A   1      44.659  24.472  24.400  1.00  0.00    -0.246 OA
BRANCH  30  32
ATOM     32  C   UNL A   1      43.389  25.067  26.326  1.00  0.00     0.060 A 
ATOM     33  C   UNL A   1      43.729  26.429  26.275  1.00  0.00     0.016 A 
ATOM     34  C   UNL A   1      42.312  24.640  27.112  1.00  0.00     0.016 A 
ATOM     35  C   UNL A   1      43.028  27.355  27.047  1.00  0.00     0.010 A 
ATOM     36  C   UNL A   1      41.611  25.563  27.884  1.00  0.00     0.010 A 
ATOM     37  C   UNL A   1      41.999  26.913  27.889  1.00  0.00    -0.014 A 
BRANCH  37  38
ATOM     38  C   UNL A   1      41.540  27.773  29.001  1.00  0.00     0.031 A 
ATOM     39  C   UNL A   1      42.284  27.648  30.302  1.00  0.00     0.074 A 
ATOM     40  C   UNL A   1      40.493  28.605  28.879  1.00  0.00     0.049 A 
ATOM     41  N   UNL A   1      42.046  28.205  31.459  1.00  0.00    -0.248 NA
ATOM     42  C   UNL A   1      43.456  26.754  30.294  1.00  0.00     0.031 C 
ATOM     43  C   UNL A   1      39.716  28.820  27.662  1.00  0.00     0.029 A 
ATOM     44  N   UNL A   1      39.897  29.415  29.811  1.00  0.00    -0.354 N 
ATOM     45  C   UNL A   1      43.030  27.724  32.313  1.00  0.00     0.074 A 
ATOM     46  C   UNL A   1      43.843  26.800  31.557  1.00  0.00     0.031 C 
ATOM     47  C   UNL A   1      38.731  29.699  27.926  1.00  0.00     0.029 A 
ATOM     48  C   UNL A   1      38.795  30.082  29.336  1.00  0.00     0.049 A 
ATOM     49  H   UNL A   1      40.228  29.509  30.734  1.00  0.00     0.167 HD
ATOM     50  C   UNL A   1      43.244  28.033  33.612  1.00  0.00     0.037 A 
ATOM     51  C   UNL A   1      37.934  30.892  29.983  1.00  0.00     0.037 A 
ATOM     52  C   UNL A   1      42.422  28.942  34.360  1.00  0.00     0.049 A 
ATOM     53  C   UNL A   1      38.159  31.178  31.449  1.00  0.00     0.074 A 
ATOM     54  C   UNL A   1      42.545  29.332  35.680  1.00  0.00     0.029 A 
ATOM     55  N   UNL A   1      41.313  29.598  33.845  1.00  0.00    -0.354 N 
ATOM     56  N   UNL A   1      39.108  30.744  32.245  1.00  0.00    -0.248 NA
ATOM     57  C   UNL A   1      37.194  32.072  32.104  1.00  0.00     0.031 C 
ATOM     58  C   UNL A   1      41.481  30.189  35.978  1.00  0.00     0.029 A 
ATOM     59  C   UNL A   1      40.730  30.378  34.828  1.00  0.00     0.049 A 
ATOM     60  H   UNL A   1      40.989  29.519  32.919  1.00  0.00     0.167 HD
ATOM     61  C   UNL A   1      38.876  31.339  33.480  1.00  0.00     0.074 A 
ATOM     62  C   UNL A   1      37.701  32.172  33.324  1.00  0.00     0.031 C 
ATOM     63  C   UNL A   1      39.569  31.210  34.640  1.00  0.00     0.037 A 
BRANCH  50  64
ATOM     64  C   UNL A   1      44.393  27.355  34.295  1.00  0.00     0.064 A 
ATOM     65  C   UNL A   1      45.698  27.867  34.227  1.00  0.00     0.173 A 
ATOM     66  C   UNL A   1      44.190  26.171  35.019  1.00  0.00     0.173 A 
ATOM     67  F   UNL A   1      45.950  28.983  33.525  1.00  0.00    -0.203 F 
ATOM     68  C   UNL A   1      46.762  27.203  34.832  1.00  0.00     0.198 A 
ATOM     69  C   UNL A   1      45.251  25.527  35.650  1.00  0.00     0.198 A 
ATOM     70  F   UNL A   1      42.963  25.636  35.110  1.00  0.00    -0.203 F 
ATOM     71  F   UNL A   1      48.008  27.679  34.702  1.00  0.00    -0.200 F 
ATOM     72  C   UNL A   1      46.536  26.038  35.549  1.00  0.00     0.200 A 
ATOM     73  F   UNL A   1      45.030  24.404  36.349  1.00  0.00    -0.200 F 
ATOM     74  F   UNL A   1      47.559  25.400  36.133  1.00  0.00    -0.200 F 
ENDBRANCH  50  64
BRANCH  51  75
ATOM     75  C   UNL A   1      36.784  31.496  29.260  1.00  0.00     0.064 A 
ATOM     76  C   UNL A   1      36.743  32.871  28.988  1.00  0.00     0.173 A 
ATOM     77  C   UNL A   1      35.689  30.721  28.854  1.00  0.00     0.173 A 
ATOM     78  F   UNL A   1      37.752  33.661  29.382  1.00  0.00    -0.203 F 
ATOM     79  C   UNL A   1      35.641  33.450  28.360  1.00  0.00     0.198 A 
ATOM     80  C   UNL A   1      34.600  31.296  28.199  1.00  0.00     0.198 A 
ATOM     81  F   UNL A   1      35.674  29.401  29.093  1.00  0.00    -0.203 F 
ATOM     82  F   UNL A   1      35.605  34.776  28.163  1.00  0.00    -0.200 F 
ATOM     83  C   UNL A   1      34.573  32.662  27.961  1.00  0.00     0.200 A 
ATOM     84  F   UNL A   1      33.573  30.529  27.809  1.00  0.00    -0.200 F 
ATOM     85  F   UNL A   1      33.513  33.219  27.359  1.00  0.00    -0.200 F 
ENDBRANCH  51  75
BRANCH  63  86
ATOM     86  C   UNL A   1      39.108  32.027  35.813  1.00  0.00     0.064 A 
ATOM     87  C   UNL A   1      38.281  31.489  36.809  1.00  0.00     0.173 A 
ATOM     88  C   UNL A   1      39.542  33.353  35.963  1.00  0.00     0.173 A 
ATOM     89  F   UNL A   1      37.831  30.230  36.706  1.00  0.00    -0.203 F 
ATOM     90  C   UNL A   1      37.879  32.260  37.896  1.00  0.00     0.198 A 
ATOM     91  C   UNL A   1      39.166  34.110  37.069  1.00  0.00     0.198 A 
ATOM     92  F   UNL A   1      40.346  33.910  35.044  1.00  0.00    -0.203 F 
ATOM     93  F   UNL A   1      37.046  31.744  38.810  1.00  0.00    -0.200 F 
ATOM     94  C   UNL A   1      38.328  33.566  38.029  1.00  0.00     0.200 A 
ATOM     95  F   UNL A   1      39.616  35.365  37.204  1.00  0.00    -0.200 F 
ATOM     96  F   UNL A   1      37.946  34.304  39.081  1.00  0.00    -0.200 F 
ENDBRANCH  63  86
ENDBRANCH  37  38
ENDBRANCH  30  32
ENDBRANCH  29  30
ENDBRANCH  28  29
ENDBRANCH  27  28
ENDBRANCH  26  27
ENDBRANCH  25  26
ENDBRANCH  24  25
ENDBRANCH   1  24
TORSDOF 23
ENDMDL
MODEL 2
REMARK VINA RESULT:     -10.3      1.182      2.669
REMARK SMILES CC[N@@H+]1CCO[C@@H](C[N@@H+](CCC(=O)OCCOCCOCCOC(=O)c2ccc(-c3c4nc(c(-c5c(F)c(F)c(F)c(F)c5F)c5ccc([nH]5)c(-c5c(F)c(F)c(F)c(F)c5F)c5nc(c(-c6c(F)c(F)c(F)c(F)c6F)c6ccc3[nH]6)C=C5)C=C4)cc2)C2CC2)C1
REMARK SMILES IDX 17 1 16 2 15 3 14 4 12 5 13 6 11 7 10 8 9 9 8 11 7 12 3 13
REMARK SMILES IDX 4 14 92 15 5 17 6 18 2 19 1 20 89 21 90 22 91 23 18 24 19 25
REMARK SMILES IDX 20 26 21 27 22 28 23 29 24 30 25 31 26 32 27 33 88 34 28 35
REMARK SMILES IDX 87 36 29 37 30 38 31 39 81 40 32 41 86 42 80 43 82 44 33 45
REMARK SMILES IDX 85 46 79 47 78 48 34 50 66 51 46 52 65 53 47 54 50 55 64 56
REMARK SMILES IDX 83 57 48 58 49 59 63 61 84 62 51 63 35 64 36 65 44 66 37 67
REMARK SMILES IDX 38 68 42 69 45 70 39 71 40 72 43 73 41 74 67 75 68 76 76 77
REMARK SMILES IDX 69 78 70 79 74 80 77 81 71 82 72 83 75 84 73 85 52 86 53 87
REMARK SMILES IDX 61 88 54 89 55 90 59 91 62 92 56 93 57 94 60 95 58 96
REMARK H PARENT 9 10 3 16 82 49 50 60
REMARK Flexibility Score: inf
ROOT
ATOM      1  O   UNL A   1      40.334  20.777  27.039  1.00  0.00    -0.376 OA
ENDROOT
BRANCH   1   2
ATOM      2  C   UNL A   1      39.885  21.923  26.313  1.00  0.00     0.202 C 
BRANCH   2   3
ATOM      3  C   UNL A   1      38.470  21.747  25.751  1.00  0.00     0.261 C 
BRANCH   3   4
ATOM      4  O   UNL A   1      37.724  22.984  25.723  1.00  0.00    -0.463 OA
BRANCH   4   5
ATOM      5  C   UNL A   1      36.499  22.958  25.146  1.00  0.00     0.311 C 
ATOM      6  O   UNL A   1      36.259  22.467  24.048  1.00  0.00    -0.252 OA
BRANCH   5   7
ATOM      7  C   UNL A   1      35.440  23.685  25.937  1.00  0.00     0.184 C 
BRANCH   7   8
ATOM      8  C   UNL A   1      34.286  22.883  26.544  1.00  0.00     0.274 C 
BRANCH   8   9
ATOM      9  N   UNL A   1      32.935  22.995  25.990  1.00  0.00    -0.330 N 
ATOM     10  H   UNL A   1      33.086  23.513  25.124  1.00  0.00     0.348 HD
BRANCH   9  11
ATOM     11  C   UNL A   1      32.040  23.932  26.697  1.00  0.00     0.300 C 
BRANCH  11  12
ATOM     12  C   UNL A   1      31.585  25.241  25.995  1.00  0.00     0.228 C 
ATOM     13  N   UNL A   1      32.128  26.843  24.103  1.00  0.00    -0.331 N 
ATOM     14  C   UNL A   1      30.720  26.686  23.671  1.00  0.00     0.291 C 
ATOM     15  C   UNL A   1      32.516  25.610  24.814  1.00  0.00     0.300 C 
ATOM     16  H   UNL A   1      32.772  26.933  23.317  1.00  0.00     0.348 HD
ATOM     17  C   UNL A   1      29.776  26.207  24.795  1.00  0.00     0.222 C 
ATOM     18  O   UNL A   1      30.257  25.026  25.454  1.00  0.00    -0.361 OA
BRANCH  13  19
ATOM     19  C   UNL A   1      32.319  28.112  24.821  1.00  0.00     0.258 C 
ATOM     20  C   UNL A   1      33.748  28.519  25.160  1.00  0.00     0.071 C 
ENDBRANCH  13  19
ENDBRANCH  11  12
ENDBRANCH   9  11
BRANCH   9  21
ATOM     21  C   UNL A   1      32.363  21.809  25.359  1.00  0.00     0.184 C 
ATOM     22  C   UNL A   1      32.982  21.353  24.054  1.00  0.00     0.071 C 
ATOM     23  C   UNL A   1      33.039  20.476  25.256  1.00  0.00     0.071 C 
ENDBRANCH   9  21
ENDBRANCH   8   9
ENDBRANCH   7   8
ENDBRANCH   5   7
ENDBRANCH   4   5
ENDBRANCH   3   4
ENDBRANCH   2   3
ENDBRANCH   1   2
BRANCH   1  24
ATOM     24  C   UNL A   1      40.696  19.673  26.216  1.00  0.00     0.188 C 
BRANCH  24  25
ATOM     25  C   UNL A   1      42.199  19.445  26.225  1.00  0.00     0.188 C 
BRANCH  25  26
ATOM     26  O   UNL A   1      42.839  20.406  25.385  1.00  0.00    -0.376 OA
BRANCH  26  27
ATOM     27  C   UNL A   1      44.263  20.408  25.432  1.00  0.00     0.202 C 
BRANCH  27  28
ATOM     28  C   UNL A   1      44.845  21.819  25.557  1.00  0.00     0.261 C 
BRANCH  28  29
ATOM     29  O   UNL A   1      43.800  22.759  25.833  1.00  0.00    -0.460 OA
BRANCH  29  30
ATOM     30  C   UNL A   1      44.044  24.020  25.392  1.00  0.00     0.338 C 
ATOM     31  O   UNL A   1      44.623  24.348  24.369  1.00  0.00    -0.246 OA
BRANCH  30  32
ATOM     32  C   UNL A   1      43.321  24.974  26.264  1.00  0.00     0.060 A 
ATOM     33  C   UNL A   1      43.715  26.321  26.237  1.00  0.00     0.016 A 
ATOM     34  C   UNL A   1      42.208  24.581  27.016  1.00  0.00     0.016 A 
ATOM     35  C   UNL A   1      43.029  27.267  26.999  1.00  0.00     0.010 A 
ATOM     36  C   UNL A   1      41.522  25.523  27.778  1.00  0.00     0.010 A 
ATOM     37  C   UNL A   1      41.961  26.857  27.808  1.00  0.00    -0.014 A 
BRANCH  37  38
ATOM     38  C   UNL A   1      41.505  27.723  28.916  1.00  0.00     0.031 A 
ATOM     39  C   UNL A   1      42.258  27.613  30.213  1.00  0.00     0.074 A 
ATOM     40  C   UNL A   1      40.453  28.550  28.794  1.00  0.00     0.049 A 
ATOM     41  N   UNL A   1      42.024  28.178  31.368  1.00  0.00    -0.248 NA
ATOM     42  C   UNL A   1      43.434  26.724  30.205  1.00  0.00     0.031 C 
ATOM     43  C   UNL A   1      39.667  28.752  27.580  1.00  0.00     0.029 A 
ATOM     44  N   UNL A   1      39.859  29.364  29.723  1.00  0.00    -0.354 N 
ATOM     45  C   UNL A   1      43.016  27.708  32.218  1.00  0.00     0.074 A 
ATOM     46  C   UNL A   1      43.829  26.782  31.465  1.00  0.00     0.031 C 
ATOM     47  C   UNL A   1      38.680  29.627  27.844  1.00  0.00     0.029 A 
ATOM     48  C   UNL A   1      38.751  30.022  29.250  1.00  0.00     0.049 A 
ATOM     49  H   UNL A   1      40.195  29.467  30.643  1.00  0.00     0.167 HD
ATOM     50  C   UNL A   1      43.237  28.029  33.514  1.00  0.00     0.037 A 
ATOM     51  C   UNL A   1      37.891  30.833  29.896  1.00  0.00     0.037 A 
ATOM     52  C   UNL A   1      42.415  28.939  34.259  1.00  0.00     0.049 A 
ATOM     53  C   UNL A   1      38.123  31.132  31.358  1.00  0.00     0.074 A 
ATOM     54  C   UNL A   1      42.545  29.340  35.576  1.00  0.00     0.029 A 
ATOM     55  N   UNL A   1      41.300  29.586  33.747  1.00  0.00    -0.354 N 
ATOM     56  N   UNL A   1      39.080  30.709  32.152  1.00  0.00    -0.248 NA
ATOM     57  C   UNL A   1      37.158  32.026  32.012  1.00  0.00     0.031 C 
ATOM     58  C   UNL A   1      41.479  30.195  35.874  1.00  0.00     0.029 A 
ATOM     59  C   UNL A   1      40.720  30.372  34.727  1.00  0.00     0.049 A 
ATOM     60  H   UNL A   1      40.970  29.499  32.823  1.00  0.00     0.167 HD
ATOM     61  C   UNL A   1      38.852  31.312  33.383  1.00  0.00     0.074 A 
ATOM     62  C   UNL A   1      37.673  32.138  33.228  1.00  0.00     0.031 C 
ATOM     63  C   UNL A   1      39.553  31.196  34.539  1.00  0.00     0.037 A 
BRANCH  50  64
ATOM     64  C   UNL A   1      44.394  27.362  34.195  1.00  0.00     0.064 A 
ATOM     65  C   UNL A   1      45.671  27.944  34.221  1.00  0.00     0.173 A 
ATOM     66  C   UNL A   1      44.227  26.118  34.822  1.00  0.00     0.173 A 
ATOM     67  F   UNL A   1      45.888  29.121  33.613  1.00  0.00    -0.203 F 
ATOM     68  C   UNL A   1      46.744  27.292  34.822  1.00  0.00     0.198 A 
ATOM     69  C   UNL A   1      45.296  25.484  35.449  1.00  0.00     0.198 A 
ATOM     70  F   UNL A   1      43.029  25.514  34.820  1.00  0.00    -0.203 F 
ATOM     71  F   UNL A   1      47.966  27.840  34.781  1.00  0.00    -0.200 F 
ATOM     72  C   UNL A   1      46.554  26.067  35.442  1.00  0.00     0.200 A 
ATOM     73  F   UNL A   1      45.109  24.302  36.054  1.00  0.00    -0.200 F 
ATOM     74  F   UNL A   1      47.587  25.440  36.021  1.00  0.00    -0.200 F 
ENDBRANCH  50  64
BRANCH  51  75
ATOM     75  C   UNL A   1      36.733  31.426  29.176  1.00  0.00     0.064 A 
ATOM     76  C   UNL A   1      36.702  32.791  28.857  1.00  0.00     0.173 A 
ATOM     77  C   UNL A   1      35.620  30.651  28.819  1.00  0.00     0.173 A 
ATOM     78  F   UNL A   1      37.729  33.582  29.203  1.00  0.00    -0.203 F 
ATOM     79  C   UNL A   1      35.594  33.361  28.231  1.00  0.00     0.198 A 
ATOM     80  C   UNL A   1      34.525  31.216  28.166  1.00  0.00     0.198 A 
ATOM     81  F   UNL A   1      35.595  29.340  29.104  1.00  0.00    -0.203 F 
ATOM     82  F   UNL A   1      35.570  34.680  27.989  1.00  0.00    -0.200 F 
ATOM     83  C   UNL A   1      34.510  32.573  27.882  1.00  0.00     0.200 A 
ATOM     84  F   UNL A   1      33.482  30.449  27.824  1.00  0.00    -0.200 F 
ATOM     85  F   UNL A   1      33.444  33.122  27.282  1.00  0.00    -0.200 F 
ENDBRANCH  51  75
BRANCH  63  86
ATOM     86  C   UNL A   1      39.096  32.020  35.709  1.00  0.00     0.064 A 
ATOM     87  C   UNL A   1      38.305  31.477  36.731  1.00  0.00     0.173 A 
ATOM     88  C   UNL A   1      39.497  33.360  35.828  1.00  0.00     0.173 A 
ATOM     89  F   UNL A   1      37.886  30.205  36.659  1.00  0.00    -0.203 F 
ATOM     90  C   UNL A   1      37.906  32.256  37.815  1.00  0.00     0.198 A 
ATOM     91  C   UNL A   1      39.125  34.124  36.929  1.00  0.00     0.198 A 
ATOM     92  F   UNL A   1      40.266  33.922  34.883  1.00  0.00    -0.203 F 
ATOM     93  F   UNL A   1      37.106  31.733  38.754  1.00  0.00    -0.200 F 
ATOM     94  C   UNL A   1      38.323  33.576  37.916  1.00  0.00     0.200 A 
ATOM     95  F   UNL A   1      39.544  35.393  37.034  1.00  0.00    -0.200 F 
ATOM     96  F   UNL A   1      37.944  34.320  38.965  1.00  0.00    -0.200 F 
ENDBRANCH  63  86
ENDBRANCH  37  38
ENDBRANCH  30  32
ENDBRANCH  29  30
ENDBRANCH  28  29
ENDBRANCH  27  28
ENDBRANCH  26  27
ENDBRANCH  25  26
ENDBRANCH  24  25
ENDBRANCH   1  24
TORSDOF 23
ENDMDL
MODEL 3
REMARK VINA RESULT:      -9.8      4.121      9.392
REMARK SMILES CC[N@@H+]1CCO[C@@H](C[N@@H+](CCC(=O)OCCOCCOCCOC(=O)c2ccc(-c3c4nc(c(-c5c(F)c(F)c(F)c(F)c5F)c5ccc([nH]5)c(-c5c(F)c(F)c(F)c(F)c5F)c5nc(c(-c6c(F)c(F)c(F)c(F)c6F)c6ccc3[nH]6)C=C5)C=C4)cc2)C2CC2)C1
REMARK SMILES IDX 17 1 16 2 15 3 14 4 12 5 13 6 11 7 10 8 9 9 8 11 7 12 3 13
REMARK SMILES IDX 4 14 92 15 5 17 6 18 2 19 1 20 89 21 90 22 91 23 18 24 19 25
REMARK SMILES IDX 20 26 21 27 22 28 23 29 24 30 25 31 26 32 27 33 88 34 28 35
REMARK SMILES IDX 87 36 29 37 30 38 31 39 81 40 32 41 86 42 80 43 82 44 33 45
REMARK SMILES IDX 85 46 79 47 78 48 34 50 66 51 46 52 65 53 47 54 50 55 64 56
REMARK SMILES IDX 83 57 48 58 49 59 63 61 84 62 51 63 35 64 36 65 44 66 37 67
REMARK SMILES IDX 38 68 42 69 45 70 39 71 40 72 43 73 41 74 67 75 68 76 76 77
REMARK SMILES IDX 69 78 70 79 74 80 77 81 71 82 72 83 75 84 73 85 52 86 53 87
REMARK SMILES IDX 61 88 54 89 55 90 59 91 62 92 56 93 57 94 60 95 58 96
REMARK H PARENT 9 10 3 16 82 49 50 60
REMARK Flexibility Score: inf
ROOT
ATOM      1  O   UNL A   1      34.927  31.270  28.996  1.00  0.00    -0.376 OA
ENDROOT
BRANCH   1   2
ATOM      2  C   UNL A   1      34.953  31.024  27.589  1.00  0.00     0.202 C 
BRANCH   2   3
ATOM      3  C   UNL A   1      34.661  29.560  27.241  1.00  0.00     0.261 C 
BRANCH   3   4
ATOM      4  O   UNL A   1      33.502  29.410  26.391  1.00  0.00    -0.463 OA
BRANCH   4   5
ATOM      5  C   UNL A   1      33.427  28.286  25.638  1.00  0.00     0.311 C 
ATOM      6  O   UNL A   1      33.727  28.224  24.450  1.00  0.00    -0.252 OA
BRANCH   5   7
ATOM      7  C   UNL A   1      32.838  27.104  26.369  1.00  0.00     0.184 C 
BRANCH   7   8
ATOM      8  C   UNL A   1      31.316  26.990  26.489  1.00  0.00     0.274 C 
BRANCH   8   9
ATOM      9  N   UNL A   1      30.600  25.905  25.816  1.00  0.00    -0.330 N 
ATOM     10  H   UNL A   1      29.627  26.087  26.063  1.00  0.00     0.348 HD
BRANCH   9  11
ATOM     11  C   UNL A   1      30.771  24.568  26.418  1.00  0.00     0.300 C 
BRANCH  11  12
ATOM     12  C   UNL A   1      31.791  23.570  25.803  1.00  0.00     0.228 C 
ATOM     13  N   UNL A   1      34.014  22.413  26.200  1.00  0.00    -0.331 N 
ATOM     14  C   UNL A   1      33.315  21.141  25.906  1.00  0.00     0.291 C 
ATOM     15  C   UNL A   1      33.014  23.360  26.729  1.00  0.00     0.300 C 
ATOM     16  H   UNL A   1      34.724  22.313  26.926  1.00  0.00     0.348 HD
ATOM     17  C   UNL A   1      32.024  21.319  25.079  1.00  0.00     0.222 C 
ATOM     18  O   UNL A   1      31.131  22.287  25.652  1.00  0.00    -0.361 OA
BRANCH  13  19
ATOM     19  C   UNL A   1      34.802  22.859  25.041  1.00  0.00     0.258 C 
ATOM     20  C   UNL A   1      35.432  24.245  25.111  1.00  0.00     0.071 C 
ENDBRANCH  13  19
ENDBRANCH  11  12
ENDBRANCH   9  11
BRANCH   9  21
ATOM     21  C   UNL A   1      30.413  26.012  24.372  1.00  0.00     0.184 C 
ATOM     22  C   UNL A   1      29.060  26.484  23.882  1.00  0.00     0.071 C 
ATOM     23  C   UNL A   1      30.278  27.297  23.613  1.00  0.00     0.071 C 
ENDBRANCH   9  21
ENDBRANCH   8   9
ENDBRANCH   7   8
ENDBRANCH   5   7
ENDBRANCH   4   5
ENDBRANCH   3   4
ENDBRANCH   2   3
ENDBRANCH   1   2
BRANCH   1  24
ATOM     24  C   UNL A   1      34.679  32.629  29.343  1.00  0.00     0.188 C 
BRANCH  24  25
ATOM     25  C   UNL A   1      34.973  33.559  28.177  1.00  0.00     0.188 C 
BRANCH  25  26
ATOM     26  O   UNL A   1      33.887  34.468  27.997  1.00  0.00    -0.376 OA
BRANCH  26  27
ATOM     27  C   UNL A   1      34.041  35.737  28.626  1.00  0.00     0.202 C 
BRANCH  27  28
ATOM     28  C   UNL A   1      32.828  36.122  29.477  1.00  0.00     0.261 C 
BRANCH  28  29
ATOM     29  O   UNL A   1      32.616  35.143  30.502  1.00  0.00    -0.460 OA
BRANCH  29  30
ATOM     30  C   UNL A   1      32.795  35.603  31.767  1.00  0.00     0.338 C 
ATOM     31  O   UNL A   1      32.057  36.342  32.398  1.00  0.00    -0.246 OA
BRANCH  30  32
ATOM     32  C   UNL A   1      33.959  34.908  32.362  1.00  0.00     0.060 A 
ATOM     33  C   UNL A   1      35.210  35.541  32.296  1.00  0.00     0.016 A 
ATOM     34  C   UNL A   1      33.815  33.706  33.066  1.00  0.00     0.016 A 
ATOM     35  C   UNL A   1      36.326  34.951  32.891  1.00  0.00     0.010 A 
ATOM     36  C   UNL A   1      34.927  33.115  33.659  1.00  0.00     0.010 A 
ATOM     37  C   UNL A   1      36.192  33.712  33.531  1.00  0.00    -0.014 A 
BRANCH  37  38
ATOM     38  C   UNL A   1      37.390  32.883  33.786  1.00  0.00     0.031 A 
ATOM     39  C   UNL A   1      38.140  33.155  35.060  1.00  0.00     0.074 A 
ATOM     40  C   UNL A   1      37.815  31.952  32.917  1.00  0.00     0.049 A 
ATOM     41  N   UNL A   1      39.264  32.651  35.494  1.00  0.00    -0.248 NA
ATOM     42  C   UNL A   1      37.540  34.153  35.964  1.00  0.00     0.031 C 
ATOM     43  C   UNL A   1      37.154  31.591  31.666  1.00  0.00     0.029 A 
ATOM     44  N   UNL A   1      38.926  31.148  32.959  1.00  0.00    -0.354 N 
ATOM     45  C   UNL A   1      39.505  33.272  36.712  1.00  0.00     0.074 A 
ATOM     46  C   UNL A   1      38.438  34.220  36.932  1.00  0.00     0.031 C 
ATOM     47  C   UNL A   1      37.883  30.643  31.048  1.00  0.00     0.029 A 
ATOM     48  C   UNL A   1      39.073  30.354  31.849  1.00  0.00     0.049 A 
ATOM     49  H   UNL A   1      39.558  31.142  33.714  1.00  0.00     0.167 HD
ATOM     50  C   UNL A   1      40.523  33.064  37.578  1.00  0.00     0.037 A 
ATOM     51  C   UNL A   1      40.069  29.508  31.521  1.00  0.00     0.037 A 
ATOM     52  C   UNL A   1      41.588  32.131  37.345  1.00  0.00     0.049 A 
ATOM     53  C   UNL A   1      41.226  29.335  32.477  1.00  0.00     0.074 A 
ATOM     54  C   UNL A   1      42.670  31.835  38.152  1.00  0.00     0.029 A 
ATOM     55  N   UNL A   1      41.704  31.344  36.208  1.00  0.00    -0.354 N 
ATOM     56  N   UNL A   1      41.435  29.902  33.642  1.00  0.00    -0.248 NA
ATOM     57  C   UNL A   1      42.282  28.397  32.073  1.00  0.00     0.031 C 
ATOM     58  C   UNL A   1      43.468  30.903  37.481  1.00  0.00     0.029 A 
ATOM     59  C   UNL A   1      42.851  30.575  36.283  1.00  0.00     0.049 A 
ATOM     60  H   UNL A   1      41.065  31.335  35.459  1.00  0.00     0.167 HD
ATOM     61  C   UNL A   1      42.622  29.366  34.124  1.00  0.00     0.074 A 
ATOM     62  C   UNL A   1      43.083  28.419  33.129  1.00  0.00     0.031 C 
ATOM     63  C   UNL A   1      43.277  29.628  35.283  1.00  0.00     0.037 A 
BRANCH  50  64
ATOM     64  C   UNL A   1      40.532  33.887  38.831  1.00  0.00     0.064 A 
ATOM     65  C   UNL A   1      39.820  33.496  39.976  1.00  0.00     0.173 A 
ATOM     66  C   UNL A   1      41.255  35.088  38.887  1.00  0.00     0.173 A 
ATOM     67  F   UNL A   1      39.091  32.369  39.965  1.00  0.00    -0.203 F 
ATOM     68  C   UNL A   1      39.805  34.292  41.118  1.00  0.00     0.198 A 
ATOM     69  C   UNL A   1      41.264  35.865  40.042  1.00  0.00     0.198 A 
ATOM     70  F   UNL A   1      41.947  35.510  37.819  1.00  0.00    -0.203 F 
ATOM     71  F   UNL A   1      39.068  33.927  42.176  1.00  0.00    -0.200 F 
ATOM     72  C   UNL A   1      40.532  35.471  41.153  1.00  0.00     0.200 A 
ATOM     73  F   UNL A   1      41.973  37.002  40.076  1.00  0.00    -0.200 F 
ATOM     74  F   UNL A   1      40.519  36.236  42.253  1.00  0.00    -0.200 F 
ENDBRANCH  50  64
BRANCH  51  75
ATOM     75  C   UNL A   1      40.025  28.757  30.239  1.00  0.00     0.064 A 
ATOM     76  C   UNL A   1      39.392  27.509  30.154  1.00  0.00     0.173 A 
ATOM     77  C   UNL A   1      40.641  29.253  29.081  1.00  0.00     0.173 A 
ATOM     78  F   UNL A   1      38.814  26.977  31.241  1.00  0.00    -0.203 F 
ATOM     79  C   UNL A   1      39.397  26.777  28.967  1.00  0.00     0.198 A 
ATOM     80  C   UNL A   1      40.620  28.534  27.887  1.00  0.00     0.198 A 
ATOM     81  F   UNL A   1      41.266  30.440  29.108  1.00  0.00    -0.203 F 
ATOM     82  F   UNL A   1      38.831  25.561  28.931  1.00  0.00    -0.200 F 
ATOM     83  C   UNL A   1      40.006  27.291  27.834  1.00  0.00     0.200 A 
ATOM     84  F   UNL A   1      41.204  29.038  26.792  1.00  0.00    -0.200 F 
ATOM     85  F   UNL A   1      40.012  26.586  26.694  1.00  0.00    -0.200 F 
ENDBRANCH  51  75
BRANCH  63  86
ATOM     86  C   UNL A   1      44.527  28.846  35.563  1.00  0.00     0.064 A 
ATOM     87  C   UNL A   1      44.497  27.621  36.245  1.00  0.00     0.173 A 
ATOM     88  C   UNL A   1      45.768  29.310  35.098  1.00  0.00     0.173 A 
ATOM     89  F   UNL A   1      43.338  27.140  36.718  1.00  0.00    -0.203 F 
ATOM     90  C   UNL A   1      45.668  26.904  36.479  1.00  0.00     0.198 A 
ATOM     91  C   UNL A   1      46.931  28.574  35.304  1.00  0.00     0.198 A 
ATOM     92  F   UNL A   1      45.849  30.470  34.428  1.00  0.00    -0.203 F 
ATOM     93  F   UNL A   1      45.623  25.762  37.178  1.00  0.00    -0.200 F 
ATOM     94  C   UNL A   1      46.882  27.378  36.001  1.00  0.00     0.200 A 
ATOM     95  F   UNL A   1      48.100  29.024  34.826  1.00  0.00    -0.200 F 
ATOM     96  F   UNL A   1      48.007  26.682  36.221  1.00  0.00    -0.200 F 
ENDBRANCH  63  86
ENDBRANCH  37  38
ENDBRANCH  30  32
ENDBRANCH  29  30
ENDBRANCH  28  29
ENDBRANCH  27  28
ENDBRANCH  26  27
ENDBRANCH  25  26
ENDBRANCH  24  25
ENDBRANCH   1  24
TORSDOF 23
ENDMDL
