MODEL 1
REMARK VINA RESULT:     -12.5      0.000      0.000
REMARK SMILES CC(C)n1c2c(c3ccccc31)[C@@H](c1ccccc1)N(CC(=O)OCCOCCOCCOC(=O)c1ccc(-c3c4nc(c(-c5c(F)c(F)c(F)c(F)c5F)c5ccc([nH]5)c(-c5c(F)c(F)c(F)c(F)c5F)c5nc(c(-c6c(F)c(F)c(F)c(F)c6F)c6ccc3[nH]6)C=C5)C=C4)cc1)C2=O
REMARK SMILES IDX 28 1 27 2 26 3 25 4 24 5 22 6 23 7 21 8 20 9 4 10 5 11 12 12
REMARK SMILES IDX 6 13 99 14 7 15 11 16 13 17 100 18 8 19 10 20 9 21 2 22 1 23
REMARK SMILES IDX 3 24 14 25 15 26 19 27 16 28 18 29 17 30 29 31 30 32 31 33
REMARK SMILES IDX 32 34 33 35 34 36 35 37 36 38 37 39 98 40 38 41 97 42 39 43
REMARK SMILES IDX 40 44 41 45 91 46 42 47 96 48 90 49 92 50 43 51 95 52 89 53
REMARK SMILES IDX 88 54 44 56 76 57 56 58 75 59 57 60 60 61 74 62 93 63 58 64
REMARK SMILES IDX 59 65 73 67 94 68 61 69 45 70 46 71 54 72 47 73 48 74 52 75
REMARK SMILES IDX 55 76 49 77 50 78 53 79 51 80 77 81 78 82 86 83 79 84 80 85
REMARK SMILES IDX 84 86 87 87 81 88 82 89 85 90 83 91 62 92 63 93 71 94 64 95
REMARK SMILES IDX 65 96 69 97 72 98 66 99 67 100 70 101 68 102
REMARK H PARENT 92 55 60 66
REMARK Flexibility Score: inf
ROOT
ATOM      1  C   UNL A   1      33.807  29.309  26.776  1.00  0.00     0.188 C 
ENDROOT
BRANCH   1   2
ATOM      2  O   UNL A   1      33.290  28.442  25.795  1.00  0.00    -0.376 OA
BRANCH   2   3
ATOM      3  C   UNL A   1      31.880  28.303  25.707  1.00  0.00     0.202 C 
BRANCH   3   4
ATOM      4  C   UNL A   1      31.208  27.174  26.508  1.00  0.00     0.261 C 
BRANCH   4   5
ATOM      5  O   UNL A   1      31.239  25.880  25.831  1.00  0.00    -0.462 OA
BRANCH   5   6
ATOM      6  C   UNL A   1      30.673  24.855  26.522  1.00  0.00     0.325 C 
ATOM      7  O   UNL A   1      29.490  24.886  26.867  1.00  0.00    -0.250 OA
BRANCH   6   8
ATOM      8  C   UNL A   1      31.491  23.515  26.657  1.00  0.00     0.243 C 
BRANCH   8   9
ATOM      9  N   UNL A   1      32.454  22.877  25.800  1.00  0.00    -0.315 N 
ATOM     10  N   UNL A   1      34.233  19.992  24.722  1.00  0.00    -0.334 N 
ATOM     11  C   UNL A   1      33.551  21.139  25.008  1.00  0.00     0.114 A 
ATOM     12  C   UNL A   1      35.604  20.301  24.847  1.00  0.00     0.049 A 
ATOM     13  C   UNL A   1      34.421  22.189  25.052  1.00  0.00     0.018 A 
ATOM     14  C   UNL A   1      32.245  21.557  25.427  1.00  0.00     0.272 C 
ATOM     15  C   UNL A   1      35.720  21.687  25.088  1.00  0.00     0.006 A 
ATOM     16  C   UNL A   1      36.781  19.531  24.811  1.00  0.00     0.027 A 
ATOM     17  C   UNL A   1      33.728  23.465  25.311  1.00  0.00     0.150 C 
ATOM     18  O   UNL A   1      31.216  20.950  25.588  1.00  0.00    -0.267 OA
ATOM     19  C   UNL A   1      36.975  22.284  25.334  1.00  0.00     0.011 A 
ATOM     20  C   UNL A   1      38.022  20.145  25.043  1.00  0.00     0.002 A 
ATOM     21  C   UNL A   1      38.122  21.503  25.307  1.00  0.00     0.001 A 
BRANCH  10  22
ATOM     22  C   UNL A   1      33.587  18.751  24.277  1.00  0.00     0.082 C 
ATOM     23  C   UNL A   1      32.944  17.905  25.372  1.00  0.00     0.031 C 
ATOM     24  C   UNL A   1      32.537  18.933  23.170  1.00  0.00     0.031 C 
ENDBRANCH  10  22
BRANCH  17  25
ATOM     25  C   UNL A   1      33.735  24.256  23.980  1.00  0.00    -0.021 A 
ATOM     26  C   UNL A   1      33.263  23.710  22.772  1.00  0.00     0.006 A 
ATOM     27  C   UNL A   1      33.968  25.656  23.968  1.00  0.00     0.006 A 
ATOM     28  C   UNL A   1      32.914  24.536  21.679  1.00  0.00     0.000 A 
ATOM     29  C   UNL A   1      33.648  26.473  22.876  1.00  0.00     0.000 A 
ATOM     30  C   UNL A   1      33.075  25.918  21.744  1.00  0.00     0.000 A 
ENDBRANCH  17  25
ENDBRANCH   8   9
ENDBRANCH   6   8
ENDBRANCH   5   6
ENDBRANCH   4   5
ENDBRANCH   3   4
ENDBRANCH   2   3
ENDBRANCH   1   2
BRANCH   1  31
ATOM     31  C   UNL A   1      32.999  30.548  27.162  1.00  0.00     0.188 C 
BRANCH  31  32
ATOM     32  O   UNL A   1      33.520  31.559  27.986  1.00  0.00    -0.376 OA
BRANCH  32  33
ATOM     33  C   UNL A   1      33.180  32.895  27.657  1.00  0.00     0.202 C 
BRANCH  33  34
ATOM     34  C   UNL A   1      33.925  34.076  28.332  1.00  0.00     0.261 C 
BRANCH  34  35
ATOM     35  O   UNL A   1      35.373  33.997  28.293  1.00  0.00    -0.460 OA
BRANCH  35  36
ATOM     36  C   UNL A   1      35.995  33.572  29.436  1.00  0.00     0.338 C 
ATOM     37  O   UNL A   1      35.577  33.730  30.572  1.00  0.00    -0.246 OA
BRANCH  36  38
ATOM     38  C   UNL A   1      37.018  32.525  29.082  1.00  0.00     0.060 A 
ATOM     39  C   UNL A   1      36.751  31.349  28.372  1.00  0.00     0.016 A 
ATOM     40  C   UNL A   1      38.229  32.601  29.768  1.00  0.00     0.016 A 
ATOM     41  C   UNL A   1      37.587  30.205  28.523  1.00  0.00     0.010 A 
ATOM     42  C   UNL A   1      39.052  31.469  29.874  1.00  0.00     0.010 A 
ATOM     43  C   UNL A   1      38.712  30.214  29.368  1.00  0.00    -0.014 A 
BRANCH  43  44
ATOM     44  C   UNL A   1      39.756  29.131  29.340  1.00  0.00     0.031 A 
ATOM     45  C   UNL A   1      40.048  28.738  30.722  1.00  0.00     0.074 A 
ATOM     46  C   UNL A   1      40.437  28.397  28.410  1.00  0.00     0.049 A 
ATOM     47  N   UNL A   1      41.051  29.200  31.383  1.00  0.00    -0.248 NA
ATOM     48  C   UNL A   1      39.091  27.954  31.497  1.00  0.00     0.031 C 
ATOM     49  C   UNL A   1      40.399  28.485  26.973  1.00  0.00     0.029 A 
ATOM     50  N   UNL A   1      41.364  27.374  28.556  1.00  0.00    -0.354 N 
ATOM     51  C   UNL A   1      40.983  28.591  32.615  1.00  0.00     0.074 A 
ATOM     52  C   UNL A   1      39.670  28.000  32.700  1.00  0.00     0.031 C 
ATOM     53  C   UNL A   1      40.957  27.421  26.352  1.00  0.00     0.029 A 
ATOM     54  C   UNL A   1      41.683  26.686  27.368  1.00  0.00     0.049 A 
ATOM     55  H   UNL A   1      41.768  27.147  29.424  1.00  0.00     0.167 HD
ATOM     56  C   UNL A   1      42.128  28.409  33.320  1.00  0.00     0.037 A 
ATOM     57  C   UNL A   1      42.710  25.838  27.076  1.00  0.00     0.037 A 
ATOM     58  C   UNL A   1      43.202  29.229  32.794  1.00  0.00     0.049 A 
ATOM     59  C   UNL A   1      43.795  26.149  28.017  1.00  0.00     0.074 A 
ATOM     60  C   UNL A   1      43.395  30.583  32.587  1.00  0.00     0.029 A 
ATOM     61  N   UNL A   1      44.155  28.602  32.031  1.00  0.00    -0.354 N 
ATOM     62  N   UNL A   1      44.524  27.225  27.966  1.00  0.00    -0.248 NA
ATOM     63  C   UNL A   1      43.814  25.419  29.269  1.00  0.00     0.031 C 
ATOM     64  C   UNL A   1      44.167  30.684  31.390  1.00  0.00     0.029 A 
ATOM     65  C   UNL A   1      44.455  29.392  30.953  1.00  0.00     0.049 A 
ATOM     66  H   UNL A   1      44.557  27.726  32.228  1.00  0.00     0.167 HD
ATOM     67  C   UNL A   1      44.705  27.564  29.294  1.00  0.00     0.074 A 
ATOM     68  C   UNL A   1      44.352  26.361  30.044  1.00  0.00     0.031 C 
ATOM     69  C   UNL A   1      44.846  28.868  29.664  1.00  0.00     0.037 A 
BRANCH  56  70
ATOM     70  C   UNL A   1      42.382  27.201  34.177  1.00  0.00     0.064 A 
ATOM     71  C   UNL A   1      42.020  27.258  35.536  1.00  0.00     0.173 A 
ATOM     72  C   UNL A   1      43.221  26.125  33.812  1.00  0.00     0.173 A 
ATOM     73  F   UNL A   1      41.251  28.257  35.995  1.00  0.00    -0.203 F 
ATOM     74  C   UNL A   1      42.528  26.355  36.469  1.00  0.00     0.198 A 
ATOM     75  C   UNL A   1      43.676  25.191  34.736  1.00  0.00     0.198 A 
ATOM     76  F   UNL A   1      43.732  25.995  32.583  1.00  0.00    -0.203 F 
ATOM     77  F   UNL A   1      42.268  26.533  37.771  1.00  0.00    -0.200 F 
ATOM     78  C   UNL A   1      43.358  25.324  36.070  1.00  0.00     0.200 A 
ATOM     79  F   UNL A   1      44.499  24.213  34.332  1.00  0.00    -0.200 F 
ATOM     80  F   UNL A   1      43.895  24.494  36.972  1.00  0.00    -0.200 F 
ENDBRANCH  56  70
BRANCH  57  81
ATOM     81  C   UNL A   1      42.766  24.631  26.202  1.00  0.00     0.064 A 
ATOM     82  C   UNL A   1      43.777  24.478  25.228  1.00  0.00     0.173 A 
ATOM     83  C   UNL A   1      42.040  23.471  26.522  1.00  0.00     0.173 A 
ATOM     84  F   UNL A   1      44.530  25.526  24.861  1.00  0.00    -0.203 F 
ATOM     85  C   UNL A   1      44.096  23.231  24.676  1.00  0.00     0.198 A 
ATOM     86  C   UNL A   1      42.358  22.224  25.968  1.00  0.00     0.198 A 
ATOM     87  F   UNL A   1      41.076  23.508  27.451  1.00  0.00    -0.203 F 
ATOM     88  F   UNL A   1      45.125  23.116  23.824  1.00  0.00    -0.200 F 
ATOM     89  C   UNL A   1      43.401  22.100  25.066  1.00  0.00     0.200 A 
ATOM     90  F   UNL A   1      41.697  21.129  26.370  1.00  0.00    -0.200 F 
ATOM     91  F   UNL A   1      43.761  20.892  24.609  1.00  0.00    -0.200 F 
ENDBRANCH  57  81
BRANCH  69  92
ATOM     92  C   UNL A   1      45.235  29.869  28.608  1.00  0.00     0.064 A 
ATOM     93  C   UNL A   1      44.335  30.561  27.778  1.00  0.00     0.173 A 
ATOM     94  C   UNL A   1      46.586  30.243  28.544  1.00  0.00     0.173 A 
ATOM     95  F   UNL A   1      43.020  30.311  27.825  1.00  0.00    -0.203 F 
ATOM     96  C   UNL A   1      44.777  31.572  26.921  1.00  0.00     0.198 A 
ATOM     97  C   UNL A   1      47.017  31.275  27.717  1.00  0.00     0.198 A 
ATOM     98  F   UNL A   1      47.487  29.635  29.332  1.00  0.00    -0.203 F 
ATOM     99  F   UNL A   1      43.904  32.224  26.138  1.00  0.00    -0.200 F 
ATOM    100  C   UNL A   1      46.114  31.938  26.905  1.00  0.00     0.200 A 
ATOM    101  F   UNL A   1      48.304  31.649  27.736  1.00  0.00    -0.200 F 
ATOM    102  F   UNL A   1      46.529  32.948  26.125  1.00  0.00    -0.200 F 
ENDBRANCH  69  92
ENDBRANCH  43  44
ENDBRANCH  36  38
ENDBRANCH  35  36
ENDBRANCH  34  35
ENDBRANCH  33  34
ENDBRANCH  32  33
ENDBRANCH  31  32
ENDBRANCH   1  31
TORSDOF 20
ENDMDL
MODEL 2
REMARK VINA RESULT:     -11.0      6.929     11.419
REMARK SMILES CC(C)n1c2c(c3ccccc31)[C@@H](c1ccccc1)N(CC(=O)OCCOCCOCCOC(=O)c1ccc(-c3c4nc(c(-c5c(F)c(F)c(F)c(F)c5F)c5ccc([nH]5)c(-c5c(F)c(F)c(F)c(F)c5F)c5nc(c(-c6c(F)c(F)c(F)c(F)c6F)c6ccc3[nH]6)C=C5)C=C4)cc1)C2=O
REMARK SMILES IDX 28 1 27 2 26 3 25 4 24 5 22 6 23 7 21 8 20 9 4 10 5 11 12 12
REMARK SMILES IDX 6 13 99 14 7 15 11 16 13 17 100 18 8 19 10 20 9 21 2 22 1 23
REMARK SMILES IDX 3 24 14 25 15 26 19 27 16 28 18 29 17 30 29 31 30 32 31 33
REMARK SMILES IDX 32 34 33 35 34 36 35 37 36 38 37 39 98 40 38 41 97 42 39 43
REMARK SMILES IDX 40 44 41 45 91 46 42 47 96 48 90 49 92 50 43 51 95 52 89 53
REMARK SMILES IDX 88 54 44 56 76 57 56 58 75 59 57 60 60 61 74 62 93 63 58 64
REMARK SMILES IDX 59 65 73 67 94 68 61 69 45 70 46 71 54 72 47 73 48 74 52 75
REMARK SMILES IDX 55 76 49 77 50 78 53 79 51 80 77 81 78 82 86 83 79 84 80 85
REMARK SMILES IDX 84 86 87 87 81 88 82 89 85 90 83 91 62 92 63 93 71 94 64 95
REMARK SMILES IDX 65 96 69 97 72 98 66 99 67 100 70 101 68 102
REMARK H PARENT 92 55 60 66
REMARK Flexibility Score: inf
ROOT
ATOM      1  C   UNL A   1      37.182  29.386  29.180  1.00  0.00     0.188 C 
ENDROOT
BRANCH   1   2
ATOM      2  O   UNL A   1      37.029  29.940  27.895  1.00  0.00    -0.376 OA
BRANCH   2   3
ATOM      3  C   UNL A   1      35.842  30.670  27.623  1.00  0.00     0.202 C 
BRANCH   3   4
ATOM      4  C   UNL A   1      34.499  29.921  27.674  1.00  0.00     0.261 C 
BRANCH   4   5
ATOM      5  O   UNL A   1      33.337  30.797  27.562  1.00  0.00    -0.462 OA
BRANCH   5   6
ATOM      6  C   UNL A   1      32.457  30.465  26.580  1.00  0.00     0.325 C 
ATOM      7  O   UNL A   1      31.428  31.115  26.389  1.00  0.00    -0.250 OA
BRANCH   6   8
ATOM      8  C   UNL A   1      32.901  29.380  25.527  1.00  0.00     0.243 C 
BRANCH   8   9
ATOM      9  N   UNL A   1      32.300  28.146  25.095  1.00  0.00    -0.315 N 
ATOM     10  N   UNL A   1      31.880  24.626  25.370  1.00  0.00    -0.334 N 
ATOM     11  C   UNL A   1      31.912  25.982  25.232  1.00  0.00     0.114 A 
ATOM     12  C   UNL A   1      32.201  24.087  24.106  1.00  0.00     0.049 A 
ATOM     13  C   UNL A   1      31.984  26.305  23.907  1.00  0.00     0.018 A 
ATOM     14  C   UNL A   1      32.050  27.159  26.039  1.00  0.00     0.272 C 
ATOM     15  C   UNL A   1      32.298  25.155  23.188  1.00  0.00     0.006 A 
ATOM     16  C   UNL A   1      32.455  22.783  23.640  1.00  0.00     0.027 A 
ATOM     17  C   UNL A   1      31.973  27.764  23.697  1.00  0.00     0.150 C 
ATOM     18  O   UNL A   1      32.102  27.318  27.232  1.00  0.00    -0.267 OA
ATOM     19  C   UNL A   1      32.685  24.934  21.848  1.00  0.00     0.011 A 
ATOM     20  C   UNL A   1      32.824  22.582  22.301  1.00  0.00     0.002 A 
ATOM     21  C   UNL A   1      32.944  23.641  21.414  1.00  0.00     0.001 A 
BRANCH  10  22
ATOM     22  C   UNL A   1      31.477  23.943  26.606  1.00  0.00     0.082 C 
ATOM     23  C   UNL A   1      30.227  23.073  26.510  1.00  0.00     0.031 C 
ATOM     24  C   UNL A   1      32.575  23.087  27.256  1.00  0.00     0.031 C 
ENDBRANCH  10  22
BRANCH  17  25
ATOM     25  C   UNL A   1      30.580  28.123  23.122  1.00  0.00    -0.021 A 
ATOM     26  C   UNL A   1      29.408  27.440  23.494  1.00  0.00     0.006 A 
ATOM     27  C   UNL A   1      30.382  29.327  22.397  1.00  0.00     0.006 A 
ATOM     28  C   UNL A   1      28.129  28.003  23.278  1.00  0.00     0.000 A 
ATOM     29  C   UNL A   1      29.115  29.874  22.158  1.00  0.00     0.000 A 
ATOM     30  C   UNL A   1      27.986  29.234  22.642  1.00  0.00     0.000 A 
ENDBRANCH  17  25
ENDBRANCH   8   9
ENDBRANCH   6   8
ENDBRANCH   5   6
ENDBRANCH   4   5
ENDBRANCH   3   4
ENDBRANCH   2   3
ENDBRANCH   1   2
BRANCH   1  31
ATOM     31  C   UNL A   1      38.570  29.382  29.820  1.00  0.00     0.188 C 
BRANCH  31  32
ATOM     32  O   UNL A   1      38.785  28.976  31.146  1.00  0.00    -0.376 OA
BRANCH  32  33
ATOM     33  C   UNL A   1      40.024  29.334  31.735  1.00  0.00     0.202 C 
BRANCH  33  34
ATOM     34  C   UNL A   1      40.244  30.774  32.269  1.00  0.00     0.261 C 
BRANCH  34  35
ATOM     35  O   UNL A   1      40.458  31.785  31.250  1.00  0.00    -0.460 OA
BRANCH  35  36
ATOM     36  C   UNL A   1      39.491  32.748  31.129  1.00  0.00     0.338 C 
ATOM     37  O   UNL A   1      38.434  32.771  31.739  1.00  0.00    -0.246 OA
BRANCH  36  38
ATOM     38  C   UNL A   1      40.089  33.971  30.486  1.00  0.00     0.060 A 
ATOM     39  C   UNL A   1      39.645  34.548  29.291  1.00  0.00     0.016 A 
ATOM     40  C   UNL A   1      41.341  34.357  30.961  1.00  0.00     0.016 A 
ATOM     41  C   UNL A   1      40.528  35.331  28.492  1.00  0.00     0.010 A 
ATOM     42  C   UNL A   1      42.179  35.158  30.169  1.00  0.00     0.010 A 
ATOM     43  C   UNL A   1      41.862  35.568  28.874  1.00  0.00    -0.014 A 
BRANCH  43  44
ATOM     44  C   UNL A   1      42.725  36.601  28.203  1.00  0.00     0.031 A 
ATOM     45  C   UNL A   1      43.987  35.964  27.815  1.00  0.00     0.074 A 
ATOM     46  C   UNL A   1      42.635  37.908  27.814  1.00  0.00     0.049 A 
ATOM     47  N   UNL A   1      45.057  36.041  28.526  1.00  0.00    -0.248 NA
ATOM     48  C   UNL A   1      44.042  35.025  26.698  1.00  0.00     0.031 C 
ATOM     49  C   UNL A   1      41.555  38.843  28.003  1.00  0.00     0.029 A 
ATOM     50  N   UNL A   1      43.535  38.726  27.147  1.00  0.00    -0.354 N 
ATOM     51  C   UNL A   1      46.007  35.331  27.830  1.00  0.00     0.074 A 
ATOM     52  C   UNL A   1      45.291  34.572  26.833  1.00  0.00     0.031 C 
ATOM     53  C   UNL A   1      41.662  39.953  27.238  1.00  0.00     0.029 A 
ATOM     54  C   UNL A   1      43.008  39.956  26.703  1.00  0.00     0.049 A 
ATOM     55  H   UNL A   1      44.473  38.466  26.994  1.00  0.00     0.167 HD
ATOM     56  C   UNL A   1      47.314  35.662  27.979  1.00  0.00     0.037 A 
ATOM     57  C   UNL A   1      43.630  41.089  26.269  1.00  0.00     0.037 A 
ATOM     58  C   UNL A   1      47.511  36.497  29.148  1.00  0.00     0.049 A 
ATOM     59  C   UNL A   1      44.984  41.074  26.841  1.00  0.00     0.074 A 
ATOM     60  C   UNL A   1      47.260  36.369  30.502  1.00  0.00     0.029 A 
ATOM     61  N   UNL A   1      47.705  37.839  28.936  1.00  0.00    -0.354 N 
ATOM     62  N   UNL A   1      45.249  41.277  28.099  1.00  0.00    -0.248 NA
ATOM     63  C   UNL A   1      46.026  40.443  26.059  1.00  0.00     0.031 C 
ATOM     64  C   UNL A   1      46.893  37.674  30.950  1.00  0.00     0.029 A 
ATOM     65  C   UNL A   1      46.991  38.546  29.867  1.00  0.00     0.049 A 
ATOM     66  H   UNL A   1      48.267  38.229  28.228  1.00  0.00     0.167 HD
ATOM     67  C   UNL A   1      46.273  40.388  28.367  1.00  0.00     0.074 A 
ATOM     68  C   UNL A   1      46.785  39.992  27.057  1.00  0.00     0.031 C 
ATOM     69  C   UNL A   1      46.410  39.845  29.609  1.00  0.00     0.037 A 
BRANCH  56  70
ATOM     70  C   UNL A   1      48.311  35.599  26.856  1.00  0.00     0.064 A 
ATOM     71  C   UNL A   1      49.485  34.847  27.047  1.00  0.00     0.173 A 
ATOM     72  C   UNL A   1      48.314  36.466  25.740  1.00  0.00     0.173 A 
ATOM     73  F   UNL A   1      49.599  34.015  28.094  1.00  0.00    -0.203 F 
ATOM     74  C   UNL A   1      50.605  35.014  26.232  1.00  0.00     0.198 A 
ATOM     75  C   UNL A   1      49.412  36.585  24.895  1.00  0.00     0.198 A 
ATOM     76  F   UNL A   1      47.315  37.319  25.488  1.00  0.00    -0.203 F 
ATOM     77  F   UNL A   1      51.745  34.382  26.537  1.00  0.00    -0.200 F 
ATOM     78  C   UNL A   1      50.569  35.885  25.159  1.00  0.00     0.200 A 
ATOM     79  F   UNL A   1      49.365  37.453  23.875  1.00  0.00    -0.200 F 
ATOM     80  F   UNL A   1      51.661  36.092  24.414  1.00  0.00    -0.200 F 
ENDBRANCH  56  70
BRANCH  57  81
ATOM     81  C   UNL A   1      43.242  42.080  25.224  1.00  0.00     0.064 A 
ATOM     82  C   UNL A   1      44.019  43.236  24.987  1.00  0.00     0.173 A 
ATOM     83  C   UNL A   1      42.304  41.756  24.230  1.00  0.00     0.173 A 
ATOM     84  F   UNL A   1      44.947  43.623  25.875  1.00  0.00    -0.203 F 
ATOM     85  C   UNL A   1      43.923  43.965  23.796  1.00  0.00     0.198 A 
ATOM     86  C   UNL A   1      42.207  42.487  23.039  1.00  0.00     0.198 A 
ATOM     87  F   UNL A   1      41.536  40.664  24.351  1.00  0.00    -0.203 F 
ATOM     88  F   UNL A   1      44.746  45.000  23.573  1.00  0.00    -0.200 F 
ATOM     89  C   UNL A   1      43.033  43.575  22.812  1.00  0.00     0.200 A 
ATOM     90  F   UNL A   1      41.361  42.087  22.079  1.00  0.00    -0.200 F 
ATOM     91  F   UNL A   1      43.001  44.216  21.634  1.00  0.00    -0.200 F 
ENDBRANCH  57  81
BRANCH  69  92
ATOM     92  C   UNL A   1      45.736  40.533  30.767  1.00  0.00     0.064 A 
ATOM     93  C   UNL A   1      46.293  41.580  31.522  1.00  0.00     0.173 A 
ATOM     94  C   UNL A   1      44.397  40.198  31.021  1.00  0.00     0.173 A 
ATOM     95  F   UNL A   1      47.543  42.005  31.297  1.00  0.00    -0.203 F 
ATOM     96  C   UNL A   1      45.540  42.250  32.489  1.00  0.00     0.198 A 
ATOM     97  C   UNL A   1      43.639  40.891  31.960  1.00  0.00     0.198 A 
ATOM     98  F   UNL A   1      43.804  39.223  30.314  1.00  0.00    -0.203 F 
ATOM     99  F   UNL A   1      46.086  43.249  33.198  1.00  0.00    -0.200 F 
ATOM    100  C   UNL A   1      44.210  41.915  32.695  1.00  0.00     0.200 A 
ATOM    101  F   UNL A   1      42.344  40.588  32.124  1.00  0.00    -0.200 F 
ATOM    102  F   UNL A   1      43.470  42.597  33.582  1.00  0.00    -0.200 F 
ENDBRANCH  69  92
ENDBRANCH  43  44
ENDBRANCH  36  38
ENDBRANCH  35  36
ENDBRANCH  34  35
ENDBRANCH  33  34
ENDBRANCH  32  33
ENDBRANCH  31  32
ENDBRANCH   1  31
TORSDOF 20
ENDMDL
MODEL 3
REMARK VINA RESULT:     -10.9      1.718      3.451
REMARK SMILES CC(C)n1c2c(c3ccccc31)[C@@H](c1ccccc1)N(CC(=O)OCCOCCOCCOC(=O)c1ccc(-c3c4nc(c(-c5c(F)c(F)c(F)c(F)c5F)c5ccc([nH]5)c(-c5c(F)c(F)c(F)c(F)c5F)c5nc(c(-c6c(F)c(F)c(F)c(F)c6F)c6ccc3[nH]6)C=C5)C=C4)cc1)C2=O
REMARK SMILES IDX 28 1 27 2 26 3 25 4 24 5 22 6 23 7 21 8 20 9 4 10 5 11 12 12
REMARK SMILES IDX 6 13 99 14 7 15 11 16 13 17 100 18 8 19 10 20 9 21 2 22 1 23
REMARK SMILES IDX 3 24 14 25 15 26 19 27 16 28 18 29 17 30 29 31 30 32 31 33
REMARK SMILES IDX 32 34 33 35 34 36 35 37 36 38 37 39 98 40 38 41 97 42 39 43
REMARK SMILES IDX 40 44 41 45 91 46 42 47 96 48 90 49 92 50 43 51 95 52 89 53
REMARK SMILES IDX 88 54 44 56 76 57 56 58 75 59 57 60 60 61 74 62 93 63 58 64
REMARK SMILES IDX 59 65 73 67 94 68 61 69 45 70 46 71 54 72 47 73 48 74 52 75
REMARK SMILES IDX 55 76 49 77 50 78 53 79 51 80 77 81 78 82 86 83 79 84 80 85
REMARK SMILES IDX 84 86 87 87 81 88 82 89 85 90 83 91 62 92 63 93 71 94 64 95
REMARK SMILES IDX 65 96 69 97 72 98 66 99 67 100 70 101 68 102
REMARK H PARENT 92 55 60 66
REMARK Flexibility Score: inf
ROOT
ATOM      1  C   UNL A   1      29.703  30.343  23.113  1.00  0.00     0.188 C 
ENDROOT
BRANCH   1   2
ATOM      2  O   UNL A   1      29.068  29.130  22.788  1.00  0.00    -0.376 OA
BRANCH   2   3
ATOM      3  C   UNL A   1      29.761  27.922  23.066  1.00  0.00     0.202 C 
BRANCH   3   4
ATOM      4  C   UNL A   1      31.114  27.682  22.374  1.00  0.00     0.261 C 
BRANCH   4   5
ATOM      5  O   UNL A   1      31.384  26.275  22.092  1.00  0.00    -0.462 OA
BRANCH   5   6
ATOM      6  C   UNL A   1      32.656  26.001  21.698  1.00  0.00     0.325 C 
ATOM      7  O   UNL A   1      33.479  26.898  21.503  1.00  0.00    -0.250 OA
BRANCH   6   8
ATOM      8  C   UNL A   1      33.133  24.499  21.734  1.00  0.00     0.243 C 
BRANCH   8   9
ATOM      9  N   UNL A   1      33.229  23.539  22.802  1.00  0.00    -0.315 N 
ATOM     10  N   UNL A   1      35.071  21.142  24.675  1.00  0.00    -0.334 N 
ATOM     11  C   UNL A   1      34.304  22.095  24.071  1.00  0.00     0.114 A 
ATOM     12  C   UNL A   1      34.336  19.939  24.612  1.00  0.00     0.049 A 
ATOM     13  C   UNL A   1      33.045  21.608  23.868  1.00  0.00     0.018 A 
ATOM     14  C   UNL A   1      34.448  23.378  23.447  1.00  0.00     0.272 C 
ATOM     15  C   UNL A   1      33.065  20.231  24.071  1.00  0.00     0.006 A 
ATOM     16  C   UNL A   1      34.632  18.601  24.934  1.00  0.00     0.027 A 
ATOM     17  C   UNL A   1      32.159  22.617  23.260  1.00  0.00     0.150 C 
ATOM     18  O   UNL A   1      35.391  24.119  23.332  1.00  0.00    -0.267 OA
ATOM     19  C   UNL A   1      32.128  19.207  23.814  1.00  0.00     0.011 A 
ATOM     20  C   UNL A   1      33.681  17.599  24.684  1.00  0.00     0.002 A 
ATOM     21  C   UNL A   1      32.446  17.893  24.127  1.00  0.00     0.001 A 
BRANCH  10  22
ATOM     22  C   UNL A   1      36.354  21.425  25.329  1.00  0.00     0.082 C 
ATOM     23  C   UNL A   1      37.566  21.524  24.408  1.00  0.00     0.031 C 
ATOM     24  C   UNL A   1      36.359  22.678  26.220  1.00  0.00     0.031 C 
ENDBRANCH  10  22
BRANCH  17  25
ATOM     25  C   UNL A   1      31.183  23.082  24.369  1.00  0.00    -0.021 A 
ATOM     26  C   UNL A   1      30.902  22.303  25.507  1.00  0.00     0.006 A 
ATOM     27  C   UNL A   1      30.732  24.427  24.422  1.00  0.00     0.006 A 
ATOM     28  C   UNL A   1      30.337  22.878  26.669  1.00  0.00     0.000 A 
ATOM     29  C   UNL A   1      30.148  24.991  25.563  1.00  0.00     0.000 A 
ATOM     30  C   UNL A   1      29.993  24.227  26.708  1.00  0.00     0.000 A 
ENDBRANCH  17  25
ENDBRANCH   8   9
ENDBRANCH   6   8
ENDBRANCH   5   6
ENDBRANCH   4   5
ENDBRANCH   3   4
ENDBRANCH   2   3
ENDBRANCH   1   2
BRANCH   1  31
ATOM     31  C   UNL A   1      30.120  30.590  24.563  1.00  0.00     0.188 C 
BRANCH  31  32
ATOM     32  O   UNL A   1      31.465  30.639  24.962  1.00  0.00    -0.376 OA
BRANCH  32  33
ATOM     33  C   UNL A   1      31.825  29.886  26.106  1.00  0.00     0.202 C 
BRANCH  33  34
ATOM     34  C   UNL A   1      32.655  30.542  27.241  1.00  0.00     0.261 C 
BRANCH  34  35
ATOM     35  O   UNL A   1      34.061  30.737  26.945  1.00  0.00    -0.460 OA
BRANCH  35  36
ATOM     36  C   UNL A   1      34.815  31.338  27.918  1.00  0.00     0.338 C 
ATOM     37  O   UNL A   1      34.459  32.276  28.612  1.00  0.00    -0.246 OA
BRANCH  36  38
ATOM     38  C   UNL A   1      35.947  30.422  28.302  1.00  0.00     0.060 A 
ATOM     39  C   UNL A   1      36.397  30.207  29.609  1.00  0.00     0.016 A 
ATOM     40  C   UNL A   1      36.775  30.008  27.260  1.00  0.00     0.016 A 
ATOM     41  C   UNL A   1      37.734  29.779  29.854  1.00  0.00     0.010 A 
ATOM     42  C   UNL A   1      38.076  29.557  27.530  1.00  0.00     0.010 A 
ATOM     43  C   UNL A   1      38.642  29.540  28.805  1.00  0.00    -0.014 A 
BRANCH  43  44
ATOM     44  C   UNL A   1      39.954  28.834  29.013  1.00  0.00     0.031 A 
ATOM     45  C   UNL A   1      40.117  28.582  30.449  1.00  0.00     0.074 A 
ATOM     46  C   UNL A   1      40.969  28.326  28.253  1.00  0.00     0.049 A 
ATOM     47  N   UNL A   1      40.809  29.347  31.218  1.00  0.00    -0.248 NA
ATOM     48  C   UNL A   1      39.327  27.558  31.126  1.00  0.00     0.031 C 
ATOM     49  C   UNL A   1      41.145  28.364  26.824  1.00  0.00     0.029 A 
ATOM     50  N   UNL A   1      42.123  27.644  28.611  1.00  0.00    -0.354 N 
ATOM     51  C   UNL A   1      40.726  28.776  32.467  1.00  0.00     0.074 A 
ATOM     52  C   UNL A   1      39.658  27.810  32.396  1.00  0.00     0.031 C 
ATOM     53  C   UNL A   1      42.093  27.511  26.373  1.00  0.00     0.029 A 
ATOM     54  C   UNL A   1      42.828  27.062  27.538  1.00  0.00     0.049 A 
ATOM     55  H   UNL A   1      42.428  27.573  29.545  1.00  0.00     0.167 HD
ATOM     56  C   UNL A   1      41.738  28.974  33.347  1.00  0.00     0.037 A 
ATOM     57  C   UNL A   1      44.097  26.567  27.467  1.00  0.00     0.037 A 
ATOM     58  C   UNL A   1      42.586  30.075  32.931  1.00  0.00     0.049 A 
ATOM     59  C   UNL A   1      44.865  27.220  28.536  1.00  0.00     0.074 A 
ATOM     60  C   UNL A   1      42.393  31.416  32.658  1.00  0.00     0.029 A 
ATOM     61  N   UNL A   1      43.796  29.756  32.368  1.00  0.00    -0.354 N 
ATOM     62  N   UNL A   1      45.233  28.468  28.517  1.00  0.00    -0.248 NA
ATOM     63  C   UNL A   1      44.896  26.561  29.826  1.00  0.00     0.031 C 
ATOM     64  C   UNL A   1      43.285  31.724  31.586  1.00  0.00     0.029 A 
ATOM     65  C   UNL A   1      44.018  30.575  31.293  1.00  0.00     0.049 A 
ATOM     66  H   UNL A   1      44.406  29.052  32.686  1.00  0.00     0.167 HD
ATOM     67  C   UNL A   1      45.080  28.876  29.829  1.00  0.00     0.074 A 
ATOM     68  C   UNL A   1      44.988  27.641  30.603  1.00  0.00     0.031 C 
ATOM     69  C   UNL A   1      44.757  30.168  30.119  1.00  0.00     0.037 A 
BRANCH  56  70
ATOM     70  C   UNL A   1      42.199  27.924  34.319  1.00  0.00     0.064 A 
ATOM     71  C   UNL A   1      42.869  26.795  33.813  1.00  0.00     0.173 A 
ATOM     72  C   UNL A   1      41.760  27.826  35.658  1.00  0.00     0.173 A 
ATOM     73  F   UNL A   1      43.302  26.770  32.543  1.00  0.00    -0.203 F 
ATOM     74  C   UNL A   1      43.013  25.629  34.565  1.00  0.00     0.198 A 
ATOM     75  C   UNL A   1      41.958  26.683  36.424  1.00  0.00     0.198 A 
ATOM     76  F   UNL A   1      41.019  28.774  36.244  1.00  0.00    -0.203 F 
ATOM     77  F   UNL A   1      43.531  24.534  33.994  1.00  0.00    -0.200 F 
ATOM     78  C   UNL A   1      42.554  25.572  35.868  1.00  0.00     0.200 A 
ATOM     79  F   UNL A   1      41.484  26.640  37.677  1.00  0.00    -0.200 F 
ATOM     80  F   UNL A   1      42.636  24.435  36.569  1.00  0.00    -0.200 F 
ENDBRANCH  56  70
BRANCH  57  81
ATOM     81  C   UNL A   1      44.659  25.416  26.702  1.00  0.00     0.064 A 
ATOM     82  C   UNL A   1      43.871  24.284  26.400  1.00  0.00     0.173 A 
ATOM     83  C   UNL A   1      45.856  25.543  25.977  1.00  0.00     0.173 A 
ATOM     84  F   UNL A   1      42.706  24.079  27.034  1.00  0.00    -0.203 F 
ATOM     85  C   UNL A   1      44.217  23.387  25.382  1.00  0.00     0.198 A 
ATOM     86  C   UNL A   1      46.202  24.644  24.960  1.00  0.00     0.198 A 
ATOM     87  F   UNL A   1      46.660  26.596  26.174  1.00  0.00    -0.203 F 
ATOM     88  F   UNL A   1      43.392  22.377  25.067  1.00  0.00    -0.200 F 
ATOM     89  C   UNL A   1      45.371  23.582  24.646  1.00  0.00     0.200 A 
ATOM     90  F   UNL A   1      47.310  24.855  24.234  1.00  0.00    -0.200 F 
ATOM     91  F   UNL A   1      45.660  22.778  23.612  1.00  0.00    -0.200 F 
ENDBRANCH  57  81
BRANCH  69  92
ATOM     92  C   UNL A   1      44.995  31.216  29.064  1.00  0.00     0.064 A 
ATOM     93  C   UNL A   1      46.160  31.994  28.944  1.00  0.00     0.173 A 
ATOM     94  C   UNL A   1      44.040  31.326  28.041  1.00  0.00     0.173 A 
ATOM     95  F   UNL A   1      47.149  31.900  29.842  1.00  0.00    -0.203 F 
ATOM     96  C   UNL A   1      46.348  32.846  27.853  1.00  0.00     0.198 A 
ATOM     97  C   UNL A   1      44.247  32.147  26.937  1.00  0.00     0.198 A 
ATOM     98  F   UNL A   1      42.919  30.589  28.088  1.00  0.00    -0.203 F 
ATOM     99  F   UNL A   1      47.467  33.579  27.752  1.00  0.00    -0.200 F 
ATOM    100  C   UNL A   1      45.399  32.908  26.843  1.00  0.00     0.200 A 
ATOM    101  F   UNL A   1      43.344  32.172  25.947  1.00  0.00    -0.200 F 
ATOM    102  F   UNL A   1      45.607  33.681  25.767  1.00  0.00    -0.200 F 
ENDBRANCH  69  92
ENDBRANCH  43  44
ENDBRANCH  36  38
ENDBRANCH  35  36
ENDBRANCH  34  35
ENDBRANCH  33  34
ENDBRANCH  32  33
ENDBRANCH  31  32
ENDBRANCH   1  31
TORSDOF 20
ENDMDL
