MODEL 1
REMARK VINA RESULT:     -10.7      0.000      0.000
REMARK SMILES [NH3+][C@@H](Cc1cccc(O)c1)C(=O)OCCOCCOCCOC(=O)c1ccc(-c2c3nc(c(-c4c(F)c(F)c(F)c(F)c4F)c4ccc([nH]4)c(-c4c(F)c(F)c(F)c(F)c4F)c4nc(c(-c5c(F)c(F)c(F)c(F)c5F)c5ccc2[nH]5)C=C4)C=C3)cc1
REMARK SMILES IDX 17 1 16 2 15 3 14 4 13 5 11 6 12 7 2 8 1 9 3 13 4 14 5 15
REMARK SMILES IDX 10 16 6 17 8 18 7 19 9 20 18 22 19 23 20 24 21 25 22 26
REMARK SMILES IDX 23 27 24 28 25 29 26 30 87 31 27 32 86 33 28 34 29 35 30 36
REMARK SMILES IDX 80 37 31 38 85 39 79 40 81 41 32 42 84 43 78 44 77 45 33 47
REMARK SMILES IDX 65 48 45 49 64 50 46 51 49 52 63 53 82 54 47 55 48 56 62 58
REMARK SMILES IDX 83 59 50 60 34 61 35 62 43 63 36 64 37 65 41 66 44 67 38 68
REMARK SMILES IDX 39 69 42 70 40 71 66 72 67 73 75 74 68 75 69 76 73 77 76 78
REMARK SMILES IDX 70 79 71 80 74 81 72 82 51 83 52 84 60 85 53 86 54 87 58 88
REMARK SMILES IDX 61 89 55 90 56 91 59 92 57 93
REMARK H PARENT 1 10 1 11 1 12 9 21 81 46 49 57
REMARK Flexibility Score: inf
ROOT
ATOM      1  C   UNL A   1      40.057  21.688  26.513  1.00  0.00     0.188 C 
ENDROOT
BRANCH   1   2
ATOM      2  O   UNL A   1      38.847  21.270  25.888  1.00  0.00    -0.376 OA
BRANCH   2   3
ATOM      3  C   UNL A   1      37.834  22.241  25.647  1.00  0.00     0.202 C 
BRANCH   3   4
ATOM      4  C   UNL A   1      36.542  21.816  24.927  1.00  0.00     0.261 C 
BRANCH   4   5
ATOM      5  O   UNL A   1      35.434  22.735  25.023  1.00  0.00    -0.459 OA
BRANCH   5   6
ATOM      6  C   UNL A   1      34.657  22.637  26.141  1.00  0.00     0.365 C 
ATOM      7  O   UNL A   1      34.823  23.296  27.163  1.00  0.00    -0.245 OA
BRANCH   6   8
ATOM      8  C   UNL A   1      33.560  21.555  26.042  1.00  0.00     0.296 C 
BRANCH   8   9
ATOM      9  N   UNL A   1      32.379  21.800  26.901  1.00  0.00    -0.346 N 
ATOM     10  H   UNL A   1      31.537  21.815  26.326  1.00  0.00     0.345 HD
ATOM     11  H   UNL A   1      32.483  22.698  27.375  1.00  0.00     0.345 HD
ATOM     12  H   UNL A   1      32.304  21.057  27.595  1.00  0.00     0.345 HD
ENDBRANCH   8   9
BRANCH   8  13
ATOM     13  C   UNL A   1      33.164  21.298  24.579  1.00  0.00     0.113 C 
BRANCH  13  14
ATOM     14  C   UNL A   1      33.238  19.855  24.130  1.00  0.00    -0.038 A 
ATOM     15  C   UNL A   1      34.217  19.016  24.678  1.00  0.00     0.004 A 
ATOM     16  C   UNL A   1      32.373  19.332  23.159  1.00  0.00     0.050 A 
ATOM     17  C   UNL A   1      34.350  17.697  24.242  1.00  0.00     0.004 A 
ATOM     18  C   UNL A   1      32.542  18.030  22.698  1.00  0.00     0.115 A 
ATOM     19  C   UNL A   1      33.522  17.204  23.236  1.00  0.00     0.046 A 
BRANCH  18  20
ATOM     20  O   UNL A   1      31.722  17.601  21.697  1.00  0.00    -0.508 OA
ATOM     21  H   UNL A   1      30.926  17.150  21.902  1.00  0.00     0.293 HD
ENDBRANCH  18  20
ENDBRANCH  13  14
ENDBRANCH   8  13
ENDBRANCH   6   8
ENDBRANCH   5   6
ENDBRANCH   4   5
ENDBRANCH   3   4
ENDBRANCH   2   3
ENDBRANCH   1   2
BRANCH   1  22
ATOM     22  C   UNL A   1      40.871  20.668  27.332  1.00  0.00     0.188 C 
BRANCH  22  23
ATOM     23  O   UNL A   1      42.264  20.841  27.257  1.00  0.00    -0.376 OA
BRANCH  23  24
ATOM     24  C   UNL A   1      42.886  20.663  26.002  1.00  0.00     0.202 C 
BRANCH  24  25
ATOM     25  C   UNL A   1      43.698  21.799  25.343  1.00  0.00     0.261 C 
BRANCH  25  26
ATOM     26  O   UNL A   1      43.010  23.020  25.017  1.00  0.00    -0.460 OA
BRANCH  26  27
ATOM     27  C   UNL A   1      43.724  24.169  25.048  1.00  0.00     0.338 C 
ATOM     28  O   UNL A   1      44.652  24.477  24.310  1.00  0.00    -0.246 OA
BRANCH  27  29
ATOM     29  C   UNL A   1      43.067  25.108  25.985  1.00  0.00     0.060 A 
ATOM     30  C   UNL A   1      43.448  26.461  25.983  1.00  0.00     0.016 A 
ATOM     31  C   UNL A   1      42.086  24.662  26.870  1.00  0.00     0.016 A 
ATOM     32  C   UNL A   1      42.861  27.363  26.876  1.00  0.00     0.010 A 
ATOM     33  C   UNL A   1      41.521  25.560  27.784  1.00  0.00     0.010 A 
ATOM     34  C   UNL A   1      41.924  26.908  27.812  1.00  0.00    -0.014 A 
BRANCH  34  35
ATOM     35  C   UNL A   1      41.509  27.779  28.943  1.00  0.00     0.031 A 
ATOM     36  C   UNL A   1      42.271  27.679  30.237  1.00  0.00     0.074 A 
ATOM     37  C   UNL A   1      40.476  28.634  28.842  1.00  0.00     0.049 A 
ATOM     38  N   UNL A   1      42.036  28.246  31.393  1.00  0.00    -0.248 NA
ATOM     39  C   UNL A   1      43.461  26.812  30.223  1.00  0.00     0.031 C 
ATOM     40  C   UNL A   1      39.684  28.865  27.637  1.00  0.00     0.029 A 
ATOM     41  N   UNL A   1      39.905  29.455  29.785  1.00  0.00    -0.354 N 
ATOM     42  C   UNL A   1      43.034  27.791  32.245  1.00  0.00     0.074 A 
ATOM     43  C   UNL A   1      43.863  26.883  31.482  1.00  0.00     0.031 C 
ATOM     44  C   UNL A   1      38.711  29.751  27.921  1.00  0.00     0.029 A 
ATOM     45  C   UNL A   1      38.790  30.118  29.335  1.00  0.00     0.049 A 
ATOM     46  H   UNL A   1      40.261  29.557  30.698  1.00  0.00     0.167 HD
ATOM     47  C   UNL A   1      43.243  28.104  33.546  1.00  0.00     0.037 A 
ATOM     48  C   UNL A   1      37.915  30.903  29.997  1.00  0.00     0.037 A 
ATOM     49  C   UNL A   1      42.419  29.007  34.305  1.00  0.00     0.049 A 
ATOM     50  C   UNL A   1      38.126  31.180  31.466  1.00  0.00     0.074 A 
ATOM     51  C   UNL A   1      42.566  29.407  35.623  1.00  0.00     0.029 A 
ATOM     52  N   UNL A   1      41.288  29.645  33.819  1.00  0.00    -0.354 N 
ATOM     53  N   UNL A   1      39.082  30.766  32.261  1.00  0.00    -0.248 NA
ATOM     54  C   UNL A   1      37.132  32.039  32.129  1.00  0.00     0.031 C 
ATOM     55  C   UNL A   1      41.487  30.233  35.952  1.00  0.00     0.029 A 
ATOM     56  C   UNL A   1      40.708  30.409  34.820  1.00  0.00     0.049 A 
ATOM     57  H   UNL A   1      40.946  29.565  32.899  1.00  0.00     0.167 HD
ATOM     58  C   UNL A   1      38.827  31.338  33.503  1.00  0.00     0.074 A 
ATOM     59  C   UNL A   1      37.631  32.139  33.354  1.00  0.00     0.031 C 
ATOM     60  C   UNL A   1      39.522  31.212  34.660  1.00  0.00     0.037 A 
BRANCH  47  61
ATOM     61  C   UNL A   1      44.390  27.434  34.247  1.00  0.00     0.064 A 
ATOM     62  C   UNL A   1      45.664  28.018  34.310  1.00  0.00     0.173 A 
ATOM     63  C   UNL A   1      44.199  26.205  34.897  1.00  0.00     0.173 A 
ATOM     64  F   UNL A   1      45.904  29.185  33.694  1.00  0.00    -0.203 F 
ATOM     65  C   UNL A   1      46.710  27.384  34.977  1.00  0.00     0.198 A 
ATOM     66  C   UNL A   1      45.237  25.591  35.592  1.00  0.00     0.198 A 
ATOM     67  F   UNL A   1      43.000  25.604  34.871  1.00  0.00    -0.203 F 
ATOM     68  F   UNL A   1      47.931  27.936  34.983  1.00  0.00    -0.200 F 
ATOM     69  C   UNL A   1      46.493  26.177  35.624  1.00  0.00     0.200 A 
ATOM     70  F   UNL A   1      45.022  24.432  36.229  1.00  0.00    -0.200 F 
ATOM     71  F   UNL A   1      47.498  25.573  36.274  1.00  0.00    -0.200 F 
ENDBRANCH  47  61
BRANCH  48  72
ATOM     72  C   UNL A   1      36.739  31.474  29.285  1.00  0.00     0.064 A 
ATOM     73  C   UNL A   1      35.630  30.678  28.961  1.00  0.00     0.173 A 
ATOM     74  C   UNL A   1      36.711  32.819  28.886  1.00  0.00     0.173 A 
ATOM     75  F   UNL A   1      35.620  29.378  29.291  1.00  0.00    -0.203 F 
ATOM     76  C   UNL A   1      34.551  31.200  28.251  1.00  0.00     0.198 A 
ATOM     77  C   UNL A   1      35.618  33.347  28.204  1.00  0.00     0.198 A 
ATOM     78  F   UNL A   1      37.750  33.621  29.160  1.00  0.00    -0.203 F 
ATOM     79  F   UNL A   1      33.530  30.403  27.906  1.00  0.00    -0.200 F 
ATOM     80  C   UNL A   1      34.542  32.536  27.879  1.00  0.00     0.200 A 
ATOM     81  F   UNL A   1      35.610  34.641  27.854  1.00  0.00    -0.200 F 
ATOM     82  F   UNL A   1      33.504  33.037  27.196  1.00  0.00    -0.200 F 
ENDBRANCH  48  72
BRANCH  60  83
ATOM     83  C   UNL A   1      39.043  31.993  35.852  1.00  0.00     0.064 A 
ATOM     84  C   UNL A   1      38.231  31.418  36.842  1.00  0.00     0.173 A 
ATOM     85  C   UNL A   1      39.440  33.329  36.030  1.00  0.00     0.173 A 
ATOM     86  F   UNL A   1      37.813  30.149  36.719  1.00  0.00    -0.203 F 
ATOM     87  C   UNL A   1      37.813  32.158  37.946  1.00  0.00     0.198 A 
ATOM     88  C   UNL A   1      39.050  34.053  37.153  1.00  0.00     0.198 A 
ATOM     89  F   UNL A   1      40.225  33.927  35.120  1.00  0.00    -0.203 F 
ATOM     90  F   UNL A   1      36.995  31.601  38.852  1.00  0.00    -0.200 F 
ATOM     91  C   UNL A   1      38.229  33.471  38.105  1.00  0.00     0.200 A 
ATOM     92  F   UNL A   1      39.470  35.317  37.313  1.00  0.00    -0.200 F 
ATOM     93  F   UNL A   1      37.833  34.177  39.174  1.00  0.00    -0.200 F 
ENDBRANCH  60  83
ENDBRANCH  34  35
ENDBRANCH  27  29
ENDBRANCH  26  27
ENDBRANCH  25  26
ENDBRANCH  24  25
ENDBRANCH  23  24
ENDBRANCH  22  23
ENDBRANCH   1  22
TORSDOF 21
ENDMDL
MODEL 2
REMARK VINA RESULT:     -10.5      1.799      3.426
REMARK SMILES [NH3+][C@@H](Cc1cccc(O)c1)C(=O)OCCOCCOCCOC(=O)c1ccc(-c2c3nc(c(-c4c(F)c(F)c(F)c(F)c4F)c4ccc([nH]4)c(-c4c(F)c(F)c(F)c(F)c4F)c4nc(c(-c5c(F)c(F)c(F)c(F)c5F)c5ccc2[nH]5)C=C4)C=C3)cc1
REMARK SMILES IDX 17 1 16 2 15 3 14 4 13 5 11 6 12 7 2 8 1 9 3 13 4 14 5 15
REMARK SMILES IDX 10 16 6 17 8 18 7 19 9 20 18 22 19 23 20 24 21 25 22 26
REMARK SMILES IDX 23 27 24 28 25 29 26 30 87 31 27 32 86 33 28 34 29 35 30 36
REMARK SMILES IDX 80 37 31 38 85 39 79 40 81 41 32 42 84 43 78 44 77 45 33 47
REMARK SMILES IDX 65 48 45 49 64 50 46 51 49 52 63 53 82 54 47 55 48 56 62 58
REMARK SMILES IDX 83 59 50 60 34 61 35 62 43 63 36 64 37 65 41 66 44 67 38 68
REMARK SMILES IDX 39 69 42 70 40 71 66 72 67 73 75 74 68 75 69 76 73 77 76 78
REMARK SMILES IDX 70 79 71 80 74 81 72 82 51 83 52 84 60 85 53 86 54 87 58 88
REMARK SMILES IDX 61 89 55 90 56 91 59 92 57 93
REMARK H PARENT 1 10 1 11 1 12 9 21 81 46 49 57
REMARK Flexibility Score: inf
ROOT
ATOM      1  C   UNL A   1      40.078  21.569  26.614  1.00  0.00     0.188 C 
ENDROOT
BRANCH   1   2
ATOM      2  O   UNL A   1      38.997  21.344  25.716  1.00  0.00    -0.376 OA
BRANCH   2   3
ATOM      3  C   UNL A   1      37.891  22.241  25.742  1.00  0.00     0.202 C 
BRANCH   3   4
ATOM      4  C   UNL A   1      37.015  22.391  24.486  1.00  0.00     0.261 C 
BRANCH   4   5
ATOM      5  O   UNL A   1      36.292  23.633  24.365  1.00  0.00    -0.459 OA
BRANCH   5   6
ATOM      6  C   UNL A   1      35.285  23.663  23.443  1.00  0.00     0.365 C 
ATOM      7  O   UNL A   1      35.277  23.012  22.402  1.00  0.00    -0.245 OA
BRANCH   6   8
ATOM      8  C   UNL A   1      34.155  24.656  23.789  1.00  0.00     0.296 C 
BRANCH   8   9
ATOM      9  N   UNL A   1      32.789  24.127  23.576  1.00  0.00    -0.346 N 
ATOM     10  H   UNL A   1      32.822  23.109  23.524  1.00  0.00     0.345 HD
ATOM     11  H   UNL A   1      32.412  24.499  22.704  1.00  0.00     0.345 HD
ATOM     12  H   UNL A   1      32.190  24.409  24.352  1.00  0.00     0.345 HD
ENDBRANCH   8   9
BRANCH   8  13
ATOM     13  C   UNL A   1      34.336  25.234  25.202  1.00  0.00     0.113 C 
BRANCH  13  14
ATOM     14  C   UNL A   1      33.446  26.408  25.542  1.00  0.00    -0.038 A 
ATOM     15  C   UNL A   1      32.273  26.187  26.276  1.00  0.00     0.004 A 
ATOM     16  C   UNL A   1      33.740  27.712  25.123  1.00  0.00     0.050 A 
ATOM     17  C   UNL A   1      31.399  27.240  26.555  1.00  0.00     0.004 A 
ATOM     18  C   UNL A   1      32.842  28.747  25.367  1.00  0.00     0.115 A 
ATOM     19  C   UNL A   1      31.674  28.523  26.085  1.00  0.00     0.046 A 
BRANCH  18  20
ATOM     20  O   UNL A   1      33.144  29.979  24.867  1.00  0.00    -0.508 OA
ATOM     21  H   UNL A   1      33.848  30.078  24.257  1.00  0.00     0.293 HD
ENDBRANCH  18  20
ENDBRANCH  13  14
ENDBRANCH   8  13
ENDBRANCH   6   8
ENDBRANCH   5   6
ENDBRANCH   4   5
ENDBRANCH   3   4
ENDBRANCH   2   3
ENDBRANCH   1   2
BRANCH   1  22
ATOM     22  C   UNL A   1      40.765  20.361  27.281  1.00  0.00     0.188 C 
BRANCH  22  23
ATOM     23  O   UNL A   1      42.161  20.326  27.123  1.00  0.00    -0.376 OA
BRANCH  23  24
ATOM     24  C   UNL A   1      42.684  20.483  25.821  1.00  0.00     0.202 C 
BRANCH  24  25
ATOM     25  C   UNL A   1      43.583  21.685  25.460  1.00  0.00     0.261 C 
BRANCH  25  26
ATOM     26  O   UNL A   1      42.942  22.918  25.085  1.00  0.00    -0.460 OA
BRANCH  26  27
ATOM     27  C   UNL A   1      43.689  24.045  25.110  1.00  0.00     0.338 C 
ATOM     28  O   UNL A   1      44.633  24.318  24.379  1.00  0.00    -0.246 OA
BRANCH  27  29
ATOM     29  C   UNL A   1      43.053  25.014  26.031  1.00  0.00     0.060 A 
ATOM     30  C   UNL A   1      43.533  26.333  26.082  1.00  0.00     0.016 A 
ATOM     31  C   UNL A   1      41.992  24.626  26.850  1.00  0.00     0.016 A 
ATOM     32  C   UNL A   1      42.965  27.260  26.961  1.00  0.00     0.010 A 
ATOM     33  C   UNL A   1      41.445  25.547  27.751  1.00  0.00     0.010 A 
ATOM     34  C   UNL A   1      41.945  26.860  27.834  1.00  0.00    -0.014 A 
BRANCH  34  35
ATOM     35  C   UNL A   1      41.532  27.739  28.960  1.00  0.00     0.031 A 
ATOM     36  C   UNL A   1      42.285  27.633  30.258  1.00  0.00     0.074 A 
ATOM     37  C   UNL A   1      40.509  28.604  28.850  1.00  0.00     0.049 A 
ATOM     38  N   UNL A   1      42.049  28.206  31.411  1.00  0.00    -0.248 NA
ATOM     39  C   UNL A   1      43.465  26.754  30.254  1.00  0.00     0.031 C 
ATOM     40  C   UNL A   1      39.727  28.841  27.639  1.00  0.00     0.029 A 
ATOM     41  N   UNL A   1      39.941  29.433  29.787  1.00  0.00    -0.354 N 
ATOM     42  C   UNL A   1      43.036  27.742  32.271  1.00  0.00     0.074 A 
ATOM     43  C   UNL A   1      43.860  26.823  31.516  1.00  0.00     0.031 C 
ATOM     44  C   UNL A   1      38.763  29.739  27.915  1.00  0.00     0.029 A 
ATOM     45  C   UNL A   1      38.836  30.108  29.328  1.00  0.00     0.049 A 
ATOM     46  H   UNL A   1      40.292  29.535  30.702  1.00  0.00     0.167 HD
ATOM     47  C   UNL A   1      43.241  28.056  33.572  1.00  0.00     0.037 A 
ATOM     48  C   UNL A   1      37.966  30.905  29.983  1.00  0.00     0.037 A 
ATOM     49  C   UNL A   1      42.422  28.970  34.324  1.00  0.00     0.049 A 
ATOM     50  C   UNL A   1      38.171  31.183  31.453  1.00  0.00     0.074 A 
ATOM     51  C   UNL A   1      42.565  29.371  35.642  1.00  0.00     0.029 A 
ATOM     52  N   UNL A   1      41.301  29.619  33.829  1.00  0.00    -0.354 N 
ATOM     53  N   UNL A   1      39.118  30.760  32.255  1.00  0.00    -0.248 NA
ATOM     54  C   UNL A   1      37.182  32.054  32.107  1.00  0.00     0.031 C 
ATOM     55  C   UNL A   1      41.493  30.210  35.962  1.00  0.00     0.029 A 
ATOM     56  C   UNL A   1      40.723  30.392  34.825  1.00  0.00     0.049 A 
ATOM     57  H   UNL A   1      40.964  29.541  32.908  1.00  0.00     0.167 HD
ATOM     58  C   UNL A   1      38.860  31.338  33.493  1.00  0.00     0.074 A 
ATOM     59  C   UNL A   1      37.675  32.152  33.335  1.00  0.00     0.031 C 
ATOM     60  C   UNL A   1      39.547  31.207  34.656  1.00  0.00     0.037 A 
BRANCH  47  61
ATOM     61  C   UNL A   1      44.375  27.375  34.282  1.00  0.00     0.064 A 
ATOM     62  C   UNL A   1      44.219  26.128  34.907  1.00  0.00     0.173 A 
ATOM     63  C   UNL A   1      45.649  27.965  34.307  1.00  0.00     0.173 A 
ATOM     64  F   UNL A   1      43.020  25.527  34.925  1.00  0.00    -0.203 F 
ATOM     65  C   UNL A   1      45.289  25.509  35.548  1.00  0.00     0.198 A 
ATOM     66  C   UNL A   1      46.724  27.328  34.920  1.00  0.00     0.198 A 
ATOM     67  F   UNL A   1      45.855  29.155  33.723  1.00  0.00    -0.203 F 
ATOM     68  F   UNL A   1      45.105  24.342  36.180  1.00  0.00    -0.200 F 
ATOM     69  C   UNL A   1      46.541  26.105  35.547  1.00  0.00     0.200 A 
ATOM     70  F   UNL A   1      47.936  27.898  34.904  1.00  0.00    -0.200 F 
ATOM     71  F   UNL A   1      47.572  25.503  36.156  1.00  0.00    -0.200 F 
ENDBRANCH  47  61
BRANCH  48  72
ATOM     72  C   UNL A   1      36.801  31.486  29.262  1.00  0.00     0.064 A 
ATOM     73  C   UNL A   1      36.763  32.844  28.918  1.00  0.00     0.173 A 
ATOM     74  C   UNL A   1      35.685  30.701  28.930  1.00  0.00     0.173 A 
ATOM     75  F   UNL A   1      37.789  33.645  29.241  1.00  0.00    -0.203 F 
ATOM     76  C   UNL A   1      35.651  33.398  28.287  1.00  0.00     0.198 A 
ATOM     77  C   UNL A   1      34.587  31.249  28.272  1.00  0.00     0.198 A 
ATOM     78  F   UNL A   1      35.664  29.398  29.247  1.00  0.00    -0.203 F 
ATOM     79  F   UNL A   1      35.620  34.711  28.021  1.00  0.00    -0.200 F 
ATOM     80  C   UNL A   1      34.567  32.599  27.959  1.00  0.00     0.200 A 
ATOM     81  F   UNL A   1      33.545  30.471  27.948  1.00  0.00    -0.200 F 
ATOM     82  F   UNL A   1      33.497  33.133  27.352  1.00  0.00    -0.200 F 
ENDBRANCH  48  72
BRANCH  60  83
ATOM     83  C   UNL A   1      39.069  31.997  35.843  1.00  0.00     0.064 A 
ATOM     84  C   UNL A   1      38.235  31.436  36.822  1.00  0.00     0.173 A 
ATOM     85  C   UNL A   1      39.490  33.325  36.026  1.00  0.00     0.173 A 
ATOM     86  F   UNL A   1      37.794  30.176  36.693  1.00  0.00    -0.203 F 
ATOM     87  C   UNL A   1      37.818  32.183  37.922  1.00  0.00     0.198 A 
ATOM     88  C   UNL A   1      39.100  34.055  37.145  1.00  0.00     0.198 A 
ATOM     89  F   UNL A   1      40.296  33.908  35.126  1.00  0.00    -0.203 F 
ATOM     90  F   UNL A   1      36.979  31.642  38.818  1.00  0.00    -0.200 F 
ATOM     91  C   UNL A   1      38.257  33.488  38.087  1.00  0.00     0.200 A 
ATOM     92  F   UNL A   1      39.542  35.310  37.311  1.00  0.00    -0.200 F 
ATOM     93  F   UNL A   1      37.863  34.201  39.152  1.00  0.00    -0.200 F 
ENDBRANCH  60  83
ENDBRANCH  34  35
ENDBRANCH  27  29
ENDBRANCH  26  27
ENDBRANCH  25  26
ENDBRANCH  24  25
ENDBRANCH  23  24
ENDBRANCH  22  23
ENDBRANCH   1  22
TORSDOF 21
ENDMDL
MODEL 3
REMARK VINA RESULT:     -10.1      4.075      9.098
REMARK SMILES [NH3+][C@@H](Cc1cccc(O)c1)C(=O)OCCOCCOCCOC(=O)c1ccc(-c2c3nc(c(-c4c(F)c(F)c(F)c(F)c4F)c4ccc([nH]4)c(-c4c(F)c(F)c(F)c(F)c4F)c4nc(c(-c5c(F)c(F)c(F)c(F)c5F)c5ccc2[nH]5)C=C4)C=C3)cc1
REMARK SMILES IDX 17 1 16 2 15 3 14 4 13 5 11 6 12 7 2 8 1 9 3 13 4 14 5 15
REMARK SMILES IDX 10 16 6 17 8 18 7 19 9 20 18 22 19 23 20 24 21 25 22 26
REMARK SMILES IDX 23 27 24 28 25 29 26 30 87 31 27 32 86 33 28 34 29 35 30 36
REMARK SMILES IDX 80 37 31 38 85 39 79 40 81 41 32 42 84 43 78 44 77 45 33 47
REMARK SMILES IDX 65 48 45 49 64 50 46 51 49 52 63 53 82 54 47 55 48 56 62 58
REMARK SMILES IDX 83 59 50 60 34 61 35 62 43 63 36 64 37 65 41 66 44 67 38 68
REMARK SMILES IDX 39 69 42 70 40 71 66 72 67 73 75 74 68 75 69 76 73 77 76 78
REMARK SMILES IDX 70 79 71 80 74 81 72 82 51 83 52 84 60 85 53 86 54 87 58 88
REMARK SMILES IDX 61 89 55 90 56 91 59 92 57 93
REMARK H PARENT 1 10 1 11 1 12 9 21 81 46 49 57
REMARK Flexibility Score: inf
ROOT
ATOM      1  C   UNL A   1      32.599  28.231  25.687  1.00  0.00     0.188 C 
ENDROOT
BRANCH   1   2
ATOM      2  O   UNL A   1      33.692  27.352  25.928  1.00  0.00    -0.376 OA
BRANCH   2   3
ATOM      3  C   UNL A   1      33.421  25.971  26.142  1.00  0.00     0.202 C 
BRANCH   3   4
ATOM      4  C   UNL A   1      33.703  24.965  25.011  1.00  0.00     0.261 C 
BRANCH   4   5
ATOM      5  O   UNL A   1      32.696  24.873  23.983  1.00  0.00    -0.459 OA
BRANCH   5   6
ATOM      6  C   UNL A   1      33.023  25.395  22.764  1.00  0.00     0.365 C 
ATOM      7  O   UNL A   1      34.082  25.186  22.180  1.00  0.00    -0.245 OA
BRANCH   6   8
ATOM      8  C   UNL A   1      31.952  26.346  22.188  1.00  0.00     0.296 C 
BRANCH   8   9
ATOM      9  N   UNL A   1      31.478  25.987  20.833  1.00  0.00    -0.346 N 
ATOM     10  H   UNL A   1      32.164  25.382  20.381  1.00  0.00     0.345 HD
ATOM     11  H   UNL A   1      31.355  26.835  20.279  1.00  0.00     0.345 HD
ATOM     12  H   UNL A   1      30.587  25.496  20.903  1.00  0.00     0.345 HD
ENDBRANCH   8   9
BRANCH   8  13
ATOM     13  C   UNL A   1      30.789  26.535  23.175  1.00  0.00     0.113 C 
BRANCH  13  14
ATOM     14  C   UNL A   1      29.889  27.720  22.900  1.00  0.00    -0.038 A 
ATOM     15  C   UNL A   1      30.460  28.934  22.496  1.00  0.00     0.004 A 
ATOM     16  C   UNL A   1      28.499  27.653  23.063  1.00  0.00     0.050 A 
ATOM     17  C   UNL A   1      29.663  30.062  22.293  1.00  0.00     0.004 A 
ATOM     18  C   UNL A   1      27.718  28.794  22.901  1.00  0.00     0.115 A 
ATOM     19  C   UNL A   1      28.289  29.999  22.512  1.00  0.00     0.046 A 
BRANCH  18  20
ATOM     20  O   UNL A   1      26.381  28.687  23.150  1.00  0.00    -0.508 OA
ATOM     21  H   UNL A   1      25.794  29.351  22.847  1.00  0.00     0.293 HD
ENDBRANCH  18  20
ENDBRANCH  13  14
ENDBRANCH   8  13
ENDBRANCH   6   8
ENDBRANCH   5   6
ENDBRANCH   4   5
ENDBRANCH   3   4
ENDBRANCH   2   3
ENDBRANCH   1   2
BRANCH   1  22
ATOM     22  C   UNL A   1      32.883  29.686  25.263  1.00  0.00     0.188 C 
BRANCH  22  23
ATOM     23  O   UNL A   1      32.911  30.606  26.325  1.00  0.00    -0.376 OA
BRANCH  23  24
ATOM     24  C   UNL A   1      31.734  31.336  26.599  1.00  0.00     0.202 C 
BRANCH  24  25
ATOM     25  C   UNL A   1      31.790  32.830  26.985  1.00  0.00     0.261 C 
BRANCH  25  26
ATOM     26  O   UNL A   1      33.075  33.477  26.992  1.00  0.00    -0.460 OA
BRANCH  26  27
ATOM     27  C   UNL A   1      33.538  33.938  28.176  1.00  0.00     0.338 C 
ATOM     28  O   UNL A   1      33.003  34.767  28.902  1.00  0.00    -0.246 OA
BRANCH  27  29
ATOM     29  C   UNL A   1      34.705  33.120  28.579  1.00  0.00     0.060 A 
ATOM     30  C   UNL A   1      34.508  31.783  28.964  1.00  0.00     0.016 A 
ATOM     31  C   UNL A   1      35.988  33.666  28.585  1.00  0.00     0.016 A 
ATOM     32  C   UNL A   1      35.590  30.997  29.372  1.00  0.00     0.010 A 
ATOM     33  C   UNL A   1      37.066  32.887  29.023  1.00  0.00     0.010 A 
ATOM     34  C   UNL A   1      36.871  31.558  29.446  1.00  0.00    -0.014 A 
BRANCH  34  35
ATOM     35  C   UNL A   1      37.969  30.836  30.142  1.00  0.00     0.031 A 
ATOM     36  C   UNL A   1      38.231  31.162  31.587  1.00  0.00     0.074 A 
ATOM     37  C   UNL A   1      38.728  29.921  29.515  1.00  0.00     0.049 A 
ATOM     38  N   UNL A   1      39.193  30.754  32.376  1.00  0.00    -0.248 NA
ATOM     39  C   UNL A   1      37.277  32.081  32.228  1.00  0.00     0.031 C 
ATOM     40  C   UNL A   1      38.553  29.476  28.135  1.00  0.00     0.029 A 
ATOM     41  N   UNL A   1      39.819  29.213  29.963  1.00  0.00    -0.354 N 
ATOM     42  C   UNL A   1      38.971  31.380  33.596  1.00  0.00     0.074 A 
ATOM     43  C   UNL A   1      37.799  32.213  33.438  1.00  0.00     0.031 C 
ATOM     44  C   UNL A   1      39.520  28.588  27.839  1.00  0.00     0.029 A 
ATOM     45  C   UNL A   1      40.402  28.432  28.996  1.00  0.00     0.049 A 
ATOM     46  H   UNL A   1      40.150  29.261  30.889  1.00  0.00     0.167 HD
ATOM     47  C   UNL A   1      39.677  31.268  34.745  1.00  0.00     0.037 A 
ATOM     48  C   UNL A   1      41.537  27.702  29.031  1.00  0.00     0.037 A 
ATOM     49  C   UNL A   1      40.843  30.438  34.903  1.00  0.00     0.049 A 
ATOM     50  C   UNL A   1      42.350  27.650  30.302  1.00  0.00     0.074 A 
ATOM     51  C   UNL A   1      41.613  30.239  36.037  1.00  0.00     0.029 A 
ATOM     52  N   UNL A   1      41.415  29.676  33.895  1.00  0.00    -0.354 N 
ATOM     53  N   UNL A   1      42.124  28.225  31.458  1.00  0.00    -0.248 NA
ATOM     54  C   UNL A   1      43.579  26.841  30.271  1.00  0.00     0.031 C 
ATOM     55  C   UNL A   1      42.687  29.411  35.697  1.00  0.00     0.029 A 
ATOM     56  C   UNL A   1      42.546  29.032  34.372  1.00  0.00     0.049 A 
ATOM     57  H   UNL A   1      41.069  29.605  32.976  1.00  0.00     0.167 HD
ATOM     58  C   UNL A   1      43.158  27.823  32.297  1.00  0.00     0.074 A 
ATOM     59  C   UNL A   1      44.006  26.945  31.522  1.00  0.00     0.031 C 
ATOM     60  C   UNL A   1      43.380  28.151  33.594  1.00  0.00     0.037 A 
BRANCH  47  61
ATOM     61  C   UNL A   1      39.233  32.092  35.919  1.00  0.00     0.064 A 
ATOM     62  C   UNL A   1      39.692  33.403  36.121  1.00  0.00     0.173 A 
ATOM     63  C   UNL A   1      38.304  31.575  36.835  1.00  0.00     0.173 A 
ATOM     64  F   UNL A   1      40.590  33.942  35.283  1.00  0.00    -0.203 F 
ATOM     65  C   UNL A   1      39.256  34.154  37.210  1.00  0.00     0.198 A 
ATOM     66  C   UNL A   1      37.846  32.340  37.903  1.00  0.00     0.198 A 
ATOM     67  F   UNL A   1      37.831  30.328  36.687  1.00  0.00    -0.203 F 
ATOM     68  F   UNL A   1      39.745  35.386  37.410  1.00  0.00    -0.200 F 
ATOM     69  C   UNL A   1      38.328  33.626  38.094  1.00  0.00     0.200 A 
ATOM     70  F   UNL A   1      36.937  31.833  38.747  1.00  0.00    -0.200 F 
ATOM     71  F   UNL A   1      37.902  34.354  39.135  1.00  0.00    -0.200 F 
ENDBRANCH  47  61
BRANCH  48  72
ATOM     72  C   UNL A   1      41.992  26.973  27.816  1.00  0.00     0.064 A 
ATOM     73  C   UNL A   1      41.592  25.652  27.570  1.00  0.00     0.173 A 
ATOM     74  C   UNL A   1      42.860  27.571  26.891  1.00  0.00     0.173 A 
ATOM     75  F   UNL A   1      40.789  25.022  28.440  1.00  0.00    -0.203 F 
ATOM     76  C   UNL A   1      42.058  24.952  26.458  1.00  0.00     0.198 A 
ATOM     77  C   UNL A   1      43.300  26.882  25.763  1.00  0.00     0.198 A 
ATOM     78  F   UNL A   1      43.282  28.830  27.083  1.00  0.00    -0.203 F 
ATOM     79  F   UNL A   1      41.705  23.672  26.278  1.00  0.00    -0.200 F 
ATOM     80  C   UNL A   1      42.906  25.570  25.552  1.00  0.00     0.200 A 
ATOM     81  F   UNL A   1      44.113  27.487  24.885  1.00  0.00    -0.200 F 
ATOM     82  F   UNL A   1      43.353  24.898  24.482  1.00  0.00    -0.200 F 
ENDBRANCH  48  72
BRANCH  60  83
ATOM     83  C   UNL A   1      44.562  27.523  34.281  1.00  0.00     0.064 A 
ATOM     84  C   UNL A   1      44.490  26.252  34.872  1.00  0.00     0.173 A 
ATOM     85  C   UNL A   1      45.800  28.187  34.309  1.00  0.00     0.173 A 
ATOM     86  F   UNL A   1      43.331  25.577  34.883  1.00  0.00    -0.203 F 
ATOM     87  C   UNL A   1      45.603  25.684  35.487  1.00  0.00     0.198 A 
ATOM     88  C   UNL A   1      46.918  27.600  34.894  1.00  0.00     0.198 A 
ATOM     89  F   UNL A   1      45.928  29.400  33.751  1.00  0.00    -0.203 F 
ATOM     90  F   UNL A   1      45.497  24.490  36.090  1.00  0.00    -0.200 F 
ATOM     91  C   UNL A   1      46.817  26.354  35.491  1.00  0.00     0.200 A 
ATOM     92  F   UNL A   1      48.095  28.243  34.878  1.00  0.00    -0.200 F 
ATOM     93  F   UNL A   1      47.889  25.800  36.076  1.00  0.00    -0.200 F 
ENDBRANCH  60  83
ENDBRANCH  34  35
ENDBRANCH  27  29
ENDBRANCH  26  27
ENDBRANCH  25  26
ENDBRANCH  24  25
ENDBRANCH  23  24
ENDBRANCH  22  23
ENDBRANCH   1  22
TORSDOF 21
ENDMDL
