MODEL 1
REMARK VINA RESULT:     -11.6      0.000      0.000
REMARK SMILES O=C(OCCOCCOCCOC(=O)c1ccc(-c2c3nc(c(-c4c(F)c(F)c(F)c(F)c4F)c4ccc([nH]4)c(-c4c(F)c(F)c(F)c(F)c4F)c4nc(c(-c5c(F)c(F)c(F)c(F)c5F)c5ccc2[nH]5)C=C4)C=C3)cc1)c1ccc(N[C@H]2OC[C@@H](O)[C@@H](O)[C@H]2O)cc1
REMARK SMILES IDX 7 1 6 2 5 3 4 4 3 5 2 6 1 7 78 8 79 9 93 10 80 11 92 12
REMARK SMILES IDX 81 13 82 14 83 16 84 17 90 18 85 19 88 20 86 21 91 22 89 24
REMARK SMILES IDX 87 26 8 28 9 29 10 30 11 31 12 32 13 33 14 34 15 35 16 36
REMARK SMILES IDX 77 37 17 38 76 39 18 40 19 41 20 42 70 43 21 44 75 45 69 46
REMARK SMILES IDX 71 47 22 48 74 49 68 50 67 51 23 53 55 54 35 55 54 56 36 57
REMARK SMILES IDX 39 58 53 59 72 60 37 61 38 62 52 64 73 65 40 66 24 67 25 68
REMARK SMILES IDX 33 69 26 70 27 71 31 72 34 73 28 74 29 75 32 76 30 77 56 78
REMARK SMILES IDX 57 79 65 80 58 81 59 82 63 83 66 84 60 85 61 86 64 87 62 88
REMARK SMILES IDX 41 89 42 90 50 91 43 92 44 93 48 94 51 95 45 96 46 97 49 98
REMARK SMILES IDX 47 99
REMARK H PARENT 82 15 91 23 89 25 87 27 71 52 39 63
REMARK Flexibility Score: inf
ROOT
ATOM      1  C   UNL A   1      32.670  19.529  24.010  1.00  0.00     0.188 C 
ENDROOT
BRANCH   1   2
ATOM      2  O   UNL A   1      31.793  20.032  25.028  1.00  0.00    -0.376 OA
BRANCH   2   3
ATOM      3  C   UNL A   1      31.828  21.452  25.165  1.00  0.00     0.202 C 
BRANCH   3   4
ATOM      4  C   UNL A   1      32.571  21.950  26.409  1.00  0.00     0.261 C 
BRANCH   4   5
ATOM      5  O   UNL A   1      32.483  23.379  26.559  1.00  0.00    -0.460 OA
BRANCH   5   6
ATOM      6  C   UNL A   1      31.333  24.095  26.650  1.00  0.00     0.338 C 
ATOM      7  O   UNL A   1      30.376  23.659  27.285  1.00  0.00    -0.246 OA
BRANCH   6   8
ATOM      8  C   UNL A   1      31.209  25.429  26.010  1.00  0.00     0.060 A 
ATOM      9  C   UNL A   1      31.658  26.590  26.626  1.00  0.00     0.018 A 
ATOM     10  C   UNL A   1      30.725  25.515  24.700  1.00  0.00     0.018 A 
ATOM     11  C   UNL A   1      31.536  27.825  25.991  1.00  0.00     0.026 A 
ATOM     12  C   UNL A   1      30.645  26.758  24.050  1.00  0.00     0.026 A 
ATOM     13  C   UNL A   1      31.023  27.942  24.695  1.00  0.00     0.036 A 
BRANCH  13  14
ATOM     14  N   UNL A   1      30.977  29.151  24.012  1.00  0.00    -0.358 N 
ATOM     15  H   UNL A   1      31.821  29.587  23.751  1.00  0.00     0.163 HD
BRANCH  14  16
ATOM     16  C   UNL A   1      29.713  29.792  23.668  1.00  0.00     0.244 C 
ATOM     17  O   UNL A   1      29.845  31.203  23.865  1.00  0.00    -0.353 OA
ATOM     18  C   UNL A   1      29.365  29.556  22.182  1.00  0.00     0.195 C 
ATOM     19  C   UNL A   1      28.604  31.897  23.702  1.00  0.00     0.197 C 
ATOM     20  C   UNL A   1      28.023  30.253  21.899  1.00  0.00     0.178 C 
ATOM     21  C   UNL A   1      28.077  31.743  22.277  1.00  0.00     0.171 C 
BRANCH  18  22
ATOM     22  O   UNL A   1      30.387  30.129  21.334  1.00  0.00    -0.386 OA
ATOM     23  H   UNL A   1      30.375  29.689  20.469  1.00  0.00     0.211 HD
ENDBRANCH  18  22
BRANCH  20  24
ATOM     24  O   UNL A   1      27.665  30.110  20.524  1.00  0.00    -0.387 OA
ATOM     25  H   UNL A   1      26.733  30.353  20.405  1.00  0.00     0.211 HD
ENDBRANCH  20  24
BRANCH  21  26
ATOM     26  O   UNL A   1      28.932  32.455  21.372  1.00  0.00    -0.388 OA
ATOM     27  H   UNL A   1      29.859  32.279  21.597  1.00  0.00     0.211 HD
ENDBRANCH  21  26
ENDBRANCH  14  16
ENDBRANCH  13  14
ENDBRANCH   6   8
ENDBRANCH   5   6
ENDBRANCH   4   5
ENDBRANCH   3   4
ENDBRANCH   2   3
ENDBRANCH   1   2
BRANCH   1  28
ATOM     28  C   UNL A   1      34.047  19.227  24.609  1.00  0.00     0.188 C 
BRANCH  28  29
ATOM     29  O   UNL A   1      34.945  20.341  24.607  1.00  0.00    -0.376 OA
BRANCH  29  30
ATOM     30  C   UNL A   1      36.301  20.073  24.963  1.00  0.00     0.202 C 
BRANCH  30  31
ATOM     31  C   UNL A   1      37.014  21.200  25.715  1.00  0.00     0.261 C 
BRANCH  31  32
ATOM     32  O   UNL A   1      38.318  21.513  25.192  1.00  0.00    -0.460 OA
BRANCH  32  33
ATOM     33  C   UNL A   1      39.336  21.301  26.059  1.00  0.00     0.338 C 
ATOM     34  O   UNL A   1      39.892  20.247  26.319  1.00  0.00    -0.246 OA
BRANCH  33  35
ATOM     35  C   UNL A   1      39.717  22.550  26.735  1.00  0.00     0.060 A 
ATOM     36  C   UNL A   1      39.153  23.757  26.315  1.00  0.00     0.016 A 
ATOM     37  C   UNL A   1      40.805  22.538  27.610  1.00  0.00     0.016 A 
ATOM     38  C   UNL A   1      39.718  24.966  26.733  1.00  0.00     0.010 A 
ATOM     39  C   UNL A   1      41.360  23.749  28.036  1.00  0.00     0.010 A 
ATOM     40  C   UNL A   1      40.851  24.969  27.562  1.00  0.00    -0.014 A 
BRANCH  40  41
ATOM     41  C   UNL A   1      41.598  26.227  27.819  1.00  0.00     0.031 A 
ATOM     42  C   UNL A   1      40.938  27.335  28.597  1.00  0.00     0.074 A 
ATOM     43  C   UNL A   1      42.854  26.388  27.364  1.00  0.00     0.049 A 
ATOM     44  N   UNL A   1      41.381  28.537  28.877  1.00  0.00    -0.248 NA
ATOM     45  C   UNL A   1      39.596  27.053  29.132  1.00  0.00     0.031 C 
ATOM     46  C   UNL A   1      43.618  25.391  26.621  1.00  0.00     0.029 A 
ATOM     47  N   UNL A   1      43.702  27.464  27.463  1.00  0.00    -0.354 N 
ATOM     48  C   UNL A   1      40.370  29.155  29.602  1.00  0.00     0.074 A 
ATOM     49  C   UNL A   1      39.282  28.205  29.705  1.00  0.00     0.031 C 
ATOM     50  C   UNL A   1      44.827  25.901  26.331  1.00  0.00     0.029 A 
ATOM     51  C   UNL A   1      44.905  27.272  26.834  1.00  0.00     0.049 A 
ATOM     52  H   UNL A   1      43.467  28.294  27.938  1.00  0.00     0.167 HD
ATOM     53  C   UNL A   1      40.350  30.397  30.143  1.00  0.00     0.037 A 
ATOM     54  C   UNL A   1      45.943  28.116  26.666  1.00  0.00     0.037 A 
ATOM     55  C   UNL A   1      41.431  31.344  30.059  1.00  0.00     0.049 A 
ATOM     56  C   UNL A   1      45.877  29.510  27.233  1.00  0.00     0.074 A 
ATOM     57  C   UNL A   1      41.507  32.619  30.596  1.00  0.00     0.029 A 
ATOM     58  N   UNL A   1      42.627  31.118  29.396  1.00  0.00    -0.354 N 
ATOM     59  N   UNL A   1      44.925  30.079  27.932  1.00  0.00    -0.248 NA
ATOM     60  C   UNL A   1      47.035  30.383  26.983  1.00  0.00     0.031 C 
ATOM     61  C   UNL A   1      42.737  33.176  30.228  1.00  0.00     0.029 A 
ATOM     62  C   UNL A   1      43.440  32.235  29.494  1.00  0.00     0.049 A 
ATOM     63  H   UNL A   1      42.863  30.287  28.924  1.00  0.00     0.167 HD
ATOM     64  C   UNL A   1      45.377  31.359  28.224  1.00  0.00     0.074 A 
ATOM     65  C   UNL A   1      46.693  31.485  27.636  1.00  0.00     0.031 C 
ATOM     66  C   UNL A   1      44.754  32.344  28.916  1.00  0.00     0.037 A 
BRANCH  53  67
ATOM     67  C   UNL A   1      39.108  30.815  30.870  1.00  0.00     0.064 A 
ATOM     68  C   UNL A   1      38.032  31.411  30.197  1.00  0.00     0.173 A 
ATOM     69  C   UNL A   1      38.973  30.574  32.245  1.00  0.00     0.173 A 
ATOM     70  F   UNL A   1      38.117  31.670  28.883  1.00  0.00    -0.203 F 
ATOM     71  C   UNL A   1      36.872  31.768  30.879  1.00  0.00     0.198 A 
ATOM     72  C   UNL A   1      37.804  30.912  32.919  1.00  0.00     0.198 A 
ATOM     73  F   UNL A   1      39.972  29.999  32.932  1.00  0.00    -0.203 F 
ATOM     74  F   UNL A   1      35.867  32.366  30.224  1.00  0.00    -0.200 F 
ATOM     75  C   UNL A   1      36.756  31.513  32.238  1.00  0.00     0.200 A 
ATOM     76  F   UNL A   1      37.688  30.655  34.230  1.00  0.00    -0.200 F 
ATOM     77  F   UNL A   1      35.636  31.850  32.891  1.00  0.00    -0.200 F 
ENDBRANCH  53  67
BRANCH  54  78
ATOM     78  C   UNL A   1      47.141  27.667  25.914  1.00  0.00     0.064 A 
ATOM     79  C   UNL A   1      47.182  27.740  24.514  1.00  0.00     0.173 A 
ATOM     80  C   UNL A   1      48.259  27.140  26.576  1.00  0.00     0.173 A 
ATOM     81  F   UNL A   1      46.126  28.214  23.838  1.00  0.00    -0.203 F 
ATOM     82  C   UNL A   1      48.291  27.286  23.804  1.00  0.00     0.198 A 
ATOM     83  C   UNL A   1      49.377  26.709  25.866  1.00  0.00     0.198 A 
ATOM     84  F   UNL A   1      48.271  27.053  27.914  1.00  0.00    -0.203 F 
ATOM     85  F   UNL A   1      48.290  27.328  22.466  1.00  0.00    -0.200 F 
ATOM     86  C   UNL A   1      49.390  26.775  24.481  1.00  0.00     0.200 A 
ATOM     87  F   UNL A   1      50.442  26.230  26.524  1.00  0.00    -0.200 F 
ATOM     88  F   UNL A   1      50.457  26.340  23.798  1.00  0.00    -0.200 F 
ENDBRANCH  54  78
BRANCH  66  89
ATOM     89  C   UNL A   1      45.500  33.632  29.111  1.00  0.00     0.064 A 
ATOM     90  C   UNL A   1      46.365  33.821  30.197  1.00  0.00     0.173 A 
ATOM     91  C   UNL A   1      45.377  34.671  28.177  1.00  0.00     0.173 A 
ATOM     92  F   UNL A   1      46.505  32.861  31.125  1.00  0.00    -0.203 F 
ATOM     93  C   UNL A   1      47.066  35.013  30.354  1.00  0.00     0.198 A 
ATOM     94  C   UNL A   1      46.097  35.854  28.324  1.00  0.00     0.198 A 
ATOM     95  F   UNL A   1      44.566  34.537  27.118  1.00  0.00    -0.203 F 
ATOM     96  F   UNL A   1      47.859  35.188  31.421  1.00  0.00    -0.200 F 
ATOM     97  C   UNL A   1      46.937  36.026  29.415  1.00  0.00     0.200 A 
ATOM     98  F   UNL A   1      45.978  36.828  27.412  1.00  0.00    -0.200 F 
ATOM     99  F   UNL A   1      47.616  37.172  29.565  1.00  0.00    -0.200 F 
ENDBRANCH  66  89
ENDBRANCH  40  41
ENDBRANCH  33  35
ENDBRANCH  32  33
ENDBRANCH  31  32
ENDBRANCH  30  31
ENDBRANCH  29  30
ENDBRANCH  28  29
ENDBRANCH   1  28
TORSDOF 22
ENDMDL
MODEL 2
REMARK VINA RESULT:     -11.5      5.268      9.942
REMARK SMILES O=C(OCCOCCOCCOC(=O)c1ccc(-c2c3nc(c(-c4c(F)c(F)c(F)c(F)c4F)c4ccc([nH]4)c(-c4c(F)c(F)c(F)c(F)c4F)c4nc(c(-c5c(F)c(F)c(F)c(F)c5F)c5ccc2[nH]5)C=C4)C=C3)cc1)c1ccc(N[C@H]2OC[C@@H](O)[C@@H](O)[C@H]2O)cc1
REMARK SMILES IDX 7 1 6 2 5 3 4 4 3 5 2 6 1 7 78 8 79 9 93 10 80 11 92 12
REMARK SMILES IDX 81 13 82 14 83 16 84 17 90 18 85 19 88 20 86 21 91 22 89 24
REMARK SMILES IDX 87 26 8 28 9 29 10 30 11 31 12 32 13 33 14 34 15 35 16 36
REMARK SMILES IDX 77 37 17 38 76 39 18 40 19 41 20 42 70 43 21 44 75 45 69 46
REMARK SMILES IDX 71 47 22 48 74 49 68 50 67 51 23 53 55 54 35 55 54 56 36 57
REMARK SMILES IDX 39 58 53 59 72 60 37 61 38 62 52 64 73 65 40 66 24 67 25 68
REMARK SMILES IDX 33 69 26 70 27 71 31 72 34 73 28 74 29 75 32 76 30 77 56 78
REMARK SMILES IDX 57 79 65 80 58 81 59 82 63 83 66 84 60 85 61 86 64 87 62 88
REMARK SMILES IDX 41 89 42 90 50 91 43 92 44 93 48 94 51 95 45 96 46 97 49 98
REMARK SMILES IDX 47 99
REMARK H PARENT 82 15 91 23 89 25 87 27 71 52 39 63
REMARK Flexibility Score: inf
ROOT
ATOM      1  C   UNL A   1      40.594  21.918  27.226  1.00  0.00     0.188 C 
ENDROOT
BRANCH   1   2
ATOM      2  O   UNL A   1      39.282  21.787  26.658  1.00  0.00    -0.376 OA
BRANCH   2   3
ATOM      3  C   UNL A   1      38.761  23.007  26.133  1.00  0.00     0.202 C 
BRANCH   3   4
ATOM      4  C   UNL A   1      37.332  22.902  25.588  1.00  0.00     0.261 C 
BRANCH   4   5
ATOM      5  O   UNL A   1      36.577  24.108  25.807  1.00  0.00    -0.460 OA
BRANCH   5   6
ATOM      6  C   UNL A   1      35.258  24.275  25.535  1.00  0.00     0.338 C 
ATOM      7  O   UNL A   1      34.766  25.399  25.501  1.00  0.00    -0.246 OA
BRANCH   6   8
ATOM      8  C   UNL A   1      34.382  23.110  25.247  1.00  0.00     0.060 A 
ATOM      9  C   UNL A   1      34.005  22.770  23.955  1.00  0.00     0.018 A 
ATOM     10  C   UNL A   1      34.012  22.259  26.295  1.00  0.00     0.018 A 
ATOM     11  C   UNL A   1      33.191  21.663  23.720  1.00  0.00     0.026 A 
ATOM     12  C   UNL A   1      33.227  21.121  26.044  1.00  0.00     0.026 A 
ATOM     13  C   UNL A   1      32.777  20.816  24.753  1.00  0.00     0.036 A 
BRANCH  13  14
ATOM     14  N   UNL A   1      32.042  19.659  24.529  1.00  0.00    -0.358 N 
ATOM     15  H   UNL A   1      31.060  19.698  24.584  1.00  0.00     0.163 HD
BRANCH  14  16
ATOM     16  C   UNL A   1      32.684  18.389  24.214  1.00  0.00     0.244 C 
ATOM     17  O   UNL A   1      34.103  18.557  24.296  1.00  0.00    -0.353 OA
ATOM     18  C   UNL A   1      32.281  17.302  25.234  1.00  0.00     0.195 C 
ATOM     19  C   UNL A   1      34.818  17.402  23.849  1.00  0.00     0.197 C 
ATOM     20  C   UNL A   1      32.989  15.996  24.832  1.00  0.00     0.178 C 
ATOM     21  C   UNL A   1      34.511  16.195  24.731  1.00  0.00     0.171 C 
BRANCH  18  22
ATOM     22  O   UNL A   1      32.704  17.684  26.563  1.00  0.00    -0.386 OA
ATOM     23  H   UNL A   1      33.181  18.527  26.521  1.00  0.00     0.211 HD
ENDBRANCH  18  22
BRANCH  20  24
ATOM     24  O   UNL A   1      32.691  14.958  25.766  1.00  0.00    -0.387 OA
ATOM     25  H   UNL A   1      33.512  14.656  26.186  1.00  0.00     0.211 HD
ENDBRANCH  20  24
BRANCH  21  26
ATOM     26  O   UNL A   1      35.072  16.401  26.036  1.00  0.00    -0.388 OA
ATOM     27  H   UNL A   1      35.170  15.546  26.484  1.00  0.00     0.211 HD
ENDBRANCH  21  26
ENDBRANCH  14  16
ENDBRANCH  13  14
ENDBRANCH   6   8
ENDBRANCH   5   6
ENDBRANCH   4   5
ENDBRANCH   3   4
ENDBRANCH   2   3
ENDBRANCH   1   2
BRANCH   1  28
ATOM     28  C   UNL A   1      41.606  21.123  26.395  1.00  0.00     0.188 C 
BRANCH  28  29
ATOM     29  O   UNL A   1      42.968  21.509  26.601  1.00  0.00    -0.376 OA
BRANCH  29  30
ATOM     30  C   UNL A   1      43.891  21.188  25.562  1.00  0.00     0.202 C 
BRANCH  30  31
ATOM     31  C   UNL A   1      44.356  22.372  24.711  1.00  0.00     0.261 C 
BRANCH  31  32
ATOM     32  O   UNL A   1      43.462  23.500  24.748  1.00  0.00    -0.460 OA
BRANCH  32  33
ATOM     33  C   UNL A   1      44.073  24.693  24.947  1.00  0.00     0.338 C 
ATOM     34  O   UNL A   1      45.178  25.041  24.569  1.00  0.00    -0.246 OA
BRANCH  33  35
ATOM     35  C   UNL A   1      43.226  25.586  25.752  1.00  0.00     0.060 A 
ATOM     36  C   UNL A   1      43.522  26.951  25.805  1.00  0.00     0.016 A 
ATOM     37  C   UNL A   1      42.299  25.023  26.632  1.00  0.00     0.016 A 
ATOM     38  C   UNL A   1      42.925  27.750  26.784  1.00  0.00     0.010 A 
ATOM     39  C   UNL A   1      41.694  25.828  27.601  1.00  0.00     0.010 A 
ATOM     40  C   UNL A   1      42.040  27.185  27.715  1.00  0.00    -0.014 A 
BRANCH  40  41
ATOM     41  C   UNL A   1      41.585  27.963  28.897  1.00  0.00     0.031 A 
ATOM     42  C   UNL A   1      42.344  27.853  30.194  1.00  0.00     0.074 A 
ATOM     43  C   UNL A   1      40.505  28.761  28.823  1.00  0.00     0.049 A 
ATOM     44  N   UNL A   1      42.083  28.387  31.361  1.00  0.00    -0.248 NA
ATOM     45  C   UNL A   1      43.561  27.025  30.173  1.00  0.00     0.031 C 
ATOM     46  C   UNL A   1      39.695  28.979  27.627  1.00  0.00     0.029 A 
ATOM     47  N   UNL A   1      39.904  29.533  29.786  1.00  0.00    -0.354 N 
ATOM     48  C   UNL A   1      43.089  27.950  32.213  1.00  0.00     0.074 A 
ATOM     49  C   UNL A   1      43.956  27.091  31.436  1.00  0.00     0.031 C 
ATOM     50  C   UNL A   1      38.701  29.832  27.927  1.00  0.00     0.029 A 
ATOM     51  C   UNL A   1      38.783  30.188  29.344  1.00  0.00     0.049 A 
ATOM     52  H   UNL A   1      40.244  29.607  30.707  1.00  0.00     0.167 HD
ATOM     53  C   UNL A   1      43.281  28.245  33.522  1.00  0.00     0.037 A 
ATOM     54  C   UNL A   1      37.912  30.970  30.012  1.00  0.00     0.037 A 
ATOM     55  C   UNL A   1      42.434  29.109  34.300  1.00  0.00     0.049 A 
ATOM     56  C   UNL A   1      38.119  31.241  31.480  1.00  0.00     0.074 A 
ATOM     57  C   UNL A   1      42.565  29.481  35.628  1.00  0.00     0.029 A 
ATOM     58  N   UNL A   1      41.297  29.738  33.820  1.00  0.00    -0.354 N 
ATOM     59  N   UNL A   1      39.083  30.838  32.272  1.00  0.00    -0.248 NA
ATOM     60  C   UNL A   1      37.110  32.077  32.148  1.00  0.00     0.031 C 
ATOM     61  C   UNL A   1      41.486  30.309  35.959  1.00  0.00     0.029 A 
ATOM     62  C   UNL A   1      40.706  30.482  34.828  1.00  0.00     0.049 A 
ATOM     63  H   UNL A   1      40.958  29.667  32.898  1.00  0.00     0.167 HD
ATOM     64  C   UNL A   1      38.810  31.388  33.518  1.00  0.00     0.074 A 
ATOM     65  C   UNL A   1      37.596  32.163  33.379  1.00  0.00     0.031 C 
ATOM     66  C   UNL A   1      39.505  31.260  34.675  1.00  0.00     0.037 A 
BRANCH  53  67
ATOM     67  C   UNL A   1      44.456  27.613  34.207  1.00  0.00     0.064 A 
ATOM     68  C   UNL A   1      44.359  26.352  34.812  1.00  0.00     0.173 A 
ATOM     69  C   UNL A   1      45.703  28.255  34.217  1.00  0.00     0.173 A 
ATOM     70  F   UNL A   1      43.185  25.703  34.836  1.00  0.00    -0.203 F 
ATOM     71  C   UNL A   1      45.465  25.764  35.419  1.00  0.00     0.198 A 
ATOM     72  C   UNL A   1      46.811  27.654  34.806  1.00  0.00     0.198 A 
ATOM     73  F   UNL A   1      45.849  29.459  33.644  1.00  0.00    -0.203 F 
ATOM     74  F   UNL A   1      45.343  24.572  36.021  1.00  0.00    -0.200 F 
ATOM     75  C   UNL A   1      46.691  26.413  35.411  1.00  0.00     0.200 A 
ATOM     76  F   UNL A   1      47.999  28.277  34.787  1.00  0.00    -0.200 F 
ATOM     77  F   UNL A   1      47.756  25.841  35.989  1.00  0.00    -0.200 F 
ENDBRANCH  53  67
BRANCH  54  78
ATOM     78  C   UNL A   1      36.747  31.550  29.299  1.00  0.00     0.064 A 
ATOM     79  C   UNL A   1      36.699  32.917  28.990  1.00  0.00     0.173 A 
ATOM     80  C   UNL A   1      35.652  30.755  28.930  1.00  0.00     0.173 A 
ATOM     81  F   UNL A   1      37.712  33.719  29.346  1.00  0.00    -0.203 F 
ATOM     82  C   UNL A   1      35.590  33.469  28.354  1.00  0.00     0.198 A 
ATOM     83  C   UNL A   1      34.555  31.305  28.272  1.00  0.00     0.198 A 
ATOM     84  F   UNL A   1      35.652  29.442  29.200  1.00  0.00    -0.203 F 
ATOM     85  F   UNL A   1      35.549  34.785  28.106  1.00  0.00    -0.200 F 
ATOM     86  C   UNL A   1      34.521  32.662  27.991  1.00  0.00     0.200 A 
ATOM     87  F   UNL A   1      33.532  30.519  27.910  1.00  0.00    -0.200 F 
ATOM     88  F   UNL A   1      33.455  33.194  27.377  1.00  0.00    -0.200 F 
ENDBRANCH  54  78
BRANCH  66  89
ATOM     89  C   UNL A   1      38.993  32.002  35.874  1.00  0.00     0.064 A 
ATOM     90  C   UNL A   1      38.168  31.381  36.823  1.00  0.00     0.173 A 
ATOM     91  C   UNL A   1      39.366  33.335  36.098  1.00  0.00     0.173 A 
ATOM     92  F   UNL A   1      37.771  30.111  36.645  1.00  0.00    -0.203 F 
ATOM     93  C   UNL A   1      37.717  32.075  37.942  1.00  0.00     0.198 A 
ATOM     94  C   UNL A   1      38.932  34.020  37.231  1.00  0.00     0.198 A 
ATOM     95  F   UNL A   1      40.159  33.972  35.224  1.00  0.00    -0.203 F 
ATOM     96  F   UNL A   1      36.897  31.475  38.816  1.00  0.00    -0.200 F 
ATOM     97  C   UNL A   1      38.104  33.391  38.149  1.00  0.00     0.200 A 
ATOM     98  F   UNL A   1      39.314  35.288  37.433  1.00  0.00    -0.200 F 
ATOM     99  F   UNL A   1      37.672  34.057  39.229  1.00  0.00    -0.200 F 
ENDBRANCH  66  89
ENDBRANCH  40  41
ENDBRANCH  33  35
ENDBRANCH  32  33
ENDBRANCH  31  32
ENDBRANCH  30  31
ENDBRANCH  29  30
ENDBRANCH  28  29
ENDBRANCH   1  28
TORSDOF 22
ENDMDL
MODEL 3
REMARK VINA RESULT:     -11.3      5.310      8.893
REMARK SMILES O=C(OCCOCCOCCOC(=O)c1ccc(-c2c3nc(c(-c4c(F)c(F)c(F)c(F)c4F)c4ccc([nH]4)c(-c4c(F)c(F)c(F)c(F)c4F)c4nc(c(-c5c(F)c(F)c(F)c(F)c5F)c5ccc2[nH]5)C=C4)C=C3)cc1)c1ccc(N[C@H]2OC[C@@H](O)[C@@H](O)[C@H]2O)cc1
REMARK SMILES IDX 7 1 6 2 5 3 4 4 3 5 2 6 1 7 78 8 79 9 93 10 80 11 92 12
REMARK SMILES IDX 81 13 82 14 83 16 84 17 90 18 85 19 88 20 86 21 91 22 89 24
REMARK SMILES IDX 87 26 8 28 9 29 10 30 11 31 12 32 13 33 14 34 15 35 16 36
REMARK SMILES IDX 77 37 17 38 76 39 18 40 19 41 20 42 70 43 21 44 75 45 69 46
REMARK SMILES IDX 71 47 22 48 74 49 68 50 67 51 23 53 55 54 35 55 54 56 36 57
REMARK SMILES IDX 39 58 53 59 72 60 37 61 38 62 52 64 73 65 40 66 24 67 25 68
REMARK SMILES IDX 33 69 26 70 27 71 31 72 34 73 28 74 29 75 32 76 30 77 56 78
REMARK SMILES IDX 57 79 65 80 58 81 59 82 63 83 66 84 60 85 61 86 64 87 62 88
REMARK SMILES IDX 41 89 42 90 50 91 43 92 44 93 48 94 51 95 45 96 46 97 49 98
REMARK SMILES IDX 47 99
REMARK H PARENT 82 15 91 23 89 25 87 27 71 52 39 63
REMARK Flexibility Score: inf
ROOT
ATOM      1  C   UNL A   1      40.520  22.411  27.018  1.00  0.00     0.188 C 
ENDROOT
BRANCH   1   2
ATOM      2  O   UNL A   1      39.195  22.246  26.491  1.00  0.00    -0.376 OA
BRANCH   2   3
ATOM      3  C   UNL A   1      38.500  23.476  26.292  1.00  0.00     0.202 C 
BRANCH   3   4
ATOM      4  C   UNL A   1      37.200  23.347  25.491  1.00  0.00     0.261 C 
BRANCH   4   5
ATOM      5  O   UNL A   1      36.297  24.440  25.741  1.00  0.00    -0.460 OA
BRANCH   5   6
ATOM      6  C   UNL A   1      34.982  24.471  25.406  1.00  0.00     0.338 C 
ATOM      7  O   UNL A   1      34.401  25.543  25.260  1.00  0.00    -0.246 OA
BRANCH   6   8
ATOM      8  C   UNL A   1      34.219  23.216  25.182  1.00  0.00     0.060 A 
ATOM      9  C   UNL A   1      33.939  22.738  23.909  1.00  0.00     0.018 A 
ATOM     10  C   UNL A   1      33.863  22.430  26.283  1.00  0.00     0.018 A 
ATOM     11  C   UNL A   1      33.230  21.551  23.736  1.00  0.00     0.026 A 
ATOM     12  C   UNL A   1      33.185  21.212  26.099  1.00  0.00     0.026 A 
ATOM     13  C   UNL A   1      32.831  20.763  24.821  1.00  0.00     0.036 A 
BRANCH  13  14
ATOM     14  N   UNL A   1      32.203  19.533  24.666  1.00  0.00    -0.358 N 
ATOM     15  H   UNL A   1      31.233  19.467  24.823  1.00  0.00     0.163 HD
BRANCH  14  16
ATOM     16  C   UNL A   1      32.940  18.337  24.278  1.00  0.00     0.244 C 
ATOM     17  O   UNL A   1      34.328  18.538  24.564  1.00  0.00    -0.353 OA
ATOM     18  C   UNL A   1      32.466  17.112  25.091  1.00  0.00     0.195 C 
ATOM     19  C   UNL A   1      35.149  17.476  24.070  1.00  0.00     0.197 C 
ATOM     20  C   UNL A   1      33.282  15.894  24.621  1.00  0.00     0.178 C 
ATOM     21  C   UNL A   1      34.793  16.153  24.745  1.00  0.00     0.171 C 
BRANCH  18  22
ATOM     22  O   UNL A   1      32.703  17.329  26.501  1.00  0.00    -0.386 OA
ATOM     23  H   UNL A   1      33.383  16.712  26.814  1.00  0.00     0.211 HD
ENDBRANCH  18  22
BRANCH  20  24
ATOM     24  O   UNL A   1      32.921  14.733  25.370  1.00  0.00    -0.387 OA
ATOM     25  H   UNL A   1      32.668  14.993  26.270  1.00  0.00     0.211 HD
ENDBRANCH  20  24
BRANCH  21  26
ATOM     26  O   UNL A   1      35.177  16.203  26.126  1.00  0.00    -0.388 OA
ATOM     27  H   UNL A   1      35.463  15.321  26.414  1.00  0.00     0.211 HD
ENDBRANCH  21  26
ENDBRANCH  14  16
ENDBRANCH  13  14
ENDBRANCH   6   8
ENDBRANCH   5   6
ENDBRANCH   4   5
ENDBRANCH   3   4
ENDBRANCH   2   3
ENDBRANCH   1   2
BRANCH   1  28
ATOM     28  C   UNL A   1      41.522  21.622  26.168  1.00  0.00     0.188 C 
BRANCH  28  29
ATOM     29  O   UNL A   1      42.891  21.950  26.422  1.00  0.00    -0.376 OA
BRANCH  29  30
ATOM     30  C   UNL A   1      43.812  21.731  25.354  1.00  0.00     0.202 C 
BRANCH  30  31
ATOM     31  C   UNL A   1      44.391  22.998  24.719  1.00  0.00     0.261 C 
BRANCH  31  32
ATOM     32  O   UNL A   1      43.492  24.122  24.742  1.00  0.00    -0.460 OA
BRANCH  32  33
ATOM     33  C   UNL A   1      44.078  25.303  25.052  1.00  0.00     0.338 C 
ATOM     34  O   UNL A   1      45.175  25.709  24.706  1.00  0.00    -0.246 OA
BRANCH  33  35
ATOM     35  C   UNL A   1      43.216  26.098  25.940  1.00  0.00     0.060 A 
ATOM     36  C   UNL A   1      43.537  27.434  26.194  1.00  0.00     0.016 A 
ATOM     37  C   UNL A   1      42.242  25.443  26.696  1.00  0.00     0.016 A 
ATOM     38  C   UNL A   1      42.915  28.105  27.251  1.00  0.00     0.010 A 
ATOM     39  C   UNL A   1      41.613  26.121  27.744  1.00  0.00     0.010 A 
ATOM     40  C   UNL A   1      41.981  27.439  28.059  1.00  0.00    -0.014 A 
BRANCH  40  41
ATOM     41  C   UNL A   1      41.492  28.058  29.319  1.00  0.00     0.031 A 
ATOM     42  C   UNL A   1      40.242  28.899  29.296  1.00  0.00     0.074 A 
ATOM     43  C   UNL A   1      42.152  27.878  30.477  1.00  0.00     0.049 A 
ATOM     44  N   UNL A   1      39.679  29.584  30.261  1.00  0.00    -0.248 NA
ATOM     45  C   UNL A   1      39.531  28.982  28.010  1.00  0.00     0.031 C 
ATOM     46  C   UNL A   1      43.357  27.070  30.646  1.00  0.00     0.029 A 
ATOM     47  N   UNL A   1      41.895  28.373  31.731  1.00  0.00    -0.354 N 
ATOM     48  C   UNL A   1      38.563  30.188  29.697  1.00  0.00     0.074 A 
ATOM     49  C   UNL A   1      38.536  29.807  28.301  1.00  0.00     0.031 C 
ATOM     50  C   UNL A   1      43.736  27.123  31.934  1.00  0.00     0.029 A 
ATOM     51  C   UNL A   1      42.823  27.999  32.669  1.00  0.00     0.049 A 
ATOM     52  H   UNL A   1      41.120  28.945  31.937  1.00  0.00     0.167 HD
ATOM     53  C   UNL A   1      37.637  30.982  30.288  1.00  0.00     0.037 A 
ATOM     54  C   UNL A   1      42.934  28.341  33.968  1.00  0.00     0.037 A 
ATOM     55  C   UNL A   1      37.646  31.357  31.678  1.00  0.00     0.049 A 
ATOM     56  C   UNL A   1      41.920  29.267  34.590  1.00  0.00     0.074 A 
ATOM     57  C   UNL A   1      36.736  32.140  32.368  1.00  0.00     0.029 A 
ATOM     58  N   UNL A   1      38.616  30.972  32.591  1.00  0.00    -0.354 N 
ATOM     59  N   UNL A   1      40.859  29.818  34.054  1.00  0.00    -0.248 NA
ATOM     60  C   UNL A   1      42.125  29.620  36.004  1.00  0.00     0.031 C 
ATOM     61  C   UNL A   1      37.174  32.256  33.692  1.00  0.00     0.029 A 
ATOM     62  C   UNL A   1      38.336  31.516  33.833  1.00  0.00     0.049 A 
ATOM     63  H   UNL A   1      39.389  30.398  32.386  1.00  0.00     0.167 HD
ATOM     64  C   UNL A   1      40.260  30.559  35.064  1.00  0.00     0.074 A 
ATOM     65  C   UNL A   1      41.068  30.381  36.252  1.00  0.00     0.031 C 
ATOM     66  C   UNL A   1      39.140  31.321  35.012  1.00  0.00     0.037 A 
BRANCH  53  67
ATOM     67  C   UNL A   1      36.533  31.515  29.427  1.00  0.00     0.064 A 
ATOM     68  C   UNL A   1      35.508  30.683  28.952  1.00  0.00     0.173 A 
ATOM     69  C   UNL A   1      36.471  32.881  29.113  1.00  0.00     0.173 A 
ATOM     70  F   UNL A   1      35.528  29.369  29.219  1.00  0.00    -0.203 F 
ATOM     71  C   UNL A   1      34.472  31.197  28.177  1.00  0.00     0.198 A 
ATOM     72  C   UNL A   1      35.422  33.394  28.356  1.00  0.00     0.198 A 
ATOM     73  F   UNL A   1      37.423  33.719  29.550  1.00  0.00    -0.203 F 
ATOM     74  F   UNL A   1      33.520  30.379  27.706  1.00  0.00    -0.200 F 
ATOM     75  C   UNL A   1      34.426  32.552  27.884  1.00  0.00     0.200 A 
ATOM     76  F   UNL A   1      35.372  34.706  28.083  1.00  0.00    -0.200 F 
ATOM     77  F   UNL A   1      33.423  33.046  27.145  1.00  0.00    -0.200 F 
ENDBRANCH  53  67
BRANCH  54  78
ATOM     78  C   UNL A   1      44.061  27.812  34.775  1.00  0.00     0.064 A 
ATOM     79  C   UNL A   1      43.976  26.559  35.398  1.00  0.00     0.173 A 
ATOM     80  C   UNL A   1      45.237  28.555  34.957  1.00  0.00     0.173 A 
ATOM     81  F   UNL A   1      42.861  25.824  35.273  1.00  0.00    -0.203 F 
ATOM     82  C   UNL A   1      45.018  26.077  36.186  1.00  0.00     0.198 A 
ATOM     83  C   UNL A   1      46.287  28.061  35.724  1.00  0.00     0.198 A 
ATOM     84  F   UNL A   1      45.369  29.758  34.378  1.00  0.00    -0.203 F 
ATOM     85  F   UNL A   1      44.896  24.894  36.804  1.00  0.00    -0.200 F 
ATOM     86  C   UNL A   1      46.175  26.826  36.344  1.00  0.00     0.200 A 
ATOM     87  F   UNL A   1      47.409  28.781  35.863  1.00  0.00    -0.200 F 
ATOM     88  F   UNL A   1      47.179  26.361  37.101  1.00  0.00    -0.200 F 
ENDBRANCH  54  78
BRANCH  66  89
ATOM     89  C   UNL A   1      38.698  31.990  36.279  1.00  0.00     0.064 A 
ATOM     90  C   UNL A   1      37.902  31.323  37.222  1.00  0.00     0.173 A 
ATOM     91  C   UNL A   1      39.109  33.299  36.573  1.00  0.00     0.173 A 
ATOM     92  F   UNL A   1      37.471  30.076  36.980  1.00  0.00    -0.203 F 
ATOM     93  C   UNL A   1      37.516  31.950  38.403  1.00  0.00     0.198 A 
ATOM     94  C   UNL A   1      38.741  33.915  37.766  1.00  0.00     0.198 A 
ATOM     95  F   UNL A   1      39.876  33.977  35.707  1.00  0.00    -0.203 F 
ATOM     96  F   UNL A   1      36.723  31.309  39.273  1.00  0.00    -0.200 F 
ATOM     97  C   UNL A   1      37.940  33.242  38.678  1.00  0.00     0.200 A 
ATOM     98  F   UNL A   1      39.158  35.160  38.033  1.00  0.00    -0.200 F 
ATOM     99  F   UNL A   1      37.571  33.842  39.818  1.00  0.00    -0.200 F 
ENDBRANCH  66  89
ENDBRANCH  40  41
ENDBRANCH  33  35
ENDBRANCH  32  33
ENDBRANCH  31  32
ENDBRANCH  30  31
ENDBRANCH  29  30
ENDBRANCH  28  29
ENDBRANCH   1  28
TORSDOF 22
ENDMDL
