MODEL 1
REMARK VINA RESULT:      -9.7      0.000      0.000
REMARK SMILES C[C@@H](CCCO)Nc1ccc(Cl)cc1C(=O)OCCOCCOCCOC(=O)c1ccc(-c2c3nc(c(-c4c(F)c(F)c(F)c(F)c4F)c4ccc([nH]4)c(-c4c(F)c(F)c(F)c(F)c4F)c4nc(c(-c5c(F)c(F)c(F)c(F)c5F)c5ccc2[nH]5)C=C4)C=C3)cc1
REMARK SMILES IDX 19 1 18 2 17 3 15 4 16 5 14 6 8 7 9 8 10 9 13 10 11 11 12 12
REMARK SMILES IDX 7 13 2 15 1 16 3 17 4 18 5 19 6 20 20 22 21 23 22 24 23 25
REMARK SMILES IDX 24 26 25 27 26 28 27 29 28 30 29 31 30 32 91 33 31 34 90 35
REMARK SMILES IDX 32 36 33 37 34 38 84 39 35 40 89 41 83 42 85 43 36 44 88 45
REMARK SMILES IDX 82 46 81 47 37 49 69 50 49 51 68 52 50 53 53 54 67 55 86 56
REMARK SMILES IDX 51 57 52 58 66 60 87 61 54 62 38 63 39 64 47 65 40 66 41 67
REMARK SMILES IDX 45 68 48 69 42 70 43 71 46 72 44 73 70 74 71 75 79 76 72 77
REMARK SMILES IDX 73 78 77 79 80 80 74 81 75 82 78 83 76 84 55 85 56 86 64 87
REMARK SMILES IDX 57 88 58 89 62 90 65 91 59 92 60 93 63 94 61 95
REMARK H PARENT 7 14 6 21 85 48 53 59
REMARK Flexibility Score: inf
ROOT
ATOM      1  C   UNL A   1      34.026  31.380  27.563  1.00  0.00     0.202 C 
ENDROOT
BRANCH   1   2
ATOM      2  C   UNL A   1      34.163  29.880  27.250  1.00  0.00     0.261 C 
BRANCH   2   3
ATOM      3  O   UNL A   1      33.357  29.419  26.148  1.00  0.00    -0.460 OA
BRANCH   3   4
ATOM      4  C   UNL A   1      32.248  28.708  26.482  1.00  0.00     0.340 C 
ATOM      5  O   UNL A   1      31.856  28.492  27.618  1.00  0.00    -0.246 OA
BRANCH   4   6
ATOM      6  C   UNL A   1      31.419  28.367  25.285  1.00  0.00     0.084 A 
ATOM      7  C   UNL A   1      31.198  27.054  24.796  1.00  0.00     0.049 A 
ATOM      8  C   UNL A   1      30.286  26.915  23.736  1.00  0.00     0.028 A 
ATOM      9  C   UNL A   1      29.753  28.025  23.073  1.00  0.00     0.022 A 
ATOM     10  C   UNL A   1      30.893  29.481  24.604  1.00  0.00     0.038 A 
ATOM     11  C   UNL A   1      30.094  29.305  23.484  1.00  0.00     0.042 A 
ATOM     12  Cl  UNL A   1      29.542  30.671  22.600  1.00  0.00    -0.084 Cl
BRANCH   7  13
ATOM     13  N   UNL A   1      31.829  25.956  25.361  1.00  0.00    -0.382 N 
ATOM     14  H   UNL A   1      31.557  25.710  26.275  1.00  0.00     0.160 HD
BRANCH  13  15
ATOM     15  C   UNL A   1      32.860  25.124  24.739  1.00  0.00     0.076 C 
ATOM     16  C   UNL A   1      33.987  24.865  25.739  1.00  0.00     0.031 C 
BRANCH  15  17
ATOM     17  C   UNL A   1      32.247  23.824  24.200  1.00  0.00     0.027 C 
BRANCH  17  18
ATOM     18  C   UNL A   1      31.004  23.283  24.924  1.00  0.00     0.030 C 
BRANCH  18  19
ATOM     19  C   UNL A   1      31.205  22.813  26.362  1.00  0.00     0.156 C 
BRANCH  19  20
ATOM     20  O   UNL A   1      30.596  23.698  27.288  1.00  0.00    -0.396 OA
ATOM     21  H   UNL A   1      29.708  23.375  27.508  1.00  0.00     0.210 HD
ENDBRANCH  19  20
ENDBRANCH  18  19
ENDBRANCH  17  18
ENDBRANCH  15  17
ENDBRANCH  13  15
ENDBRANCH   7  13
ENDBRANCH   4   6
ENDBRANCH   3   4
ENDBRANCH   2   3
ENDBRANCH   1   2
BRANCH   1  22
ATOM     22  O   UNL A   1      35.201  32.162  27.748  1.00  0.00    -0.376 OA
BRANCH  22  23
ATOM     23  C   UNL A   1      35.139  33.369  28.497  1.00  0.00     0.188 C 
BRANCH  23  24
ATOM     24  C   UNL A   1      34.060  34.423  28.170  1.00  0.00     0.188 C 
BRANCH  24  25
ATOM     25  O   UNL A   1      34.517  35.755  28.268  1.00  0.00    -0.376 OA
BRANCH  25  26
ATOM     26  C   UNL A   1      33.632  36.698  28.847  1.00  0.00     0.202 C 
BRANCH  26  27
ATOM     27  C   UNL A   1      32.571  36.228  29.859  1.00  0.00     0.261 C 
BRANCH  27  28
ATOM     28  O   UNL A   1      32.606  36.809  31.174  1.00  0.00    -0.460 OA
BRANCH  28  29
ATOM     29  C   UNL A   1      32.398  35.997  32.231  1.00  0.00     0.338 C 
ATOM     30  O   UNL A   1      31.359  35.865  32.865  1.00  0.00    -0.246 OA
BRANCH  29  31
ATOM     31  C   UNL A   1      33.591  35.138  32.388  1.00  0.00     0.060 A 
ATOM     32  C   UNL A   1      33.443  33.838  32.894  1.00  0.00     0.016 A 
ATOM     33  C   UNL A   1      34.854  35.612  32.025  1.00  0.00     0.016 A 
ATOM     34  C   UNL A   1      34.562  33.017  33.056  1.00  0.00     0.010 A 
ATOM     35  C   UNL A   1      35.975  34.796  32.208  1.00  0.00     0.010 A 
ATOM     36  C   UNL A   1      35.840  33.503  32.748  1.00  0.00    -0.014 A 
BRANCH  36  37
ATOM     37  C   UNL A   1      37.050  32.734  33.136  1.00  0.00     0.031 A 
ATOM     38  C   UNL A   1      37.722  33.058  34.443  1.00  0.00     0.074 A 
ATOM     39  C   UNL A   1      37.555  31.774  32.343  1.00  0.00     0.049 A 
ATOM     40  N   UNL A   1      38.826  32.579  34.955  1.00  0.00    -0.248 NA
ATOM     41  C   UNL A   1      37.056  34.068  35.280  1.00  0.00     0.031 C 
ATOM     42  C   UNL A   1      36.984  31.345  31.069  1.00  0.00     0.029 A 
ATOM     43  N   UNL A   1      38.680  30.998  32.489  1.00  0.00    -0.354 N 
ATOM     44  C   UNL A   1      38.995  33.238  36.167  1.00  0.00     0.074 A 
ATOM     45  C   UNL A   1      37.897  34.172  36.297  1.00  0.00     0.031 C 
ATOM     46  C   UNL A   1      37.773  30.395  30.537  1.00  0.00     0.029 A 
ATOM     47  C   UNL A   1      38.922  30.175  31.416  1.00  0.00     0.049 A 
ATOM     48  H   UNL A   1      39.257  31.029  33.286  1.00  0.00     0.167 HD
ATOM     49  C   UNL A   1      39.976  33.077  37.087  1.00  0.00     0.037 A 
ATOM     50  C   UNL A   1      39.967  29.363  31.161  1.00  0.00     0.037 A 
ATOM     51  C   UNL A   1      41.068  32.149  36.952  1.00  0.00     0.049 A 
ATOM     52  C   UNL A   1      41.081  29.245  32.171  1.00  0.00     0.074 A 
ATOM     53  C   UNL A   1      42.090  31.884  37.847  1.00  0.00     0.029 A 
ATOM     54  N   UNL A   1      41.290  31.345  35.843  1.00  0.00    -0.354 N 
ATOM     55  N   UNL A   1      41.216  29.839  33.332  1.00  0.00    -0.248 NA
ATOM     56  C   UNL A   1      42.188  28.336  31.836  1.00  0.00     0.031 C 
ATOM     57  C   UNL A   1      42.969  30.973  37.251  1.00  0.00     0.029 A 
ATOM     58  C   UNL A   1      42.454  30.612  36.016  1.00  0.00     0.049 A 
ATOM     59  H   UNL A   1      40.708  31.301  35.051  1.00  0.00     0.167 HD
ATOM     60  C   UNL A   1      42.401  29.358  33.877  1.00  0.00     0.074 A 
ATOM     61  C   UNL A   1      42.941  28.412  32.924  1.00  0.00     0.031 C 
ATOM     62  C   UNL A   1      42.985  29.669  35.061  1.00  0.00     0.037 A 
BRANCH  49  63
ATOM     63  C   UNL A   1      39.933  33.955  38.305  1.00  0.00     0.064 A 
ATOM     64  C   UNL A   1      39.250  33.577  39.472  1.00  0.00     0.173 A 
ATOM     65  C   UNL A   1      40.603  35.188  38.311  1.00  0.00     0.173 A 
ATOM     66  F   UNL A   1      38.581  32.415  39.517  1.00  0.00    -0.203 F 
ATOM     67  C   UNL A   1      39.210  34.416  40.584  1.00  0.00     0.198 A 
ATOM     68  C   UNL A   1      40.592  36.008  39.436  1.00  0.00     0.198 A 
ATOM     69  F   UNL A   1      41.277  35.598  37.225  1.00  0.00    -0.203 F 
ATOM     70  F   UNL A   1      38.502  34.061  41.664  1.00  0.00    -0.200 F 
ATOM     71  C   UNL A   1      39.886  35.626  40.567  1.00  0.00     0.200 A 
ATOM     72  F   UNL A   1      41.257  37.171  39.423  1.00  0.00    -0.200 F 
ATOM     73  F   UNL A   1      39.851  36.430  41.638  1.00  0.00    -0.200 F 
ENDBRANCH  49  63
BRANCH  50  74
ATOM     74  C   UNL A   1      40.017  28.605  29.882  1.00  0.00     0.064 A 
ATOM     75  C   UNL A   1      39.435  27.335  29.765  1.00  0.00     0.173 A 
ATOM     76  C   UNL A   1      40.658  29.134  28.751  1.00  0.00     0.173 A 
ATOM     77  F   UNL A   1      38.838  26.773  30.827  1.00  0.00    -0.203 F 
ATOM     78  C   UNL A   1      39.502  26.619  28.572  1.00  0.00     0.198 A 
ATOM     79  C   UNL A   1      40.698  28.430  27.549  1.00  0.00     0.198 A 
ATOM     80  F   UNL A   1      41.240  30.341  28.811  1.00  0.00    -0.203 F 
ATOM     81  F   UNL A   1      38.977  25.388  28.502  1.00  0.00    -0.200 F 
ATOM     82  C   UNL A   1      40.125  27.170  27.462  1.00  0.00     0.200 A 
ATOM     83  F   UNL A   1      41.294  28.969  26.478  1.00  0.00    -0.200 F 
ATOM     84  F   UNL A   1      40.185  26.483  26.313  1.00  0.00    -0.200 F 
ENDBRANCH  50  74
BRANCH  62  85
ATOM     85  C   UNL A   1      44.258  28.953  35.419  1.00  0.00     0.064 A 
ATOM     86  C   UNL A   1      45.519  29.469  35.088  1.00  0.00     0.173 A 
ATOM     87  C   UNL A   1      44.214  27.754  36.149  1.00  0.00     0.173 A 
ATOM     88  F   UNL A   1      45.619  30.605  34.380  1.00  0.00    -0.203 F 
ATOM     89  C   UNL A   1      46.686  28.799  35.448  1.00  0.00     0.198 A 
ATOM     90  C   UNL A   1      45.382  27.106  36.539  1.00  0.00     0.198 A 
ATOM     91  F   UNL A   1      43.035  27.220  36.503  1.00  0.00    -0.203 F 
ATOM     92  F   UNL A   1      47.878  29.285  35.075  1.00  0.00    -0.200 F 
ATOM     93  C   UNL A   1      46.617  27.623  36.180  1.00  0.00     0.200 A 
ATOM     94  F   UNL A   1      45.312  25.980  37.263  1.00  0.00    -0.200 F 
ATOM     95  F   UNL A   1      47.741  26.985  36.535  1.00  0.00    -0.200 F 
ENDBRANCH  62  85
ENDBRANCH  36  37
ENDBRANCH  29  31
ENDBRANCH  28  29
ENDBRANCH  27  28
ENDBRANCH  26  27
ENDBRANCH  25  26
ENDBRANCH  24  25
ENDBRANCH  23  24
ENDBRANCH  22  23
ENDBRANCH   1  22
TORSDOF 23
ENDMDL
MODEL 2
REMARK VINA RESULT:      -9.5      0.958      2.213
REMARK SMILES C[C@@H](CCCO)Nc1ccc(Cl)cc1C(=O)OCCOCCOCCOC(=O)c1ccc(-c2c3nc(c(-c4c(F)c(F)c(F)c(F)c4F)c4ccc([nH]4)c(-c4c(F)c(F)c(F)c(F)c4F)c4nc(c(-c5c(F)c(F)c(F)c(F)c5F)c5ccc2[nH]5)C=C4)C=C3)cc1
REMARK SMILES IDX 19 1 18 2 17 3 15 4 16 5 14 6 8 7 9 8 10 9 13 10 11 11 12 12
REMARK SMILES IDX 7 13 2 15 1 16 3 17 4 18 5 19 6 20 20 22 21 23 22 24 23 25
REMARK SMILES IDX 24 26 25 27 26 28 27 29 28 30 29 31 30 32 91 33 31 34 90 35
REMARK SMILES IDX 32 36 33 37 34 38 84 39 35 40 89 41 83 42 85 43 36 44 88 45
REMARK SMILES IDX 82 46 81 47 37 49 69 50 49 51 68 52 50 53 53 54 67 55 86 56
REMARK SMILES IDX 51 57 52 58 66 60 87 61 54 62 38 63 39 64 47 65 40 66 41 67
REMARK SMILES IDX 45 68 48 69 42 70 43 71 46 72 44 73 70 74 71 75 79 76 72 77
REMARK SMILES IDX 73 78 77 79 80 80 74 81 75 82 78 83 76 84 55 85 56 86 64 87
REMARK SMILES IDX 57 88 58 89 62 90 65 91 59 92 60 93 63 94 61 95
REMARK H PARENT 7 14 6 21 85 48 53 59
REMARK Flexibility Score: inf
ROOT
ATOM      1  C   UNL A   1      33.892  30.610  27.444  1.00  0.00     0.202 C 
ENDROOT
BRANCH   1   2
ATOM      2  C   UNL A   1      34.386  29.249  26.925  1.00  0.00     0.261 C 
BRANCH   2   3
ATOM      3  O   UNL A   1      34.024  28.956  25.562  1.00  0.00    -0.460 OA
BRANCH   3   4
ATOM      4  C   UNL A   1      33.476  27.731  25.345  1.00  0.00     0.340 C 
ATOM      5  O   UNL A   1      33.654  26.739  26.035  1.00  0.00    -0.246 OA
BRANCH   4   6
ATOM      6  C   UNL A   1      32.450  27.761  24.258  1.00  0.00     0.084 A 
ATOM      7  C   UNL A   1      32.423  26.888  23.141  1.00  0.00     0.049 A 
ATOM      8  C   UNL A   1      31.309  26.978  22.290  1.00  0.00     0.028 A 
ATOM      9  C   UNL A   1      30.358  27.995  22.426  1.00  0.00     0.022 A 
ATOM     10  C   UNL A   1      31.499  28.792  24.383  1.00  0.00     0.038 A 
ATOM     11  C   UNL A   1      30.482  28.923  23.449  1.00  0.00     0.042 A 
ATOM     12  Cl  UNL A   1      29.389  30.244  23.552  1.00  0.00    -0.084 Cl
BRANCH   7  13
ATOM     13  N   UNL A   1      33.435  25.964  22.920  1.00  0.00    -0.382 N 
ATOM     14  H   UNL A   1      34.248  26.297  22.475  1.00  0.00     0.160 HD
BRANCH  13  15
ATOM     15  C   UNL A   1      33.418  24.546  23.281  1.00  0.00     0.076 C 
ATOM     16  C   UNL A   1      32.960  23.715  22.081  1.00  0.00     0.031 C 
BRANCH  15  17
ATOM     17  C   UNL A   1      34.793  24.109  23.803  1.00  0.00     0.027 C 
BRANCH  17  18
ATOM     18  C   UNL A   1      34.886  22.716  24.446  1.00  0.00     0.030 C 
BRANCH  18  19
ATOM     19  C   UNL A   1      34.768  22.659  25.966  1.00  0.00     0.156 C 
BRANCH  19  20
ATOM     20  O   UNL A   1      34.236  23.864  26.491  1.00  0.00    -0.396 OA
ATOM     21  H   UNL A   1      34.504  24.608  25.930  1.00  0.00     0.210 HD
ENDBRANCH  19  20
ENDBRANCH  18  19
ENDBRANCH  17  18
ENDBRANCH  15  17
ENDBRANCH  13  15
ENDBRANCH   7  13
ENDBRANCH   4   6
ENDBRANCH   3   4
ENDBRANCH   2   3
ENDBRANCH   1   2
BRANCH   1  22
ATOM     22  O   UNL A   1      34.844  31.605  27.805  1.00  0.00    -0.376 OA
BRANCH  22  23
ATOM     23  C   UNL A   1      34.454  32.690  28.638  1.00  0.00     0.188 C 
BRANCH  23  24
ATOM     24  C   UNL A   1      33.684  33.884  28.036  1.00  0.00     0.188 C 
BRANCH  24  25
ATOM     25  O   UNL A   1      34.374  35.112  28.130  1.00  0.00    -0.376 OA
BRANCH  25  26
ATOM     26  C   UNL A   1      33.687  36.191  28.740  1.00  0.00     0.202 C 
BRANCH  26  27
ATOM     27  C   UNL A   1      32.592  35.906  29.786  1.00  0.00     0.261 C 
BRANCH  27  28
ATOM     28  O   UNL A   1      32.587  36.712  30.976  1.00  0.00    -0.460 OA
BRANCH  28  29
ATOM     29  C   UNL A   1      32.474  36.084  32.165  1.00  0.00     0.338 C 
ATOM     30  O   UNL A   1      31.505  36.093  32.914  1.00  0.00    -0.246 OA
BRANCH  29  31
ATOM     31  C   UNL A   1      33.659  35.216  32.336  1.00  0.00     0.060 A 
ATOM     32  C   UNL A   1      33.489  33.900  32.789  1.00  0.00     0.016 A 
ATOM     33  C   UNL A   1      34.935  35.699  32.039  1.00  0.00     0.016 A 
ATOM     34  C   UNL A   1      34.599  33.069  32.964  1.00  0.00     0.010 A 
ATOM     35  C   UNL A   1      36.047  34.872  32.235  1.00  0.00     0.010 A 
ATOM     36  C   UNL A   1      35.889  33.562  32.722  1.00  0.00    -0.014 A 
BRANCH  36  37
ATOM     37  C   UNL A   1      37.081  32.776  33.127  1.00  0.00     0.031 A 
ATOM     38  C   UNL A   1      37.749  33.101  34.436  1.00  0.00     0.074 A 
ATOM     39  C   UNL A   1      37.576  31.797  32.349  1.00  0.00     0.049 A 
ATOM     40  N   UNL A   1      38.841  32.608  34.962  1.00  0.00    -0.248 NA
ATOM     41  C   UNL A   1      37.096  34.132  35.257  1.00  0.00     0.031 C 
ATOM     42  C   UNL A   1      37.006  31.365  31.075  1.00  0.00     0.029 A 
ATOM     43  N   UNL A   1      38.685  31.004  32.511  1.00  0.00    -0.354 N 
ATOM     44  C   UNL A   1      39.013  33.277  36.168  1.00  0.00     0.074 A 
ATOM     45  C   UNL A   1      37.931  34.232  36.280  1.00  0.00     0.031 C 
ATOM     46  C   UNL A   1      37.782  30.395  30.560  1.00  0.00     0.029 A 
ATOM     47  C   UNL A   1      38.920  30.165  31.450  1.00  0.00     0.049 A 
ATOM     48  H   UNL A   1      39.256  31.032  33.313  1.00  0.00     0.167 HD
ATOM     49  C   UNL A   1      39.984  33.108  37.097  1.00  0.00     0.037 A 
ATOM     50  C   UNL A   1      39.952  29.330  31.211  1.00  0.00     0.037 A 
ATOM     51  C   UNL A   1      41.060  32.159  36.980  1.00  0.00     0.049 A 
ATOM     52  C   UNL A   1      41.056  29.203  32.231  1.00  0.00     0.074 A 
ATOM     53  C   UNL A   1      42.070  31.885  37.886  1.00  0.00     0.029 A 
ATOM     54  N   UNL A   1      41.276  31.339  35.881  1.00  0.00    -0.354 N 
ATOM     55  N   UNL A   1      41.193  29.808  33.386  1.00  0.00    -0.248 NA
ATOM     56  C   UNL A   1      42.148  28.271  31.914  1.00  0.00     0.031 C 
ATOM     57  C   UNL A   1      42.936  30.952  37.306  1.00  0.00     0.029 A 
ATOM     58  C   UNL A   1      42.425  30.586  36.071  1.00  0.00     0.049 A 
ATOM     59  H   UNL A   1      40.698  31.297  35.086  1.00  0.00     0.167 HD
ATOM     60  C   UNL A   1      42.365  29.311  33.945  1.00  0.00     0.074 A 
ATOM     61  C   UNL A   1      42.894  28.345  33.007  1.00  0.00     0.031 C 
ATOM     62  C   UNL A   1      42.945  29.624  35.131  1.00  0.00     0.037 A 
BRANCH  49  63
ATOM     63  C   UNL A   1      39.947  34.000  38.306  1.00  0.00     0.064 A 
ATOM     64  C   UNL A   1      40.649  35.214  38.355  1.00  0.00     0.173 A 
ATOM     65  C   UNL A   1      39.180  33.641  39.425  1.00  0.00     0.173 A 
ATOM     66  F   UNL A   1      41.410  35.599  37.319  1.00  0.00    -0.203 F 
ATOM     67  C   UNL A   1      40.613  36.017  39.494  1.00  0.00     0.198 A 
ATOM     68  C   UNL A   1      39.117  34.464  40.546  1.00  0.00     0.198 A 
ATOM     69  F   UNL A   1      38.483  32.494  39.430  1.00  0.00    -0.203 F 
ATOM     70  F   UNL A   1      41.340  37.141  39.542  1.00  0.00    -0.200 F 
ATOM     71  C   UNL A   1      39.843  35.645  40.584  1.00  0.00     0.200 A 
ATOM     72  F   UNL A   1      38.360  34.109  41.594  1.00  0.00    -0.200 F 
ATOM     73  F   UNL A   1      39.805  36.420  41.677  1.00  0.00    -0.200 F 
ENDBRANCH  49  63
BRANCH  50  74
ATOM     74  C   UNL A   1      39.997  28.558  29.940  1.00  0.00     0.064 A 
ATOM     75  C   UNL A   1      40.618  29.077  28.795  1.00  0.00     0.173 A 
ATOM     76  C   UNL A   1      39.411  27.287  29.843  1.00  0.00     0.173 A 
ATOM     77  F   UNL A   1      41.165  30.301  28.828  1.00  0.00    -0.203 F 
ATOM     78  C   UNL A   1      40.640  28.360  27.600  1.00  0.00     0.198 A 
ATOM     79  C   UNL A   1      39.460  26.559  28.657  1.00  0.00     0.198 A 
ATOM     80  F   UNL A   1      38.796  26.748  30.906  1.00  0.00    -0.203 F 
ATOM     81  F   UNL A   1      41.200  28.900  26.509  1.00  0.00    -0.200 F 
ATOM     82  C   UNL A   1      40.069  27.098  27.534  1.00  0.00     0.200 A 
ATOM     83  F   UNL A   1      38.915  25.336  28.600  1.00  0.00    -0.200 F 
ATOM     84  F   UNL A   1      40.096  26.407  26.387  1.00  0.00    -0.200 F 
ENDBRANCH  50  74
BRANCH  62  85
ATOM     85  C   UNL A   1      44.202  28.889  35.507  1.00  0.00     0.064 A 
ATOM     86  C   UNL A   1      44.171  27.679  36.217  1.00  0.00     0.173 A 
ATOM     87  C   UNL A   1      45.455  29.380  35.107  1.00  0.00     0.173 A 
ATOM     88  F   UNL A   1      43.001  27.171  36.634  1.00  0.00    -0.203 F 
ATOM     89  C   UNL A   1      45.347  27.005  36.537  1.00  0.00     0.198 A 
ATOM     90  C   UNL A   1      46.626  28.685  35.397  1.00  0.00     0.198 A 
ATOM     91  F   UNL A   1      45.544  30.526  34.416  1.00  0.00    -0.203 F 
ATOM     92  F   UNL A   1      45.295  25.878  37.260  1.00  0.00    -0.200 F 
ATOM     93  C   UNL A   1      46.572  27.503  36.119  1.00  0.00     0.200 A 
ATOM     94  F   UNL A   1      47.807  29.159  34.976  1.00  0.00    -0.200 F 
ATOM     95  F   UNL A   1      47.702  26.847  36.419  1.00  0.00    -0.200 F 
ENDBRANCH  62  85
ENDBRANCH  36  37
ENDBRANCH  29  31
ENDBRANCH  28  29
ENDBRANCH  27  28
ENDBRANCH  26  27
ENDBRANCH  25  26
ENDBRANCH  24  25
ENDBRANCH  23  24
ENDBRANCH  22  23
ENDBRANCH   1  22
TORSDOF 23
ENDMDL
MODEL 3
REMARK VINA RESULT:      -9.2      1.400      3.099
REMARK SMILES C[C@@H](CCCO)Nc1ccc(Cl)cc1C(=O)OCCOCCOCCOC(=O)c1ccc(-c2c3nc(c(-c4c(F)c(F)c(F)c(F)c4F)c4ccc([nH]4)c(-c4c(F)c(F)c(F)c(F)c4F)c4nc(c(-c5c(F)c(F)c(F)c(F)c5F)c5ccc2[nH]5)C=C4)C=C3)cc1
REMARK SMILES IDX 19 1 18 2 17 3 15 4 16 5 14 6 8 7 9 8 10 9 13 10 11 11 12 12
REMARK SMILES IDX 7 13 2 15 1 16 3 17 4 18 5 19 6 20 20 22 21 23 22 24 23 25
REMARK SMILES IDX 24 26 25 27 26 28 27 29 28 30 29 31 30 32 91 33 31 34 90 35
REMARK SMILES IDX 32 36 33 37 34 38 84 39 35 40 89 41 83 42 85 43 36 44 88 45
REMARK SMILES IDX 82 46 81 47 37 49 69 50 49 51 68 52 50 53 53 54 67 55 86 56
REMARK SMILES IDX 51 57 52 58 66 60 87 61 54 62 38 63 39 64 47 65 40 66 41 67
REMARK SMILES IDX 45 68 48 69 42 70 43 71 46 72 44 73 70 74 71 75 79 76 72 77
REMARK SMILES IDX 73 78 77 79 80 80 74 81 75 82 78 83 76 84 55 85 56 86 64 87
REMARK SMILES IDX 57 88 58 89 62 90 65 91 59 92 60 93 63 94 61 95
REMARK H PARENT 7 14 6 21 85 48 53 59
REMARK Flexibility Score: inf
ROOT
ATOM      1  C   UNL A   1      33.954  30.065  27.543  1.00  0.00     0.202 C 
ENDROOT
BRANCH   1   2
ATOM      2  C   UNL A   1      34.332  28.807  26.744  1.00  0.00     0.261 C 
BRANCH   2   3
ATOM      3  O   UNL A   1      33.227  27.938  26.429  1.00  0.00    -0.460 OA
BRANCH   3   4
ATOM      4  C   UNL A   1      33.164  27.501  25.144  1.00  0.00     0.340 C 
ATOM      5  O   UNL A   1      33.726  28.014  24.188  1.00  0.00    -0.246 OA
BRANCH   4   6
ATOM      6  C   UNL A   1      32.476  26.178  25.035  1.00  0.00     0.084 A 
ATOM      7  C   UNL A   1      31.534  25.832  24.032  1.00  0.00     0.049 A 
ATOM      8  C   UNL A   1      31.088  24.500  24.012  1.00  0.00     0.028 A 
ATOM      9  C   UNL A   1      31.412  23.599  25.031  1.00  0.00     0.022 A 
ATOM     10  C   UNL A   1      32.787  25.273  26.066  1.00  0.00     0.038 A 
ATOM     11  C   UNL A   1      32.227  24.004  26.077  1.00  0.00     0.042 A 
ATOM     12  Cl  UNL A   1      32.532  22.943  27.394  1.00  0.00    -0.084 Cl
BRANCH   7  13
ATOM     13  N   UNL A   1      31.100  26.759  23.096  1.00  0.00    -0.382 N 
ATOM     14  H   UNL A   1      31.684  26.910  22.318  1.00  0.00     0.160 HD
BRANCH  13  15
ATOM     15  C   UNL A   1      29.862  27.537  23.146  1.00  0.00     0.076 C 
ATOM     16  C   UNL A   1      28.768  26.722  23.839  1.00  0.00     0.031 C 
BRANCH  15  17
ATOM     17  C   UNL A   1      30.104  28.890  23.829  1.00  0.00     0.027 C 
BRANCH  17  18
ATOM     18  C   UNL A   1      29.342  30.102  23.273  1.00  0.00     0.030 C 
BRANCH  18  19
ATOM     19  C   UNL A   1      29.358  30.278  21.757  1.00  0.00     0.156 C 
BRANCH  19  20
ATOM     20  O   UNL A   1      30.668  30.137  21.231  1.00  0.00    -0.396 OA
ATOM     21  H   UNL A   1      30.663  29.472  20.525  1.00  0.00     0.210 HD
ENDBRANCH  19  20
ENDBRANCH  18  19
ENDBRANCH  17  18
ENDBRANCH  15  17
ENDBRANCH  13  15
ENDBRANCH   7  13
ENDBRANCH   4   6
ENDBRANCH   3   4
ENDBRANCH   2   3
ENDBRANCH   1   2
BRANCH   1  22
ATOM     22  O   UNL A   1      34.649  31.283  27.295  1.00  0.00    -0.376 OA
BRANCH  22  23
ATOM     23  C   UNL A   1      34.532  32.365  28.210  1.00  0.00     0.188 C 
BRANCH  23  24
ATOM     24  C   UNL A   1      33.550  33.519  27.917  1.00  0.00     0.188 C 
BRANCH  24  25
ATOM     25  O   UNL A   1      34.134  34.800  28.009  1.00  0.00    -0.376 OA
BRANCH  25  26
ATOM     26  C   UNL A   1      33.554  35.707  28.931  1.00  0.00     0.202 C 
BRANCH  26  27
ATOM     27  C   UNL A   1      32.974  35.180  30.258  1.00  0.00     0.261 C 
BRANCH  27  28
ATOM     28  O   UNL A   1      32.334  36.132  31.125  1.00  0.00    -0.460 OA
BRANCH  28  29
ATOM     29  C   UNL A   1      32.761  36.210  32.403  1.00  0.00     0.338 C 
ATOM     30  O   UNL A   1      32.210  36.792  33.328  1.00  0.00    -0.246 OA
BRANCH  29  31
ATOM     31  C   UNL A   1      33.923  35.309  32.551  1.00  0.00     0.060 A 
ATOM     32  C   UNL A   1      33.731  34.013  33.050  1.00  0.00     0.016 A 
ATOM     33  C   UNL A   1      35.201  35.739  32.186  1.00  0.00     0.016 A 
ATOM     34  C   UNL A   1      34.820  33.151  33.204  1.00  0.00     0.010 A 
ATOM     35  C   UNL A   1      36.293  34.883  32.360  1.00  0.00     0.010 A 
ATOM     36  C   UNL A   1      36.114  33.593  32.894  1.00  0.00    -0.014 A 
BRANCH  36  37
ATOM     37  C   UNL A   1      37.297  32.779  33.273  1.00  0.00     0.031 A 
ATOM     38  C   UNL A   1      38.003  33.092  34.564  1.00  0.00     0.074 A 
ATOM     39  C   UNL A   1      37.749  31.788  32.485  1.00  0.00     0.049 A 
ATOM     40  N   UNL A   1      39.094  32.574  35.066  1.00  0.00    -0.248 NA
ATOM     41  C   UNL A   1      37.394  34.139  35.398  1.00  0.00     0.031 C 
ATOM     42  C   UNL A   1      37.140  31.367  31.227  1.00  0.00     0.029 A 
ATOM     43  N   UNL A   1      38.843  30.969  32.624  1.00  0.00    -0.354 N 
ATOM     44  C   UNL A   1      39.311  33.241  36.266  1.00  0.00     0.074 A 
ATOM     45  C   UNL A   1      38.255  34.221  36.400  1.00  0.00     0.031 C 
ATOM     46  C   UNL A   1      37.880  30.378  30.695  1.00  0.00     0.029 A 
ATOM     47  C   UNL A   1      39.033  30.123  31.559  1.00  0.00     0.049 A 
ATOM     48  H   UNL A   1      39.433  30.986  33.412  1.00  0.00     0.167 HD
ATOM     49  C   UNL A   1      40.299  33.051  37.173  1.00  0.00     0.037 A 
ATOM     50  C   UNL A   1      40.040  29.264  31.298  1.00  0.00     0.037 A 
ATOM     51  C   UNL A   1      41.350  32.077  37.033  1.00  0.00     0.049 A 
ATOM     52  C   UNL A   1      41.164  29.113  32.292  1.00  0.00     0.074 A 
ATOM     53  C   UNL A   1      42.374  31.782  37.915  1.00  0.00     0.029 A 
ATOM     54  N   UNL A   1      41.520  31.250  35.931  1.00  0.00    -0.354 N 
ATOM     55  N   UNL A   1      41.343  29.716  33.442  1.00  0.00    -0.248 NA
ATOM     56  C   UNL A   1      42.227  28.154  31.952  1.00  0.00     0.031 C 
ATOM     57  C   UNL A   1      43.204  30.827  37.317  1.00  0.00     0.029 A 
ATOM     58  C   UNL A   1      42.655  30.471  36.096  1.00  0.00     0.049 A 
ATOM     59  H   UNL A   1      40.923  31.220  35.149  1.00  0.00     0.167 HD
ATOM     60  C   UNL A   1      42.515  29.193  33.975  1.00  0.00     0.074 A 
ATOM     61  C   UNL A   1      43.000  28.213  33.027  1.00  0.00     0.031 C 
ATOM     62  C   UNL A   1      43.130  29.495  35.146  1.00  0.00     0.037 A 
BRANCH  49  63
ATOM     63  C   UNL A   1      40.312  33.946  38.379  1.00  0.00     0.064 A 
ATOM     64  C   UNL A   1      41.041  35.145  38.408  1.00  0.00     0.173 A 
ATOM     65  C   UNL A   1      39.565  33.607  39.518  1.00  0.00     0.173 A 
ATOM     66  F   UNL A   1      41.784  35.511  37.352  1.00  0.00    -0.203 F 
ATOM     67  C   UNL A   1      41.051  35.951  39.545  1.00  0.00     0.198 A 
ATOM     68  C   UNL A   1      39.548  34.433  40.638  1.00  0.00     0.198 A 
ATOM     69  F   UNL A   1      38.844  32.475  39.543  1.00  0.00    -0.203 F 
ATOM     70  F   UNL A   1      41.803  37.059  39.572  1.00  0.00    -0.200 F 
ATOM     71  C   UNL A   1      40.300  35.598  40.656  1.00  0.00     0.200 A 
ATOM     72  F   UNL A   1      38.810  34.097  41.705  1.00  0.00    -0.200 F 
ATOM     73  F   UNL A   1      40.306  36.376  41.746  1.00  0.00    -0.200 F 
ENDBRANCH  49  63
BRANCH  50  74
ATOM     74  C   UNL A   1      40.037  28.488  30.029  1.00  0.00     0.064 A 
ATOM     75  C   UNL A   1      40.629  28.997  28.864  1.00  0.00     0.173 A 
ATOM     76  C   UNL A   1      39.432  27.224  29.953  1.00  0.00     0.173 A 
ATOM     77  F   UNL A   1      41.192  30.215  28.877  1.00  0.00    -0.203 F 
ATOM     78  C   UNL A   1      40.606  28.277  27.671  1.00  0.00     0.198 A 
ATOM     79  C   UNL A   1      39.437  26.492  28.768  1.00  0.00     0.198 A 
ATOM     80  F   UNL A   1      38.844  26.695  31.036  1.00  0.00    -0.203 F 
ATOM     81  F   UNL A   1      41.138  28.807  26.562  1.00  0.00    -0.200 F 
ATOM     82  C   UNL A   1      40.018  27.022  27.626  1.00  0.00     0.200 A 
ATOM     83  F   UNL A   1      38.875  25.277  28.731  1.00  0.00    -0.200 F 
ATOM     84  F   UNL A   1      40.001  26.328  26.480  1.00  0.00    -0.200 F 
ENDBRANCH  50  74
BRANCH  62  85
ATOM     85  C   UNL A   1      44.378  28.731  35.494  1.00  0.00     0.064 A 
ATOM     86  C   UNL A   1      44.336  27.524  36.208  1.00  0.00     0.173 A 
ATOM     87  C   UNL A   1      45.633  29.191  35.063  1.00  0.00     0.173 A 
ATOM     88  F   UNL A   1      43.164  27.044  36.654  1.00  0.00    -0.203 F 
ATOM     89  C   UNL A   1      45.503  26.823  36.501  1.00  0.00     0.198 A 
ATOM     90  C   UNL A   1      46.794  28.470  35.327  1.00  0.00     0.198 A 
ATOM     91  F   UNL A   1      45.733  30.334  34.368  1.00  0.00    -0.203 F 
ATOM     92  F   UNL A   1      45.441  25.699  37.229  1.00  0.00    -0.200 F 
ATOM     93  C   UNL A   1      46.729  27.291  36.054  1.00  0.00     0.200 A 
ATOM     94  F   UNL A   1      47.975  28.915  34.878  1.00  0.00    -0.200 F 
ATOM     95  F   UNL A   1      47.850  26.609  36.329  1.00  0.00    -0.200 F 
ENDBRANCH  62  85
ENDBRANCH  36  37
ENDBRANCH  29  31
ENDBRANCH  28  29
ENDBRANCH  27  28
ENDBRANCH  26  27
ENDBRANCH  25  26
ENDBRANCH  24  25
ENDBRANCH  23  24
ENDBRANCH  22  23
ENDBRANCH   1  22
TORSDOF 23
ENDMDL
