MODEL 1
REMARK VINA RESULT:     -11.3      0.000      0.000
REMARK SMILES Cc1cc(C)cc(Oc2nc3ccccn3c(=O)c2/C=C2\SC(=S)N(CCC(=O)OCCOCCOCCOC(=O)c3ccc(-c4c5nc(c(-c6c(F)c(F)c(F)c(F)c6F)c6ccc([nH]6)c(-c6c(F)c(F)c(F)c(F)c6F)c6nc(c(-c7c(F)c(F)c(F)c(F)c7F)c7ccc4[nH]7)C=C6)C=C5)cc3)C2=O)c1
REMARK SMILES IDX 33 1 32 2 31 3 30 4 28 5 29 6 27 7 26 8 25 9 20 10 21 11
REMARK SMILES IDX 22 12 105 13 23 14 106 15 24 16 19 17 9 18 10 19 11 20 17 21
REMARK SMILES IDX 12 22 16 23 18 24 13 25 15 26 14 27 8 28 7 29 1 30 2 31 3 32
REMARK SMILES IDX 107 33 4 34 5 35 6 36 34 37 35 38 36 39 37 40 38 41 39 42
REMARK SMILES IDX 40 43 41 44 42 45 43 46 104 47 44 48 103 49 45 50 46 51
REMARK SMILES IDX 47 52 97 53 48 54 102 55 96 56 98 57 49 58 101 59 95 60
REMARK SMILES IDX 94 61 50 63 82 64 62 65 81 66 63 67 66 68 80 69 99 70 64 71
REMARK SMILES IDX 65 72 79 74 100 75 67 76 51 77 52 78 60 79 53 80 54 81 58 82
REMARK SMILES IDX 61 83 55 84 56 85 59 86 57 87 83 88 84 89 92 90 85 91 86 92
REMARK SMILES IDX 90 93 93 94 87 95 88 96 91 97 89 98 68 99 69 100 77 101
REMARK SMILES IDX 70 102 71 103 75 104 78 105 72 106 73 107 76 108 74 109
REMARK H PARENT 98 62 66 73
REMARK Flexibility Score: inf
ROOT
ATOM      1  O   UNL A   1      35.754  31.634  28.992  1.00  0.00    -0.376 OA
ENDROOT
BRANCH   1   2
ATOM      2  C   UNL A   1      35.462  30.644  28.006  1.00  0.00     0.202 C 
BRANCH   2   3
ATOM      3  C   UNL A   1      34.104  30.807  27.284  1.00  0.00     0.261 C 
BRANCH   3   4
ATOM      4  O   UNL A   1      33.616  29.623  26.604  1.00  0.00    -0.463 OA
BRANCH   4   5
ATOM      5  C   UNL A   1      32.587  29.754  25.735  1.00  0.00     0.307 C 
ATOM      6  O   UNL A   1      31.683  30.575  25.842  1.00  0.00    -0.252 OA
BRANCH   5   7
ATOM      7  C   UNL A   1      32.669  28.772  24.577  1.00  0.00     0.144 C 
BRANCH   7   8
ATOM      8  C   UNL A   1      31.765  27.524  24.605  1.00  0.00     0.139 C 
BRANCH   8   9
ATOM      9  N   UNL A   1      32.391  26.243  24.228  1.00  0.00    -0.292 N 
ATOM     10  C   UNL A   1      34.045  23.335  25.508  1.00  0.00     0.041 C 
ATOM     11  C   UNL A   1      33.608  24.262  24.641  1.00  0.00     0.081 C 
ATOM     12  S   UNL A   1      33.323  24.180  22.959  1.00  0.00    -0.054 SA
ATOM     13  C   UNL A   1      33.094  25.532  25.174  1.00  0.00     0.266 C 
ATOM     14  C   UNL A   1      32.452  25.720  22.951  1.00  0.00     0.148 C 
ATOM     15  O   UNL A   1      33.274  25.838  26.334  1.00  0.00    -0.268 OA
ATOM     16  S   UNL A   1      31.818  26.355  21.544  1.00  0.00    -0.052 S 
BRANCH  10  17
ATOM     17  C   UNL A   1      34.304  21.949  25.189  1.00  0.00     0.104 A 
ATOM     18  C   UNL A   1      35.507  21.489  24.781  1.00  0.00     0.234 A 
ATOM     19  N   UNL A   1      35.759  20.163  24.541  1.00  0.00    -0.194 NA
ATOM     20  C   UNL A   1      34.824  19.303  24.792  1.00  0.00     0.143 A 
ATOM     21  C   UNL A   1      33.193  20.966  25.324  1.00  0.00     0.269 A 
ATOM     22  C   UNL A   1      35.122  17.854  24.626  1.00  0.00     0.048 A 
ATOM     23  N   UNL A   1      33.548  19.636  25.212  1.00  0.00    -0.267 N 
ATOM     24  O   UNL A   1      32.039  21.362  25.498  1.00  0.00    -0.268 OA
ATOM     25  C   UNL A   1      34.187  16.943  24.917  1.00  0.00     0.005 A 
ATOM     26  C   UNL A   1      32.599  18.657  25.482  1.00  0.00     0.096 A 
ATOM     27  C   UNL A   1      32.882  17.354  25.364  1.00  0.00     0.019 A 
BRANCH  18  28
ATOM     28  O   UNL A   1      36.580  22.334  24.476  1.00  0.00    -0.438 OA
BRANCH  28  29
ATOM     29  C   UNL A   1      37.601  22.585  25.367  1.00  0.00     0.130 A 
ATOM     30  C   UNL A   1      39.164  25.295  27.524  1.00  0.00     0.044 C 
ATOM     31  C   UNL A   1      38.913  23.974  26.863  1.00  0.00    -0.047 A 
ATOM     32  C   UNL A   1      39.833  22.929  27.016  1.00  0.00     0.007 A 
ATOM     33  C   UNL A   1      37.770  23.773  26.078  1.00  0.00     0.050 A 
ATOM     34  C   UNL A   1      39.622  21.692  26.393  1.00  0.00    -0.047 A 
ATOM     35  C   UNL A   1      40.580  20.564  26.638  1.00  0.00     0.044 C 
ATOM     36  C   UNL A   1      38.513  21.539  25.551  1.00  0.00     0.050 A 
ENDBRANCH  28  29
ENDBRANCH  18  28
ENDBRANCH  10  17
ENDBRANCH   8   9
ENDBRANCH   7   8
ENDBRANCH   5   7
ENDBRANCH   4   5
ENDBRANCH   3   4
ENDBRANCH   2   3
ENDBRANCH   1   2
BRANCH   1  37
ATOM     37  C   UNL A   1      34.614  32.330  29.470  1.00  0.00     0.188 C 
BRANCH  37  38
ATOM     38  C   UNL A   1      34.851  33.153  30.718  1.00  0.00     0.188 C 
BRANCH  38  39
ATOM     39  O   UNL A   1      34.286  32.657  31.931  1.00  0.00    -0.376 OA
BRANCH  39  40
ATOM     40  C   UNL A   1      35.156  32.718  33.057  1.00  0.00     0.202 C 
BRANCH  40  41
ATOM     41  C   UNL A   1      36.503  31.986  32.882  1.00  0.00     0.261 C 
BRANCH  41  42
ATOM     42  O   UNL A   1      36.377  30.697  32.255  1.00  0.00    -0.460 OA
BRANCH  42  43
ATOM     43  C   UNL A   1      37.355  29.804  32.569  1.00  0.00     0.338 C 
ATOM     44  O   UNL A   1      37.226  28.759  33.183  1.00  0.00    -0.246 OA
BRANCH  43  45
ATOM     45  C   UNL A   1      38.603  30.173  31.846  1.00  0.00     0.060 A 
ATOM     46  C   UNL A   1      39.767  30.386  32.604  1.00  0.00     0.016 A 
ATOM     47  C   UNL A   1      38.663  30.233  30.452  1.00  0.00     0.016 A 
ATOM     48  C   UNL A   1      40.986  30.658  31.979  1.00  0.00     0.010 A 
ATOM     49  C   UNL A   1      39.873  30.552  29.825  1.00  0.00     0.010 A 
ATOM     50  C   UNL A   1      41.033  30.792  30.587  1.00  0.00    -0.014 A 
BRANCH  50  51
ATOM     51  C   UNL A   1      42.197  31.459  29.953  1.00  0.00     0.031 A 
ATOM     52  C   UNL A   1      43.310  30.572  29.461  1.00  0.00     0.074 A 
ATOM     53  C   UNL A   1      42.278  32.792  29.796  1.00  0.00     0.049 A 
ATOM     54  N   UNL A   1      44.481  30.889  28.972  1.00  0.00    -0.248 NA
ATOM     55  C   UNL A   1      43.063  29.122  29.535  1.00  0.00     0.031 C 
ATOM     56  C   UNL A   1      41.243  33.756  30.156  1.00  0.00     0.029 A 
ATOM     57  N   UNL A   1      43.298  33.564  29.292  1.00  0.00    -0.354 N 
ATOM     58  C   UNL A   1      45.106  29.683  28.686  1.00  0.00     0.074 A 
ATOM     59  C   UNL A   1      44.202  28.626  29.084  1.00  0.00     0.031 C 
ATOM     60  C   UNL A   1      41.688  34.996  29.880  1.00  0.00     0.029 A 
ATOM     61  C   UNL A   1      43.054  34.914  29.362  1.00  0.00     0.049 A 
ATOM     62  H   UNL A   1      44.126  33.185  28.918  1.00  0.00     0.167 HD
ATOM     63  C   UNL A   1      46.320  29.471  28.130  1.00  0.00     0.037 A 
ATOM     64  C   UNL A   1      43.859  35.956  29.069  1.00  0.00     0.037 A 
ATOM     65  C   UNL A   1      47.226  30.518  27.747  1.00  0.00     0.049 A 
ATOM     66  C   UNL A   1      45.260  35.693  28.566  1.00  0.00     0.074 A 
ATOM     67  C   UNL A   1      48.492  30.408  27.201  1.00  0.00     0.029 A 
ATOM     68  N   UNL A   1      46.961  31.873  27.876  1.00  0.00    -0.354 N 
ATOM     69  N   UNL A   1      45.850  34.552  28.300  1.00  0.00    -0.248 NA
ATOM     70  C   UNL A   1      46.111  36.868  28.325  1.00  0.00     0.031 C 
ATOM     71  C   UNL A   1      49.013  31.696  27.044  1.00  0.00     0.029 A 
ATOM     72  C   UNL A   1      48.047  32.610  27.436  1.00  0.00     0.049 A 
ATOM     73  H   UNL A   1      46.124  32.255  28.228  1.00  0.00     0.167 HD
ATOM     74  C   UNL A   1      47.115  34.873  27.822  1.00  0.00     0.074 A 
ATOM     75  C   UNL A   1      47.208  36.317  27.825  1.00  0.00     0.031 C 
ATOM     76  C   UNL A   1      48.112  34.047  27.415  1.00  0.00     0.037 A 
BRANCH  63  77
ATOM     77  C   UNL A   1      46.748  28.047  27.931  1.00  0.00     0.064 A 
ATOM     78  C   UNL A   1      47.488  27.360  28.906  1.00  0.00     0.173 A 
ATOM     79  C   UNL A   1      46.393  27.354  26.766  1.00  0.00     0.173 A 
ATOM     80  F   UNL A   1      47.871  27.986  30.029  1.00  0.00    -0.203 F 
ATOM     81  C   UNL A   1      47.874  26.037  28.710  1.00  0.00     0.198 A 
ATOM     82  C   UNL A   1      46.753  26.021  26.588  1.00  0.00     0.198 A 
ATOM     83  F   UNL A   1      45.688  27.966  25.803  1.00  0.00    -0.203 F 
ATOM     84  F   UNL A   1      48.621  25.415  29.633  1.00  0.00    -0.200 F 
ATOM     85  C   UNL A   1      47.499  25.366  27.556  1.00  0.00     0.200 A 
ATOM     86  F   UNL A   1      46.379  25.371  25.477  1.00  0.00    -0.200 F 
ATOM     87  F   UNL A   1      47.861  24.090  27.373  1.00  0.00    -0.200 F 
ENDBRANCH  63  77
BRANCH  64  88
ATOM     88  C   UNL A   1      43.391  37.357  29.265  1.00  0.00     0.064 A 
ATOM     89  C   UNL A   1      42.593  37.994  28.303  1.00  0.00     0.173 A 
ATOM     90  C   UNL A   1      43.790  38.112  30.378  1.00  0.00     0.173 A 
ATOM     91  F   UNL A   1      42.212  37.329  27.202  1.00  0.00    -0.203 F 
ATOM     92  C   UNL A   1      42.240  39.337  28.431  1.00  0.00     0.198 A 
ATOM     93  C   UNL A   1      43.409  39.444  30.521  1.00  0.00     0.198 A 
ATOM     94  F   UNL A   1      44.565  37.559  31.322  1.00  0.00    -0.203 F 
ATOM     95  F   UNL A   1      41.537  39.938  27.461  1.00  0.00    -0.200 F 
ATOM     96  C   UNL A   1      42.645  40.060  29.541  1.00  0.00     0.200 A 
ATOM     97  F   UNL A   1      43.799  40.139  31.599  1.00  0.00    -0.200 F 
ATOM     98  F   UNL A   1      42.315  41.354  29.659  1.00  0.00    -0.200 F 
ENDBRANCH  64  88
BRANCH  76  99
ATOM     99  C   UNL A   1      49.364  34.678  26.875  1.00  0.00     0.064 A 
ATOM    100  C   UNL A   1      49.446  35.163  25.561  1.00  0.00     0.173 A 
ATOM    101  C   UNL A   1      50.481  34.853  27.708  1.00  0.00     0.173 A 
ATOM    102  F   UNL A   1      48.411  35.013  24.721  1.00  0.00    -0.203 F 
ATOM    103  C   UNL A   1      50.607  35.772  25.093  1.00  0.00     0.198 A 
ATOM    104  C   UNL A   1      51.628  35.492  27.247  1.00  0.00     0.198 A 
ATOM    105  F   UNL A   1      50.453  34.419  28.977  1.00  0.00    -0.203 F 
ATOM    106  F   UNL A   1      50.680  36.184  23.820  1.00  0.00    -0.200 F 
ATOM    107  C   UNL A   1      51.694  35.945  25.939  1.00  0.00     0.200 A 
ATOM    108  F   UNL A   1      52.669  35.676  28.072  1.00  0.00    -0.200 F 
ATOM    109  F   UNL A   1      52.806  36.543  25.490  1.00  0.00    -0.200 F 
ENDBRANCH  76  99
ENDBRANCH  50  51
ENDBRANCH  43  45
ENDBRANCH  42  43
ENDBRANCH  41  42
ENDBRANCH  40  41
ENDBRANCH  39  40
ENDBRANCH  38  39
ENDBRANCH  37  38
ENDBRANCH   1  37
TORSDOF 22
ENDMDL
MODEL 2
REMARK VINA RESULT:     -10.7      3.335      5.424
REMARK SMILES Cc1cc(C)cc(Oc2nc3ccccn3c(=O)c2/C=C2\SC(=S)N(CCC(=O)OCCOCCOCCOC(=O)c3ccc(-c4c5nc(c(-c6c(F)c(F)c(F)c(F)c6F)c6ccc([nH]6)c(-c6c(F)c(F)c(F)c(F)c6F)c6nc(c(-c7c(F)c(F)c(F)c(F)c7F)c7ccc4[nH]7)C=C6)C=C5)cc3)C2=O)c1
REMARK SMILES IDX 33 1 32 2 31 3 30 4 28 5 29 6 27 7 26 8 25 9 20 10 21 11
REMARK SMILES IDX 22 12 105 13 23 14 106 15 24 16 19 17 9 18 10 19 11 20 17 21
REMARK SMILES IDX 12 22 16 23 18 24 13 25 15 26 14 27 8 28 7 29 1 30 2 31 3 32
REMARK SMILES IDX 107 33 4 34 5 35 6 36 34 37 35 38 36 39 37 40 38 41 39 42
REMARK SMILES IDX 40 43 41 44 42 45 43 46 104 47 44 48 103 49 45 50 46 51
REMARK SMILES IDX 47 52 97 53 48 54 102 55 96 56 98 57 49 58 101 59 95 60
REMARK SMILES IDX 94 61 50 63 82 64 62 65 81 66 63 67 66 68 80 69 99 70 64 71
REMARK SMILES IDX 65 72 79 74 100 75 67 76 51 77 52 78 60 79 53 80 54 81 58 82
REMARK SMILES IDX 61 83 55 84 56 85 59 86 57 87 83 88 84 89 92 90 85 91 86 92
REMARK SMILES IDX 90 93 93 94 87 95 88 96 91 97 89 98 68 99 69 100 77 101
REMARK SMILES IDX 70 102 71 103 75 104 78 105 72 106 73 107 76 108 74 109
REMARK H PARENT 98 62 66 73
REMARK Flexibility Score: inf
ROOT
ATOM      1  O   UNL A   1      35.391  31.381  29.001  1.00  0.00    -0.376 OA
ENDROOT
BRANCH   1   2
ATOM      2  C   UNL A   1      35.144  31.100  27.623  1.00  0.00     0.202 C 
BRANCH   2   3
ATOM      3  C   UNL A   1      33.660  30.874  27.248  1.00  0.00     0.261 C 
BRANCH   3   4
ATOM      4  O   UNL A   1      33.380  29.644  26.533  1.00  0.00    -0.463 OA
BRANCH   4   5
ATOM      5  C   UNL A   1      32.392  29.643  25.609  1.00  0.00     0.307 C 
ATOM      6  O   UNL A   1      31.413  30.382  25.632  1.00  0.00    -0.252 OA
BRANCH   5   7
ATOM      7  C   UNL A   1      32.622  28.625  24.504  1.00  0.00     0.144 C 
BRANCH   7   8
ATOM      8  C   UNL A   1      31.726  27.371  24.460  1.00  0.00     0.139 C 
BRANCH   8   9
ATOM      9  N   UNL A   1      32.385  26.096  24.123  1.00  0.00    -0.292 N 
ATOM     10  C   UNL A   1      33.901  23.159  25.504  1.00  0.00     0.041 C 
ATOM     11  C   UNL A   1      33.554  24.104  24.616  1.00  0.00     0.081 C 
ATOM     12  S   UNL A   1      33.438  24.055  22.913  1.00  0.00    -0.054 SA
ATOM     13  C   UNL A   1      32.991  25.364  25.120  1.00  0.00     0.266 C 
ATOM     14  C   UNL A   1      32.573  25.598  22.848  1.00  0.00     0.148 C 
ATOM     15  O   UNL A   1      33.054  25.648  26.297  1.00  0.00    -0.268 OA
ATOM     16  S   UNL A   1      32.084  26.262  21.397  1.00  0.00    -0.052 S 
BRANCH  10  17
ATOM     17  C   UNL A   1      34.189  21.779  25.186  1.00  0.00     0.104 A 
ATOM     18  C   UNL A   1      35.403  21.344  24.779  1.00  0.00     0.234 A 
ATOM     19  N   UNL A   1      35.683  20.024  24.540  1.00  0.00    -0.194 NA
ATOM     20  C   UNL A   1      34.766  19.145  24.788  1.00  0.00     0.143 A 
ATOM     21  C   UNL A   1      33.100  20.773  25.318  1.00  0.00     0.269 A 
ATOM     22  C   UNL A   1      35.094  17.702  24.623  1.00  0.00     0.048 A 
ATOM     23  N   UNL A   1      33.482  19.450  25.207  1.00  0.00    -0.267 N 
ATOM     24  O   UNL A   1      31.937  21.145  25.490  1.00  0.00    -0.268 OA
ATOM     25  C   UNL A   1      34.178  16.771  24.913  1.00  0.00     0.005 A 
ATOM     26  C   UNL A   1      32.554  18.452  25.475  1.00  0.00     0.096 A 
ATOM     27  C   UNL A   1      32.864  17.155  25.357  1.00  0.00     0.019 A 
BRANCH  18  28
ATOM     28  O   UNL A   1      36.459  22.211  24.476  1.00  0.00    -0.438 OA
BRANCH  28  29
ATOM     29  C   UNL A   1      37.524  22.406  25.327  1.00  0.00     0.130 A 
ATOM     30  C   UNL A   1      39.199  24.974  27.574  1.00  0.00     0.044 C 
ATOM     31  C   UNL A   1      38.913  23.698  26.841  1.00  0.00    -0.047 A 
ATOM     32  C   UNL A   1      39.839  22.647  26.878  1.00  0.00     0.007 A 
ATOM     33  C   UNL A   1      37.731  23.545  26.105  1.00  0.00     0.050 A 
ATOM     34  C   UNL A   1      39.594  21.454  26.187  1.00  0.00    -0.047 A 
ATOM     35  C   UNL A   1      40.563  20.314  26.307  1.00  0.00     0.044 C 
ATOM     36  C   UNL A   1      38.444  21.353  25.395  1.00  0.00     0.050 A 
ENDBRANCH  28  29
ENDBRANCH  18  28
ENDBRANCH  10  17
ENDBRANCH   8   9
ENDBRANCH   7   8
ENDBRANCH   5   7
ENDBRANCH   4   5
ENDBRANCH   3   4
ENDBRANCH   2   3
ENDBRANCH   1   2
BRANCH   1  37
ATOM     37  C   UNL A   1      34.472  32.293  29.580  1.00  0.00     0.188 C 
BRANCH  37  38
ATOM     38  C   UNL A   1      34.951  32.952  30.855  1.00  0.00     0.188 C 
BRANCH  38  39
ATOM     39  O   UNL A   1      34.113  32.817  32.002  1.00  0.00    -0.376 OA
BRANCH  39  40
ATOM     40  C   UNL A   1      34.642  33.390  33.193  1.00  0.00     0.202 C 
BRANCH  40  41
ATOM     41  C   UNL A   1      36.153  33.165  33.410  1.00  0.00     0.261 C 
BRANCH  41  42
ATOM     42  O   UNL A   1      36.464  31.889  34.001  1.00  0.00    -0.460 OA
BRANCH  42  43
ATOM     43  C   UNL A   1      37.474  31.905  34.912  1.00  0.00     0.338 C 
ATOM     44  O   UNL A   1      37.400  32.224  36.085  1.00  0.00    -0.246 OA
BRANCH  43  45
ATOM     45  C   UNL A   1      38.671  31.245  34.324  1.00  0.00     0.060 A 
ATOM     46  C   UNL A   1      39.937  31.612  34.815  1.00  0.00     0.016 A 
ATOM     47  C   UNL A   1      38.566  30.230  33.369  1.00  0.00     0.016 A 
ATOM     48  C   UNL A   1      41.092  30.973  34.359  1.00  0.00     0.010 A 
ATOM     49  C   UNL A   1      39.726  29.622  32.877  1.00  0.00     0.010 A 
ATOM     50  C   UNL A   1      40.995  30.009  33.349  1.00  0.00    -0.014 A 
BRANCH  50  51
ATOM     51  C   UNL A   1      42.208  29.620  32.589  1.00  0.00     0.031 A 
ATOM     52  C   UNL A   1      42.967  28.416  33.079  1.00  0.00     0.074 A 
ATOM     53  C   UNL A   1      42.627  30.283  31.497  1.00  0.00     0.049 A 
ATOM     54  N   UNL A   1      44.109  27.923  32.674  1.00  0.00    -0.248 NA
ATOM     55  C   UNL A   1      42.346  27.665  34.183  1.00  0.00     0.031 C 
ATOM     56  C   UNL A   1      41.947  31.414  30.873  1.00  0.00     0.029 A 
ATOM     57  N   UNL A   1      43.748  30.094  30.722  1.00  0.00    -0.354 N 
ATOM     58  C   UNL A   1      44.342  26.813  33.475  1.00  0.00     0.074 A 
ATOM     59  C   UNL A   1      43.242  26.720  34.410  1.00  0.00     0.031 C 
ATOM     60  C   UNL A   1      42.675  31.833  29.820  1.00  0.00     0.029 A 
ATOM     61  C   UNL A   1      43.891  31.026  29.722  1.00  0.00     0.049 A 
ATOM     62  H   UNL A   1      44.388  29.361  30.871  1.00  0.00     0.167 HD
ATOM     63  C   UNL A   1      45.374  25.940  33.430  1.00  0.00     0.037 A 
ATOM     64  C   UNL A   1      44.906  31.215  28.854  1.00  0.00     0.037 A 
ATOM     65  C   UNL A   1      46.475  26.038  32.513  1.00  0.00     0.049 A 
ATOM     66  C   UNL A   1      46.108  30.300  28.906  1.00  0.00     0.074 A 
ATOM     67  C   UNL A   1      47.584  25.219  32.405  1.00  0.00     0.029 A 
ATOM     68  N   UNL A   1      46.606  27.022  31.545  1.00  0.00    -0.354 N 
ATOM     69  N   UNL A   1      46.327  29.254  29.666  1.00  0.00    -0.248 NA
ATOM     70  C   UNL A   1      47.209  30.597  27.977  1.00  0.00     0.031 C 
ATOM     71  C   UNL A   1      48.411  25.736  31.403  1.00  0.00     0.029 A 
ATOM     72  C   UNL A   1      47.788  26.842  30.847  1.00  0.00     0.049 A 
ATOM     73  H   UNL A   1      45.955  27.743  31.379  1.00  0.00     0.167 HD
ATOM     74  C   UNL A   1      47.562  28.747  29.278  1.00  0.00     0.074 A 
ATOM     75  C   UNL A   1      48.043  29.593  28.208  1.00  0.00     0.031 C 
ATOM     76  C   UNL A   1      48.237  27.675  29.763  1.00  0.00     0.037 A 
BRANCH  63  77
ATOM     77  C   UNL A   1      45.370  24.818  34.425  1.00  0.00     0.064 A 
ATOM     78  C   UNL A   1      45.876  24.985  35.724  1.00  0.00     0.173 A 
ATOM     79  C   UNL A   1      44.830  23.568  34.087  1.00  0.00     0.173 A 
ATOM     80  F   UNL A   1      46.424  26.154  36.089  1.00  0.00    -0.203 F 
ATOM     81  C   UNL A   1      45.863  23.936  36.638  1.00  0.00     0.198 A 
ATOM     82  C   UNL A   1      44.788  22.532  35.015  1.00  0.00     0.198 A 
ATOM     83  F   UNL A   1      44.335  23.356  32.858  1.00  0.00    -0.203 F 
ATOM     84  F   UNL A   1      46.395  24.104  37.856  1.00  0.00    -0.200 F 
ATOM     85  C   UNL A   1      45.310  22.713  36.286  1.00  0.00     0.200 A 
ATOM     86  F   UNL A   1      44.243  21.355  34.676  1.00  0.00    -0.200 F 
ATOM     87  F   UNL A   1      45.286  21.708  37.171  1.00  0.00    -0.200 F 
ENDBRANCH  63  77
BRANCH  64  88
ATOM     88  C   UNL A   1      44.864  32.333  27.869  1.00  0.00     0.064 A 
ATOM     89  C   UNL A   1      45.386  33.596  28.185  1.00  0.00     0.173 A 
ATOM     90  C   UNL A   1      44.239  32.185  26.622  1.00  0.00     0.173 A 
ATOM     91  F   UNL A   1      45.964  33.801  29.378  1.00  0.00    -0.203 F 
ATOM     92  C   UNL A   1      45.256  34.672  27.309  1.00  0.00     0.198 A 
ATOM     93  C   UNL A   1      44.139  33.252  25.732  1.00  0.00     0.198 A 
ATOM     94  F   UNL A   1      43.709  31.004  26.271  1.00  0.00    -0.203 F 
ATOM     95  F   UNL A   1      45.702  35.884  27.669  1.00  0.00    -0.200 F 
ATOM     96  C   UNL A   1      44.636  34.499  26.082  1.00  0.00     0.200 A 
ATOM     97  F   UNL A   1      43.542  33.080  24.545  1.00  0.00    -0.200 F 
ATOM     98  F   UNL A   1      44.501  35.537  25.244  1.00  0.00    -0.200 F 
ENDBRANCH  64  88
BRANCH  76  99
ATOM     99  C   UNL A   1      49.537  27.310  29.100  1.00  0.00     0.064 A 
ATOM    100  C   UNL A   1      50.759  27.867  29.504  1.00  0.00     0.173 A 
ATOM    101  C   UNL A   1      49.562  26.341  28.084  1.00  0.00     0.173 A 
ATOM    102  F   UNL A   1      50.790  28.804  30.464  1.00  0.00    -0.203 F 
ATOM    103  C   UNL A   1      51.953  27.489  28.896  1.00  0.00     0.198 A 
ATOM    104  C   UNL A   1      50.761  25.941  27.502  1.00  0.00     0.198 A 
ATOM    105  F   UNL A   1      48.422  25.768  27.668  1.00  0.00    -0.203 F 
ATOM    106  F   UNL A   1      53.104  28.070  29.264  1.00  0.00    -0.200 F 
ATOM    107  C   UNL A   1      51.955  26.520  27.903  1.00  0.00     0.200 A 
ATOM    108  F   UNL A   1      50.761  24.991  26.556  1.00  0.00    -0.200 F 
ATOM    109  F   UNL A   1      53.107  26.150  27.328  1.00  0.00    -0.200 F 
ENDBRANCH  76  99
ENDBRANCH  50  51
ENDBRANCH  43  45
ENDBRANCH  42  43
ENDBRANCH  41  42
ENDBRANCH  40  41
ENDBRANCH  39  40
ENDBRANCH  38  39
ENDBRANCH  37  38
ENDBRANCH   1  37
TORSDOF 22
ENDMDL
MODEL 3
REMARK VINA RESULT:     -10.4      3.608      9.681
REMARK SMILES Cc1cc(C)cc(Oc2nc3ccccn3c(=O)c2/C=C2\SC(=S)N(CCC(=O)OCCOCCOCCOC(=O)c3ccc(-c4c5nc(c(-c6c(F)c(F)c(F)c(F)c6F)c6ccc([nH]6)c(-c6c(F)c(F)c(F)c(F)c6F)c6nc(c(-c7c(F)c(F)c(F)c(F)c7F)c7ccc4[nH]7)C=C6)C=C5)cc3)C2=O)c1
REMARK SMILES IDX 33 1 32 2 31 3 30 4 28 5 29 6 27 7 26 8 25 9 20 10 21 11
REMARK SMILES IDX 22 12 105 13 23 14 106 15 24 16 19 17 9 18 10 19 11 20 17 21
REMARK SMILES IDX 12 22 16 23 18 24 13 25 15 26 14 27 8 28 7 29 1 30 2 31 3 32
REMARK SMILES IDX 107 33 4 34 5 35 6 36 34 37 35 38 36 39 37 40 38 41 39 42
REMARK SMILES IDX 40 43 41 44 42 45 43 46 104 47 44 48 103 49 45 50 46 51
REMARK SMILES IDX 47 52 97 53 48 54 102 55 96 56 98 57 49 58 101 59 95 60
REMARK SMILES IDX 94 61 50 63 82 64 62 65 81 66 63 67 66 68 80 69 99 70 64 71
REMARK SMILES IDX 65 72 79 74 100 75 67 76 51 77 52 78 60 79 53 80 54 81 58 82
REMARK SMILES IDX 61 83 55 84 56 85 59 86 57 87 83 88 84 89 92 90 85 91 86 92
REMARK SMILES IDX 90 93 93 94 87 95 88 96 91 97 89 98 68 99 69 100 77 101
REMARK SMILES IDX 70 102 71 103 75 104 78 105 72 106 73 107 76 108 74 109
REMARK H PARENT 98 62 66 73
REMARK Flexibility Score: inf
ROOT
ATOM      1  O   UNL A   1      39.499  22.581  26.128  1.00  0.00    -0.376 OA
ENDROOT
BRANCH   1   2
ATOM      2  C   UNL A   1      38.159  23.073  26.135  1.00  0.00     0.202 C 
BRANCH   2   3
ATOM      3  C   UNL A   1      37.151  22.264  25.285  1.00  0.00     0.261 C 
BRANCH   3   4
ATOM      4  O   UNL A   1      36.238  21.425  26.037  1.00  0.00    -0.463 OA
BRANCH   4   5
ATOM      5  C   UNL A   1      34.986  21.883  26.274  1.00  0.00     0.307 C 
ATOM      6  O   UNL A   1      34.722  22.891  26.920  1.00  0.00    -0.252 OA
BRANCH   5   7
ATOM      7  C   UNL A   1      33.913  21.014  25.637  1.00  0.00     0.144 C 
BRANCH   7   8
ATOM      8  C   UNL A   1      32.435  21.365  25.892  1.00  0.00     0.139 C 
BRANCH   8   9
ATOM      9  N   UNL A   1      31.890  22.520  25.154  1.00  0.00    -0.292 N 
ATOM     10  C   UNL A   1      30.557  25.826  25.512  1.00  0.00     0.041 C 
ATOM     11  C   UNL A   1      30.863  24.639  24.966  1.00  0.00     0.081 C 
ATOM     12  S   UNL A   1      31.047  24.168  23.334  1.00  0.00    -0.054 SA
ATOM     13  C   UNL A   1      31.307  23.553  25.852  1.00  0.00     0.266 C 
ATOM     14  C   UNL A   1      31.790  22.625  23.780  1.00  0.00     0.148 C 
ATOM     15  O   UNL A   1      31.177  23.640  27.055  1.00  0.00    -0.268 OA
ATOM     16  S   UNL A   1      32.281  21.528  22.622  1.00  0.00    -0.052 S 
BRANCH  10  17
ATOM     17  C   UNL A   1      30.390  27.063  24.784  1.00  0.00     0.104 A 
ATOM     18  C   UNL A   1      31.356  28.002  24.677  1.00  0.00     0.234 A 
ATOM     19  N   UNL A   1      31.210  29.144  23.932  1.00  0.00    -0.194 NA
ATOM     20  C   UNL A   1      30.128  29.292  23.238  1.00  0.00     0.143 A 
ATOM     21  C   UNL A   1      29.091  27.321  24.104  1.00  0.00     0.269 A 
ATOM     22  C   UNL A   1      30.003  30.482  22.353  1.00  0.00     0.048 A 
ATOM     23  N   UNL A   1      29.060  28.411  23.255  1.00  0.00    -0.267 N 
ATOM     24  O   UNL A   1      28.121  26.596  24.335  1.00  0.00    -0.268 OA
ATOM     25  C   UNL A   1      28.913  30.639  21.593  1.00  0.00     0.005 A 
ATOM     26  C   UNL A   1      27.936  28.624  22.467  1.00  0.00     0.096 A 
ATOM     27  C   UNL A   1      27.843  29.677  21.647  1.00  0.00     0.019 A 
BRANCH  18  28
ATOM     28  O   UNL A   1      32.559  27.941  25.390  1.00  0.00    -0.438 OA
BRANCH  28  29
ATOM     29  C   UNL A   1      33.017  28.988  26.160  1.00  0.00     0.130 A 
ATOM     30  C   UNL A   1      32.199  32.521  27.297  1.00  0.00     0.044 C 
ATOM     31  C   UNL A   1      32.912  31.215  27.119  1.00  0.00    -0.047 A 
ATOM     32  C   UNL A   1      34.204  31.047  27.633  1.00  0.00     0.007 A 
ATOM     33  C   UNL A   1      32.305  30.157  26.429  1.00  0.00     0.050 A 
ATOM     34  C   UNL A   1      34.891  29.838  27.463  1.00  0.00    -0.047 A 
ATOM     35  C   UNL A   1      36.241  29.656  28.092  1.00  0.00     0.044 C 
ATOM     36  C   UNL A   1      34.296  28.822  26.704  1.00  0.00     0.050 A 
ENDBRANCH  28  29
ENDBRANCH  18  28
ENDBRANCH  10  17
ENDBRANCH   8   9
ENDBRANCH   7   8
ENDBRANCH   5   7
ENDBRANCH   4   5
ENDBRANCH   3   4
ENDBRANCH   2   3
ENDBRANCH   1   2
BRANCH   1  37
ATOM     37  C   UNL A   1      39.600  21.172  26.259  1.00  0.00     0.188 C 
BRANCH  37  38
ATOM     38  C   UNL A   1      40.965  20.671  26.679  1.00  0.00     0.188 C 
BRANCH  38  39
ATOM     39  O   UNL A   1      41.996  20.714  25.693  1.00  0.00    -0.376 OA
BRANCH  39  40
ATOM     40  C   UNL A   1      43.133  21.490  26.059  1.00  0.00     0.202 C 
BRANCH  40  41
ATOM     41  C   UNL A   1      43.402  22.716  25.162  1.00  0.00     0.261 C 
BRANCH  41  42
ATOM     42  O   UNL A   1      42.500  23.812  25.403  1.00  0.00    -0.460 OA
BRANCH  42  43
ATOM     43  C   UNL A   1      42.694  24.473  26.576  1.00  0.00     0.338 C 
ATOM     44  O   UNL A   1      42.148  24.252  27.642  1.00  0.00    -0.246 OA
BRANCH  43  45
ATOM     45  C   UNL A   1      43.864  25.382  26.435  1.00  0.00     0.060 A 
ATOM     46  C   UNL A   1      44.742  25.503  27.526  1.00  0.00     0.016 A 
ATOM     47  C   UNL A   1      44.151  26.043  25.238  1.00  0.00     0.016 A 
ATOM     48  C   UNL A   1      45.899  26.279  27.429  1.00  0.00     0.010 A 
ATOM     49  C   UNL A   1      45.285  26.859  25.154  1.00  0.00     0.010 A 
ATOM     50  C   UNL A   1      46.149  27.001  26.257  1.00  0.00    -0.014 A 
BRANCH  50  51
ATOM     51  C   UNL A   1      47.130  28.114  26.278  1.00  0.00     0.031 A 
ATOM     52  C   UNL A   1      46.593  29.497  26.533  1.00  0.00     0.074 A 
ATOM     53  C   UNL A   1      48.449  27.926  26.096  1.00  0.00     0.049 A 
ATOM     54  N   UNL A   1      47.203  30.653  26.496  1.00  0.00    -0.248 NA
ATOM     55  C   UNL A   1      45.163  29.582  26.874  1.00  0.00     0.031 C 
ATOM     56  C   UNL A   1      49.109  26.637  25.917  1.00  0.00     0.029 A 
ATOM     57  N   UNL A   1      49.473  28.842  26.025  1.00  0.00    -0.354 N 
ATOM     58  C   UNL A   1      46.233  31.597  26.806  1.00  0.00     0.074 A 
ATOM     59  C   UNL A   1      44.987  30.887  26.995  1.00  0.00     0.031 C 
ATOM     60  C   UNL A   1      50.428  26.844  25.736  1.00  0.00     0.029 A 
ATOM     61  C   UNL A   1      50.696  28.282  25.747  1.00  0.00     0.049 A 
ATOM     62  H   UNL A   1      49.341  29.809  26.160  1.00  0.00     0.167 HD
ATOM     63  C   UNL A   1      46.367  32.937  26.933  1.00  0.00     0.037 A 
ATOM     64  C   UNL A   1      51.883  28.873  25.500  1.00  0.00     0.037 A 
ATOM     65  C   UNL A   1      47.600  33.647  26.731  1.00  0.00     0.049 A 
ATOM     66  C   UNL A   1      51.981  30.382  25.525  1.00  0.00     0.074 A 
ATOM     67  C   UNL A   1      47.835  35.008  26.809  1.00  0.00     0.029 A 
ATOM     68  N   UNL A   1      48.807  33.049  26.406  1.00  0.00    -0.354 N 
ATOM     69  N   UNL A   1      51.061  31.272  25.814  1.00  0.00    -0.248 NA
ATOM     70  C   UNL A   1      53.286  30.969  25.184  1.00  0.00     0.031 C 
ATOM     71  C   UNL A   1      49.175  35.238  26.483  1.00  0.00     0.029 A 
ATOM     72  C   UNL A   1      49.788  34.015  26.262  1.00  0.00     0.049 A 
ATOM     73  H   UNL A   1      48.946  32.080  26.294  1.00  0.00     0.167 HD
ATOM     74  C   UNL A   1      51.686  32.511  25.734  1.00  0.00     0.074 A 
ATOM     75  C   UNL A   1      53.066  32.261  25.377  1.00  0.00     0.031 C 
ATOM     76  C   UNL A   1      51.165  33.747  25.938  1.00  0.00     0.037 A 
BRANCH  63  77
ATOM     77  C   UNL A   1      45.138  33.723  27.280  1.00  0.00     0.064 A 
ATOM     78  C   UNL A   1      44.818  34.035  28.611  1.00  0.00     0.173 A 
ATOM     79  C   UNL A   1      44.284  34.193  26.272  1.00  0.00     0.173 A 
ATOM     80  F   UNL A   1      45.591  33.591  29.614  1.00  0.00    -0.203 F 
ATOM     81  C   UNL A   1      43.676  34.769  28.918  1.00  0.00     0.198 A 
ATOM     82  C   UNL A   1      43.162  34.954  26.581  1.00  0.00     0.198 A 
ATOM     83  F   UNL A   1      44.545  33.919  24.984  1.00  0.00    -0.203 F 
ATOM     84  F   UNL A   1      43.364  35.015  30.198  1.00  0.00    -0.200 F 
ATOM     85  C   UNL A   1      42.854  35.236  27.903  1.00  0.00     0.200 A 
ATOM     86  F   UNL A   1      42.375  35.414  25.598  1.00  0.00    -0.200 F 
ATOM     87  F   UNL A   1      41.762  35.952  28.200  1.00  0.00    -0.200 F 
ENDBRANCH  63  77
BRANCH  64  88
ATOM     88  C   UNL A   1      53.086  28.056  25.174  1.00  0.00     0.064 A 
ATOM     89  C   UNL A   1      53.932  27.579  26.186  1.00  0.00     0.173 A 
ATOM     90  C   UNL A   1      53.455  27.798  23.846  1.00  0.00     0.173 A 
ATOM     91  F   UNL A   1      53.644  27.828  27.472  1.00  0.00    -0.203 F 
ATOM     92  C   UNL A   1      55.114  26.905  25.882  1.00  0.00     0.198 A 
ATOM     93  C   UNL A   1      54.620  27.094  23.544  1.00  0.00     0.198 A 
ATOM     94  F   UNL A   1      52.692  28.242  22.836  1.00  0.00    -0.203 F 
ATOM     95  F   UNL A   1      55.938  26.524  26.868  1.00  0.00    -0.200 F 
ATOM     96  C   UNL A   1      55.455  26.660  24.562  1.00  0.00     0.200 A 
ATOM     97  F   UNL A   1      54.945  26.855  22.265  1.00  0.00    -0.200 F 
ATOM     98  F   UNL A   1      56.598  26.022  24.269  1.00  0.00    -0.200 F 
ENDBRANCH  64  88
BRANCH  76  99
ATOM     99  C   UNL A   1      52.098  34.922  25.850  1.00  0.00     0.064 A 
ATOM    100  C   UNL A   1      52.329  35.600  24.644  1.00  0.00     0.173 A 
ATOM    101  C   UNL A   1      52.725  35.412  27.008  1.00  0.00     0.173 A 
ATOM    102  F   UNL A   1      51.763  35.168  23.508  1.00  0.00    -0.203 F 
ATOM    103  C   UNL A   1      53.174  36.706  24.595  1.00  0.00     0.198 A 
ATOM    104  C   UNL A   1      53.542  36.538  26.961  1.00  0.00     0.198 A 
ATOM    105  F   UNL A   1      52.529  34.808  28.190  1.00  0.00    -0.203 F 
ATOM    106  F   UNL A   1      53.418  37.309  23.423  1.00  0.00    -0.200 F 
ATOM    107  C   UNL A   1      53.772  37.180  25.754  1.00  0.00     0.200 A 
ATOM    108  F   UNL A   1      54.102  37.004  28.086  1.00  0.00    -0.200 F 
ATOM    109  F   UNL A   1      54.575  38.251  25.706  1.00  0.00    -0.200 F 
ENDBRANCH  76  99
ENDBRANCH  50  51
ENDBRANCH  43  45
ENDBRANCH  42  43
ENDBRANCH  41  42
ENDBRANCH  40  41
ENDBRANCH  39  40
ENDBRANCH  38  39
ENDBRANCH  37  38
ENDBRANCH   1  37
TORSDOF 22
ENDMDL
