MODEL 1
REMARK VINA RESULT:     -11.0      0.000      0.000
REMARK SMILES C/C=C/C=C/C=C/C(=O)O[C@H]1C=C(C=O)[C@](O)(C(=O)OCCOCCOCCOC(=O)c2ccc(-c3c4nc(c(-c5c(F)c(F)c(F)c(F)c5F)c5ccc([nH]5)c(-c5c(F)c(F)c(F)c(F)c5F)c5nc(c(-c6c(F)c(F)c(F)c(F)c6F)c6ccc3[nH]6)C=C5)C=C4)cc2)[C@]2(C)CCCC(C)(C)[C@@H]12
REMARK SMILES IDX 23 1 22 2 21 3 20 4 18 5 19 6 16 7 11 8 12 9 103 10 13 11
REMARK SMILES IDX 95 12 100 13 97 14 96 15 99 16 101 17 102 18 98 19 10 20
REMARK SMILES IDX 8 21 9 22 7 23 6 24 5 25 4 26 3 27 1 28 2 29 14 30 15 31
REMARK SMILES IDX 17 32 24 34 25 35 26 36 27 37 28 38 29 39 30 40 31 41 32 42
REMARK SMILES IDX 33 43 94 44 34 45 93 46 35 47 36 48 37 49 87 50 38 51 92 52
REMARK SMILES IDX 86 53 88 54 39 55 91 56 85 57 84 58 40 60 72 61 52 62 71 63
REMARK SMILES IDX 53 64 56 65 70 66 89 67 54 68 55 69 69 71 90 72 57 73 41 74
REMARK SMILES IDX 42 75 50 76 43 77 44 78 48 79 51 80 45 81 46 82 49 83 47 84
REMARK SMILES IDX 73 85 74 86 82 87 75 88 76 89 80 90 83 91 77 92 78 93 81 94
REMARK SMILES IDX 79 95 58 96 59 97 67 98 60 99 61 100 65 101 68 102 62 103
REMARK SMILES IDX 63 104 66 105 64 106
REMARK H PARENT 17 33 88 59 56 70
REMARK Flexibility Score: inf
ROOT
ATOM      1  O   UNL A   1      32.024  31.053  27.197  1.00  0.00    -0.376 OA
ENDROOT
BRANCH   1   2
ATOM      2  C   UNL A   1      31.858  30.388  25.944  1.00  0.00     0.202 C 
BRANCH   2   3
ATOM      3  C   UNL A   1      33.065  29.595  25.416  1.00  0.00     0.261 C 
BRANCH   3   4
ATOM      4  O   UNL A   1      32.592  28.441  24.704  1.00  0.00    -0.461 OA
BRANCH   4   5
ATOM      5  C   UNL A   1      32.415  27.245  25.332  1.00  0.00     0.343 C 
ATOM      6  O   UNL A   1      32.748  27.048  26.491  1.00  0.00    -0.248 OA
BRANCH   5   7
ATOM      7  C   UNL A   1      31.781  26.186  24.304  1.00  0.00     0.196 C 
ATOM      8  C   UNL A   1      34.191  24.433  24.452  1.00  0.00     0.204 C 
ATOM      9  C   UNL A   1      34.073  25.615  23.524  1.00  0.00     0.028 C 
ATOM     10  C   UNL A   1      32.916  24.148  25.349  1.00  0.00     0.050 C 
ATOM     11  C   UNL A   1      32.833  26.003  23.197  1.00  0.00     0.035 C 
ATOM     12  C   UNL A   1      31.502  24.750  24.889  1.00  0.00     0.019 C 
ATOM     13  C   UNL A   1      32.906  22.792  26.133  1.00  0.00    -0.028 C 
ATOM     14  C   UNL A   1      30.580  24.745  26.149  1.00  0.00     0.011 C 
ATOM     15  C   UNL A   1      30.654  23.951  23.840  1.00  0.00     0.016 C 
ATOM     16  C   UNL A   1      31.776  22.800  27.199  1.00  0.00     0.007 C 
ATOM     17  C   UNL A   1      32.783  21.539  25.250  1.00  0.00     0.011 C 
ATOM     18  C   UNL A   1      34.233  22.657  26.923  1.00  0.00     0.011 C 
ATOM     19  C   UNL A   1      30.433  23.322  26.704  1.00  0.00     0.001 C 
BRANCH   8  20
ATOM     20  O   UNL A   1      34.675  23.338  23.668  1.00  0.00    -0.455 OA
BRANCH  20  21
ATOM     21  C   UNL A   1      36.032  23.299  23.518  1.00  0.00     0.331 C 
ATOM     22  O   UNL A   1      36.631  22.961  22.511  1.00  0.00    -0.247 OA
BRANCH  21  23
ATOM     23  C   UNL A   1      36.694  23.484  24.822  1.00  0.00     0.093 C 
ATOM     24  C   UNL A   1      37.748  22.729  25.165  1.00  0.00     0.007 C 
BRANCH  24  25
ATOM     25  C   UNL A   1      38.617  23.121  26.249  1.00  0.00     0.000 C 
ATOM     26  C   UNL A   1      39.602  22.327  26.697  1.00  0.00    -0.000 C 
BRANCH  26  27
ATOM     27  C   UNL A   1      40.587  22.789  27.647  1.00  0.00    -0.005 C 
ATOM     28  C   UNL A   1      42.517  24.209  28.344  1.00  0.00     0.035 C 
ATOM     29  C   UNL A   1      41.526  23.699  27.349  1.00  0.00    -0.030 C 
ENDBRANCH  26  27
ENDBRANCH  24  25
ENDBRANCH  21  23
ENDBRANCH  20  21
ENDBRANCH   8  20
BRANCH  11  30
ATOM     30  C   UNL A   1      32.509  25.456  21.851  1.00  0.00     0.259 C 
ATOM     31  O   UNL A   1      33.276  25.498  20.899  1.00  0.00    -0.298 OA
ENDBRANCH  11  30
BRANCH   7  32
ATOM     32  O   UNL A   1      30.572  26.786  23.822  1.00  0.00    -0.373 OA
ATOM     33  H   UNL A   1      29.889  26.730  24.509  1.00  0.00     0.212 HD
ENDBRANCH   7  32
ENDBRANCH   5   7
ENDBRANCH   4   5
ENDBRANCH   3   4
ENDBRANCH   2   3
ENDBRANCH   1   2
BRANCH   1  34
ATOM     34  C   UNL A   1      33.206  31.814  27.416  1.00  0.00     0.188 C 
BRANCH  34  35
ATOM     35  C   UNL A   1      33.085  33.327  27.617  1.00  0.00     0.188 C 
BRANCH  35  36
ATOM     36  O   UNL A   1      33.908  33.884  28.624  1.00  0.00    -0.376 OA
BRANCH  36  37
ATOM     37  C   UNL A   1      34.058  35.301  28.573  1.00  0.00     0.202 C 
BRANCH  37  38
ATOM     38  C   UNL A   1      32.946  36.052  29.322  1.00  0.00     0.261 C 
BRANCH  38  39
ATOM     39  O   UNL A   1      32.364  35.330  30.430  1.00  0.00    -0.460 OA
BRANCH  39  40
ATOM     40  C   UNL A   1      32.633  35.769  31.684  1.00  0.00     0.338 C 
ATOM     41  O   UNL A   1      31.916  36.469  32.380  1.00  0.00    -0.246 OA
BRANCH  40  42
ATOM     42  C   UNL A   1      33.791  34.987  32.195  1.00  0.00     0.060 A 
ATOM     43  C   UNL A   1      35.077  35.555  32.138  1.00  0.00     0.016 A 
ATOM     44  C   UNL A   1      33.605  33.754  32.822  1.00  0.00     0.016 A 
ATOM     45  C   UNL A   1      36.174  34.888  32.697  1.00  0.00     0.010 A 
ATOM     46  C   UNL A   1      34.705  33.076  33.355  1.00  0.00     0.010 A 
ATOM     47  C   UNL A   1      35.999  33.626  33.277  1.00  0.00    -0.014 A 
BRANCH  47  48
ATOM     48  C   UNL A   1      37.166  32.765  33.600  1.00  0.00     0.031 A 
ATOM     49  C   UNL A   1      37.897  33.036  34.887  1.00  0.00     0.074 A 
ATOM     50  C   UNL A   1      37.606  31.800  32.773  1.00  0.00     0.049 A 
ATOM     51  N   UNL A   1      39.024  32.542  35.331  1.00  0.00    -0.248 NA
ATOM     52  C   UNL A   1      37.266  34.011  35.794  1.00  0.00     0.031 C 
ATOM     53  C   UNL A   1      36.970  31.397  31.522  1.00  0.00     0.029 A 
ATOM     54  N   UNL A   1      38.721  30.998  32.859  1.00  0.00    -0.354 N 
ATOM     55  C   UNL A   1      39.245  33.157  36.556  1.00  0.00     0.074 A 
ATOM     56  C   UNL A   1      38.152  34.078  36.775  1.00  0.00     0.031 C 
ATOM     57  C   UNL A   1      37.717  30.438  30.944  1.00  0.00     0.029 A 
ATOM     58  C   UNL A   1      38.906  30.193  31.761  1.00  0.00     0.049 A 
ATOM     59  H   UNL A   1      39.328  31.001  33.634  1.00  0.00     0.167 HD
ATOM     60  C   UNL A   1      40.268  32.971  37.424  1.00  0.00     0.037 A 
ATOM     61  C   UNL A   1      39.936  29.381  31.439  1.00  0.00     0.037 A 
ATOM     62  C   UNL A   1      41.360  32.063  37.205  1.00  0.00     0.049 A 
ATOM     63  C   UNL A   1      41.114  29.260  32.379  1.00  0.00     0.074 A 
ATOM     64  C   UNL A   1      42.435  31.792  38.034  1.00  0.00     0.029 A 
ATOM     65  N   UNL A   1      41.525  31.285  36.068  1.00  0.00    -0.354 N 
ATOM     66  N   UNL A   1      41.309  29.826  33.546  1.00  0.00    -0.248 NA
ATOM     67  C   UNL A   1      42.221  28.390  31.950  1.00  0.00     0.031 C 
ATOM     68  C   UNL A   1      43.282  30.898  37.373  1.00  0.00     0.029 A 
ATOM     69  C   UNL A   1      42.702  30.559  36.162  1.00  0.00     0.049 A 
ATOM     70  H   UNL A   1      40.900  31.254  35.309  1.00  0.00     0.167 HD
ATOM     71  C   UNL A   1      42.536  29.356  34.003  1.00  0.00     0.074 A 
ATOM     72  C   UNL A   1      43.037  28.449  32.993  1.00  0.00     0.031 C 
ATOM     73  C   UNL A   1      43.187  29.647  35.156  1.00  0.00     0.037 A 
BRANCH  60  74
ATOM     74  C   UNL A   1      40.267  33.794  38.678  1.00  0.00     0.064 A 
ATOM     75  C   UNL A   1      41.002  34.985  38.782  1.00  0.00     0.173 A 
ATOM     76  C   UNL A   1      39.499  33.399  39.784  1.00  0.00     0.173 A 
ATOM     77  F   UNL A   1      41.767  35.398  37.759  1.00  0.00    -0.203 F 
ATOM     78  C   UNL A   1      40.991  35.733  39.955  1.00  0.00     0.198 A 
ATOM     79  C   UNL A   1      39.463  34.167  40.944  1.00  0.00     0.198 A 
ATOM     80  F   UNL A   1      38.777  32.270  39.737  1.00  0.00    -0.203 F 
ATOM     81  F   UNL A   1      41.744  36.838  40.051  1.00  0.00    -0.200 F 
ATOM     82  C   UNL A   1      40.216  35.329  41.032  1.00  0.00     0.200 A 
ATOM     83  F   UNL A   1      38.703  33.782  41.978  1.00  0.00    -0.200 F 
ATOM     84  F   UNL A   1      40.200  36.054  42.159  1.00  0.00    -0.200 F 
ENDBRANCH  60  74
BRANCH  61  85
ATOM     85  C   UNL A   1      39.925  28.628  30.155  1.00  0.00     0.064 A 
ATOM     86  C   UNL A   1      39.350  27.352  30.069  1.00  0.00     0.173 A 
ATOM     87  C   UNL A   1      40.529  29.147  28.999  1.00  0.00     0.173 A 
ATOM     88  F   UNL A   1      38.792  26.796  31.155  1.00  0.00    -0.203 F 
ATOM     89  C   UNL A   1      39.395  26.618  28.885  1.00  0.00     0.198 A 
ATOM     90  C   UNL A   1      40.545  28.425  27.807  1.00  0.00     0.198 A 
ATOM     91  F   UNL A   1      41.105  30.357  29.027  1.00  0.00    -0.203 F 
ATOM     92  F   UNL A   1      38.887  25.377  28.849  1.00  0.00    -0.200 F 
ATOM     93  C   UNL A   1      39.986  27.157  27.753  1.00  0.00     0.200 A 
ATOM     94  F   UNL A   1      41.111  28.953  26.714  1.00  0.00    -0.200 F 
ATOM     95  F   UNL A   1      40.030  26.450  26.615  1.00  0.00    -0.200 F 
ENDBRANCH  61  85
BRANCH  73  96
ATOM     96  C   UNL A   1      44.491  28.950  35.423  1.00  0.00     0.064 A 
ATOM     97  C   UNL A   1      44.550  27.715  36.086  1.00  0.00     0.173 A 
ATOM     98  C   UNL A   1      45.695  29.496  34.949  1.00  0.00     0.173 A 
ATOM     99  F   UNL A   1      43.431  27.156  36.571  1.00  0.00    -0.203 F 
ATOM    100  C   UNL A   1      45.766  27.064  36.282  1.00  0.00     0.198 A 
ATOM    101  C   UNL A   1      46.904  28.825  35.117  1.00  0.00     0.198 A 
ATOM    102  F   UNL A   1      45.697  30.669  34.300  1.00  0.00    -0.203 F 
ATOM    103  F   UNL A   1      45.802  25.905  36.955  1.00  0.00    -0.200 F 
ATOM    104  C   UNL A   1      46.939  27.614  35.789  1.00  0.00     0.200 A 
ATOM    105  F   UNL A   1      48.034  29.350  34.623  1.00  0.00    -0.200 F 
ATOM    106  F   UNL A   1      48.106  26.977  35.965  1.00  0.00    -0.200 F 
ENDBRANCH  73  96
ENDBRANCH  47  48
ENDBRANCH  40  42
ENDBRANCH  39  40
ENDBRANCH  38  39
ENDBRANCH  37  38
ENDBRANCH  36  37
ENDBRANCH  35  36
ENDBRANCH  34  35
ENDBRANCH   1  34
TORSDOF 24
ENDMDL
MODEL 2
REMARK VINA RESULT:     -10.7      1.631      3.541
REMARK SMILES C/C=C/C=C/C=C/C(=O)O[C@H]1C=C(C=O)[C@](O)(C(=O)OCCOCCOCCOC(=O)c2ccc(-c3c4nc(c(-c5c(F)c(F)c(F)c(F)c5F)c5ccc([nH]5)c(-c5c(F)c(F)c(F)c(F)c5F)c5nc(c(-c6c(F)c(F)c(F)c(F)c6F)c6ccc3[nH]6)C=C5)C=C4)cc2)[C@]2(C)CCCC(C)(C)[C@@H]12
REMARK SMILES IDX 23 1 22 2 21 3 20 4 18 5 19 6 16 7 11 8 12 9 103 10 13 11
REMARK SMILES IDX 95 12 100 13 97 14 96 15 99 16 101 17 102 18 98 19 10 20
REMARK SMILES IDX 8 21 9 22 7 23 6 24 5 25 4 26 3 27 1 28 2 29 14 30 15 31
REMARK SMILES IDX 17 32 24 34 25 35 26 36 27 37 28 38 29 39 30 40 31 41 32 42
REMARK SMILES IDX 33 43 94 44 34 45 93 46 35 47 36 48 37 49 87 50 38 51 92 52
REMARK SMILES IDX 86 53 88 54 39 55 91 56 85 57 84 58 40 60 72 61 52 62 71 63
REMARK SMILES IDX 53 64 56 65 70 66 89 67 54 68 55 69 69 71 90 72 57 73 41 74
REMARK SMILES IDX 42 75 50 76 43 77 44 78 48 79 51 80 45 81 46 82 49 83 47 84
REMARK SMILES IDX 73 85 74 86 82 87 75 88 76 89 80 90 83 91 77 92 78 93 81 94
REMARK SMILES IDX 79 95 58 96 59 97 67 98 60 99 61 100 65 101 68 102 62 103
REMARK SMILES IDX 63 104 66 105 64 106
REMARK H PARENT 17 33 88 59 56 70
REMARK Flexibility Score: inf
ROOT
ATOM      1  O   UNL A   1      35.321  31.683  29.102  1.00  0.00    -0.376 OA
ENDROOT
BRANCH   1   2
ATOM      2  C   UNL A   1      35.137  31.134  27.796  1.00  0.00     0.202 C 
BRANCH   2   3
ATOM      3  C   UNL A   1      33.703  30.738  27.409  1.00  0.00     0.261 C 
BRANCH   3   4
ATOM      4  O   UNL A   1      33.635  29.311  27.263  1.00  0.00    -0.461 OA
BRANCH   4   5
ATOM      5  C   UNL A   1      32.615  28.716  26.582  1.00  0.00     0.343 C 
ATOM      6  O   UNL A   1      31.452  28.771  26.949  1.00  0.00    -0.248 OA
BRANCH   5   7
ATOM      7  C   UNL A   1      33.204  27.924  25.315  1.00  0.00     0.196 C 
ATOM      8  C   UNL A   1      31.336  25.636  25.738  1.00  0.00     0.204 C 
ATOM      9  C   UNL A   1      32.660  25.775  26.443  1.00  0.00     0.028 C 
ATOM     10  C   UNL A   1      30.994  26.791  24.709  1.00  0.00     0.050 C 
ATOM     11  C   UNL A   1      33.588  26.530  25.840  1.00  0.00     0.035 C 
ATOM     12  C   UNL A   1      32.194  27.685  24.129  1.00  0.00     0.019 C 
ATOM     13  C   UNL A   1      29.755  26.552  23.780  1.00  0.00    -0.028 C 
ATOM     14  C   UNL A   1      31.550  28.993  23.570  1.00  0.00     0.011 C 
ATOM     15  C   UNL A   1      33.002  27.146  22.899  1.00  0.00     0.016 C 
ATOM     16  C   UNL A   1      29.354  27.876  23.073  1.00  0.00     0.007 C 
ATOM     17  C   UNL A   1      29.937  25.437  22.738  1.00  0.00     0.011 C 
ATOM     18  C   UNL A   1      28.539  26.155  24.656  1.00  0.00     0.011 C 
ATOM     19  C   UNL A   1      30.517  28.664  22.484  1.00  0.00     0.001 C 
BRANCH   8  20
ATOM     20  O   UNL A   1      31.272  24.298  25.236  1.00  0.00    -0.455 OA
BRANCH  20  21
ATOM     21  C   UNL A   1      30.905  23.359  26.159  1.00  0.00     0.331 C 
ATOM     22  O   UNL A   1      30.422  23.586  27.256  1.00  0.00    -0.247 OA
BRANCH  21  23
ATOM     23  C   UNL A   1      31.398  22.031  25.757  1.00  0.00     0.093 C 
ATOM     24  C   UNL A   1      32.365  21.913  24.835  1.00  0.00     0.007 C 
BRANCH  24  25
ATOM     25  C   UNL A   1      33.102  20.680  24.688  1.00  0.00     0.000 C 
ATOM     26  C   UNL A   1      32.637  19.510  25.153  1.00  0.00    -0.000 C 
BRANCH  26  27
ATOM     27  C   UNL A   1      33.277  18.253  24.844  1.00  0.00    -0.005 C 
ATOM     28  C   UNL A   1      34.168  16.533  23.271  1.00  0.00     0.035 C 
ATOM     29  C   UNL A   1      33.468  17.813  23.592  1.00  0.00    -0.030 C 
ENDBRANCH  26  27
ENDBRANCH  24  25
ENDBRANCH  21  23
ENDBRANCH  20  21
ENDBRANCH   8  20
BRANCH  11  30
ATOM     30  C   UNL A   1      34.541  25.631  25.134  1.00  0.00     0.259 C 
ATOM     31  O   UNL A   1      34.786  24.486  25.491  1.00  0.00    -0.298 OA
ENDBRANCH  11  30
BRANCH   7  32
ATOM     32  O   UNL A   1      34.339  28.680  24.875  1.00  0.00    -0.373 OA
ATOM     33  H   UNL A   1      34.210  29.615  25.099  1.00  0.00     0.212 HD
ENDBRANCH   7  32
ENDBRANCH   5   7
ENDBRANCH   4   5
ENDBRANCH   3   4
ENDBRANCH   2   3
ENDBRANCH   1   2
BRANCH   1  34
ATOM     34  C   UNL A   1      34.764  32.960  29.391  1.00  0.00     0.188 C 
BRANCH  34  35
ATOM     35  C   UNL A   1      35.448  34.210  28.831  1.00  0.00     0.188 C 
BRANCH  35  36
ATOM     36  O   UNL A   1      34.603  35.316  28.578  1.00  0.00    -0.376 OA
BRANCH  36  37
ATOM     37  C   UNL A   1      33.273  35.192  29.074  1.00  0.00     0.202 C 
BRANCH  37  38
ATOM     38  C   UNL A   1      32.775  36.458  29.788  1.00  0.00     0.261 C 
BRANCH  38  39
ATOM     39  O   UNL A   1      33.218  36.599  31.156  1.00  0.00    -0.460 OA
BRANCH  39  40
ATOM     40  C   UNL A   1      32.780  35.688  32.061  1.00  0.00     0.338 C 
ATOM     41  O   UNL A   1      31.624  35.350  32.252  1.00  0.00    -0.246 OA
BRANCH  40  42
ATOM     42  C   UNL A   1      33.967  34.931  32.545  1.00  0.00     0.060 A 
ATOM     43  C   UNL A   1      35.239  35.523  32.450  1.00  0.00     0.016 A 
ATOM     44  C   UNL A   1      33.821  33.700  33.186  1.00  0.00     0.016 A 
ATOM     45  C   UNL A   1      36.363  34.882  32.983  1.00  0.00     0.010 A 
ATOM     46  C   UNL A   1      34.948  33.047  33.694  1.00  0.00     0.010 A 
ATOM     47  C   UNL A   1      36.228  33.620  33.577  1.00  0.00    -0.014 A 
BRANCH  47  48
ATOM     48  C   UNL A   1      37.419  32.784  33.875  1.00  0.00     0.031 A 
ATOM     49  C   UNL A   1      38.157  33.054  35.158  1.00  0.00     0.074 A 
ATOM     50  C   UNL A   1      37.874  31.843  33.028  1.00  0.00     0.049 A 
ATOM     51  N   UNL A   1      39.301  32.582  35.582  1.00  0.00    -0.248 NA
ATOM     52  C   UNL A   1      37.513  33.999  36.086  1.00  0.00     0.031 C 
ATOM     53  C   UNL A   1      37.234  31.442  31.779  1.00  0.00     0.029 A 
ATOM     54  N   UNL A   1      39.009  31.068  33.090  1.00  0.00    -0.354 N 
ATOM     55  C   UNL A   1      39.521  33.184  36.814  1.00  0.00     0.074 A 
ATOM     56  C   UNL A   1      38.407  34.074  37.058  1.00  0.00     0.031 C 
ATOM     57  C   UNL A   1      37.999  30.512  31.178  1.00  0.00     0.029 A 
ATOM     58  C   UNL A   1      39.203  30.284  31.979  1.00  0.00     0.049 A 
ATOM     59  H   UNL A   1      39.625  31.074  33.859  1.00  0.00     0.167 HD
ATOM     60  C   UNL A   1      40.557  33.011  37.668  1.00  0.00     0.037 A 
ATOM     61  C   UNL A   1      40.248  29.503  31.634  1.00  0.00     0.037 A 
ATOM     62  C   UNL A   1      41.669  32.133  37.424  1.00  0.00     0.049 A 
ATOM     63  C   UNL A   1      41.440  29.397  32.559  1.00  0.00     0.074 A 
ATOM     64  C   UNL A   1      42.760  31.877  38.237  1.00  0.00     0.029 A 
ATOM     65  N   UNL A   1      41.841  31.377  36.274  1.00  0.00    -0.354 N 
ATOM     66  N   UNL A   1      41.633  29.951  33.732  1.00  0.00    -0.248 NA
ATOM     67  C   UNL A   1      42.563  28.561  32.106  1.00  0.00     0.031 C 
ATOM     68  C   UNL A   1      43.621  31.015  37.554  1.00  0.00     0.029 A 
ATOM     69  C   UNL A   1      43.036  30.679  36.344  1.00  0.00     0.049 A 
ATOM     70  H   UNL A   1      41.209  31.341  35.521  1.00  0.00     0.167 HD
ATOM     71  C   UNL A   1      42.876  29.504  34.169  1.00  0.00     0.074 A 
ATOM     72  C   UNL A   1      43.388  28.626  33.140  1.00  0.00     0.031 C 
ATOM     73  C   UNL A   1      43.532  29.795  35.320  1.00  0.00     0.037 A 
BRANCH  60  74
ATOM     74  C   UNL A   1      40.550  33.815  38.934  1.00  0.00     0.064 A 
ATOM     75  C   UNL A   1      41.222  35.043  39.035  1.00  0.00     0.173 A 
ATOM     76  C   UNL A   1      39.839  33.363  40.057  1.00  0.00     0.173 A 
ATOM     77  F   UNL A   1      41.931  35.511  37.997  1.00  0.00    -0.203 F 
ATOM     78  C   UNL A   1      41.206  35.772  40.220  1.00  0.00     0.198 A 
ATOM     79  C   UNL A   1      39.797  34.112  41.229  1.00  0.00     0.198 A 
ATOM     80  F   UNL A   1      39.178  32.197  40.013  1.00  0.00    -0.203 F 
ATOM     81  F   UNL A   1      41.901  36.915  40.311  1.00  0.00    -0.200 F 
ATOM     82  C   UNL A   1      40.487  35.311  41.313  1.00  0.00     0.200 A 
ATOM     83  F   UNL A   1      39.091  33.671  42.278  1.00  0.00    -0.200 F 
ATOM     84  F   UNL A   1      40.467  36.018  42.451  1.00  0.00    -0.200 F 
ENDBRANCH  60  74
BRANCH  61  85
ATOM     85  C   UNL A   1      40.242  28.769  30.339  1.00  0.00     0.064 A 
ATOM     86  C   UNL A   1      40.835  29.319  29.192  1.00  0.00     0.173 A 
ATOM     87  C   UNL A   1      39.606  27.525  30.206  1.00  0.00     0.173 A 
ATOM     88  F   UNL A   1      41.425  30.522  29.257  1.00  0.00    -0.203 F 
ATOM     89  C   UNL A   1      40.775  28.664  27.963  1.00  0.00     0.198 A 
ATOM     90  C   UNL A   1      39.575  26.856  28.984  1.00  0.00     0.198 A 
ATOM     91  F   UNL A   1      39.012  26.958  31.266  1.00  0.00    -0.203 F 
ATOM     92  F   UNL A   1      41.301  29.241  26.873  1.00  0.00    -0.200 F 
ATOM     93  C   UNL A   1      40.151  27.430  27.861  1.00  0.00     0.200 A 
ATOM     94  F   UNL A   1      38.977  25.661  28.892  1.00  0.00    -0.200 F 
ATOM     95  F   UNL A   1      40.094  26.801  26.679  1.00  0.00    -0.200 F 
ENDBRANCH  61  85
BRANCH  73  96
ATOM     96  C   UNL A   1      44.857  29.126  35.562  1.00  0.00     0.064 A 
ATOM     97  C   UNL A   1      46.068  29.721  35.181  1.00  0.00     0.173 A 
ATOM     98  C   UNL A   1      44.916  27.901  36.247  1.00  0.00     0.173 A 
ATOM     99  F   UNL A   1      46.068  30.885  34.513  1.00  0.00    -0.203 F 
ATOM    100  C   UNL A   1      47.287  29.106  35.458  1.00  0.00     0.198 A 
ATOM    101  C   UNL A   1      46.138  27.306  36.550  1.00  0.00     0.198 A 
ATOM    102  F   UNL A   1      43.789  27.292  36.643  1.00  0.00    -0.203 F 
ATOM    103  F   UNL A   1      48.430  29.673  35.047  1.00  0.00    -0.200 F 
ATOM    104  C   UNL A   1      47.321  27.905  36.150  1.00  0.00     0.200 A 
ATOM    105  F   UNL A   1      46.168  26.154  37.236  1.00  0.00    -0.200 F 
ATOM    106  F   UNL A   1      48.496  27.323  36.429  1.00  0.00    -0.200 F 
ENDBRANCH  73  96
ENDBRANCH  47  48
ENDBRANCH  40  42
ENDBRANCH  39  40
ENDBRANCH  38  39
ENDBRANCH  37  38
ENDBRANCH  36  37
ENDBRANCH  35  36
ENDBRANCH  34  35
ENDBRANCH   1  34
TORSDOF 24
ENDMDL
MODEL 3
REMARK VINA RESULT:     -10.5      2.103      7.832
REMARK SMILES C/C=C/C=C/C=C/C(=O)O[C@H]1C=C(C=O)[C@](O)(C(=O)OCCOCCOCCOC(=O)c2ccc(-c3c4nc(c(-c5c(F)c(F)c(F)c(F)c5F)c5ccc([nH]5)c(-c5c(F)c(F)c(F)c(F)c5F)c5nc(c(-c6c(F)c(F)c(F)c(F)c6F)c6ccc3[nH]6)C=C5)C=C4)cc2)[C@]2(C)CCCC(C)(C)[C@@H]12
REMARK SMILES IDX 23 1 22 2 21 3 20 4 18 5 19 6 16 7 11 8 12 9 103 10 13 11
REMARK SMILES IDX 95 12 100 13 97 14 96 15 99 16 101 17 102 18 98 19 10 20
REMARK SMILES IDX 8 21 9 22 7 23 6 24 5 25 4 26 3 27 1 28 2 29 14 30 15 31
REMARK SMILES IDX 17 32 24 34 25 35 26 36 27 37 28 38 29 39 30 40 31 41 32 42
REMARK SMILES IDX 33 43 94 44 34 45 93 46 35 47 36 48 37 49 87 50 38 51 92 52
REMARK SMILES IDX 86 53 88 54 39 55 91 56 85 57 84 58 40 60 72 61 52 62 71 63
REMARK SMILES IDX 53 64 56 65 70 66 89 67 54 68 55 69 69 71 90 72 57 73 41 74
REMARK SMILES IDX 42 75 50 76 43 77 44 78 48 79 51 80 45 81 46 82 49 83 47 84
REMARK SMILES IDX 73 85 74 86 82 87 75 88 76 89 80 90 83 91 77 92 78 93 81 94
REMARK SMILES IDX 79 95 58 96 59 97 67 98 60 99 61 100 65 101 68 102 62 103
REMARK SMILES IDX 63 104 66 105 64 106
REMARK H PARENT 17 33 88 59 56 70
REMARK Flexibility Score: inf
ROOT
ATOM      1  O   UNL A   1      27.894  31.700  23.029  1.00  0.00    -0.376 OA
ENDROOT
BRANCH   1   2
ATOM      2  C   UNL A   1      28.138  30.709  22.030  1.00  0.00     0.202 C 
BRANCH   2   3
ATOM      3  C   UNL A   1      28.024  29.240  22.471  1.00  0.00     0.261 C 
BRANCH   3   4
ATOM      4  O   UNL A   1      29.336  28.737  22.768  1.00  0.00    -0.461 OA
BRANCH   4   5
ATOM      5  C   UNL A   1      29.517  27.682  23.611  1.00  0.00     0.343 C 
ATOM      6  O   UNL A   1      28.668  26.821  23.786  1.00  0.00    -0.248 OA
BRANCH   5   7
ATOM      7  C   UNL A   1      30.945  27.807  24.333  1.00  0.00     0.196 C 
ATOM      8  C   UNL A   1      30.928  24.927  25.111  1.00  0.00     0.204 C 
ATOM      9  C   UNL A   1      30.268  26.014  25.919  1.00  0.00     0.028 C 
ATOM     10  C   UNL A   1      31.678  25.416  23.804  1.00  0.00     0.050 C 
ATOM     11  C   UNL A   1      30.740  27.258  25.755  1.00  0.00     0.035 C 
ATOM     12  C   UNL A   1      32.110  26.958  23.696  1.00  0.00     0.019 C 
ATOM     13  C   UNL A   1      32.581  24.359  23.081  1.00  0.00    -0.028 C 
ATOM     14  C   UNL A   1      32.355  27.252  22.182  1.00  0.00     0.011 C 
ATOM     15  C   UNL A   1      33.459  27.405  24.356  1.00  0.00     0.016 C 
ATOM     16  C   UNL A   1      32.978  24.871  21.670  1.00  0.00     0.007 C 
ATOM     17  C   UNL A   1      33.840  23.949  23.862  1.00  0.00     0.011 C 
ATOM     18  C   UNL A   1      31.756  23.068  22.848  1.00  0.00     0.011 C 
ATOM     19  C   UNL A   1      33.440  26.322  21.622  1.00  0.00     0.001 C 
BRANCH   8  20
ATOM     20  O   UNL A   1      31.695  24.139  26.026  1.00  0.00    -0.455 OA
BRANCH  20  21
ATOM     21  C   UNL A   1      31.035  23.059  26.542  1.00  0.00     0.331 C 
ATOM     22  O   UNL A   1      30.316  23.065  27.527  1.00  0.00    -0.247 OA
BRANCH  21  23
ATOM     23  C   UNL A   1      31.502  21.821  25.895  1.00  0.00     0.093 C 
ATOM     24  C   UNL A   1      32.762  21.394  26.069  1.00  0.00     0.007 C 
BRANCH  24  25
ATOM     25  C   UNL A   1      33.132  20.034  25.754  1.00  0.00     0.000 C 
ATOM     26  C   UNL A   1      33.417  19.643  24.502  1.00  0.00    -0.000 C 
BRANCH  26  27
ATOM     27  C   UNL A   1      33.969  18.340  24.213  1.00  0.00    -0.005 C 
ATOM     28  C   UNL A   1      34.357  15.924  24.702  1.00  0.00     0.035 C 
ATOM     29  C   UNL A   1      33.823  17.282  25.023  1.00  0.00    -0.030 C 
ENDBRANCH  26  27
ENDBRANCH  24  25
ENDBRANCH  21  23
ENDBRANCH  20  21
ENDBRANCH   8  20
BRANCH  11  30
ATOM     30  C   UNL A   1      31.659  27.565  26.884  1.00  0.00     0.259 C 
ATOM     31  O   UNL A   1      31.827  28.691  27.335  1.00  0.00    -0.298 OA
ENDBRANCH  11  30
BRANCH   7  32
ATOM     32  O   UNL A   1      31.266  29.204  24.322  1.00  0.00    -0.373 OA
ATOM     33  H   UNL A   1      31.983  29.375  24.954  1.00  0.00     0.212 HD
ENDBRANCH   7  32
ENDBRANCH   5   7
ENDBRANCH   4   5
ENDBRANCH   3   4
ENDBRANCH   2   3
ENDBRANCH   1   2
BRANCH   1  34
ATOM     34  C   UNL A   1      28.992  32.458  23.523  1.00  0.00     0.188 C 
BRANCH  34  35
ATOM     35  C   UNL A   1      29.862  31.864  24.634  1.00  0.00     0.188 C 
BRANCH  35  36
ATOM     36  O   UNL A   1      30.628  32.789  25.381  1.00  0.00    -0.376 OA
BRANCH  36  37
ATOM     37  C   UNL A   1      31.306  32.247  26.511  1.00  0.00     0.202 C 
BRANCH  37  38
ATOM     38  C   UNL A   1      32.427  33.157  27.036  1.00  0.00     0.261 C 
BRANCH  38  39
ATOM     39  O   UNL A   1      32.101  33.893  28.236  1.00  0.00    -0.460 OA
BRANCH  39  40
ATOM     40  C   UNL A   1      32.935  34.893  28.613  1.00  0.00     0.338 C 
ATOM     41  O   UNL A   1      32.651  36.074  28.729  1.00  0.00    -0.246 OA
BRANCH  40  42
ATOM     42  C   UNL A   1      34.161  34.267  29.179  1.00  0.00     0.060 A 
ATOM     43  C   UNL A   1      34.026  33.171  30.051  1.00  0.00     0.016 A 
ATOM     44  C   UNL A   1      35.431  34.679  28.776  1.00  0.00     0.016 A 
ATOM     45  C   UNL A   1      35.157  32.497  30.526  1.00  0.00     0.010 A 
ATOM     46  C   UNL A   1      36.562  34.023  29.272  1.00  0.00     0.010 A 
ATOM     47  C   UNL A   1      36.435  32.944  30.167  1.00  0.00    -0.014 A 
BRANCH  47  48
ATOM     48  C   UNL A   1      37.643  32.457  30.880  1.00  0.00     0.031 A 
ATOM     49  C   UNL A   1      38.434  31.350  30.237  1.00  0.00     0.074 A 
ATOM     50  C   UNL A   1      38.018  32.935  32.080  1.00  0.00     0.049 A 
ATOM     51  N   UNL A   1      39.428  30.644  30.712  1.00  0.00    -0.248 NA
ATOM     52  C   UNL A   1      38.036  30.986  28.866  1.00  0.00     0.031 C 
ATOM     53  C   UNL A   1      37.378  34.035  32.795  1.00  0.00     0.029 A 
ATOM     54  N   UNL A   1      39.027  32.527  32.922  1.00  0.00    -0.354 N 
ATOM     55  C   UNL A   1      39.761  29.745  29.708  1.00  0.00     0.074 A 
ATOM     56  C   UNL A   1      38.850  29.974  28.609  1.00  0.00     0.031 C 
ATOM     57  C   UNL A   1      37.994  34.199  33.981  1.00  0.00     0.029 A 
ATOM     58  C   UNL A   1      39.043  33.189  34.126  1.00  0.00     0.049 A 
ATOM     59  H   UNL A   1      39.677  31.826  32.684  1.00  0.00     0.167 HD
ATOM     60  C   UNL A   1      40.741  28.810  29.700  1.00  0.00     0.037 A 
ATOM     61  C   UNL A   1      39.792  32.976  35.228  1.00  0.00     0.037 A 
ATOM     62  C   UNL A   1      41.643  28.574  30.795  1.00  0.00     0.049 A 
ATOM     63  C   UNL A   1      40.816  31.864  35.233  1.00  0.00     0.074 A 
ATOM     64  C   UNL A   1      42.679  27.660  30.875  1.00  0.00     0.029 A 
ATOM     65  N   UNL A   1      41.608  29.248  32.006  1.00  0.00    -0.354 N 
ATOM     66  N   UNL A   1      41.143  31.030  34.275  1.00  0.00    -0.248 NA
ATOM     67  C   UNL A   1      41.573  31.660  36.479  1.00  0.00     0.031 C 
ATOM     68  C   UNL A   1      43.232  27.738  32.156  1.00  0.00     0.029 A 
ATOM     69  C   UNL A   1      42.585  28.746  32.852  1.00  0.00     0.049 A 
ATOM     70  H   UNL A   1      40.983  29.973  32.232  1.00  0.00     0.167 HD
ATOM     71  C   UNL A   1      42.160  30.232  34.788  1.00  0.00     0.074 A 
ATOM     72  C   UNL A   1      42.405  30.686  36.139  1.00  0.00     0.031 C 
ATOM     73  C   UNL A   1      42.831  29.215  34.192  1.00  0.00     0.037 A 
BRANCH  60  74
ATOM     74  C   UNL A   1      40.864  27.949  28.478  1.00  0.00     0.064 A 
ATOM     75  C   UNL A   1      41.669  28.319  27.390  1.00  0.00     0.173 A 
ATOM     76  C   UNL A   1      40.184  26.724  28.404  1.00  0.00     0.173 A 
ATOM     77  F   UNL A   1      42.325  29.490  27.403  1.00  0.00    -0.203 F 
ATOM     78  C   UNL A   1      41.766  27.509  26.263  1.00  0.00     0.198 A 
ATOM     79  C   UNL A   1      40.311  25.899  27.290  1.00  0.00     0.198 A 
ATOM     80  F   UNL A   1      39.402  26.322  29.417  1.00  0.00    -0.203 F 
ATOM     81  F   UNL A   1      42.498  27.908  25.213  1.00  0.00    -0.200 F 
ATOM     82  C   UNL A   1      41.094  26.295  26.217  1.00  0.00     0.200 A 
ATOM     83  F   UNL A   1      39.672  24.722  27.253  1.00  0.00    -0.200 F 
ATOM     84  F   UNL A   1      41.195  25.512  25.134  1.00  0.00    -0.200 F 
ENDBRANCH  60  74
BRANCH  61  85
ATOM     85  C   UNL A   1      39.596  33.814  36.443  1.00  0.00     0.064 A 
ATOM     86  C   UNL A   1      40.294  35.018  36.612  1.00  0.00     0.173 A 
ATOM     87  C   UNL A   1      38.741  33.409  37.480  1.00  0.00     0.173 A 
ATOM     88  F   UNL A   1      41.151  35.433  35.667  1.00  0.00    -0.203 F 
ATOM     89  C   UNL A   1      40.161  35.773  37.776  1.00  0.00     0.198 A 
ATOM     90  C   UNL A   1      38.584  34.181  38.629  1.00  0.00     0.198 A 
ATOM     91  F   UNL A   1      38.057  32.260  37.377  1.00  0.00    -0.203 F 
ATOM     92  F   UNL A   1      40.886  36.890  37.934  1.00  0.00    -0.200 F 
ATOM     93  C   UNL A   1      39.301  35.358  38.781  1.00  0.00     0.200 A 
ATOM     94  F   UNL A   1      37.746  33.779  39.595  1.00  0.00    -0.200 F 
ATOM     95  F   UNL A   1      39.174  36.084  39.900  1.00  0.00    -0.200 F 
ENDBRANCH  61  85
BRANCH  73  96
ATOM     96  C   UNL A   1      43.930  28.547  34.970  1.00  0.00     0.064 A 
ATOM     97  C   UNL A   1      45.237  29.055  34.992  1.00  0.00     0.173 A 
ATOM     98  C   UNL A   1      43.654  27.417  35.758  1.00  0.00     0.173 A 
ATOM     99  F   UNL A   1      45.559  30.125  34.248  1.00  0.00    -0.203 F 
ATOM    100  C   UNL A   1      46.230  28.447  35.758  1.00  0.00     0.198 A 
ATOM    101  C   UNL A   1      44.641  26.832  36.547  1.00  0.00     0.198 A 
ATOM    102  F   UNL A   1      42.419  26.894  35.781  1.00  0.00    -0.203 F 
ATOM    103  F   UNL A   1      47.482  28.926  35.731  1.00  0.00    -0.200 F 
ATOM    104  C   UNL A   1      45.929  27.343  36.541  1.00  0.00     0.200 A 
ATOM    105  F   UNL A   1      44.342  25.777  37.318  1.00  0.00    -0.200 F 
ATOM    106  F   UNL A   1      46.882  26.769  37.289  1.00  0.00    -0.200 F 
ENDBRANCH  73  96
ENDBRANCH  47  48
ENDBRANCH  40  42
ENDBRANCH  39  40
ENDBRANCH  38  39
ENDBRANCH  37  38
ENDBRANCH  36  37
ENDBRANCH  35  36
ENDBRANCH  34  35
ENDBRANCH   1  34
TORSDOF 24
ENDMDL
