MODEL 1
REMARK VINA RESULT:     -11.9      0.000      0.000
REMARK SMILES Cc1coc2cc3c(cc12)[C@@H](C)[C@H](CCC(=O)N[C@@H](Cc1c[nH]c2ccccc12)C(=O)OCCOCCOCCOC(=O)c1ccc(-c2c4nc(c(-c5c(F)c(F)c(F)c(F)c5F)c5ccc([nH]5)c(-c5c(F)c(F)c(F)c(F)c5F)c5nc(c(-c6c(F)c(F)c(F)c(F)c6F)c6ccc2[nH]6)C=C5)C=C4)cc1)C(=O)O3
REMARK SMILES IDX 36 1 35 2 34 3 33 4 32 5 30 6 31 7 19 8 18 9 16 10 17 11
REMARK SMILES IDX 15 13 14 14 13 15 1 16 2 17 3 18 10 19 4 20 5 21 9 22 6 23
REMARK SMILES IDX 8 24 7 25 11 26 109 27 12 28 107 29 108 30 20 31 21 32 22 33
REMARK SMILES IDX 29 34 23 35 24 36 28 37 25 39 27 40 26 41 37 42 38 43 39 44
REMARK SMILES IDX 40 45 41 46 42 47 43 48 44 49 45 50 106 51 46 52 105 53
REMARK SMILES IDX 47 54 48 55 49 56 99 57 50 58 104 59 98 60 100 61 51 62
REMARK SMILES IDX 103 63 97 64 96 65 52 67 84 68 64 69 83 70 65 71 68 72 82 73
REMARK SMILES IDX 101 74 66 75 67 76 81 78 102 79 69 80 53 81 54 82 62 83
REMARK SMILES IDX 55 84 56 85 60 86 63 87 57 88 58 89 61 90 59 91 85 92 86 93
REMARK SMILES IDX 94 94 87 95 88 96 92 97 95 98 89 99 90 100 93 101 91 102
REMARK SMILES IDX 70 103 71 104 79 105 72 106 73 107 77 108 80 109 74 110
REMARK SMILES IDX 75 111 78 112 76 113
REMARK H PARENT 18 12 23 38 100 66 68 77
REMARK Flexibility Score: inf
ROOT
ATOM      1  C   UNL A   1      36.811  21.436  24.537  1.00  0.00     0.188 C 
ENDROOT
BRANCH   1   2
ATOM      2  O   UNL A   1      36.204  22.714  24.630  1.00  0.00    -0.376 OA
BRANCH   2   3
ATOM      3  C   UNL A   1      35.958  23.444  23.437  1.00  0.00     0.202 C 
BRANCH   3   4
ATOM      4  C   UNL A   1      34.980  24.607  23.557  1.00  0.00     0.261 C 
BRANCH   4   5
ATOM      5  O   UNL A   1      33.969  24.537  22.530  1.00  0.00    -0.462 OA
BRANCH   5   6
ATOM      6  C   UNL A   1      33.492  25.732  22.104  1.00  0.00     0.329 C 
ATOM      7  O   UNL A   1      33.545  26.114  20.936  1.00  0.00    -0.250 OA
BRANCH   6   8
ATOM      8  C   UNL A   1      32.985  26.664  23.225  1.00  0.00     0.196 C 
BRANCH   8   9
ATOM      9  N   UNL A   1      33.826  27.422  24.215  1.00  0.00    -0.342 N 
ATOM     10  C   UNL A   1      33.740  27.638  25.581  1.00  0.00     0.220 C 
ATOM     11  O   UNL A   1      34.394  28.577  26.051  1.00  0.00    -0.275 OA
ATOM     12  H   UNL A   1      34.607  27.857  23.804  1.00  0.00     0.164 HD
BRANCH  10  13
ATOM     13  C   UNL A   1      32.946  26.737  26.573  1.00  0.00     0.101 C 
BRANCH  13  14
ATOM     14  C   UNL A   1      33.023  25.140  26.536  1.00  0.00     0.026 C 
BRANCH  14  15
ATOM     15  C   UNL A   1      31.805  24.527  25.792  1.00  0.00     0.107 C 
ATOM     16  C   UNL A   1      32.155  18.502  22.454  1.00  0.00     0.048 C 
ATOM     17  C   UNL A   1      33.003  18.854  23.618  1.00  0.00    -0.005 A 
ATOM     18  C   UNL A   1      33.664  18.003  24.479  1.00  0.00     0.199 A 
ATOM     19  C   UNL A   1      33.172  20.154  24.169  1.00  0.00     0.024 A 
ATOM     20  O   UNL A   1      34.096  18.667  25.583  1.00  0.00    -0.464 OA
ATOM     21  C   UNL A   1      33.693  19.958  25.442  1.00  0.00     0.137 A 
ATOM     22  C   UNL A   1      32.766  21.436  23.780  1.00  0.00     0.020 A 
ATOM     23  C   UNL A   1      33.663  20.900  26.461  1.00  0.00     0.095 A 
ATOM     24  C   UNL A   1      32.614  22.374  24.804  1.00  0.00    -0.001 A 
ATOM     25  C   UNL A   1      32.931  22.028  26.125  1.00  0.00     0.138 A 
ATOM     26  C   UNL A   1      31.705  23.548  24.600  1.00  0.00     0.034 C 
ATOM     27  O   UNL A   1      32.197  22.636  27.180  1.00  0.00    -0.426 OA
ATOM     28  C   UNL A   1      30.301  22.822  24.554  1.00  0.00     0.014 C 
ATOM     29  C   UNL A   1      31.294  23.619  26.802  1.00  0.00     0.314 C 
ATOM     30  O   UNL A   1      30.149  23.764  27.195  1.00  0.00    -0.251 OA
ENDBRANCH  14  15
ENDBRANCH  13  14
ENDBRANCH  10  13
ENDBRANCH   8   9
BRANCH   8  31
ATOM     31  C   UNL A   1      32.047  27.588  22.392  1.00  0.00     0.074 C 
BRANCH  31  32
ATOM     32  C   UNL A   1      30.604  27.585  22.730  1.00  0.00    -0.020 A 
ATOM     33  C   UNL A   1      29.934  26.608  23.431  1.00  0.00     0.087 A 
ATOM     34  C   UNL A   1      29.712  28.677  22.536  1.00  0.00     0.003 A 
ATOM     35  N   UNL A   1      28.666  27.061  23.657  1.00  0.00    -0.361 N 
ATOM     36  C   UNL A   1      28.500  28.314  23.112  1.00  0.00     0.046 A 
ATOM     37  C   UNL A   1      29.834  29.956  21.959  1.00  0.00     0.010 A 
ATOM     38  H   UNL A   1      27.969  26.562  24.141  1.00  0.00     0.166 HD
ATOM     39  C   UNL A   1      27.391  29.165  23.104  1.00  0.00     0.026 A 
ATOM     40  C   UNL A   1      28.734  30.809  21.918  1.00  0.00     0.001 A 
ATOM     41  C   UNL A   1      27.529  30.413  22.482  1.00  0.00     0.002 A 
ENDBRANCH  31  32
ENDBRANCH   8  31
ENDBRANCH   6   8
ENDBRANCH   5   6
ENDBRANCH   4   5
ENDBRANCH   3   4
ENDBRANCH   2   3
ENDBRANCH   1   2
BRANCH   1  42
ATOM     42  C   UNL A   1      37.862  21.013  25.581  1.00  0.00     0.188 C 
BRANCH  42  43
ATOM     43  O   UNL A   1      39.035  21.788  25.730  1.00  0.00    -0.376 OA
BRANCH  43  44
ATOM     44  C   UNL A   1      40.160  21.106  26.267  1.00  0.00     0.202 C 
BRANCH  44  45
ATOM     45  C   UNL A   1      40.642  21.626  27.631  1.00  0.00     0.261 C 
BRANCH  45  46
ATOM     46  O   UNL A   1      42.080  21.495  27.756  1.00  0.00    -0.460 OA
BRANCH  46  47
ATOM     47  C   UNL A   1      42.806  22.405  27.057  1.00  0.00     0.338 C 
ATOM     48  O   UNL A   1      43.534  22.153  26.107  1.00  0.00    -0.246 OA
BRANCH  47  49
ATOM     49  C   UNL A   1      42.298  23.781  27.351  1.00  0.00     0.060 A 
ATOM     50  C   UNL A   1      41.513  24.566  26.491  1.00  0.00     0.016 A 
ATOM     51  C   UNL A   1      42.789  24.364  28.515  1.00  0.00     0.016 A 
ATOM     52  C   UNL A   1      41.294  25.947  26.757  1.00  0.00     0.010 A 
ATOM     53  C   UNL A   1      42.540  25.712  28.781  1.00  0.00     0.010 A 
ATOM     54  C   UNL A   1      41.840  26.552  27.894  1.00  0.00    -0.014 A 
BRANCH  54  55
ATOM     55  C   UNL A   1      41.445  27.883  28.436  1.00  0.00     0.031 A 
ATOM     56  C   UNL A   1      42.288  28.946  27.876  1.00  0.00     0.074 A 
ATOM     57  C   UNL A   1      40.584  28.356  29.379  1.00  0.00     0.049 A 
ATOM     58  N   UNL A   1      43.283  29.438  28.535  1.00  0.00    -0.248 NA
ATOM     59  C   UNL A   1      42.132  29.446  26.513  1.00  0.00     0.031 C 
ATOM     60  C   UNL A   1      39.838  27.598  30.370  1.00  0.00     0.029 A 
ATOM     61  N   UNL A   1      40.174  29.677  29.633  1.00  0.00    -0.354 N 
ATOM     62  C   UNL A   1      43.734  30.480  27.771  1.00  0.00     0.074 A 
ATOM     63  C   UNL A   1      43.142  30.319  26.464  1.00  0.00     0.031 C 
ATOM     64  C   UNL A   1      39.006  28.427  31.049  1.00  0.00     0.029 A 
ATOM     65  C   UNL A   1      39.102  29.791  30.517  1.00  0.00     0.049 A 
ATOM     66  H   UNL A   1      40.609  30.457  29.221  1.00  0.00     0.167 HD
ATOM     67  C   UNL A   1      44.310  31.548  28.375  1.00  0.00     0.037 A 
ATOM     68  C   UNL A   1      38.574  30.851  31.197  1.00  0.00     0.037 A 
ATOM     69  C   UNL A   1      44.583  31.334  29.777  1.00  0.00     0.049 A 
ATOM     70  C   UNL A   1      39.661  31.628  31.801  1.00  0.00     0.074 A 
ATOM     71  C   UNL A   1      45.552  30.714  30.537  1.00  0.00     0.029 A 
ATOM     72  N   UNL A   1      43.521  31.553  30.611  1.00  0.00    -0.354 N 
ATOM     73  N   UNL A   1      40.337  31.222  32.832  1.00  0.00    -0.248 NA
ATOM     74  C   UNL A   1      40.152  32.846  31.155  1.00  0.00     0.031 C 
ATOM     75  C   UNL A   1      45.038  30.581  31.865  1.00  0.00     0.029 A 
ATOM     76  C   UNL A   1      43.764  31.120  31.892  1.00  0.00     0.049 A 
ATOM     77  H   UNL A   1      42.678  31.973  30.325  1.00  0.00     0.167 HD
ATOM     78  C   UNL A   1      41.558  31.828  32.650  1.00  0.00     0.074 A 
ATOM     79  C   UNL A   1      41.332  32.955  31.764  1.00  0.00     0.031 C 
ATOM     80  C   UNL A   1      42.678  31.082  32.830  1.00  0.00     0.037 A 
BRANCH  67  81
ATOM     81  C   UNL A   1      44.260  32.919  27.786  1.00  0.00     0.064 A 
ATOM     82  C   UNL A   1      45.318  33.371  26.987  1.00  0.00     0.173 A 
ATOM     83  C   UNL A   1      43.299  33.883  28.160  1.00  0.00     0.173 A 
ATOM     84  F   UNL A   1      46.316  32.542  26.648  1.00  0.00    -0.203 F 
ATOM     85  C   UNL A   1      45.394  34.699  26.565  1.00  0.00     0.198 A 
ATOM     86  C   UNL A   1      43.340  35.188  27.684  1.00  0.00     0.198 A 
ATOM     87  F   UNL A   1      42.351  33.613  29.070  1.00  0.00    -0.203 F 
ATOM     88  F   UNL A   1      46.458  35.114  25.867  1.00  0.00    -0.200 F 
ATOM     89  C   UNL A   1      44.395  35.601  26.897  1.00  0.00     0.200 A 
ATOM     90  F   UNL A   1      42.381  36.054  28.043  1.00  0.00    -0.200 F 
ATOM     91  F   UNL A   1      44.473  36.877  26.499  1.00  0.00    -0.200 F 
ENDBRANCH  67  81
BRANCH  68  92
ATOM     92  C   UNL A   1      37.335  31.603  30.856  1.00  0.00     0.064 A 
ATOM     93  C   UNL A   1      37.172  32.138  29.566  1.00  0.00     0.173 A 
ATOM     94  C   UNL A   1      36.264  31.765  31.748  1.00  0.00     0.173 A 
ATOM     95  F   UNL A   1      38.135  31.973  28.647  1.00  0.00    -0.203 F 
ATOM     96  C   UNL A   1      36.024  32.851  29.206  1.00  0.00     0.198 A 
ATOM     97  C   UNL A   1      35.125  32.499  31.396  1.00  0.00     0.198 A 
ATOM     98  F   UNL A   1      36.339  31.251  32.984  1.00  0.00    -0.203 F 
ATOM     99  F   UNL A   1      35.902  33.352  27.968  1.00  0.00    -0.200 F 
ATOM    100  C   UNL A   1      35.008  33.048  30.128  1.00  0.00     0.200 A 
ATOM    101  F   UNL A   1      34.161  32.710  32.304  1.00  0.00    -0.200 F 
ATOM    102  F   UNL A   1      33.926  33.769  29.801  1.00  0.00    -0.200 F 
ENDBRANCH  68  92
BRANCH  80 103
ATOM    103  C   UNL A   1      42.542  30.026  33.869  1.00  0.00     0.064 A 
ATOM    104  C   UNL A   1      42.107  28.724  33.582  1.00  0.00     0.173 A 
ATOM    105  C   UNL A   1      42.726  30.378  35.210  1.00  0.00     0.173 A 
ATOM    106  F   UNL A   1      41.938  28.330  32.314  1.00  0.00    -0.203 F 
ATOM    107  C   UNL A   1      41.828  27.822  34.607  1.00  0.00     0.198 A 
ATOM    108  C   UNL A   1      42.478  29.465  36.230  1.00  0.00     0.198 A 
ATOM    109  F   UNL A   1      43.137  31.615  35.528  1.00  0.00    -0.203 F 
ATOM    110  F   UNL A   1      41.372  26.594  34.319  1.00  0.00    -0.200 F 
ATOM    111  C   UNL A   1      42.017  28.192  35.930  1.00  0.00     0.200 A 
ATOM    112  F   UNL A   1      42.679  29.822  37.507  1.00  0.00    -0.200 F 
ATOM    113  F   UNL A   1      41.761  27.322  36.918  1.00  0.00    -0.200 F 
ENDBRANCH  80 103
ENDBRANCH  54  55
ENDBRANCH  47  49
ENDBRANCH  46  47
ENDBRANCH  45  46
ENDBRANCH  44  45
ENDBRANCH  43  44
ENDBRANCH  42  43
ENDBRANCH   1  42
TORSDOF 23
ENDMDL
MODEL 2
REMARK VINA RESULT:     -11.4      6.470     13.456
REMARK SMILES Cc1coc2cc3c(cc12)[C@@H](C)[C@H](CCC(=O)N[C@@H](Cc1c[nH]c2ccccc12)C(=O)OCCOCCOCCOC(=O)c1ccc(-c2c4nc(c(-c5c(F)c(F)c(F)c(F)c5F)c5ccc([nH]5)c(-c5c(F)c(F)c(F)c(F)c5F)c5nc(c(-c6c(F)c(F)c(F)c(F)c6F)c6ccc2[nH]6)C=C5)C=C4)cc1)C(=O)O3
REMARK SMILES IDX 36 1 35 2 34 3 33 4 32 5 30 6 31 7 19 8 18 9 16 10 17 11
REMARK SMILES IDX 15 13 14 14 13 15 1 16 2 17 3 18 10 19 4 20 5 21 9 22 6 23
REMARK SMILES IDX 8 24 7 25 11 26 109 27 12 28 107 29 108 30 20 31 21 32 22 33
REMARK SMILES IDX 29 34 23 35 24 36 28 37 25 39 27 40 26 41 37 42 38 43 39 44
REMARK SMILES IDX 40 45 41 46 42 47 43 48 44 49 45 50 106 51 46 52 105 53
REMARK SMILES IDX 47 54 48 55 49 56 99 57 50 58 104 59 98 60 100 61 51 62
REMARK SMILES IDX 103 63 97 64 96 65 52 67 84 68 64 69 83 70 65 71 68 72 82 73
REMARK SMILES IDX 101 74 66 75 67 76 81 78 102 79 69 80 53 81 54 82 62 83
REMARK SMILES IDX 55 84 56 85 60 86 63 87 57 88 58 89 61 90 59 91 85 92 86 93
REMARK SMILES IDX 94 94 87 95 88 96 92 97 95 98 89 99 90 100 93 101 91 102
REMARK SMILES IDX 70 103 71 104 79 105 72 106 73 107 77 108 80 109 74 110
REMARK SMILES IDX 75 111 78 112 76 113
REMARK H PARENT 18 12 23 38 100 66 68 77
REMARK Flexibility Score: inf
ROOT
ATOM      1  C   UNL A   1      34.852  34.565  34.077  1.00  0.00     0.188 C 
ENDROOT
BRANCH   1   2
ATOM      2  O   UNL A   1      35.508  33.397  34.540  1.00  0.00    -0.376 OA
BRANCH   2   3
ATOM      3  C   UNL A   1      36.799  33.520  35.119  1.00  0.00     0.202 C 
BRANCH   3   4
ATOM      4  C   UNL A   1      37.878  32.611  34.542  1.00  0.00     0.261 C 
BRANCH   4   5
ATOM      5  O   UNL A   1      38.734  32.102  35.586  1.00  0.00    -0.462 OA
BRANCH   5   6
ATOM      6  C   UNL A   1      40.062  32.293  35.392  1.00  0.00     0.329 C 
ATOM      7  O   UNL A   1      40.897  31.391  35.435  1.00  0.00    -0.250 OA
BRANCH   6   8
ATOM      8  C   UNL A   1      40.489  33.768  35.241  1.00  0.00     0.196 C 
BRANCH   8   9
ATOM      9  N   UNL A   1      40.346  34.856  36.270  1.00  0.00    -0.342 N 
ATOM     10  C   UNL A   1      39.703  34.941  37.496  1.00  0.00     0.220 C 
ATOM     11  O   UNL A   1      39.488  36.071  37.948  1.00  0.00    -0.275 OA
ATOM     12  H   UNL A   1      40.809  35.687  36.020  1.00  0.00     0.164 HD
BRANCH  10  13
ATOM     13  C   UNL A   1      39.309  33.717  38.375  1.00  0.00     0.101 C 
BRANCH  13  14
ATOM     14  C   UNL A   1      37.787  33.318  38.663  1.00  0.00     0.026 C 
BRANCH  14  15
ATOM     15  C   UNL A   1      37.664  32.404  39.912  1.00  0.00     0.107 C 
ATOM     16  C   UNL A   1      32.588  33.111  44.528  1.00  0.00     0.048 C 
ATOM     17  C   UNL A   1      32.466  33.487  43.099  1.00  0.00    -0.005 A 
ATOM     18  C   UNL A   1      31.316  33.631  42.351  1.00  0.00     0.199 A 
ATOM     19  C   UNL A   1      33.537  33.623  42.174  1.00  0.00     0.024 A 
ATOM     20  O   UNL A   1      31.604  33.697  41.025  1.00  0.00    -0.464 OA
ATOM     21  C   UNL A   1      32.954  33.577  40.914  1.00  0.00     0.137 A 
ATOM     22  C   UNL A   1      34.931  33.594  42.289  1.00  0.00     0.020 A 
ATOM     23  C   UNL A   1      33.636  33.298  39.737  1.00  0.00     0.095 A 
ATOM     24  C   UNL A   1      35.639  33.201  41.150  1.00  0.00    -0.001 A 
ATOM     25  C   UNL A   1      34.953  32.929  39.959  1.00  0.00     0.138 A 
ATOM     26  C   UNL A   1      37.016  32.628  41.299  1.00  0.00     0.034 C 
ATOM     27  O   UNL A   1      35.484  31.945  39.081  1.00  0.00    -0.426 OA
ATOM     28  C   UNL A   1      36.682  31.258  42.016  1.00  0.00     0.014 C 
ATOM     29  C   UNL A   1      36.715  31.415  39.438  1.00  0.00     0.314 C 
ATOM     30  O   UNL A   1      37.049  30.242  39.424  1.00  0.00    -0.251 OA
ENDBRANCH  14  15
ENDBRANCH  13  14
ENDBRANCH  10  13
ENDBRANCH   8   9
BRANCH   8  31
ATOM     31  C   UNL A   1      41.959  33.568  34.770  1.00  0.00     0.074 C 
BRANCH  31  32
ATOM     32  C   UNL A   1      42.460  34.449  33.690  1.00  0.00    -0.020 A 
ATOM     33  C   UNL A   1      43.400  35.446  33.822  1.00  0.00     0.087 A 
ATOM     34  C   UNL A   1      42.179  34.292  32.303  1.00  0.00     0.003 A 
ATOM     35  N   UNL A   1      43.689  35.908  32.570  1.00  0.00    -0.361 N 
ATOM     36  C   UNL A   1      42.950  35.230  31.626  1.00  0.00     0.046 A 
ATOM     37  C   UNL A   1      41.370  33.412  31.557  1.00  0.00     0.010 A 
ATOM     38  H   UNL A   1      44.333  36.625  32.370  1.00  0.00     0.166 HD
ATOM     39  C   UNL A   1      42.919  35.350  30.234  1.00  0.00     0.026 A 
ATOM     40  C   UNL A   1      41.305  33.531  30.171  1.00  0.00     0.001 A 
ATOM     41  C   UNL A   1      42.070  34.492  29.522  1.00  0.00     0.002 A 
ENDBRANCH  31  32
ENDBRANCH   8  31
ENDBRANCH   6   8
ENDBRANCH   5   6
ENDBRANCH   4   5
ENDBRANCH   3   4
ENDBRANCH   2   3
ENDBRANCH   1   2
BRANCH   1  42
ATOM     42  C   UNL A   1      35.456  35.365  32.906  1.00  0.00     0.188 C 
BRANCH  42  43
ATOM     43  O   UNL A   1      34.643  35.674  31.792  1.00  0.00    -0.376 OA
BRANCH  43  44
ATOM     44  C   UNL A   1      33.810  34.622  31.325  1.00  0.00     0.202 C 
BRANCH  44  45
ATOM     45  C   UNL A   1      34.552  33.466  30.636  1.00  0.00     0.261 C 
BRANCH  45  46
ATOM     46  O   UNL A   1      35.580  33.967  29.748  1.00  0.00    -0.460 OA
BRANCH  46  47
ATOM     47  C   UNL A   1      35.605  33.402  28.513  1.00  0.00     0.338 C 
ATOM     48  O   UNL A   1      35.173  33.914  27.490  1.00  0.00    -0.246 OA
BRANCH  47  49
ATOM     49  C   UNL A   1      36.571  32.259  28.508  1.00  0.00     0.060 A 
ATOM     50  C   UNL A   1      36.307  30.965  28.030  1.00  0.00     0.016 A 
ATOM     51  C   UNL A   1      37.769  32.485  29.178  1.00  0.00     0.016 A 
ATOM     52  C   UNL A   1      37.200  29.891  28.298  1.00  0.00     0.010 A 
ATOM     53  C   UNL A   1      38.652  31.429  29.406  1.00  0.00     0.010 A 
ATOM     54  C   UNL A   1      38.375  30.102  29.027  1.00  0.00    -0.014 A 
BRANCH  54  55
ATOM     55  C   UNL A   1      39.519  29.150  29.114  1.00  0.00     0.031 A 
ATOM     56  C   UNL A   1      39.795  28.791  30.511  1.00  0.00     0.074 A 
ATOM     57  C   UNL A   1      40.429  28.608  28.258  1.00  0.00     0.049 A 
ATOM     58  N   UNL A   1      40.750  29.350  31.176  1.00  0.00    -0.248 NA
ATOM     59  C   UNL A   1      38.958  27.868  31.273  1.00  0.00     0.031 C 
ATOM     60  C   UNL A   1      40.689  28.980  26.877  1.00  0.00     0.029 A 
ATOM     61  N   UNL A   1      41.331  27.550  28.464  1.00  0.00    -0.354 N 
ATOM     62  C   UNL A   1      40.794  28.676  32.367  1.00  0.00     0.074 A 
ATOM     63  C   UNL A   1      39.562  27.928  32.463  1.00  0.00     0.031 C 
ATOM     64  C   UNL A   1      41.593  28.127  26.336  1.00  0.00     0.029 A 
ATOM     65  C   UNL A   1      41.958  27.089  27.308  1.00  0.00     0.049 A 
ATOM     66  H   UNL A   1      41.507  27.167  29.353  1.00  0.00     0.167 HD
ATOM     67  C   UNL A   1      41.974  28.556  33.021  1.00  0.00     0.037 A 
ATOM     68  C   UNL A   1      43.039  26.280  27.102  1.00  0.00     0.037 A 
ATOM     69  C   UNL A   1      43.023  29.378  32.464  1.00  0.00     0.049 A 
ATOM     70  C   UNL A   1      44.126  26.688  27.997  1.00  0.00     0.074 A 
ATOM     71  C   UNL A   1      43.420  30.697  32.532  1.00  0.00     0.029 A 
ATOM     72  N   UNL A   1      43.671  28.836  31.388  1.00  0.00    -0.354 N 
ATOM     73  N   UNL A   1      44.822  27.770  27.822  1.00  0.00    -0.248 NA
ATOM     74  C   UNL A   1      44.371  25.966  29.246  1.00  0.00     0.031 C 
ATOM     75  C   UNL A   1      44.343  30.925  31.464  1.00  0.00     0.029 A 
ATOM     76  C   UNL A   1      44.493  29.742  30.762  1.00  0.00     0.049 A 
ATOM     77  H   UNL A   1      43.561  27.903  31.096  1.00  0.00     0.167 HD
ATOM     78  C   UNL A   1      45.196  28.099  29.104  1.00  0.00     0.074 A 
ATOM     79  C   UNL A   1      45.093  26.882  29.889  1.00  0.00     0.031 C 
ATOM     80  C   UNL A   1      45.074  29.393  29.496  1.00  0.00     0.037 A 
BRANCH  67  81
ATOM     81  C   UNL A   1      42.276  27.398  33.914  1.00  0.00     0.064 A 
ATOM     82  C   UNL A   1      41.917  27.452  35.267  1.00  0.00     0.173 A 
ATOM     83  C   UNL A   1      43.101  26.321  33.526  1.00  0.00     0.173 A 
ATOM     84  F   UNL A   1      41.199  28.481  35.739  1.00  0.00    -0.203 F 
ATOM     85  C   UNL A   1      42.337  26.473  36.170  1.00  0.00     0.198 A 
ATOM     86  C   UNL A   1      43.461  25.311  34.411  1.00  0.00     0.198 A 
ATOM     87  F   UNL A   1      43.659  26.267  32.307  1.00  0.00    -0.203 F 
ATOM     88  F   UNL A   1      42.039  26.598  37.469  1.00  0.00    -0.200 F 
ATOM     89  C   UNL A   1      43.090  25.394  35.737  1.00  0.00     0.200 A 
ATOM     90  F   UNL A   1      44.219  24.292  33.980  1.00  0.00    -0.200 F 
ATOM     91  F   UNL A   1      43.498  24.459  36.605  1.00  0.00    -0.200 F 
ENDBRANCH  67  81
BRANCH  68  92
ATOM     92  C   UNL A   1      43.017  24.847  26.700  1.00  0.00     0.064 A 
ATOM     93  C   UNL A   1      43.693  24.434  25.538  1.00  0.00     0.173 A 
ATOM     94  C   UNL A   1      42.398  23.844  27.462  1.00  0.00     0.173 A 
ATOM     95  F   UNL A   1      44.351  25.333  24.792  1.00  0.00    -0.203 F 
ATOM     96  C   UNL A   1      43.696  23.097  25.126  1.00  0.00     0.198 A 
ATOM     97  C   UNL A   1      42.381  22.510  27.037  1.00  0.00     0.198 A 
ATOM     98  F   UNL A   1      41.765  24.163  28.600  1.00  0.00    -0.203 F 
ATOM     99  F   UNL A   1      44.346  22.737  24.010  1.00  0.00    -0.200 F 
ATOM    100  C   UNL A   1      43.024  22.138  25.867  1.00  0.00     0.200 A 
ATOM    101  F   UNL A   1      41.703  21.594  27.744  1.00  0.00    -0.200 F 
ATOM    102  F   UNL A   1      42.987  20.864  25.452  1.00  0.00    -0.200 F 
ENDBRANCH  68  92
BRANCH  80 103
ATOM    103  C   UNL A   1      45.288  30.380  28.405  1.00  0.00     0.064 A 
ATOM    104  C   UNL A   1      46.558  30.703  27.905  1.00  0.00     0.173 A 
ATOM    105  C   UNL A   1      44.193  31.120  27.946  1.00  0.00     0.173 A 
ATOM    106  F   UNL A   1      47.635  30.010  28.295  1.00  0.00    -0.203 F 
ATOM    107  C   UNL A   1      46.726  31.756  27.008  1.00  0.00     0.198 A 
ATOM    108  C   UNL A   1      44.359  32.150  27.026  1.00  0.00     0.198 A 
ATOM    109  F   UNL A   1      42.962  30.846  28.403  1.00  0.00    -0.203 F 
ATOM    110  F   UNL A   1      47.952  32.081  26.572  1.00  0.00    -0.200 F 
ATOM    111  C   UNL A   1      45.626  32.476  26.567  1.00  0.00     0.200 A 
ATOM    112  F   UNL A   1      43.291  32.832  26.589  1.00  0.00    -0.200 F 
ATOM    113  F   UNL A   1      45.784  33.483  25.695  1.00  0.00    -0.200 F 
ENDBRANCH  80 103
ENDBRANCH  54  55
ENDBRANCH  47  49
ENDBRANCH  46  47
ENDBRANCH  45  46
ENDBRANCH  44  45
ENDBRANCH  43  44
ENDBRANCH  42  43
ENDBRANCH   1  42
TORSDOF 23
ENDMDL
MODEL 3
REMARK VINA RESULT:     -11.3      3.367      6.544
REMARK SMILES Cc1coc2cc3c(cc12)[C@@H](C)[C@H](CCC(=O)N[C@@H](Cc1c[nH]c2ccccc12)C(=O)OCCOCCOCCOC(=O)c1ccc(-c2c4nc(c(-c5c(F)c(F)c(F)c(F)c5F)c5ccc([nH]5)c(-c5c(F)c(F)c(F)c(F)c5F)c5nc(c(-c6c(F)c(F)c(F)c(F)c6F)c6ccc2[nH]6)C=C5)C=C4)cc1)C(=O)O3
REMARK SMILES IDX 36 1 35 2 34 3 33 4 32 5 30 6 31 7 19 8 18 9 16 10 17 11
REMARK SMILES IDX 15 13 14 14 13 15 1 16 2 17 3 18 10 19 4 20 5 21 9 22 6 23
REMARK SMILES IDX 8 24 7 25 11 26 109 27 12 28 107 29 108 30 20 31 21 32 22 33
REMARK SMILES IDX 29 34 23 35 24 36 28 37 25 39 27 40 26 41 37 42 38 43 39 44
REMARK SMILES IDX 40 45 41 46 42 47 43 48 44 49 45 50 106 51 46 52 105 53
REMARK SMILES IDX 47 54 48 55 49 56 99 57 50 58 104 59 98 60 100 61 51 62
REMARK SMILES IDX 103 63 97 64 96 65 52 67 84 68 64 69 83 70 65 71 68 72 82 73
REMARK SMILES IDX 101 74 66 75 67 76 81 78 102 79 69 80 53 81 54 82 62 83
REMARK SMILES IDX 55 84 56 85 60 86 63 87 57 88 58 89 61 90 59 91 85 92 86 93
REMARK SMILES IDX 94 94 87 95 88 96 92 97 95 98 89 99 90 100 93 101 91 102
REMARK SMILES IDX 70 103 71 104 79 105 72 106 73 107 77 108 80 109 74 110
REMARK SMILES IDX 75 111 78 112 76 113
REMARK H PARENT 18 12 23 38 100 66 68 77
REMARK Flexibility Score: inf
ROOT
ATOM      1  C   UNL A   1      39.307  27.037  28.366  1.00  0.00     0.188 C 
ENDROOT
BRANCH   1   2
ATOM      2  O   UNL A   1      39.062  28.427  28.231  1.00  0.00    -0.376 OA
BRANCH   2   3
ATOM      3  C   UNL A   1      37.852  28.963  28.743  1.00  0.00     0.202 C 
BRANCH   3   4
ATOM      4  C   UNL A   1      36.810  29.366  27.707  1.00  0.00     0.261 C 
BRANCH   4   5
ATOM      5  O   UNL A   1      35.480  29.308  28.263  1.00  0.00    -0.462 OA
BRANCH   5   6
ATOM      6  C   UNL A   1      34.486  29.716  27.436  1.00  0.00     0.329 C 
ATOM      7  O   UNL A   1      34.032  30.859  27.423  1.00  0.00    -0.250 OA
BRANCH   6   8
ATOM      8  C   UNL A   1      33.853  28.597  26.584  1.00  0.00     0.196 C 
BRANCH   8   9
ATOM      9  N   UNL A   1      32.495  27.978  26.776  1.00  0.00    -0.342 N 
ATOM     10  C   UNL A   1      31.970  26.719  26.529  1.00  0.00     0.220 C 
ATOM     11  O   UNL A   1      30.739  26.615  26.483  1.00  0.00    -0.275 OA
ATOM     12  H   UNL A   1      31.838  28.600  27.162  1.00  0.00     0.164 HD
BRANCH  10  13
ATOM     13  C   UNL A   1      32.816  25.418  26.388  1.00  0.00     0.101 C 
BRANCH  13  14
ATOM     14  C   UNL A   1      32.895  24.585  25.026  1.00  0.00     0.026 C 
BRANCH  14  15
ATOM     15  C   UNL A   1      34.290  23.928  24.839  1.00  0.00     0.107 C 
ATOM     16  C   UNL A   1      35.159  17.089  24.625  1.00  0.00     0.048 C 
ATOM     17  C   UNL A   1      33.912  17.778  24.213  1.00  0.00    -0.005 A 
ATOM     18  C   UNL A   1      32.919  17.315  23.376  1.00  0.00     0.199 A 
ATOM     19  C   UNL A   1      33.575  19.132  24.486  1.00  0.00     0.024 A 
ATOM     20  O   UNL A   1      32.087  18.323  23.005  1.00  0.00    -0.464 OA
ATOM     21  C   UNL A   1      32.559  19.453  23.594  1.00  0.00     0.137 A 
ATOM     22  C   UNL A   1      34.153  20.142  25.263  1.00  0.00     0.020 A 
ATOM     23  C   UNL A   1      32.190  20.746  23.249  1.00  0.00     0.095 A 
ATOM     24  C   UNL A   1      33.894  21.456  24.865  1.00  0.00    -0.001 A 
ATOM     25  C   UNL A   1      33.037  21.704  23.784  1.00  0.00     0.138 A 
ATOM     26  C   UNL A   1      34.847  22.546  25.253  1.00  0.00     0.034 C 
ATOM     27  O   UNL A   1      33.280  22.848  22.976  1.00  0.00    -0.426 OA
ATOM     28  C   UNL A   1      36.111  22.143  24.393  1.00  0.00     0.014 C 
ATOM     29  C   UNL A   1      34.293  23.691  23.408  1.00  0.00     0.314 C 
ATOM     30  O   UNL A   1      35.170  24.202  22.732  1.00  0.00    -0.251 OA
ENDBRANCH  14  15
ENDBRANCH  13  14
ENDBRANCH  10  13
ENDBRANCH   8   9
BRANCH   8  31
ATOM     31  C   UNL A   1      34.045  29.209  25.165  1.00  0.00     0.074 C 
BRANCH  31  32
ATOM     32  C   UNL A   1      33.253  28.629  24.054  1.00  0.00    -0.020 A 
ATOM     33  C   UNL A   1      33.657  27.626  23.203  1.00  0.00     0.087 A 
ATOM     34  C   UNL A   1      31.878  28.895  23.798  1.00  0.00     0.003 A 
ATOM     35  N   UNL A   1      32.584  27.283  22.432  1.00  0.00    -0.361 N 
ATOM     36  C   UNL A   1      31.490  28.049  22.766  1.00  0.00     0.046 A 
ATOM     37  C   UNL A   1      30.917  29.748  24.374  1.00  0.00     0.010 A 
ATOM     38  H   UNL A   1      32.592  26.588  21.736  1.00  0.00     0.166 HD
ATOM     39  C   UNL A   1      30.187  28.046  22.260  1.00  0.00     0.026 A 
ATOM     40  C   UNL A   1      29.620  29.779  23.869  1.00  0.00     0.001 A 
ATOM     41  C   UNL A   1      29.265  28.938  22.822  1.00  0.00     0.002 A 
ENDBRANCH  31  32
ENDBRANCH   8  31
ENDBRANCH   6   8
ENDBRANCH   5   6
ENDBRANCH   4   5
ENDBRANCH   3   4
ENDBRANCH   2   3
ENDBRANCH   1   2
BRANCH   1  42
ATOM     42  C   UNL A   1      40.651  26.450  27.892  1.00  0.00     0.188 C 
BRANCH  42  43
ATOM     43  O   UNL A   1      41.699  26.288  28.826  1.00  0.00    -0.376 OA
BRANCH  43  44
ATOM     44  C   UNL A   1      42.604  25.226  28.559  1.00  0.00     0.202 C 
BRANCH  44  45
ATOM     45  C   UNL A   1      43.922  25.284  29.346  1.00  0.00     0.261 C 
BRANCH  45  46
ATOM     46  O   UNL A   1      43.719  24.891  30.726  1.00  0.00    -0.460 OA
BRANCH  46  47
ATOM     47  C   UNL A   1      44.512  25.521  31.630  1.00  0.00     0.338 C 
ATOM     48  O   UNL A   1      45.736  25.497  31.639  1.00  0.00    -0.246 OA
BRANCH  47  49
ATOM     49  C   UNL A   1      43.713  26.552  32.364  1.00  0.00     0.060 A 
ATOM     50  C   UNL A   1      43.192  26.415  33.660  1.00  0.00     0.016 A 
ATOM     51  C   UNL A   1      43.341  27.663  31.614  1.00  0.00     0.016 A 
ATOM     52  C   UNL A   1      42.240  27.344  34.167  1.00  0.00     0.010 A 
ATOM     53  C   UNL A   1      42.431  28.585  32.136  1.00  0.00     0.010 A 
ATOM     54  C   UNL A   1      41.815  28.428  33.391  1.00  0.00    -0.014 A 
BRANCH  54  55
ATOM     55  C   UNL A   1      41.072  29.614  33.903  1.00  0.00     0.031 A 
ATOM     56  C   UNL A   1      40.031  30.027  32.954  1.00  0.00     0.074 A 
ATOM     57  C   UNL A   1      41.169  30.468  34.960  1.00  0.00     0.049 A 
ATOM     58  N   UNL A   1      40.210  31.012  32.140  1.00  0.00    -0.248 NA
ATOM     59  C   UNL A   1      38.774  29.301  32.791  1.00  0.00     0.031 C 
ATOM     60  C   UNL A   1      42.258  30.590  35.915  1.00  0.00     0.029 A 
ATOM     61  N   UNL A   1      40.252  31.430  35.419  1.00  0.00    -0.354 N 
ATOM     62  C   UNL A   1      39.000  31.190  31.525  1.00  0.00     0.074 A 
ATOM     63  C   UNL A   1      38.221  30.004  31.798  1.00  0.00     0.031 C 
ATOM     64  C   UNL A   1      41.922  31.479  36.882  1.00  0.00     0.029 A 
ATOM     65  C   UNL A   1      40.556  31.972  36.666  1.00  0.00     0.049 A 
ATOM     66  H   UNL A   1      39.460  31.699  34.901  1.00  0.00     0.167 HD
ATOM     67  C   UNL A   1      38.641  32.427  31.106  1.00  0.00     0.037 A 
ATOM     68  C   UNL A   1      40.088  33.064  37.339  1.00  0.00     0.037 A 
ATOM     69  C   UNL A   1      39.719  33.386  31.165  1.00  0.00     0.049 A 
ATOM     70  C   UNL A   1      40.027  34.207  36.422  1.00  0.00     0.074 A 
ATOM     71  C   UNL A   1      40.812  33.730  30.398  1.00  0.00     0.029 A 
ATOM     72  N   UNL A   1      39.913  33.960  32.392  1.00  0.00    -0.354 N 
ATOM     73  N   UNL A   1      41.081  34.838  36.004  1.00  0.00    -0.248 NA
ATOM     74  C   UNL A   1      38.762  34.592  35.796  1.00  0.00     0.031 C 
ATOM     75  C   UNL A   1      41.665  34.546  31.205  1.00  0.00     0.029 A 
ATOM     76  C   UNL A   1      41.080  34.684  32.451  1.00  0.00     0.049 A 
ATOM     77  H   UNL A   1      39.288  33.865  33.146  1.00  0.00     0.167 HD
ATOM     78  C   UNL A   1      40.683  35.309  34.774  1.00  0.00     0.074 A 
ATOM     79  C   UNL A   1      39.232  35.328  34.790  1.00  0.00     0.031 C 
ATOM     80  C   UNL A   1      41.533  35.166  33.725  1.00  0.00     0.037 A 
BRANCH  67  81
ATOM     81  C   UNL A   1      37.213  32.856  31.020  1.00  0.00     0.064 A 
ATOM     82  C   UNL A   1      36.668  33.211  29.779  1.00  0.00     0.173 A 
ATOM     83  C   UNL A   1      36.423  33.133  32.156  1.00  0.00     0.173 A 
ATOM     84  F   UNL A   1      37.380  33.054  28.654  1.00  0.00    -0.203 F 
ATOM     85  C   UNL A   1      35.399  33.783  29.680  1.00  0.00     0.198 A 
ATOM     86  C   UNL A   1      35.132  33.640  32.051  1.00  0.00     0.198 A 
ATOM     87  F   UNL A   1      36.912  33.012  33.398  1.00  0.00    -0.203 F 
ATOM     88  F   UNL A   1      34.941  34.180  28.486  1.00  0.00    -0.200 F 
ATOM     89  C   UNL A   1      34.625  33.978  30.813  1.00  0.00     0.200 A 
ATOM     90  F   UNL A   1      34.412  33.853  33.161  1.00  0.00    -0.200 F 
ATOM     91  F   UNL A   1      33.410  34.535  30.718  1.00  0.00    -0.200 F 
ENDBRANCH  67  81
BRANCH  68  92
ATOM     92  C   UNL A   1      39.115  33.070  38.466  1.00  0.00     0.064 A 
ATOM     93  C   UNL A   1      37.910  32.352  38.356  1.00  0.00     0.173 A 
ATOM     94  C   UNL A   1      39.357  33.715  39.688  1.00  0.00     0.173 A 
ATOM     95  F   UNL A   1      37.640  31.668  37.235  1.00  0.00    -0.203 F 
ATOM     96  C   UNL A   1      36.970  32.332  39.392  1.00  0.00     0.198 A 
ATOM     97  C   UNL A   1      38.406  33.715  40.715  1.00  0.00     0.198 A 
ATOM     98  F   UNL A   1      40.502  34.390  39.873  1.00  0.00    -0.203 F 
ATOM     99  F   UNL A   1      35.829  31.642  39.253  1.00  0.00    -0.200 F 
ATOM    100  C   UNL A   1      37.211  33.030  40.565  1.00  0.00     0.200 A 
ATOM    101  F   UNL A   1      38.634  34.418  41.835  1.00  0.00    -0.200 F 
ATOM    102  F   UNL A   1      36.293  33.051  41.541  1.00  0.00    -0.200 F 
ENDBRANCH  68  92
BRANCH  80 103
ATOM    103  C   UNL A   1      42.972  35.241  34.097  1.00  0.00     0.064 A 
ATOM    104  C   UNL A   1      43.765  34.106  34.315  1.00  0.00     0.173 A 
ATOM    105  C   UNL A   1      43.527  36.495  34.374  1.00  0.00     0.173 A 
ATOM    106  F   UNL A   1      43.288  32.885  34.044  1.00  0.00    -0.203 F 
ATOM    107  C   UNL A   1      45.055  34.223  34.830  1.00  0.00     0.198 A 
ATOM    108  C   UNL A   1      44.827  36.612  34.857  1.00  0.00     0.198 A 
ATOM    109  F   UNL A   1      42.800  37.606  34.183  1.00  0.00    -0.203 F 
ATOM    110  F   UNL A   1      45.786  33.126  35.073  1.00  0.00    -0.200 F 
ATOM    111  C   UNL A   1      45.585  35.476  35.097  1.00  0.00     0.200 A 
ATOM    112  F   UNL A   1      45.341  37.826  35.098  1.00  0.00    -0.200 F 
ATOM    113  F   UNL A   1      46.830  35.593  35.581  1.00  0.00    -0.200 F 
ENDBRANCH  80 103
ENDBRANCH  54  55
ENDBRANCH  47  49
ENDBRANCH  46  47
ENDBRANCH  45  46
ENDBRANCH  44  45
ENDBRANCH  43  44
ENDBRANCH  42  43
ENDBRANCH   1  42
TORSDOF 23
ENDMDL
