MODEL 1
REMARK VINA RESULT:     -11.3      0.000      0.000
REMARK SMILES COc1cccc(CSc2nc3ccccc3c(=O)n2CCC(=O)OCCOCCOCCOC(=O)c2ccc(-c3c4nc(c(-c5c(F)c(F)c(F)c(F)c5F)c5ccc([nH]5)c(-c5c(F)c(F)c(F)c(F)c5F)c5nc(c(-c6c(F)c(F)c(F)c(F)c6F)c6ccc3[nH]6)C=C5)C=C4)cc2)c1
REMARK SMILES IDX 27 1 26 2 25 3 23 4 24 5 22 6 21 7 20 8 10 9 11 10 12 11
REMARK SMILES IDX 18 12 13 13 17 14 19 15 14 16 16 17 15 18 9 19 8 20 7 21
REMARK SMILES IDX 3 22 4 23 100 24 5 25 6 26 2 27 1 28 28 29 29 30 30 31 31 32
REMARK SMILES IDX 32 33 33 34 34 35 35 36 36 37 37 38 38 39 99 40 39 41 98 42
REMARK SMILES IDX 40 43 41 44 42 45 92 46 43 47 97 48 91 49 93 50 44 51 96 52
REMARK SMILES IDX 90 53 89 54 45 56 77 57 57 58 76 59 58 60 61 61 75 62 94 63
REMARK SMILES IDX 59 64 60 65 74 67 95 68 62 69 46 70 47 71 55 72 48 73 49 74
REMARK SMILES IDX 53 75 56 76 50 77 51 78 54 79 52 80 78 81 79 82 87 83 80 84
REMARK SMILES IDX 81 85 85 86 88 87 82 88 83 89 86 90 84 91 63 92 64 93 72 94
REMARK SMILES IDX 65 95 66 96 70 97 73 98 67 99 68 100 71 101 69 102
REMARK H PARENT 93 55 61 66
REMARK Flexibility Score: inf
ROOT
ATOM      1  C   UNL A   1      39.139  20.188  25.429  1.00  0.00     0.202 C 
ENDROOT
BRANCH   1   2
ATOM      2  C   UNL A   1      38.174  21.396  25.405  1.00  0.00     0.261 C 
BRANCH   2   3
ATOM      3  O   UNL A   1      38.465  22.419  26.401  1.00  0.00    -0.463 OA
BRANCH   3   4
ATOM      4  C   UNL A   1      38.090  23.707  26.140  1.00  0.00     0.307 C 
ATOM      5  O   UNL A   1      38.868  24.627  25.914  1.00  0.00    -0.252 OA
BRANCH   4   6
ATOM      6  C   UNL A   1      36.571  23.889  26.185  1.00  0.00     0.144 C 
BRANCH   6   7
ATOM      7  C   UNL A   1      35.646  23.332  25.072  1.00  0.00     0.140 C 
BRANCH   7   8
ATOM      8  N   UNL A   1      34.322  23.940  24.955  1.00  0.00    -0.286 N 
ATOM      9  C   UNL A   1      33.275  23.621  25.743  1.00  0.00     0.171 A 
ATOM     10  N   UNL A   1      32.461  24.500  26.227  1.00  0.00    -0.224 NA
ATOM     11  C   UNL A   1      32.505  25.764  25.639  1.00  0.00     0.079 A 
ATOM     12  C   UNL A   1      34.021  24.852  23.959  1.00  0.00     0.262 A 
ATOM     13  C   UNL A   1      31.838  26.838  26.220  1.00  0.00     0.029 A 
ATOM     14  C   UNL A   1      33.021  25.882  24.347  1.00  0.00     0.066 A 
ATOM     15  O   UNL A   1      34.543  24.856  22.849  1.00  0.00    -0.269 OA
ATOM     16  C   UNL A   1      31.584  27.977  25.458  1.00  0.00     0.002 A 
ATOM     17  C   UNL A   1      32.685  26.967  23.545  1.00  0.00     0.016 A 
ATOM     18  C   UNL A   1      31.947  28.012  24.107  1.00  0.00     0.001 A 
BRANCH   9  19
ATOM     19  S   UNL A   1      32.862  22.002  26.029  1.00  0.00    -0.083 SA
BRANCH  19  20
ATOM     20  C   UNL A   1      34.046  20.762  25.566  1.00  0.00     0.113 C 
BRANCH  20  21
ATOM     21  C   UNL A   1      33.640  19.743  24.543  1.00  0.00    -0.034 A 
ATOM     22  C   UNL A   1      33.753  17.435  23.782  1.00  0.00     0.119 A 
ATOM     23  C   UNL A   1      32.742  17.698  22.858  1.00  0.00     0.046 A 
ATOM     24  C   UNL A   1      34.203  18.459  24.612  1.00  0.00     0.051 A 
ATOM     25  C   UNL A   1      32.162  18.963  22.787  1.00  0.00     0.004 A 
ATOM     26  C   UNL A   1      32.607  19.983  23.624  1.00  0.00     0.005 A 
BRANCH  22  27
ATOM     27  O   UNL A   1      34.239  16.157  23.781  1.00  0.00    -0.497 OA
ATOM     28  C   UNL A   1      34.842  15.722  24.995  1.00  0.00     0.278 C 
ENDBRANCH  22  27
ENDBRANCH  20  21
ENDBRANCH  19  20
ENDBRANCH   9  19
ENDBRANCH   7   8
ENDBRANCH   6   7
ENDBRANCH   4   6
ENDBRANCH   3   4
ENDBRANCH   2   3
ENDBRANCH   1   2
BRANCH   1  29
ATOM     29  O   UNL A   1      40.453  20.517  25.893  1.00  0.00    -0.376 OA
BRANCH  29  30
ATOM     30  C   UNL A   1      41.091  19.527  26.687  1.00  0.00     0.188 C 
BRANCH  30  31
ATOM     31  C   UNL A   1      42.470  19.049  26.218  1.00  0.00     0.188 C 
BRANCH  31  32
ATOM     32  O   UNL A   1      43.086  19.673  25.119  1.00  0.00    -0.376 OA
BRANCH  32  33
ATOM     33  C   UNL A   1      44.488  19.851  25.268  1.00  0.00     0.202 C 
BRANCH  33  34
ATOM     34  C   UNL A   1      44.942  21.324  25.407  1.00  0.00     0.261 C 
BRANCH  34  35
ATOM     35  O   UNL A   1      43.975  22.169  26.106  1.00  0.00    -0.460 OA
BRANCH  35  36
ATOM     36  C   UNL A   1      43.261  23.023  25.316  1.00  0.00     0.338 C 
ATOM     37  O   UNL A   1      43.067  22.903  24.116  1.00  0.00    -0.246 OA
BRANCH  36  38
ATOM     38  C   UNL A   1      42.604  24.126  26.072  1.00  0.00     0.060 A 
ATOM     39  C   UNL A   1      42.899  25.470  25.791  1.00  0.00     0.016 A 
ATOM     40  C   UNL A   1      41.925  23.826  27.249  1.00  0.00     0.016 A 
ATOM     41  C   UNL A   1      42.544  26.498  26.684  1.00  0.00     0.010 A 
ATOM     42  C   UNL A   1      41.551  24.857  28.132  1.00  0.00     0.010 A 
ATOM     43  C   UNL A   1      41.882  26.205  27.882  1.00  0.00    -0.014 A 
BRANCH  43  44
ATOM     44  C   UNL A   1      41.615  27.248  28.928  1.00  0.00     0.031 A 
ATOM     45  C   UNL A   1      42.469  27.299  30.175  1.00  0.00     0.074 A 
ATOM     46  C   UNL A   1      40.611  28.142  28.817  1.00  0.00     0.049 A 
ATOM     47  N   UNL A   1      42.255  27.910  31.317  1.00  0.00    -0.248 NA
ATOM     48  C   UNL A   1      43.733  26.550  30.126  1.00  0.00     0.031 C 
ATOM     49  C   UNL A   1      39.737  28.307  27.659  1.00  0.00     0.029 A 
ATOM     50  N   UNL A   1      40.140  29.071  29.723  1.00  0.00    -0.354 N 
ATOM     51  C   UNL A   1      43.323  27.569  32.140  1.00  0.00     0.074 A 
ATOM     52  C   UNL A   1      44.184  26.699  31.364  1.00  0.00     0.031 C 
ATOM     53  C   UNL A   1      38.832  29.264  27.925  1.00  0.00     0.029 A 
ATOM     54  C   UNL A   1      39.008  29.729  29.299  1.00  0.00     0.049 A 
ATOM     55  H   UNL A   1      40.572  29.247  30.590  1.00  0.00     0.167 HD
ATOM     56  C   UNL A   1      43.565  27.938  33.424  1.00  0.00     0.037 A 
ATOM     57  C   UNL A   1      38.174  30.565  29.949  1.00  0.00     0.037 A 
ATOM     58  C   UNL A   1      42.744  28.843  34.193  1.00  0.00     0.049 A 
ATOM     59  C   UNL A   1      38.420  30.911  31.398  1.00  0.00     0.074 A 
ATOM     60  C   UNL A   1      42.922  29.277  35.497  1.00  0.00     0.029 A 
ATOM     61  N   UNL A   1      41.596  29.466  33.725  1.00  0.00    -0.354 N 
ATOM     62  N   UNL A   1      39.392  30.534  32.190  1.00  0.00    -0.248 NA
ATOM     63  C   UNL A   1      37.439  31.799  32.041  1.00  0.00     0.031 C 
ATOM     64  C   UNL A   1      41.858  30.119  35.835  1.00  0.00     0.029 A 
ATOM     65  C   UNL A   1      41.048  30.263  34.721  1.00  0.00     0.049 A 
ATOM     66  H   UNL A   1      41.224  29.357  32.821  1.00  0.00     0.167 HD
ATOM     67  C   UNL A   1      39.155  31.156  33.412  1.00  0.00     0.074 A 
ATOM     68  C   UNL A   1      37.960  31.955  33.248  1.00  0.00     0.031 C 
ATOM     69  C   UNL A   1      39.863  31.067  34.564  1.00  0.00     0.037 A 
BRANCH  56  70
ATOM     70  C   UNL A   1      44.755  27.328  34.113  1.00  0.00     0.064 A 
ATOM     71  C   UNL A   1      46.006  27.959  34.146  1.00  0.00     0.173 A 
ATOM     72  C   UNL A   1      44.623  26.104  34.791  1.00  0.00     0.173 A 
ATOM     73  F   UNL A   1      46.191  29.125  33.510  1.00  0.00    -0.203 F 
ATOM     74  C   UNL A   1      47.087  27.375  34.805  1.00  0.00     0.198 A 
ATOM     75  C   UNL A   1      45.695  25.541  35.476  1.00  0.00     0.198 A 
ATOM     76  F   UNL A   1      43.444  25.462  34.803  1.00  0.00    -0.203 F 
ATOM     77  F   UNL A   1      48.286  27.973  34.781  1.00  0.00    -0.200 F 
ATOM     78  C   UNL A   1      46.928  26.172  35.476  1.00  0.00     0.200 A 
ATOM     79  F   UNL A   1      45.532  24.388  36.141  1.00  0.00    -0.200 F 
ATOM     80  F   UNL A   1      47.967  25.617  36.116  1.00  0.00    -0.200 F 
ENDBRANCH  56  70
BRANCH  57  81
ATOM     81  C   UNL A   1      36.975  31.112  29.255  1.00  0.00     0.064 A 
ATOM     82  C   UNL A   1      35.879  30.292  28.950  1.00  0.00     0.173 A 
ATOM     83  C   UNL A   1      36.917  32.453  28.844  1.00  0.00     0.173 A 
ATOM     84  F   UNL A   1      35.903  28.994  29.286  1.00  0.00    -0.203 F 
ATOM     85  C   UNL A   1      34.782  30.785  28.246  1.00  0.00     0.198 A 
ATOM     86  C   UNL A   1      35.804  32.954  28.174  1.00  0.00     0.198 A 
ATOM     87  F   UNL A   1      37.941  33.280  29.099  1.00  0.00    -0.203 F 
ATOM     88  F   UNL A   1      33.777  29.963  27.917  1.00  0.00    -0.200 F 
ATOM     89  C   UNL A   1      34.742  32.118  27.866  1.00  0.00     0.200 A 
ATOM     90  F   UNL A   1      35.763  34.245  27.819  1.00  0.00    -0.200 F 
ATOM     91  F   UNL A   1      33.685  32.592  27.194  1.00  0.00    -0.200 F 
ENDBRANCH  57  81
BRANCH  69  92
ATOM     92  C   UNL A   1      39.397  31.899  35.729  1.00  0.00     0.064 A 
ATOM     93  C   UNL A   1      38.448  31.425  36.650  1.00  0.00     0.173 A 
ATOM     94  C   UNL A   1      39.898  33.196  35.923  1.00  0.00     0.173 A 
ATOM     95  F   UNL A   1      37.924  30.199  36.508  1.00  0.00    -0.203 F 
ATOM     96  C   UNL A   1      37.985  32.234  37.687  1.00  0.00     0.198 A 
ATOM     97  C   UNL A   1      39.459  33.989  36.981  1.00  0.00     0.198 A 
ATOM     98  F   UNL A   1      40.813  33.700  35.081  1.00  0.00    -0.203 F 
ATOM     99  F   UNL A   1      37.025  31.784  38.507  1.00  0.00    -0.200 F 
ATOM    100  C   UNL A   1      38.493  33.513  37.853  1.00  0.00     0.200 A 
ATOM    101  F   UNL A   1      39.962  35.221  37.148  1.00  0.00    -0.200 F 
ATOM    102  F   UNL A   1      38.040  34.293  38.845  1.00  0.00    -0.200 F 
ENDBRANCH  69  92
ENDBRANCH  43  44
ENDBRANCH  36  38
ENDBRANCH  35  36
ENDBRANCH  34  35
ENDBRANCH  33  34
ENDBRANCH  32  33
ENDBRANCH  31  32
ENDBRANCH  30  31
ENDBRANCH  29  30
ENDBRANCH   1  29
TORSDOF 23
ENDMDL
MODEL 2
REMARK VINA RESULT:     -11.2      4.809      9.398
REMARK SMILES COc1cccc(CSc2nc3ccccc3c(=O)n2CCC(=O)OCCOCCOCCOC(=O)c2ccc(-c3c4nc(c(-c5c(F)c(F)c(F)c(F)c5F)c5ccc([nH]5)c(-c5c(F)c(F)c(F)c(F)c5F)c5nc(c(-c6c(F)c(F)c(F)c(F)c6F)c6ccc3[nH]6)C=C5)C=C4)cc2)c1
REMARK SMILES IDX 27 1 26 2 25 3 23 4 24 5 22 6 21 7 20 8 10 9 11 10 12 11
REMARK SMILES IDX 18 12 13 13 17 14 19 15 14 16 16 17 15 18 9 19 8 20 7 21
REMARK SMILES IDX 3 22 4 23 100 24 5 25 6 26 2 27 1 28 28 29 29 30 30 31 31 32
REMARK SMILES IDX 32 33 33 34 34 35 35 36 36 37 37 38 38 39 99 40 39 41 98 42
REMARK SMILES IDX 40 43 41 44 42 45 92 46 43 47 97 48 91 49 93 50 44 51 96 52
REMARK SMILES IDX 90 53 89 54 45 56 77 57 57 58 76 59 58 60 61 61 75 62 94 63
REMARK SMILES IDX 59 64 60 65 74 67 95 68 62 69 46 70 47 71 55 72 48 73 49 74
REMARK SMILES IDX 53 75 56 76 50 77 51 78 54 79 52 80 78 81 79 82 87 83 80 84
REMARK SMILES IDX 81 85 85 86 88 87 82 88 83 89 86 90 84 91 63 92 64 93 72 94
REMARK SMILES IDX 65 95 66 96 70 97 73 98 67 99 68 100 71 101 69 102
REMARK H PARENT 93 55 61 66
REMARK Flexibility Score: inf
ROOT
ATOM      1  C   UNL A   1      31.385  23.005  24.451  1.00  0.00     0.202 C 
ENDROOT
BRANCH   1   2
ATOM      2  C   UNL A   1      31.841  23.643  23.118  1.00  0.00     0.261 C 
BRANCH   2   3
ATOM      3  O   UNL A   1      31.920  25.098  23.141  1.00  0.00    -0.463 OA
BRANCH   3   4
ATOM      4  C   UNL A   1      33.114  25.679  23.462  1.00  0.00     0.307 C 
ATOM      5  O   UNL A   1      33.844  25.314  24.376  1.00  0.00    -0.252 OA
BRANCH   4   6
ATOM      6  C   UNL A   1      33.438  26.873  22.560  1.00  0.00     0.144 C 
BRANCH   6   7
ATOM      7  C   UNL A   1      33.203  28.335  23.021  1.00  0.00     0.140 C 
BRANCH   7   8
ATOM      8  N   UNL A   1      31.847  28.680  23.443  1.00  0.00    -0.286 N 
ATOM      9  C   UNL A   1      31.522  29.058  24.696  1.00  0.00     0.171 A 
ATOM     10  N   UNL A   1      30.701  30.021  24.953  1.00  0.00    -0.224 NA
ATOM     11  C   UNL A   1      29.903  30.446  23.890  1.00  0.00     0.079 A 
ATOM     12  C   UNL A   1      30.765  28.571  22.588  1.00  0.00     0.262 A 
ATOM     13  C   UNL A   1      29.149  31.611  23.992  1.00  0.00     0.029 A 
ATOM     14  C   UNL A   1      29.688  29.569  22.825  1.00  0.00     0.066 A 
ATOM     15  O   UNL A   1      30.686  27.750  21.680  1.00  0.00    -0.269 OA
ATOM     16  C   UNL A   1      28.102  31.827  23.097  1.00  0.00     0.002 A 
ATOM     17  C   UNL A   1      28.584  29.720  21.994  1.00  0.00     0.016 A 
ATOM     18  C   UNL A   1      27.780  30.852  22.146  1.00  0.00     0.001 A 
BRANCH   9  19
ATOM     19  S   UNL A   1      32.063  28.176  26.040  1.00  0.00    -0.083 SA
BRANCH  19  20
ATOM     20  C   UNL A   1      33.805  28.201  26.386  1.00  0.00     0.113 C 
BRANCH  20  21
ATOM     21  C   UNL A   1      34.407  29.481  26.886  1.00  0.00    -0.034 A 
ATOM     22  C   UNL A   1      34.044  31.751  27.684  1.00  0.00     0.119 A 
ATOM     23  C   UNL A   1      35.380  31.819  28.076  1.00  0.00     0.046 A 
ATOM     24  C   UNL A   1      33.566  30.588  27.084  1.00  0.00     0.051 A 
ATOM     25  C   UNL A   1      36.225  30.723  27.901  1.00  0.00     0.004 A 
ATOM     26  C   UNL A   1      35.742  29.559  27.308  1.00  0.00     0.005 A 
BRANCH  22  27
ATOM     27  O   UNL A   1      33.300  32.874  27.919  1.00  0.00    -0.497 OA
ATOM     28  C   UNL A   1      33.956  33.911  28.643  1.00  0.00     0.278 C 
ENDBRANCH  22  27
ENDBRANCH  20  21
ENDBRANCH  19  20
ENDBRANCH   9  19
ENDBRANCH   7   8
ENDBRANCH   6   7
ENDBRANCH   4   6
ENDBRANCH   3   4
ENDBRANCH   2   3
ENDBRANCH   1   2
BRANCH   1  29
ATOM     29  O   UNL A   1      32.467  22.495  25.237  1.00  0.00    -0.376 OA
BRANCH  29  30
ATOM     30  C   UNL A   1      32.453  21.094  25.468  1.00  0.00     0.188 C 
BRANCH  30  31
ATOM     31  C   UNL A   1      33.728  20.321  25.108  1.00  0.00     0.188 C 
BRANCH  31  32
ATOM     32  O   UNL A   1      34.885  21.025  24.732  1.00  0.00    -0.376 OA
BRANCH  32  33
ATOM     33  C   UNL A   1      36.092  20.306  24.942  1.00  0.00     0.202 C 
BRANCH  33  34
ATOM     34  C   UNL A   1      37.382  21.109  24.651  1.00  0.00     0.261 C 
BRANCH  34  35
ATOM     35  O   UNL A   1      37.760  22.018  25.733  1.00  0.00    -0.460 OA
BRANCH  35  36
ATOM     36  C   UNL A   1      39.041  21.889  26.188  1.00  0.00     0.338 C 
ATOM     37  O   UNL A   1      39.783  20.938  25.994  1.00  0.00    -0.246 OA
BRANCH  36  38
ATOM     38  C   UNL A   1      39.546  23.099  26.896  1.00  0.00     0.060 A 
ATOM     39  C   UNL A   1      39.148  24.386  26.499  1.00  0.00     0.016 A 
ATOM     40  C   UNL A   1      40.634  22.974  27.755  1.00  0.00     0.016 A 
ATOM     41  C   UNL A   1      39.842  25.530  26.932  1.00  0.00     0.010 A 
ATOM     42  C   UNL A   1      41.314  24.121  28.205  1.00  0.00     0.010 A 
ATOM     43  C   UNL A   1      40.953  25.415  27.777  1.00  0.00    -0.014 A 
BRANCH  43  44
ATOM     44  C   UNL A   1      41.809  26.592  28.144  1.00  0.00     0.031 A 
ATOM     45  C   UNL A   1      41.231  27.710  28.983  1.00  0.00     0.074 A 
ATOM     46  C   UNL A   1      43.087  26.714  27.729  1.00  0.00     0.049 A 
ATOM     47  N   UNL A   1      41.676  28.929  29.182  1.00  0.00    -0.248 NA
ATOM     48  C   UNL A   1      39.974  27.411  29.684  1.00  0.00     0.031 C 
ATOM     49  C   UNL A   1      43.844  25.709  26.989  1.00  0.00     0.029 A 
ATOM     50  N   UNL A   1      43.969  27.768  27.854  1.00  0.00    -0.354 N 
ATOM     51  C   UNL A   1      40.726  29.559  29.978  1.00  0.00     0.074 A 
ATOM     52  C   UNL A   1      39.681  28.585  30.226  1.00  0.00     0.031 C 
ATOM     53  C   UNL A   1      45.067  26.194  26.715  1.00  0.00     0.029 A 
ATOM     54  C   UNL A   1      45.157  27.573  27.189  1.00  0.00     0.049 A 
ATOM     55  H   UNL A   1      43.766  28.582  28.369  1.00  0.00     0.167 HD
ATOM     56  C   UNL A   1      40.716  30.830  30.455  1.00  0.00     0.037 A 
ATOM     57  C   UNL A   1      46.180  28.416  26.939  1.00  0.00     0.037 A 
ATOM     58  C   UNL A   1      41.773  31.794  30.258  1.00  0.00     0.049 A 
ATOM     59  C   UNL A   1      46.123  29.846  27.418  1.00  0.00     0.074 A 
ATOM     60  C   UNL A   1      41.847  33.101  30.713  1.00  0.00     0.029 A 
ATOM     61  N   UNL A   1      42.946  31.556  29.558  1.00  0.00    -0.354 N 
ATOM     62  N   UNL A   1      45.193  30.455  28.111  1.00  0.00    -0.248 NA
ATOM     63  C   UNL A   1      47.264  30.706  27.068  1.00  0.00     0.031 C 
ATOM     64  C   UNL A   1      43.038  33.668  30.249  1.00  0.00     0.029 A 
ATOM     65  C   UNL A   1      43.739  32.695  29.556  1.00  0.00     0.049 A 
ATOM     66  H   UNL A   1      43.182  30.704  29.126  1.00  0.00     0.167 HD
ATOM     67  C   UNL A   1      45.647  31.756  28.301  1.00  0.00     0.074 A 
ATOM     68  C   UNL A   1      46.946  31.842  27.671  1.00  0.00     0.031 C 
ATOM     69  C   UNL A   1      45.037  32.787  28.937  1.00  0.00     0.037 A 
BRANCH  56  70
ATOM     70  C   UNL A   1      39.497  31.283  31.210  1.00  0.00     0.064 A 
ATOM     71  C   UNL A   1      38.486  32.047  30.610  1.00  0.00     0.173 A 
ATOM     72  C   UNL A   1      39.319  30.901  32.550  1.00  0.00     0.173 A 
ATOM     73  F   UNL A   1      38.607  32.445  29.335  1.00  0.00    -0.203 F 
ATOM     74  C   UNL A   1      37.360  32.439  31.332  1.00  0.00     0.198 A 
ATOM     75  C   UNL A   1      38.177  31.265  33.258  1.00  0.00     0.198 A 
ATOM     76  F   UNL A   1      40.248  30.158  33.171  1.00  0.00    -0.203 F 
ATOM     77  F   UNL A   1      36.431  33.212  30.752  1.00  0.00    -0.200 F 
ATOM     78  C   UNL A   1      37.203  32.041  32.651  1.00  0.00     0.200 A 
ATOM     79  F   UNL A   1      38.019  30.862  34.526  1.00  0.00    -0.200 F 
ATOM     80  F   UNL A   1      36.114  32.412  33.340  1.00  0.00    -0.200 F 
ENDBRANCH  56  70
BRANCH  57  81
ATOM     81  C   UNL A   1      47.351  27.951  26.143  1.00  0.00     0.064 A 
ATOM     82  C   UNL A   1      47.281  27.850  24.746  1.00  0.00     0.173 A 
ATOM     83  C   UNL A   1      48.547  27.560  26.764  1.00  0.00     0.173 A 
ATOM     84  F   UNL A   1      46.147  28.175  24.109  1.00  0.00    -0.203 F 
ATOM     85  C   UNL A   1      48.353  27.359  24.004  1.00  0.00     0.198 A 
ATOM     86  C   UNL A   1      49.632  27.104  26.018  1.00  0.00     0.198 A 
ATOM     87  F   UNL A   1      48.666  27.626  28.098  1.00  0.00    -0.203 F 
ATOM     88  F   UNL A   1      48.236  27.216  22.677  1.00  0.00    -0.200 F 
ATOM     89  C   UNL A   1      49.530  26.994  24.640  1.00  0.00     0.200 A 
ATOM     90  F   UNL A   1      50.771  26.764  26.635  1.00  0.00    -0.200 F 
ATOM     91  F   UNL A   1      50.562  26.527  23.925  1.00  0.00    -0.200 F 
ENDBRANCH  57  81
BRANCH  69  92
ATOM     92  C   UNL A   1      45.792  34.086  29.033  1.00  0.00     0.064 A 
ATOM     93  C   UNL A   1      46.703  34.342  30.071  1.00  0.00     0.173 A 
ATOM     94  C   UNL A   1      45.593  35.096  28.080  1.00  0.00     0.173 A 
ATOM     95  F   UNL A   1      46.924  33.419  31.018  1.00  0.00    -0.203 F 
ATOM     96  C   UNL A   1      47.347  35.574  30.175  1.00  0.00     0.198 A 
ATOM     97  C   UNL A   1      46.264  36.314  28.166  1.00  0.00     0.198 A 
ATOM     98  F   UNL A   1      44.740  34.905  27.060  1.00  0.00    -0.203 F 
ATOM     99  F   UNL A   1      48.155  35.821  31.215  1.00  0.00    -0.200 F 
ATOM    100  C   UNL A   1      47.129  36.557  29.221  1.00  0.00     0.200 A 
ATOM    101  F   UNL A   1      46.063  37.257  27.236  1.00  0.00    -0.200 F 
ATOM    102  F   UNL A   1      47.742  37.745  29.328  1.00  0.00    -0.200 F 
ENDBRANCH  69  92
ENDBRANCH  43  44
ENDBRANCH  36  38
ENDBRANCH  35  36
ENDBRANCH  34  35
ENDBRANCH  33  34
ENDBRANCH  32  33
ENDBRANCH  31  32
ENDBRANCH  30  31
ENDBRANCH  29  30
ENDBRANCH   1  29
TORSDOF 23
ENDMDL
MODEL 3
REMARK VINA RESULT:     -10.8      4.612      9.360
REMARK SMILES COc1cccc(CSc2nc3ccccc3c(=O)n2CCC(=O)OCCOCCOCCOC(=O)c2ccc(-c3c4nc(c(-c5c(F)c(F)c(F)c(F)c5F)c5ccc([nH]5)c(-c5c(F)c(F)c(F)c(F)c5F)c5nc(c(-c6c(F)c(F)c(F)c(F)c6F)c6ccc3[nH]6)C=C5)C=C4)cc2)c1
REMARK SMILES IDX 27 1 26 2 25 3 23 4 24 5 22 6 21 7 20 8 10 9 11 10 12 11
REMARK SMILES IDX 18 12 13 13 17 14 19 15 14 16 16 17 15 18 9 19 8 20 7 21
REMARK SMILES IDX 3 22 4 23 100 24 5 25 6 26 2 27 1 28 28 29 29 30 30 31 31 32
REMARK SMILES IDX 32 33 33 34 34 35 35 36 36 37 37 38 38 39 99 40 39 41 98 42
REMARK SMILES IDX 40 43 41 44 42 45 92 46 43 47 97 48 91 49 93 50 44 51 96 52
REMARK SMILES IDX 90 53 89 54 45 56 77 57 57 58 76 59 58 60 61 61 75 62 94 63
REMARK SMILES IDX 59 64 60 65 74 67 95 68 62 69 46 70 47 71 55 72 48 73 49 74
REMARK SMILES IDX 53 75 56 76 50 77 51 78 54 79 52 80 78 81 79 82 87 83 80 84
REMARK SMILES IDX 81 85 85 86 88 87 82 88 83 89 86 90 84 91 63 92 64 93 72 94
REMARK SMILES IDX 65 95 66 96 70 97 73 98 67 99 68 100 71 101 69 102
REMARK H PARENT 93 55 61 66
REMARK Flexibility Score: inf
ROOT
ATOM      1  C   UNL A   1      32.232  21.584  25.283  1.00  0.00     0.202 C 
ENDROOT
BRANCH   1   2
ATOM      2  C   UNL A   1      32.687  22.110  26.664  1.00  0.00     0.261 C 
BRANCH   2   3
ATOM      3  O   UNL A   1      32.236  23.461  26.973  1.00  0.00    -0.463 OA
BRANCH   3   4
ATOM      4  C   UNL A   1      30.902  23.740  26.876  1.00  0.00     0.307 C 
ATOM      5  O   UNL A   1      30.031  23.230  27.571  1.00  0.00    -0.252 OA
BRANCH   4   6
ATOM      6  C   UNL A   1      30.601  24.754  25.769  1.00  0.00     0.144 C 
BRANCH   6   7
ATOM      7  C   UNL A   1      31.648  25.116  24.684  1.00  0.00     0.140 C 
BRANCH   7   8
ATOM      8  N   UNL A   1      32.183  26.475  24.716  1.00  0.00    -0.286 N 
ATOM      9  C   UNL A   1      31.595  27.530  24.115  1.00  0.00     0.171 A 
ATOM     10  N   UNL A   1      31.505  28.696  24.664  1.00  0.00    -0.224 NA
ATOM     11  C   UNL A   1      32.330  28.919  25.767  1.00  0.00     0.079 A 
ATOM     12  C   UNL A   1      33.394  26.770  25.316  1.00  0.00     0.262 A 
ATOM     13  C   UNL A   1      32.157  30.047  26.563  1.00  0.00     0.029 A 
ATOM     14  C   UNL A   1      33.470  28.127  25.919  1.00  0.00     0.066 A 
ATOM     15  O   UNL A   1      34.335  25.987  25.387  1.00  0.00    -0.269 OA
ATOM     16  C   UNL A   1      33.185  30.444  27.416  1.00  0.00     0.002 A 
ATOM     17  C   UNL A   1      34.542  28.569  26.686  1.00  0.00     0.016 A 
ATOM     18  C   UNL A   1      34.397  29.745  27.426  1.00  0.00     0.001 A 
BRANCH   9  19
ATOM     19  S   UNL A   1      31.062  27.432  22.508  1.00  0.00    -0.083 SA
BRANCH  19  20
ATOM     20  C   UNL A   1      30.499  28.932  21.742  1.00  0.00     0.113 C 
BRANCH  20  21
ATOM     21  C   UNL A   1      29.428  29.720  22.435  1.00  0.00    -0.034 A 
ATOM     22  C   UNL A   1      28.444  31.900  22.885  1.00  0.00     0.119 A 
ATOM     23  C   UNL A   1      27.336  31.274  23.454  1.00  0.00     0.046 A 
ATOM     24  C   UNL A   1      29.487  31.122  22.387  1.00  0.00     0.051 A 
ATOM     25  C   UNL A   1      27.254  29.883  23.495  1.00  0.00     0.004 A 
ATOM     26  C   UNL A   1      28.294  29.108  22.989  1.00  0.00     0.005 A 
BRANCH  22  27
ATOM     27  O   UNL A   1      28.413  33.267  22.878  1.00  0.00    -0.497 OA
ATOM     28  C   UNL A   1      29.519  33.914  23.500  1.00  0.00     0.278 C 
ENDBRANCH  22  27
ENDBRANCH  20  21
ENDBRANCH  19  20
ENDBRANCH   9  19
ENDBRANCH   7   8
ENDBRANCH   6   7
ENDBRANCH   4   6
ENDBRANCH   3   4
ENDBRANCH   2   3
ENDBRANCH   1   2
BRANCH   1  29
ATOM     29  O   UNL A   1      31.906  20.190  25.284  1.00  0.00    -0.376 OA
BRANCH  29  30
ATOM     30  C   UNL A   1      32.991  19.304  25.517  1.00  0.00     0.188 C 
BRANCH  30  31
ATOM     31  C   UNL A   1      34.243  19.505  24.655  1.00  0.00     0.188 C 
BRANCH  31  32
ATOM     32  O   UNL A   1      35.120  18.427  24.441  1.00  0.00    -0.376 OA
BRANCH  32  33
ATOM     33  C   UNL A   1      36.412  18.615  25.001  1.00  0.00     0.202 C 
BRANCH  33  34
ATOM     34  C   UNL A   1      37.140  19.897  24.530  1.00  0.00     0.261 C 
BRANCH  34  35
ATOM     35  O   UNL A   1      37.952  20.525  25.572  1.00  0.00    -0.460 OA
BRANCH  35  36
ATOM     36  C   UNL A   1      37.523  21.751  25.993  1.00  0.00     0.338 C 
ATOM     37  O   UNL A   1      36.382  22.043  26.317  1.00  0.00    -0.246 OA
BRANCH  36  38
ATOM     38  C   UNL A   1      38.621  22.747  26.140  1.00  0.00     0.060 A 
ATOM     39  C   UNL A   1      39.750  22.467  26.926  1.00  0.00     0.016 A 
ATOM     40  C   UNL A   1      38.397  24.062  25.741  1.00  0.00     0.016 A 
ATOM     41  C   UNL A   1      40.628  23.488  27.332  1.00  0.00     0.010 A 
ATOM     42  C   UNL A   1      39.288  25.079  26.129  1.00  0.00     0.010 A 
ATOM     43  C   UNL A   1      40.400  24.818  26.957  1.00  0.00    -0.014 A 
BRANCH  43  44
ATOM     44  C   UNL A   1      41.225  25.955  27.486  1.00  0.00     0.031 A 
ATOM     45  C   UNL A   1      40.571  27.037  28.314  1.00  0.00     0.074 A 
ATOM     46  C   UNL A   1      42.544  26.072  27.226  1.00  0.00     0.049 A 
ATOM     47  N   UNL A   1      41.008  28.234  28.632  1.00  0.00    -0.248 NA
ATOM     48  C   UNL A   1      39.237  26.727  28.850  1.00  0.00     0.031 C 
ATOM     49  C   UNL A   1      43.367  25.093  26.522  1.00  0.00     0.029 A 
ATOM     50  N   UNL A   1      43.421  27.100  27.510  1.00  0.00    -0.354 N 
ATOM     51  C   UNL A   1      39.982  28.839  29.348  1.00  0.00     0.074 A 
ATOM     52  C   UNL A   1      38.901  27.876  29.420  1.00  0.00     0.031 C 
ATOM     53  C   UNL A   1      44.619  25.567  26.417  1.00  0.00     0.029 A 
ATOM     54  C   UNL A   1      44.675  26.916  26.976  1.00  0.00     0.049 A 
ATOM     55  H   UNL A   1      43.172  27.888  28.045  1.00  0.00     0.167 HD
ATOM     56  C   UNL A   1      39.936  30.083  29.892  1.00  0.00     0.037 A 
ATOM     57  C   UNL A   1      45.732  27.749  26.892  1.00  0.00     0.037 A 
ATOM     58  C   UNL A   1      41.022  31.034  29.872  1.00  0.00     0.049 A 
ATOM     59  C   UNL A   1      45.641  29.152  27.441  1.00  0.00     0.074 A 
ATOM     60  C   UNL A   1      41.062  32.312  30.406  1.00  0.00     0.029 A 
ATOM     61  N   UNL A   1      42.265  30.809  29.299  1.00  0.00    -0.354 N 
ATOM     62  N   UNL A   1      44.647  29.742  28.057  1.00  0.00    -0.248 NA
ATOM     63  C   UNL A   1      46.827  30.006  27.272  1.00  0.00     0.031 C 
ATOM     64  C   UNL A   1      42.307  32.878  30.113  1.00  0.00     0.029 A 
ATOM     65  C   UNL A   1      43.069  31.930  29.451  1.00  0.00     0.049 A 
ATOM     66  H   UNL A   1      42.536  29.977  28.849  1.00  0.00     0.167 HD
ATOM     67  C   UNL A   1      45.094  31.021  28.371  1.00  0.00     0.074 A 
ATOM     68  C   UNL A   1      46.459  31.114  27.899  1.00  0.00     0.031 C 
ATOM     69  C   UNL A   1      44.430  32.028  28.991  1.00  0.00     0.037 A 
BRANCH  56  70
ATOM     70  C   UNL A   1      38.644  30.519  30.528  1.00  0.00     0.064 A 
ATOM     71  C   UNL A   1      38.431  30.451  31.912  1.00  0.00     0.173 A 
ATOM     72  C   UNL A   1      37.618  31.058  29.734  1.00  0.00     0.173 A 
ATOM     73  F   UNL A   1      39.374  29.939  32.716  1.00  0.00    -0.203 F 
ATOM     74  C   UNL A   1      37.228  30.877  32.473  1.00  0.00     0.198 A 
ATOM     75  C   UNL A   1      36.432  31.514  30.302  1.00  0.00     0.198 A 
ATOM     76  F   UNL A   1      37.774  31.160  28.405  1.00  0.00    -0.203 F 
ATOM     77  F   UNL A   1      37.027  30.755  33.793  1.00  0.00    -0.200 F 
ATOM     78  C   UNL A   1      36.234  31.414  31.669  1.00  0.00     0.200 A 
ATOM     79  F   UNL A   1      35.482  32.052  29.525  1.00  0.00    -0.200 F 
ATOM     80  F   UNL A   1      35.081  31.831  32.213  1.00  0.00    -0.200 F 
ENDBRANCH  56  70
BRANCH  57  81
ATOM     81  C   UNL A   1      46.980  27.305  26.210  1.00  0.00     0.064 A 
ATOM     82  C   UNL A   1      47.154  27.488  24.830  1.00  0.00     0.173 A 
ATOM     83  C   UNL A   1      48.003  26.651  26.913  1.00  0.00     0.173 A 
ATOM     84  F   UNL A   1      46.188  28.073  24.107  1.00  0.00    -0.203 F 
ATOM     85  C   UNL A   1      48.293  27.019  24.178  1.00  0.00     0.198 A 
ATOM     86  C   UNL A   1      49.158  26.216  26.266  1.00  0.00     0.198 A 
ATOM     87  F   UNL A   1      47.884  26.439  28.231  1.00  0.00    -0.203 F 
ATOM     88  F   UNL A   1      48.404  27.155  22.850  1.00  0.00    -0.200 F 
ATOM     89  C   UNL A   1      49.297  26.391  24.898  1.00  0.00     0.200 A 
ATOM     90  F   UNL A   1      50.131  25.620  26.968  1.00  0.00    -0.200 F 
ATOM     91  F   UNL A   1      50.394  25.945  24.272  1.00  0.00    -0.200 F 
ENDBRANCH  57  81
BRANCH  69  92
ATOM     92  C   UNL A   1      45.188  33.303  29.245  1.00  0.00     0.064 A 
ATOM     93  C   UNL A   1      45.886  33.529  30.443  1.00  0.00     0.173 A 
ATOM     94  C   UNL A   1      45.208  34.323  28.281  1.00  0.00     0.173 A 
ATOM     95  F   UNL A   1      45.891  32.596  31.407  1.00  0.00    -0.203 F 
ATOM     96  C   UNL A   1      46.531  34.741  30.683  1.00  0.00     0.198 A 
ATOM     97  C   UNL A   1      45.883  35.521  28.510  1.00  0.00     0.198 A 
ATOM     98  F   UNL A   1      44.567  34.163  27.113  1.00  0.00    -0.203 F 
ATOM     99  F   UNL A   1      47.127  34.959  31.864  1.00  0.00    -0.200 F 
ATOM    100  C   UNL A   1      46.532  35.734  29.716  1.00  0.00     0.200 A 
ATOM    101  F   UNL A   1      45.895  36.474  27.567  1.00  0.00    -0.200 F 
ATOM    102  F   UNL A   1      47.145  36.903  29.952  1.00  0.00    -0.200 F 
ENDBRANCH  69  92
ENDBRANCH  43  44
ENDBRANCH  36  38
ENDBRANCH  35  36
ENDBRANCH  34  35
ENDBRANCH  33  34
ENDBRANCH  32  33
ENDBRANCH  31  32
ENDBRANCH  30  31
ENDBRANCH  29  30
ENDBRANCH   1  29
TORSDOF 23
ENDMDL
