MODEL 1
REMARK VINA RESULT:     -11.7      0.000      0.000
REMARK SMILES O=C(CCCN1C(=O)/C(=C\c2ccc(O)c(O)c2)SC1=S)OCCOCCOCCOC(=O)c1ccc(-c2c3nc(c(-c4c(F)c(F)c(F)c(F)c4F)c4ccc([nH]4)c(-c4c(F)c(F)c(F)c(F)c4F)c4nc(c(-c5c(F)c(F)c(F)c(F)c5F)c5ccc2[nH]5)C=C4)C=C3)cc1
REMARK SMILES IDX 25 1 24 2 23 3 22 4 2 5 1 6 3 7 4 8 5 9 6 10 7 11 20 12 8 13
REMARK SMILES IDX 9 14 19 15 21 16 10 17 11 18 12 19 18 20 13 21 16 22 14 23
REMARK SMILES IDX 17 24 15 26 26 28 27 29 28 30 29 31 30 32 31 33 32 34 33 35
REMARK SMILES IDX 34 36 35 37 96 38 36 39 95 40 37 41 38 42 39 43 89 44 40 45
REMARK SMILES IDX 94 46 88 47 90 48 41 49 93 50 87 51 86 52 42 54 74 55 54 56
REMARK SMILES IDX 73 57 55 58 58 59 72 60 91 61 56 62 57 63 71 65 92 66 59 67
REMARK SMILES IDX 43 68 44 69 52 70 45 71 46 72 50 73 53 74 47 75 48 76 51 77
REMARK SMILES IDX 49 78 75 79 76 80 84 81 77 82 78 83 82 84 85 85 79 86 80 87
REMARK SMILES IDX 83 88 81 89 60 90 61 91 69 92 62 93 63 94 67 95 70 96 64 97
REMARK SMILES IDX 65 98 68 99 66 100
REMARK H PARENT 17 25 15 27 90 53 58 64
REMARK Flexibility Score: inf
ROOT
ATOM      1  O   UNL A   1      40.224  21.127  26.817  1.00  0.00    -0.376 OA
ENDROOT
BRANCH   1   2
ATOM      2  C   UNL A   1      39.256  21.968  26.196  1.00  0.00     0.202 C 
BRANCH   2   3
ATOM      3  C   UNL A   1      38.245  21.283  25.282  1.00  0.00     0.261 C 
BRANCH   3   4
ATOM      4  O   UNL A   1      36.934  21.868  25.094  1.00  0.00    -0.463 OA
BRANCH   4   5
ATOM      5  C   UNL A   1      36.603  22.786  24.164  1.00  0.00     0.305 C 
ATOM      6  O   UNL A   1      36.802  22.572  22.971  1.00  0.00    -0.252 OA
BRANCH   5   7
ATOM      7  C   UNL A   1      35.773  23.955  24.628  1.00  0.00     0.124 C 
BRANCH   7   8
ATOM      8  C   UNL A   1      35.347  23.864  26.091  1.00  0.00     0.034 C 
BRANCH   8   9
ATOM      9  C   UNL A   1      34.058  23.080  26.392  1.00  0.00     0.128 C 
BRANCH   9  10
ATOM     10  N   UNL A   1      33.308  22.458  25.285  1.00  0.00    -0.293 N 
ATOM     11  C   UNL A   1      33.423  21.109  24.992  1.00  0.00     0.266 C 
ATOM     12  C   UNL A   1      32.357  23.146  24.550  1.00  0.00     0.148 C 
ATOM     13  O   UNL A   1      34.125  20.313  25.596  1.00  0.00    -0.268 OA
ATOM     14  C   UNL A   1      32.573  20.745  23.815  1.00  0.00     0.081 C 
ATOM     15  S   UNL A   1      31.787  22.153  23.213  1.00  0.00    -0.054 SA
ATOM     16  S   UNL A   1      31.775  24.690  24.796  1.00  0.00    -0.052 S 
ATOM     17  C   UNL A   1      32.370  19.524  23.294  1.00  0.00     0.029 C 
BRANCH  17  18
ATOM     18  C   UNL A   1      32.869  18.286  23.898  1.00  0.00    -0.020 A 
ATOM     19  C   UNL A   1      34.012  17.673  23.353  1.00  0.00     0.012 A 
ATOM     20  C   UNL A   1      32.224  17.700  24.990  1.00  0.00     0.058 A 
ATOM     21  C   UNL A   1      34.466  16.446  23.834  1.00  0.00     0.051 A 
ATOM     22  C   UNL A   1      32.694  16.485  25.475  1.00  0.00     0.157 A 
ATOM     23  C   UNL A   1      33.791  15.854  24.891  1.00  0.00     0.157 A 
BRANCH  22  24
ATOM     24  O   UNL A   1      32.055  15.893  26.529  1.00  0.00    -0.504 OA
ATOM     25  H   UNL A   1      32.441  15.915  27.383  1.00  0.00     0.293 HD
ENDBRANCH  22  24
BRANCH  23  26
ATOM     26  O   UNL A   1      34.169  14.636  25.385  1.00  0.00    -0.504 OA
ATOM     27  H   UNL A   1      33.973  13.855  24.907  1.00  0.00     0.293 HD
ENDBRANCH  23  26
ENDBRANCH  17  18
ENDBRANCH   9  10
ENDBRANCH   8   9
ENDBRANCH   7   8
ENDBRANCH   5   7
ENDBRANCH   4   5
ENDBRANCH   3   4
ENDBRANCH   2   3
ENDBRANCH   1   2
BRANCH   1  28
ATOM     28  C   UNL A   1      40.529  19.911  26.145  1.00  0.00     0.188 C 
BRANCH  28  29
ATOM     29  C   UNL A   1      41.977  19.429  26.274  1.00  0.00     0.188 C 
BRANCH  29  30
ATOM     30  O   UNL A   1      42.682  19.455  25.036  1.00  0.00    -0.376 OA
BRANCH  30  31
ATOM     31  C   UNL A   1      43.865  20.259  25.077  1.00  0.00     0.202 C 
BRANCH  31  32
ATOM     32  C   UNL A   1      43.710  21.601  25.818  1.00  0.00     0.261 C 
BRANCH  32  33
ATOM     33  O   UNL A   1      43.027  22.646  25.101  1.00  0.00    -0.460 OA
BRANCH  33  34
ATOM     34  C   UNL A   1      43.673  23.822  24.977  1.00  0.00     0.338 C 
ATOM     35  O   UNL A   1      44.603  24.075  24.218  1.00  0.00    -0.246 OA
BRANCH  34  36
ATOM     36  C   UNL A   1      43.045  24.816  25.864  1.00  0.00     0.060 A 
ATOM     37  C   UNL A   1      43.607  26.092  25.981  1.00  0.00     0.016 A 
ATOM     38  C   UNL A   1      41.949  24.454  26.650  1.00  0.00     0.016 A 
ATOM     39  C   UNL A   1      43.082  27.004  26.903  1.00  0.00     0.010 A 
ATOM     40  C   UNL A   1      41.432  25.363  27.580  1.00  0.00     0.010 A 
ATOM     41  C   UNL A   1      42.014  26.633  27.733  1.00  0.00    -0.014 A 
BRANCH  41  42
ATOM     42  C   UNL A   1      41.602  27.511  28.860  1.00  0.00     0.031 A 
ATOM     43  C   UNL A   1      42.364  27.442  30.155  1.00  0.00     0.074 A 
ATOM     44  C   UNL A   1      40.565  28.359  28.740  1.00  0.00     0.049 A 
ATOM     45  N   UNL A   1      42.162  28.085  31.278  1.00  0.00    -0.248 NA
ATOM     46  C   UNL A   1      43.515  26.523  30.186  1.00  0.00     0.031 C 
ATOM     47  C   UNL A   1      39.763  28.546  27.534  1.00  0.00     0.029 A 
ATOM     48  N   UNL A   1      40.004  29.216  29.657  1.00  0.00    -0.354 N 
ATOM     49  C   UNL A   1      43.157  27.653  32.145  1.00  0.00     0.074 A 
ATOM     50  C   UNL A   1      43.950  26.677  31.428  1.00  0.00     0.031 C 
ATOM     51  C   UNL A   1      38.800  29.450  27.789  1.00  0.00     0.029 A 
ATOM     52  C   UNL A   1      38.900  29.882  29.183  1.00  0.00     0.049 A 
ATOM     53  H   UNL A   1      40.361  29.341  30.566  1.00  0.00     0.167 HD
ATOM     54  C   UNL A   1      43.393  28.038  33.423  1.00  0.00     0.037 A 
ATOM     55  C   UNL A   1      38.055  30.722  29.812  1.00  0.00     0.037 A 
ATOM     56  C   UNL A   1      42.597  28.995  34.146  1.00  0.00     0.049 A 
ATOM     57  C   UNL A   1      38.292  31.074  31.260  1.00  0.00     0.074 A 
ATOM     58  C   UNL A   1      42.767  29.457  35.440  1.00  0.00     0.029 A 
ATOM     59  N   UNL A   1      41.470  29.626  33.641  1.00  0.00    -0.354 N 
ATOM     60  N   UNL A   1      39.258  30.693  32.061  1.00  0.00    -0.248 NA
ATOM     61  C   UNL A   1      37.318  31.978  31.893  1.00  0.00     0.031 C 
ATOM     62  C   UNL A   1      41.714  30.328  35.736  1.00  0.00     0.029 A 
ATOM     63  C   UNL A   1      40.919  30.451  34.609  1.00  0.00     0.049 A 
ATOM     64  H   UNL A   1      41.115  29.505  32.732  1.00  0.00     0.167 HD
ATOM     65  C   UNL A   1      39.027  31.331  33.274  1.00  0.00     0.074 A 
ATOM     66  C   UNL A   1      37.836  32.134  33.104  1.00  0.00     0.031 C 
ATOM     67  C   UNL A   1      39.739  31.257  34.425  1.00  0.00     0.037 A 
BRANCH  54  68
ATOM     68  C   UNL A   1      44.549  27.403  34.136  1.00  0.00     0.064 A 
ATOM     69  C   UNL A   1      44.408  26.194  34.833  1.00  0.00     0.173 A 
ATOM     70  C   UNL A   1      45.824  27.985  34.080  1.00  0.00     0.173 A 
ATOM     71  F   UNL A   1      43.208  25.603  34.925  1.00  0.00    -0.203 F 
ATOM     72  C   UNL A   1      45.499  25.599  35.463  1.00  0.00     0.198 A 
ATOM     73  C   UNL A   1      46.918  27.375  34.689  1.00  0.00     0.198 A 
ATOM     74  F   UNL A   1      46.013  29.137  33.421  1.00  0.00    -0.203 F 
ATOM     75  F   UNL A   1      45.335  24.463  36.154  1.00  0.00    -0.200 F 
ATOM     76  C   UNL A   1      46.753  26.186  35.384  1.00  0.00     0.200 A 
ATOM     77  F   UNL A   1      48.132  27.937  34.601  1.00  0.00    -0.200 F 
ATOM     78  F   UNL A   1      47.805  25.608  35.982  1.00  0.00    -0.200 F 
ENDBRANCH  54  68
BRANCH  55  79
ATOM     79  C   UNL A   1      36.883  31.284  29.088  1.00  0.00     0.064 A 
ATOM     80  C   UNL A   1      36.842  32.634  28.712  1.00  0.00     0.173 A 
ATOM     81  C   UNL A   1      35.764  30.491  28.795  1.00  0.00     0.173 A 
ATOM     82  F   UNL A   1      37.874  33.441  28.999  1.00  0.00    -0.203 F 
ATOM     83  C   UNL A   1      35.717  33.174  28.092  1.00  0.00     0.198 A 
ATOM     84  C   UNL A   1      34.651  31.025  28.149  1.00  0.00     0.198 A 
ATOM     85  F   UNL A   1      35.745  29.197  29.144  1.00  0.00    -0.203 F 
ATOM     86  F   UNL A   1      35.680  34.481  27.797  1.00  0.00    -0.200 F 
ATOM     87  C   UNL A   1      34.625  32.368  27.806  1.00  0.00     0.200 A 
ATOM     88  F   UNL A   1      33.600  30.242  27.870  1.00  0.00    -0.200 F 
ATOM     89  F   UNL A   1      33.540  32.890  27.216  1.00  0.00    -0.200 F 
ENDBRANCH  55  79
BRANCH  67  90
ATOM     90  C   UNL A   1      39.280  32.097  35.583  1.00  0.00     0.064 A 
ATOM     91  C   UNL A   1      38.445  31.580  36.584  1.00  0.00     0.173 A 
ATOM     92  C   UNL A   1      39.719  33.423  35.715  1.00  0.00     0.173 A 
ATOM     93  F   UNL A   1      37.986  30.323  36.498  1.00  0.00    -0.203 F 
ATOM     94  C   UNL A   1      38.049  32.368  37.663  1.00  0.00     0.198 A 
ATOM     95  C   UNL A   1      39.345  34.198  36.809  1.00  0.00     0.198 A 
ATOM     96  F   UNL A   1      40.525  33.964  34.789  1.00  0.00    -0.203 F 
ATOM     97  F   UNL A   1      37.215  31.866  38.585  1.00  0.00    -0.200 F 
ATOM     98  C   UNL A   1      38.505  33.672  37.778  1.00  0.00     0.200 A 
ATOM     99  F   UNL A   1      39.799  35.453  36.927  1.00  0.00    -0.200 F 
ATOM    100  F   UNL A   1      38.129  34.425  38.822  1.00  0.00    -0.200 F 
ENDBRANCH  67  90
ENDBRANCH  41  42
ENDBRANCH  34  36
ENDBRANCH  33  34
ENDBRANCH  32  33
ENDBRANCH  31  32
ENDBRANCH  30  31
ENDBRANCH  29  30
ENDBRANCH  28  29
ENDBRANCH   1  28
TORSDOF 23
ENDMDL
MODEL 2
REMARK VINA RESULT:     -10.5      1.121      7.160
REMARK SMILES O=C(CCCN1C(=O)/C(=C\c2ccc(O)c(O)c2)SC1=S)OCCOCCOCCOC(=O)c1ccc(-c2c3nc(c(-c4c(F)c(F)c(F)c(F)c4F)c4ccc([nH]4)c(-c4c(F)c(F)c(F)c(F)c4F)c4nc(c(-c5c(F)c(F)c(F)c(F)c5F)c5ccc2[nH]5)C=C4)C=C3)cc1
REMARK SMILES IDX 25 1 24 2 23 3 22 4 2 5 1 6 3 7 4 8 5 9 6 10 7 11 20 12 8 13
REMARK SMILES IDX 9 14 19 15 21 16 10 17 11 18 12 19 18 20 13 21 16 22 14 23
REMARK SMILES IDX 17 24 15 26 26 28 27 29 28 30 29 31 30 32 31 33 32 34 33 35
REMARK SMILES IDX 34 36 35 37 96 38 36 39 95 40 37 41 38 42 39 43 89 44 40 45
REMARK SMILES IDX 94 46 88 47 90 48 41 49 93 50 87 51 86 52 42 54 74 55 54 56
REMARK SMILES IDX 73 57 55 58 58 59 72 60 91 61 56 62 57 63 71 65 92 66 59 67
REMARK SMILES IDX 43 68 44 69 52 70 45 71 46 72 50 73 53 74 47 75 48 76 51 77
REMARK SMILES IDX 49 78 75 79 76 80 84 81 77 82 78 83 82 84 85 85 79 86 80 87
REMARK SMILES IDX 83 88 81 89 60 90 61 91 69 92 62 93 63 94 67 95 70 96 64 97
REMARK SMILES IDX 65 98 68 99 66 100
REMARK H PARENT 17 25 15 27 90 53 58 64
REMARK Flexibility Score: inf
ROOT
ATOM      1  O   UNL A   1      40.191  20.797  26.901  1.00  0.00    -0.376 OA
ENDROOT
BRANCH   1   2
ATOM      2  C   UNL A   1      39.694  21.721  25.937  1.00  0.00     0.202 C 
BRANCH   2   3
ATOM      3  C   UNL A   1      38.290  21.456  25.401  1.00  0.00     0.261 C 
BRANCH   3   4
ATOM      4  O   UNL A   1      37.267  22.473  25.531  1.00  0.00    -0.463 OA
BRANCH   4   5
ATOM      5  C   UNL A   1      36.521  22.977  24.527  1.00  0.00     0.305 C 
ATOM      6  O   UNL A   1      36.467  22.411  23.439  1.00  0.00    -0.252 OA
BRANCH   5   7
ATOM      7  C   UNL A   1      35.585  24.106  24.877  1.00  0.00     0.124 C 
BRANCH   7   8
ATOM      8  C   UNL A   1      35.048  24.039  26.305  1.00  0.00     0.034 C 
BRANCH   8   9
ATOM      9  C   UNL A   1      33.842  23.115  26.550  1.00  0.00     0.128 C 
BRANCH   9  10
ATOM     10  N   UNL A   1      33.162  22.484  25.404  1.00  0.00    -0.293 N 
ATOM     11  C   UNL A   1      33.344  21.147  25.093  1.00  0.00     0.266 C 
ATOM     12  C   UNL A   1      32.212  23.146  24.644  1.00  0.00     0.148 C 
ATOM     13  O   UNL A   1      34.055  20.368  25.710  1.00  0.00    -0.268 OA
ATOM     14  C   UNL A   1      32.556  20.770  23.877  1.00  0.00     0.081 C 
ATOM     15  S   UNL A   1      31.735  22.156  23.269  1.00  0.00    -0.054 SA
ATOM     16  S   UNL A   1      31.557  24.660  24.894  1.00  0.00    -0.052 S 
ATOM     17  C   UNL A   1      32.425  19.553  23.327  1.00  0.00     0.029 C 
BRANCH  17  18
ATOM     18  C   UNL A   1      32.951  18.324  23.928  1.00  0.00    -0.020 A 
ATOM     19  C   UNL A   1      34.133  17.764  23.412  1.00  0.00     0.012 A 
ATOM     20  C   UNL A   1      32.294  17.697  24.991  1.00  0.00     0.058 A 
ATOM     21  C   UNL A   1      34.617  16.547  23.889  1.00  0.00     0.051 A 
ATOM     22  C   UNL A   1      32.794  16.494  25.473  1.00  0.00     0.157 A 
ATOM     23  C   UNL A   1      33.933  15.913  24.915  1.00  0.00     0.157 A 
BRANCH  22  24
ATOM     24  O   UNL A   1      32.145  15.862  26.496  1.00  0.00    -0.504 OA
ATOM     25  H   UNL A   1      32.274  16.147  27.380  1.00  0.00     0.293 HD
ENDBRANCH  22  24
BRANCH  23  26
ATOM     26  O   UNL A   1      34.341  14.703  25.403  1.00  0.00    -0.504 OA
ATOM     27  H   UNL A   1      35.117  14.645  25.924  1.00  0.00     0.293 HD
ENDBRANCH  23  26
ENDBRANCH  17  18
ENDBRANCH   9  10
ENDBRANCH   8   9
ENDBRANCH   7   8
ENDBRANCH   5   7
ENDBRANCH   4   5
ENDBRANCH   3   4
ENDBRANCH   2   3
ENDBRANCH   1   2
BRANCH   1  28
ATOM     28  C   UNL A   1      40.853  19.646  26.391  1.00  0.00     0.188 C 
BRANCH  28  29
ATOM     29  C   UNL A   1      42.383  19.688  26.436  1.00  0.00     0.188 C 
BRANCH  29  30
ATOM     30  O   UNL A   1      42.950  20.426  25.358  1.00  0.00    -0.376 OA
BRANCH  30  31
ATOM     31  C   UNL A   1      43.452  21.707  25.753  1.00  0.00     0.202 C 
BRANCH  31  32
ATOM     32  C   UNL A   1      43.472  22.767  24.635  1.00  0.00     0.261 C 
BRANCH  32  33
ATOM     33  O   UNL A   1      43.075  24.098  25.015  1.00  0.00    -0.460 OA
BRANCH  33  34
ATOM     34  C   UNL A   1      44.060  24.964  25.324  1.00  0.00     0.338 C 
ATOM     35  O   UNL A   1      45.026  25.257  24.628  1.00  0.00    -0.246 OA
BRANCH  34  36
ATOM     36  C   UNL A   1      43.773  25.578  26.631  1.00  0.00     0.060 A 
ATOM     37  C   UNL A   1      42.917  24.929  27.528  1.00  0.00     0.016 A 
ATOM     38  C   UNL A   1      44.282  26.843  26.934  1.00  0.00     0.016 A 
ATOM     39  C   UNL A   1      42.552  25.557  28.723  1.00  0.00     0.010 A 
ATOM     40  C   UNL A   1      43.907  27.475  28.125  1.00  0.00     0.010 A 
ATOM     41  C   UNL A   1      43.017  26.848  29.014  1.00  0.00    -0.014 A 
BRANCH  41  42
ATOM     42  C   UNL A   1      42.458  27.603  30.165  1.00  0.00     0.031 A 
ATOM     43  C   UNL A   1      41.182  28.377  29.981  1.00  0.00     0.074 A 
ATOM     44  C   UNL A   1      43.074  27.606  31.362  1.00  0.00     0.049 A 
ATOM     45  N   UNL A   1      40.533  29.133  30.832  1.00  0.00    -0.248 NA
ATOM     46  C   UNL A   1      40.548  28.282  28.655  1.00  0.00     0.031 C 
ATOM     47  C   UNL A   1      44.297  26.876  31.683  1.00  0.00     0.029 A 
ATOM     48  N   UNL A   1      42.752  28.259  32.528  1.00  0.00    -0.354 N 
ATOM     49  C   UNL A   1      39.418  29.600  30.148  1.00  0.00     0.074 A 
ATOM     50  C   UNL A   1      39.487  29.061  28.806  1.00  0.00     0.031 C 
ATOM     51  C   UNL A   1      44.634  27.134  32.960  1.00  0.00     0.029 A 
ATOM     52  C   UNL A   1      43.667  28.070  33.534  1.00  0.00     0.049 A 
ATOM     53  H   UNL A   1      41.942  28.809  32.632  1.00  0.00     0.167 HD
ATOM     54  C   UNL A   1      38.423  30.402  30.598  1.00  0.00     0.037 A 
ATOM     55  C   UNL A   1      43.729  28.611  34.767  1.00  0.00     0.037 A 
ATOM     56  C   UNL A   1      38.359  30.954  31.926  1.00  0.00     0.049 A 
ATOM     57  C   UNL A   1      42.650  29.565  35.218  1.00  0.00     0.074 A 
ATOM     58  C   UNL A   1      37.383  31.766  32.477  1.00  0.00     0.029 A 
ATOM     59  N   UNL A   1      39.320  30.763  32.907  1.00  0.00    -0.354 N 
ATOM     60  N   UNL A   1      41.578  29.970  34.581  1.00  0.00    -0.248 NA
ATOM     61  C   UNL A   1      42.791  30.138  36.566  1.00  0.00     0.031 C 
ATOM     62  C   UNL A   1      37.778  32.109  33.774  1.00  0.00     0.029 A 
ATOM     63  C   UNL A   1      38.972  31.465  34.050  1.00  0.00     0.049 A 
ATOM     64  H   UNL A   1      40.127  30.210  32.807  1.00  0.00     0.167 HD
ATOM     65  C   UNL A   1      40.905  30.814  35.456  1.00  0.00     0.074 A 
ATOM     66  C   UNL A   1      41.682  30.857  36.675  1.00  0.00     0.031 C 
ATOM     67  C   UNL A   1      39.746  31.492  35.265  1.00  0.00     0.037 A 
BRANCH  54  68
ATOM     68  C   UNL A   1      37.327  30.754  29.637  1.00  0.00     0.064 A 
ATOM     69  C   UNL A   1      37.261  32.016  29.028  1.00  0.00     0.173 A 
ATOM     70  C   UNL A   1      36.361  29.801  29.282  1.00  0.00     0.173 A 
ATOM     71  F   UNL A   1      38.156  32.965  29.342  1.00  0.00    -0.203 F 
ATOM     72  C   UNL A   1      36.256  32.317  28.112  1.00  0.00     0.198 A 
ATOM     73  C   UNL A   1      35.372  30.097  28.346  1.00  0.00     0.198 A 
ATOM     74  F   UNL A   1      36.383  28.578  29.830  1.00  0.00    -0.203 F 
ATOM     75  F   UNL A   1      36.190  33.541  27.569  1.00  0.00    -0.200 F 
ATOM     76  C   UNL A   1      35.318  31.356  27.767  1.00  0.00     0.200 A 
ATOM     77  F   UNL A   1      34.474  29.163  28.004  1.00  0.00    -0.200 F 
ATOM     78  F   UNL A   1      34.358  31.643  26.877  1.00  0.00    -0.200 F 
ENDBRANCH  54  68
BRANCH  55  79
ATOM     79  C   UNL A   1      44.865  28.285  35.670  1.00  0.00     0.064 A 
ATOM     80  C   UNL A   1      44.814  27.178  36.528  1.00  0.00     0.173 A 
ATOM     81  C   UNL A   1      46.006  29.099  35.723  1.00  0.00     0.173 A 
ATOM     82  F   UNL A   1      43.730  26.388  36.539  1.00  0.00    -0.203 F 
ATOM     83  C   UNL A   1      45.851  26.910  37.421  1.00  0.00     0.198 A 
ATOM     84  C   UNL A   1      47.055  28.814  36.595  1.00  0.00     0.198 A 
ATOM     85  F   UNL A   1      46.101  30.178  34.933  1.00  0.00    -0.203 F 
ATOM     86  F   UNL A   1      45.751  25.880  38.272  1.00  0.00    -0.200 F 
ATOM     87  C   UNL A   1      46.973  27.726  37.449  1.00  0.00     0.200 A 
ATOM     88  F   UNL A   1      48.139  29.602  36.615  1.00  0.00    -0.200 F 
ATOM     89  F   UNL A   1      47.967  27.472  38.312  1.00  0.00    -0.200 F 
ENDBRANCH  55  79
BRANCH  67  90
ATOM     90  C   UNL A   1      39.221  32.307  36.412  1.00  0.00     0.064 A 
ATOM     91  C   UNL A   1      38.230  31.816  37.274  1.00  0.00     0.173 A 
ATOM     92  C   UNL A   1      39.749  33.580  36.678  1.00  0.00     0.173 A 
ATOM     93  F   UNL A   1      37.682  30.611  37.056  1.00  0.00    -0.203 F 
ATOM     94  C   UNL A   1      37.773  32.577  38.347  1.00  0.00     0.198 A 
ATOM     95  C   UNL A   1      39.311  34.325  37.768  1.00  0.00     0.198 A 
ATOM     96  F   UNL A   1      40.704  34.094  35.888  1.00  0.00    -0.203 F 
ATOM     97  F   UNL A   1      36.794  32.104  39.133  1.00  0.00    -0.200 F 
ATOM     98  C   UNL A   1      38.318  33.827  38.597  1.00  0.00     0.200 A 
ATOM     99  F   UNL A   1      39.850  35.527  38.017  1.00  0.00    -0.200 F 
ATOM    100  F   UNL A   1      37.883  34.554  39.636  1.00  0.00    -0.200 F 
ENDBRANCH  67  90
ENDBRANCH  41  42
ENDBRANCH  34  36
ENDBRANCH  33  34
ENDBRANCH  32  33
ENDBRANCH  31  32
ENDBRANCH  30  31
ENDBRANCH  29  30
ENDBRANCH  28  29
ENDBRANCH   1  28
TORSDOF 23
ENDMDL
MODEL 3
REMARK VINA RESULT:      -9.6      1.966      3.755
REMARK SMILES O=C(CCCN1C(=O)/C(=C\c2ccc(O)c(O)c2)SC1=S)OCCOCCOCCOC(=O)c1ccc(-c2c3nc(c(-c4c(F)c(F)c(F)c(F)c4F)c4ccc([nH]4)c(-c4c(F)c(F)c(F)c(F)c4F)c4nc(c(-c5c(F)c(F)c(F)c(F)c5F)c5ccc2[nH]5)C=C4)C=C3)cc1
REMARK SMILES IDX 25 1 24 2 23 3 22 4 2 5 1 6 3 7 4 8 5 9 6 10 7 11 20 12 8 13
REMARK SMILES IDX 9 14 19 15 21 16 10 17 11 18 12 19 18 20 13 21 16 22 14 23
REMARK SMILES IDX 17 24 15 26 26 28 27 29 28 30 29 31 30 32 31 33 32 34 33 35
REMARK SMILES IDX 34 36 35 37 96 38 36 39 95 40 37 41 38 42 39 43 89 44 40 45
REMARK SMILES IDX 94 46 88 47 90 48 41 49 93 50 87 51 86 52 42 54 74 55 54 56
REMARK SMILES IDX 73 57 55 58 58 59 72 60 91 61 56 62 57 63 71 65 92 66 59 67
REMARK SMILES IDX 43 68 44 69 52 70 45 71 46 72 50 73 53 74 47 75 48 76 51 77
REMARK SMILES IDX 49 78 75 79 76 80 84 81 77 82 78 83 82 84 85 85 79 86 80 87
REMARK SMILES IDX 83 88 81 89 60 90 61 91 69 92 62 93 63 94 67 95 70 96 64 97
REMARK SMILES IDX 65 98 68 99 66 100
REMARK H PARENT 17 25 15 27 90 53 58 64
REMARK Flexibility Score: inf
ROOT
ATOM      1  O   UNL A   1      38.506  21.258  26.105  1.00  0.00    -0.376 OA
ENDROOT
BRANCH   1   2
ATOM      2  C   UNL A   1      39.007  22.589  26.168  1.00  0.00     0.202 C 
BRANCH   2   3
ATOM      3  C   UNL A   1      38.003  23.709  25.912  1.00  0.00     0.261 C 
BRANCH   3   4
ATOM      4  O   UNL A   1      36.646  23.584  26.403  1.00  0.00    -0.463 OA
BRANCH   4   5
ATOM      5  C   UNL A   1      35.680  22.812  25.866  1.00  0.00     0.305 C 
ATOM      6  O   UNL A   1      35.518  22.760  24.650  1.00  0.00    -0.252 OA
BRANCH   5   7
ATOM      7  C   UNL A   1      34.986  21.849  26.796  1.00  0.00     0.124 C 
BRANCH   7   8
ATOM      8  C   UNL A   1      33.724  22.418  27.441  1.00  0.00     0.034 C 
BRANCH   8   9
ATOM      9  C   UNL A   1      32.388  22.104  26.745  1.00  0.00     0.128 C 
BRANCH   9  10
ATOM     10  N   UNL A   1      32.185  22.504  25.341  1.00  0.00    -0.293 N 
ATOM     11  C   UNL A   1      31.911  23.816  24.987  1.00  0.00     0.266 C 
ATOM     12  C   UNL A   1      32.373  21.631  24.282  1.00  0.00     0.148 C 
ATOM     13  O   UNL A   1      31.817  24.752  25.765  1.00  0.00    -0.268 OA
ATOM     14  C   UNL A   1      31.732  23.942  23.506  1.00  0.00     0.081 C 
ATOM     15  S   UNL A   1      31.885  22.392  22.772  1.00  0.00    -0.054 SA
ATOM     16  S   UNL A   1      32.954  20.068  24.320  1.00  0.00    -0.052 S 
ATOM     17  C   UNL A   1      31.534  25.063  22.795  1.00  0.00     0.029 C 
BRANCH  17  18
ATOM     18  C   UNL A   1      31.591  26.412  23.364  1.00  0.00    -0.020 A 
ATOM     19  C   UNL A   1      30.395  27.036  23.761  1.00  0.00     0.012 A 
ATOM     20  C   UNL A   1      32.806  27.089  23.506  1.00  0.00     0.058 A 
ATOM     21  C   UNL A   1      30.391  28.353  24.219  1.00  0.00     0.051 A 
ATOM     22  C   UNL A   1      32.794  28.395  23.980  1.00  0.00     0.157 A 
ATOM     23  C   UNL A   1      31.598  29.029  24.315  1.00  0.00     0.157 A 
BRANCH  22  24
ATOM     24  O   UNL A   1      33.975  29.073  24.100  1.00  0.00    -0.504 OA
ATOM     25  H   UNL A   1      33.979  30.011  24.102  1.00  0.00     0.293 HD
ENDBRANCH  22  24
BRANCH  23  26
ATOM     26  O   UNL A   1      31.655  30.331  24.726  1.00  0.00    -0.504 OA
ATOM     27  H   UNL A   1      30.915  30.723  25.146  1.00  0.00     0.293 HD
ENDBRANCH  23  26
ENDBRANCH  17  18
ENDBRANCH   9  10
ENDBRANCH   8   9
ENDBRANCH   7   8
ENDBRANCH   5   7
ENDBRANCH   4   5
ENDBRANCH   3   4
ENDBRANCH   2   3
ENDBRANCH   1   2
BRANCH   1  28
ATOM     28  C   UNL A   1      39.380  20.278  25.556  1.00  0.00     0.188 C 
BRANCH  28  29
ATOM     29  C   UNL A   1      40.510  19.810  26.477  1.00  0.00     0.188 C 
BRANCH  29  30
ATOM     30  O   UNL A   1      41.557  19.145  25.776  1.00  0.00    -0.376 OA
BRANCH  30  31
ATOM     31  C   UNL A   1      42.738  19.942  25.636  1.00  0.00     0.202 C 
BRANCH  31  32
ATOM     32  C   UNL A   1      42.637  21.359  26.234  1.00  0.00     0.261 C 
BRANCH  32  33
ATOM     33  O   UNL A   1      42.257  22.406  25.322  1.00  0.00    -0.460 OA
BRANCH  33  34
ATOM     34  C   UNL A   1      43.168  23.372  25.090  1.00  0.00     0.338 C 
ATOM     35  O   UNL A   1      44.026  23.378  24.214  1.00  0.00    -0.246 OA
BRANCH  34  36
ATOM     36  C   UNL A   1      42.940  24.487  26.025  1.00  0.00     0.060 A 
ATOM     37  C   UNL A   1      43.689  24.564  27.204  1.00  0.00     0.016 A 
ATOM     38  C   UNL A   1      41.921  25.408  25.775  1.00  0.00     0.016 A 
ATOM     39  C   UNL A   1      43.403  25.557  28.148  1.00  0.00     0.010 A 
ATOM     40  C   UNL A   1      41.629  26.394  26.726  1.00  0.00     0.010 A 
ATOM     41  C   UNL A   1      42.349  26.456  27.931  1.00  0.00    -0.014 A 
BRANCH  41  42
ATOM     42  C   UNL A   1      41.900  27.360  29.022  1.00  0.00     0.031 A 
ATOM     43  C   UNL A   1      42.653  27.362  30.324  1.00  0.00     0.074 A 
ATOM     44  C   UNL A   1      40.838  28.170  28.863  1.00  0.00     0.049 A 
ATOM     45  N   UNL A   1      42.421  28.039  31.422  1.00  0.00    -0.248 NA
ATOM     46  C   UNL A   1      43.831  26.482  30.398  1.00  0.00     0.031 C 
ATOM     47  C   UNL A   1      40.041  28.288  27.646  1.00  0.00     0.029 A 
ATOM     48  N   UNL A   1      40.243  29.041  29.744  1.00  0.00    -0.354 N 
ATOM     49  C   UNL A   1      43.421  27.669  32.312  1.00  0.00     0.074 A 
ATOM     50  C   UNL A   1      44.250  26.693  31.637  1.00  0.00     0.031 C 
ATOM     51  C   UNL A   1      39.048  29.170  27.860  1.00  0.00     0.029 A 
ATOM     52  C   UNL A   1      39.123  29.655  29.239  1.00  0.00     0.049 A 
ATOM     53  H   UNL A   1      40.587  29.211  30.651  1.00  0.00     0.167 HD
ATOM     54  C   UNL A   1      43.633  28.107  33.576  1.00  0.00     0.037 A 
ATOM     55  C   UNL A   1      38.246  30.490  29.830  1.00  0.00     0.037 A 
ATOM     56  C   UNL A   1      42.801  29.064  34.258  1.00  0.00     0.049 A 
ATOM     57  C   UNL A   1      38.459  30.901  31.266  1.00  0.00     0.074 A 
ATOM     58  C   UNL A   1      42.946  29.578  35.535  1.00  0.00     0.029 A 
ATOM     59  N   UNL A   1      41.660  29.641  33.722  1.00  0.00    -0.354 N 
ATOM     60  N   UNL A   1      39.429  30.580  32.088  1.00  0.00    -0.248 NA
ATOM     61  C   UNL A   1      37.452  31.796  31.858  1.00  0.00     0.031 C 
ATOM     62  C   UNL A   1      41.864  30.425  35.792  1.00  0.00     0.029 A 
ATOM     63  C   UNL A   1      41.075  30.482  34.655  1.00  0.00     0.049 A 
ATOM     64  H   UNL A   1      41.317  29.476  32.815  1.00  0.00     0.167 HD
ATOM     65  C   UNL A   1      39.168  31.253  33.275  1.00  0.00     0.074 A 
ATOM     66  C   UNL A   1      37.954  32.012  33.066  1.00  0.00     0.031 C 
ATOM     67  C   UNL A   1      39.872  31.244  34.433  1.00  0.00     0.037 A 
BRANCH  54  68
ATOM     68  C   UNL A   1      44.803  27.535  34.321  1.00  0.00     0.064 A 
ATOM     69  C   UNL A   1      44.693  26.349  35.062  1.00  0.00     0.173 A 
ATOM     70  C   UNL A   1      46.060  28.154  34.252  1.00  0.00     0.173 A 
ATOM     71  F   UNL A   1      43.510  25.726  35.168  1.00  0.00    -0.203 F 
ATOM     72  C   UNL A   1      45.796  25.813  35.722  1.00  0.00     0.198 A 
ATOM     73  C   UNL A   1      47.167  27.601  34.891  1.00  0.00     0.198 A 
ATOM     74  F   UNL A   1      46.219  29.286  33.552  1.00  0.00    -0.203 F 
ATOM     75  F   UNL A   1      45.661  24.698  36.454  1.00  0.00    -0.200 F 
ATOM     76  C   UNL A   1      47.033  26.435  35.630  1.00  0.00     0.200 A 
ATOM     77  F   UNL A   1      48.363  28.196  34.791  1.00  0.00    -0.200 F 
ATOM     78  F   UNL A   1      48.096  25.912  36.256  1.00  0.00    -0.200 F 
ENDBRANCH  54  68
BRANCH  55  79
ATOM     79  C   UNL A   1      37.064  30.988  29.076  1.00  0.00     0.064 A 
ATOM     80  C   UNL A   1      36.994  32.315  28.630  1.00  0.00     0.173 A 
ATOM     81  C   UNL A   1      35.962  30.158  28.826  1.00  0.00     0.173 A 
ATOM     82  F   UNL A   1      38.009  33.157  28.874  1.00  0.00    -0.203 F 
ATOM     83  C   UNL A   1      35.859  32.798  27.982  1.00  0.00     0.198 A 
ATOM     84  C   UNL A   1      34.839  30.633  28.152  1.00  0.00     0.198 A 
ATOM     85  F   UNL A   1      35.970  28.883  29.243  1.00  0.00    -0.203 F 
ATOM     86  F   UNL A   1      35.795  34.086  27.619  1.00  0.00    -0.200 F 
ATOM     87  C   UNL A   1      34.785  31.956  27.739  1.00  0.00     0.200 A 
ATOM     88  F   UNL A   1      33.805  29.814  27.915  1.00  0.00    -0.200 F 
ATOM     89  F   UNL A   1      33.690  32.423  27.122  1.00  0.00    -0.200 F 
ENDBRANCH  55  79
BRANCH  67  90
ATOM     90  C   UNL A   1      39.376  32.110  35.556  1.00  0.00     0.064 A 
ATOM     91  C   UNL A   1      38.491  31.623  36.529  1.00  0.00     0.173 A 
ATOM     92  C   UNL A   1      39.830  33.432  35.685  1.00  0.00     0.173 A 
ATOM     93  F   UNL A   1      38.017  30.371  36.443  1.00  0.00    -0.203 F 
ATOM     94  C   UNL A   1      38.061  32.434  37.576  1.00  0.00     0.198 A 
ATOM     95  C   UNL A   1      39.422  34.230  36.750  1.00  0.00     0.198 A 
ATOM     96  F   UNL A   1      40.684  33.945  34.786  1.00  0.00    -0.203 F 
ATOM     97  F   UNL A   1      37.181  31.961  38.470  1.00  0.00    -0.200 F 
ATOM     98  C   UNL A   1      38.532  33.733  37.690  1.00  0.00     0.200 A 
ATOM     99  F   UNL A   1      39.890  35.481  36.866  1.00  0.00    -0.200 F 
ATOM    100  F   UNL A   1      38.124  34.509  38.704  1.00  0.00    -0.200 F 
ENDBRANCH  67  90
ENDBRANCH  41  42
ENDBRANCH  34  36
ENDBRANCH  33  34
ENDBRANCH  32  33
ENDBRANCH  31  32
ENDBRANCH  30  31
ENDBRANCH  29  30
ENDBRANCH  28  29
ENDBRANCH   1  28
TORSDOF 23
ENDMDL
