MODEL 1
REMARK VINA RESULT:     -11.0      0.000      0.000
REMARK SMILES O=C(OCCOCCOCCOC(=O)c1cc(-c2ccccc2)ccc1F)c1ccc(-c2c3nc(c(-c4c(F)c(F)c(F)c(F)c4F)c4ccc([nH]4)c(-c4c(F)c(F)c(F)c(F)c4F)c4nc(c(-c5c(F)c(F)c(F)c(F)c5F)c5ccc2[nH]5)C=C4)C=C3)cc1
REMARK SMILES IDX 7 1 6 2 5 3 4 4 3 5 2 6 1 7 28 8 29 9 90 10 30 11 89 12
REMARK SMILES IDX 31 13 32 14 33 15 83 16 34 17 88 18 82 19 84 20 35 21 87 22
REMARK SMILES IDX 81 23 80 24 36 26 68 27 48 28 67 29 49 30 52 31 66 32 85 33
REMARK SMILES IDX 50 34 51 35 65 37 86 38 53 39 37 40 38 41 46 42 39 43 40 44
REMARK SMILES IDX 44 45 47 46 41 47 42 48 45 49 43 50 69 51 70 52 78 53 71 54
REMARK SMILES IDX 72 55 76 56 79 57 73 58 74 59 77 60 75 61 54 62 55 63 63 64
REMARK SMILES IDX 56 65 57 66 61 67 64 68 58 69 59 70 62 71 60 72 8 73 9 74
REMARK SMILES IDX 10 75 11 76 12 77 13 78 14 79 15 80 16 81 26 82 17 83 25 84
REMARK SMILES IDX 27 85 24 86 18 87 19 88 23 89 20 90 22 91 21 92
REMARK H PARENT 84 25 52 36
REMARK Flexibility Score: inf
ROOT
ATOM      1  C   UNL A   1      34.382  33.958  29.108  1.00  0.00     0.188 C 
ENDROOT
BRANCH   1   2
ATOM      2  O   UNL A   1      33.030  34.432  29.023  1.00  0.00    -0.376 OA
BRANCH   2   3
ATOM      3  C   UNL A   1      32.930  35.837  28.778  1.00  0.00     0.202 C 
BRANCH   3   4
ATOM      4  C   UNL A   1      33.229  36.696  30.011  1.00  0.00     0.261 C 
BRANCH   4   5
ATOM      5  O   UNL A   1      32.271  36.466  31.058  1.00  0.00    -0.460 OA
BRANCH   5   6
ATOM      6  C   UNL A   1      32.392  35.642  32.127  1.00  0.00     0.338 C 
ATOM      7  O   UNL A   1      31.380  35.315  32.745  1.00  0.00    -0.246 OA
BRANCH   6   8
ATOM      8  C   UNL A   1      33.689  35.037  32.561  1.00  0.00     0.060 A 
ATOM      9  C   UNL A   1      34.910  35.710  32.621  1.00  0.00     0.016 A 
ATOM     10  C   UNL A   1      33.648  33.706  33.011  1.00  0.00     0.016 A 
ATOM     11  C   UNL A   1      36.079  35.049  32.994  1.00  0.00     0.010 A 
ATOM     12  C   UNL A   1      34.804  33.061  33.465  1.00  0.00     0.010 A 
ATOM     13  C   UNL A   1      36.038  33.719  33.419  1.00  0.00    -0.014 A 
BRANCH  13  14
ATOM     14  C   UNL A   1      37.304  33.013  33.724  1.00  0.00     0.031 A 
ATOM     15  C   UNL A   1      37.979  33.261  35.041  1.00  0.00     0.074 A 
ATOM     16  C   UNL A   1      37.786  32.082  32.880  1.00  0.00     0.049 A 
ATOM     17  N   UNL A   1      39.102  32.776  35.500  1.00  0.00    -0.248 NA
ATOM     18  C   UNL A   1      37.285  34.163  35.976  1.00  0.00     0.031 C 
ATOM     19  C   UNL A   1      37.153  31.680  31.624  1.00  0.00     0.029 A 
ATOM     20  N   UNL A   1      38.897  31.282  32.964  1.00  0.00    -0.354 N 
ATOM     21  C   UNL A   1      39.252  33.315  36.770  1.00  0.00     0.074 A 
ATOM     22  C   UNL A   1      38.122  34.186  37.003  1.00  0.00     0.031 C 
ATOM     23  C   UNL A   1      37.869  30.686  31.075  1.00  0.00     0.029 A 
ATOM     24  C   UNL A   1      39.049  30.438  31.892  1.00  0.00     0.049 A 
ATOM     25  H   UNL A   1      39.526  31.310  33.722  1.00  0.00     0.167 HD
ATOM     26  C   UNL A   1      40.240  33.090  37.666  1.00  0.00     0.037 A 
ATOM     27  C   UNL A   1      40.041  29.581  31.584  1.00  0.00     0.037 A 
ATOM     28  C   UNL A   1      41.354  32.215  37.431  1.00  0.00     0.049 A 
ATOM     29  C   UNL A   1      41.189  29.437  32.543  1.00  0.00     0.074 A 
ATOM     30  C   UNL A   1      42.438  31.958  38.250  1.00  0.00     0.029 A 
ATOM     31  N   UNL A   1      41.520  31.447  36.288  1.00  0.00    -0.354 N 
ATOM     32  N   UNL A   1      41.355  30.000  33.715  1.00  0.00    -0.248 NA
ATOM     33  C   UNL A   1      42.288  28.551  32.140  1.00  0.00     0.031 C 
ATOM     34  C   UNL A   1      43.276  31.054  37.589  1.00  0.00     0.029 A 
ATOM     35  C   UNL A   1      42.697  30.724  36.373  1.00  0.00     0.049 A 
ATOM     36  H   UNL A   1      40.895  31.420  35.528  1.00  0.00     0.167 HD
ATOM     37  C   UNL A   1      42.565  29.528  34.198  1.00  0.00     0.074 A 
ATOM     38  C   UNL A   1      43.088  28.620  33.196  1.00  0.00     0.031 C 
ATOM     39  C   UNL A   1      43.188  29.821  35.364  1.00  0.00     0.037 A 
BRANCH  26  40
ATOM     40  C   UNL A   1      40.163  33.825  38.967  1.00  0.00     0.064 A 
ATOM     41  C   UNL A   1      39.376  33.329  40.016  1.00  0.00     0.173 A 
ATOM     42  C   UNL A   1      40.861  35.023  39.174  1.00  0.00     0.173 A 
ATOM     43  F   UNL A   1      38.696  32.182  39.869  1.00  0.00    -0.203 F 
ATOM     44  C   UNL A   1      39.290  34.009  41.229  1.00  0.00     0.198 A 
ATOM     45  C   UNL A   1      40.787  35.691  40.393  1.00  0.00     0.198 A 
ATOM     46  F   UNL A   1      41.646  35.523  38.207  1.00  0.00    -0.203 F 
ATOM     47  F   UNL A   1      38.527  33.521  42.216  1.00  0.00    -0.200 F 
ATOM     48  C   UNL A   1      39.999  35.187  41.417  1.00  0.00     0.200 A 
ATOM     49  F   UNL A   1      41.494  36.814  40.584  1.00  0.00    -0.200 F 
ATOM     50  F   UNL A   1      39.930  35.830  42.591  1.00  0.00    -0.200 F 
ENDBRANCH  26  40
BRANCH  27  51
ATOM     51  C   UNL A   1      40.004  28.830  30.300  1.00  0.00     0.064 A 
ATOM     52  C   UNL A   1      39.430  27.551  30.227  1.00  0.00     0.173 A 
ATOM     53  C   UNL A   1      40.551  29.365  29.127  1.00  0.00     0.173 A 
ATOM     54  F   UNL A   1      38.896  26.989  31.320  1.00  0.00    -0.203 F 
ATOM     55  C   UNL A   1      39.423  26.830  29.034  1.00  0.00     0.198 A 
ATOM     56  C   UNL A   1      40.520  28.653  27.928  1.00  0.00     0.198 A 
ATOM     57  F   UNL A   1      41.094  30.591  29.139  1.00  0.00    -0.203 F 
ATOM     58  F   UNL A   1      38.901  25.596  29.005  1.00  0.00    -0.200 F 
ATOM     59  C   UNL A   1      39.962  27.383  27.884  1.00  0.00     0.200 A 
ATOM     60  F   UNL A   1      41.022  29.199  26.812  1.00  0.00    -0.200 F 
ATOM     61  F   UNL A   1      39.941  26.696  26.735  1.00  0.00    -0.200 F 
ENDBRANCH  27  51
BRANCH  39  62
ATOM     62  C   UNL A   1      44.495  29.144  35.632  1.00  0.00     0.064 A 
ATOM     63  C   UNL A   1      44.535  27.933  36.338  1.00  0.00     0.173 A 
ATOM     64  C   UNL A   1      45.708  29.738  35.261  1.00  0.00     0.173 A 
ATOM     65  F   UNL A   1      43.397  27.333  36.716  1.00  0.00    -0.203 F 
ATOM     66  C   UNL A   1      45.750  27.347  36.678  1.00  0.00     0.198 A 
ATOM     67  C   UNL A   1      46.922  29.139  35.587  1.00  0.00     0.198 A 
ATOM     68  F   UNL A   1      45.714  30.889  34.573  1.00  0.00    -0.203 F 
ATOM     69  F   UNL A   1      45.768  26.205  37.379  1.00  0.00    -0.200 F 
ATOM     70  C   UNL A   1      46.941  27.950  36.302  1.00  0.00     0.200 A 
ATOM     71  F   UNL A   1      48.071  29.711  35.207  1.00  0.00    -0.200 F 
ATOM     72  F   UNL A   1      48.111  27.384  36.629  1.00  0.00    -0.200 F 
ENDBRANCH  39  62
ENDBRANCH  13  14
ENDBRANCH   6   8
ENDBRANCH   5   6
ENDBRANCH   4   5
ENDBRANCH   3   4
ENDBRANCH   2   3
ENDBRANCH   1   2
BRANCH   1  73
ATOM     73  C   UNL A   1      34.413  32.429  29.007  1.00  0.00     0.188 C 
BRANCH  73  74
ATOM     74  O   UNL A   1      34.422  31.927  27.667  1.00  0.00    -0.376 OA
BRANCH  74  75
ATOM     75  C   UNL A   1      33.299  31.148  27.267  1.00  0.00     0.202 C 
BRANCH  75  76
ATOM     76  C   UNL A   1      33.489  29.628  27.304  1.00  0.00     0.261 C 
BRANCH  76  77
ATOM     77  O   UNL A   1      32.341  28.864  26.894  1.00  0.00    -0.460 OA
BRANCH  77  78
ATOM     78  C   UNL A   1      32.605  27.930  25.947  1.00  0.00     0.341 C 
ATOM     79  O   UNL A   1      33.598  27.229  25.847  1.00  0.00    -0.246 OA
BRANCH  78  80
ATOM     80  C   UNL A   1      31.527  27.876  24.958  1.00  0.00     0.096 A 
ATOM     81  C   UNL A   1      31.066  29.036  24.320  1.00  0.00     0.027 A 
ATOM     82  C   UNL A   1      30.837  26.677  24.828  1.00  0.00     0.137 A 
ATOM     83  C   UNL A   1      29.888  28.993  23.552  1.00  0.00    -0.017 A 
ATOM     84  C   UNL A   1      29.674  26.618  24.073  1.00  0.00     0.041 A 
ATOM     85  F   UNL A   1      31.269  25.562  25.435  1.00  0.00    -0.206 F 
ATOM     86  C   UNL A   1      29.207  27.766  23.434  1.00  0.00     0.012 A 
BRANCH  83  87
ATOM     87  C   UNL A   1      29.327  30.200  22.929  1.00  0.00    -0.018 A 
ATOM     88  C   UNL A   1      28.939  30.216  21.582  1.00  0.00     0.009 A 
ATOM     89  C   UNL A   1      29.133  31.368  23.687  1.00  0.00     0.009 A 
ATOM     90  C   UNL A   1      28.359  31.355  21.015  1.00  0.00     0.001 A 
ATOM     91  C   UNL A   1      28.559  32.508  23.122  1.00  0.00     0.001 A 
ATOM     92  C   UNL A   1      28.166  32.499  21.786  1.00  0.00     0.000 A 
ENDBRANCH  83  87
ENDBRANCH  78  80
ENDBRANCH  77  78
ENDBRANCH  76  77
ENDBRANCH  75  76
ENDBRANCH  74  75
ENDBRANCH  73  74
ENDBRANCH   1  73
TORSDOF 18
ENDMDL
MODEL 2
REMARK VINA RESULT:     -11.0      2.747      4.795
REMARK SMILES O=C(OCCOCCOCCOC(=O)c1cc(-c2ccccc2)ccc1F)c1ccc(-c2c3nc(c(-c4c(F)c(F)c(F)c(F)c4F)c4ccc([nH]4)c(-c4c(F)c(F)c(F)c(F)c4F)c4nc(c(-c5c(F)c(F)c(F)c(F)c5F)c5ccc2[nH]5)C=C4)C=C3)cc1
REMARK SMILES IDX 7 1 6 2 5 3 4 4 3 5 2 6 1 7 28 8 29 9 90 10 30 11 89 12
REMARK SMILES IDX 31 13 32 14 33 15 83 16 34 17 88 18 82 19 84 20 35 21 87 22
REMARK SMILES IDX 81 23 80 24 36 26 68 27 48 28 67 29 49 30 52 31 66 32 85 33
REMARK SMILES IDX 50 34 51 35 65 37 86 38 53 39 37 40 38 41 46 42 39 43 40 44
REMARK SMILES IDX 44 45 47 46 41 47 42 48 45 49 43 50 69 51 70 52 78 53 71 54
REMARK SMILES IDX 72 55 76 56 79 57 73 58 74 59 77 60 75 61 54 62 55 63 63 64
REMARK SMILES IDX 56 65 57 66 61 67 64 68 58 69 59 70 62 71 60 72 8 73 9 74
REMARK SMILES IDX 10 75 11 76 12 77 13 78 14 79 15 80 16 81 26 82 17 83 25 84
REMARK SMILES IDX 27 85 24 86 18 87 19 88 23 89 20 90 22 91 21 92
REMARK H PARENT 84 25 52 36
REMARK Flexibility Score: inf
ROOT
ATOM      1  C   UNL A   1      32.446  27.108  26.555  1.00  0.00     0.188 C 
ENDROOT
BRANCH   1   2
ATOM      2  O   UNL A   1      31.294  27.849  26.128  1.00  0.00    -0.376 OA
BRANCH   2   3
ATOM      3  C   UNL A   1      31.614  29.036  25.399  1.00  0.00     0.202 C 
BRANCH   3   4
ATOM      4  C   UNL A   1      32.903  29.715  25.869  1.00  0.00     0.261 C 
BRANCH   4   5
ATOM      5  O   UNL A   1      32.627  30.913  26.614  1.00  0.00    -0.460 OA
BRANCH   5   6
ATOM      6  C   UNL A   1      33.500  31.672  27.318  1.00  0.00     0.338 C 
ATOM      7  O   UNL A   1      33.227  32.853  27.530  1.00  0.00    -0.246 OA
BRANCH   6   8
ATOM      8  C   UNL A   1      34.757  31.137  27.926  1.00  0.00     0.060 A 
ATOM      9  C   UNL A   1      34.955  29.816  28.331  1.00  0.00     0.016 A 
ATOM     10  C   UNL A   1      35.842  32.025  28.027  1.00  0.00     0.016 A 
ATOM     11  C   UNL A   1      36.147  29.418  28.934  1.00  0.00     0.010 A 
ATOM     12  C   UNL A   1      37.069  31.610  28.556  1.00  0.00     0.010 A 
ATOM     13  C   UNL A   1      37.215  30.310  29.052  1.00  0.00    -0.014 A 
BRANCH  13  14
ATOM     14  C   UNL A   1      38.438  29.891  29.775  1.00  0.00     0.031 A 
ATOM     15  C   UNL A   1      38.684  30.419  31.159  1.00  0.00     0.074 A 
ATOM     16  C   UNL A   1      39.261  28.968  29.245  1.00  0.00     0.049 A 
ATOM     17  N   UNL A   1      39.697  30.208  31.957  1.00  0.00    -0.248 NA
ATOM     18  C   UNL A   1      37.639  31.286  31.727  1.00  0.00     0.031 C 
ATOM     19  C   UNL A   1      39.060  28.305  27.957  1.00  0.00     0.029 A 
ATOM     20  N   UNL A   1      40.410  28.401  29.736  1.00  0.00    -0.354 N 
ATOM     21  C   UNL A   1      39.414  30.918  33.115  1.00  0.00     0.074 A 
ATOM     22  C   UNL A   1      38.151  31.589  32.911  1.00  0.00     0.031 C 
ATOM     23  C   UNL A   1      40.034  27.399  27.777  1.00  0.00     0.029 A 
ATOM     24  C   UNL A   1      40.969  27.474  28.892  1.00  0.00     0.049 A 
ATOM     25  H   UNL A   1      40.797  28.637  30.610  1.00  0.00     0.167 HD
ATOM     26  C   UNL A   1      40.142  30.989  34.253  1.00  0.00     0.037 A 
ATOM     27  C   UNL A   1      42.120  26.782  28.987  1.00  0.00     0.037 A 
ATOM     28  C   UNL A   1      41.393  30.311  34.453  1.00  0.00     0.049 A 
ATOM     29  C   UNL A   1      42.971  26.970  30.212  1.00  0.00     0.074 A 
ATOM     30  C   UNL A   1      42.237  30.360  35.546  1.00  0.00     0.029 A 
ATOM     31  N   UNL A   1      41.974  29.452  33.532  1.00  0.00    -0.354 N 
ATOM     32  N   UNL A   1      42.727  27.694  31.277  1.00  0.00    -0.248 NA
ATOM     33  C   UNL A   1      44.254  26.258  30.249  1.00  0.00     0.031 C 
ATOM     34  C   UNL A   1      43.345  29.550  35.275  1.00  0.00     0.029 A 
ATOM     35  C   UNL A   1      43.174  28.973  34.026  1.00  0.00     0.049 A 
ATOM     36  H   UNL A   1      41.590  29.218  32.655  1.00  0.00     0.167 HD
ATOM     37  C   UNL A   1      43.814  27.514  32.118  1.00  0.00     0.074 A 
ATOM     38  C   UNL A   1      44.716  26.601  31.444  1.00  0.00     0.031 C 
ATOM     39  C   UNL A   1      44.046  28.058  33.336  1.00  0.00     0.037 A 
BRANCH  26  40
ATOM     40  C   UNL A   1      39.608  31.852  35.353  1.00  0.00     0.064 A 
ATOM     41  C   UNL A   1      38.659  31.347  36.253  1.00  0.00     0.173 A 
ATOM     42  C   UNL A   1      40.028  33.180  35.512  1.00  0.00     0.173 A 
ATOM     43  F   UNL A   1      38.232  30.080  36.146  1.00  0.00    -0.203 F 
ATOM     44  C   UNL A   1      38.148  32.144  37.275  1.00  0.00     0.198 A 
ATOM     45  C   UNL A   1      39.529  33.968  36.545  1.00  0.00     0.198 A 
ATOM     46  F   UNL A   1      40.953  33.698  34.689  1.00  0.00    -0.203 F 
ATOM     47  F   UNL A   1      37.236  31.643  38.120  1.00  0.00    -0.200 F 
ATOM     48  C   UNL A   1      38.586  33.452  37.422  1.00  0.00     0.200 A 
ATOM     49  F   UNL A   1      39.974  35.222  36.704  1.00  0.00    -0.200 F 
ATOM     50  F   UNL A   1      38.108  34.211  38.418  1.00  0.00    -0.200 F 
ENDBRANCH  26  40
BRANCH  27  51
ATOM     51  C   UNL A   1      42.543  25.885  27.879  1.00  0.00     0.064 A 
ATOM     52  C   UNL A   1      43.421  26.335  26.879  1.00  0.00     0.173 A 
ATOM     53  C   UNL A   1      42.071  24.570  27.785  1.00  0.00     0.173 A 
ATOM     54  F   UNL A   1      43.899  27.586  26.916  1.00  0.00    -0.203 F 
ATOM     55  C   UNL A   1      43.793  25.509  25.820  1.00  0.00     0.198 A 
ATOM     56  C   UNL A   1      42.465  23.736  26.739  1.00  0.00     0.198 A 
ATOM     57  F   UNL A   1      41.246  24.085  28.725  1.00  0.00    -0.203 F 
ATOM     58  F   UNL A   1      44.603  25.979  24.862  1.00  0.00    -0.200 F 
ATOM     59  C   UNL A   1      43.321  24.208  25.754  1.00  0.00     0.200 A 
ATOM     60  F   UNL A   1      42.024  22.471  26.689  1.00  0.00    -0.200 F 
ATOM     61  F   UNL A   1      43.691  23.410  24.744  1.00  0.00    -0.200 F 
ENDBRANCH  27  51
BRANCH  39  62
ATOM     62  C   UNL A   1      45.314  27.670  34.030  1.00  0.00     0.064 A 
ATOM     63  C   UNL A   1      46.497  28.388  33.799  1.00  0.00     0.173 A 
ATOM     64  C   UNL A   1      45.373  26.541  34.856  1.00  0.00     0.173 A 
ATOM     65  F   UNL A   1      46.485  29.474  33.011  1.00  0.00    -0.203 F 
ATOM     66  C   UNL A   1      47.701  27.977  34.361  1.00  0.00     0.198 A 
ATOM     67  C   UNL A   1      46.576  26.144  35.433  1.00  0.00     0.198 A 
ATOM     68  F   UNL A   1      44.262  25.835  35.114  1.00  0.00    -0.203 F 
ATOM     69  F   UNL A   1      48.825  28.658  34.105  1.00  0.00    -0.200 F 
ATOM     70  C   UNL A   1      47.739  26.856  35.177  1.00  0.00     0.200 A 
ATOM     71  F   UNL A   1      46.609  25.072  36.235  1.00  0.00    -0.200 F 
ATOM     72  F   UNL A   1      48.899  26.461  35.719  1.00  0.00    -0.200 F 
ENDBRANCH  39  62
ENDBRANCH  13  14
ENDBRANCH   6   8
ENDBRANCH   5   6
ENDBRANCH   4   5
ENDBRANCH   3   4
ENDBRANCH   2   3
ENDBRANCH   1   2
BRANCH   1  73
ATOM     73  C   UNL A   1      32.228  25.610  26.320  1.00  0.00     0.188 C 
BRANCH  73  74
ATOM     74  O   UNL A   1      33.394  24.906  25.883  1.00  0.00    -0.376 OA
BRANCH  74  75
ATOM     75  C   UNL A   1      33.402  24.454  24.533  1.00  0.00     0.202 C 
BRANCH  75  76
ATOM     76  C   UNL A   1      33.940  25.446  23.496  1.00  0.00     0.261 C 
BRANCH  76  77
ATOM     77  O   UNL A   1      33.043  26.521  23.165  1.00  0.00    -0.460 OA
BRANCH  77  78
ATOM     78  C   UNL A   1      32.147  26.217  22.193  1.00  0.00     0.341 C 
ATOM     79  O   UNL A   1      32.355  25.630  21.145  1.00  0.00    -0.246 OA
BRANCH  78  80
ATOM     80  C   UNL A   1      30.823  26.743  22.527  1.00  0.00     0.096 A 
ATOM     81  C   UNL A   1      30.463  28.061  22.216  1.00  0.00     0.027 A 
ATOM     82  C   UNL A   1      30.013  25.965  23.346  1.00  0.00     0.137 A 
ATOM     83  C   UNL A   1      29.280  28.609  22.746  1.00  0.00    -0.017 A 
ATOM     84  C   UNL A   1      28.842  26.490  23.876  1.00  0.00     0.041 A 
ATOM     85  F   UNL A   1      30.348  24.702  23.650  1.00  0.00    -0.206 F 
ATOM     86  C   UNL A   1      28.476  27.801  23.572  1.00  0.00     0.012 A 
BRANCH  83  87
ATOM     87  C   UNL A   1      28.903  30.010  22.509  1.00  0.00    -0.018 A 
ATOM     88  C   UNL A   1      28.991  30.974  23.522  1.00  0.00     0.009 A 
ATOM     89  C   UNL A   1      28.473  30.425  21.236  1.00  0.00     0.009 A 
ATOM     90  C   UNL A   1      28.679  32.313  23.268  1.00  0.00     0.001 A 
ATOM     91  C   UNL A   1      28.155  31.760  20.982  1.00  0.00     0.001 A 
ATOM     92  C   UNL A   1      28.264  32.707  21.998  1.00  0.00     0.000 A 
ENDBRANCH  83  87
ENDBRANCH  78  80
ENDBRANCH  77  78
ENDBRANCH  76  77
ENDBRANCH  75  76
ENDBRANCH  74  75
ENDBRANCH  73  74
ENDBRANCH   1  73
TORSDOF 18
ENDMDL
MODEL 3
REMARK VINA RESULT:     -11.0      3.887      9.611
REMARK SMILES O=C(OCCOCCOCCOC(=O)c1cc(-c2ccccc2)ccc1F)c1ccc(-c2c3nc(c(-c4c(F)c(F)c(F)c(F)c4F)c4ccc([nH]4)c(-c4c(F)c(F)c(F)c(F)c4F)c4nc(c(-c5c(F)c(F)c(F)c(F)c5F)c5ccc2[nH]5)C=C4)C=C3)cc1
REMARK SMILES IDX 7 1 6 2 5 3 4 4 3 5 2 6 1 7 28 8 29 9 90 10 30 11 89 12
REMARK SMILES IDX 31 13 32 14 33 15 83 16 34 17 88 18 82 19 84 20 35 21 87 22
REMARK SMILES IDX 81 23 80 24 36 26 68 27 48 28 67 29 49 30 52 31 66 32 85 33
REMARK SMILES IDX 50 34 51 35 65 37 86 38 53 39 37 40 38 41 46 42 39 43 40 44
REMARK SMILES IDX 44 45 47 46 41 47 42 48 45 49 43 50 69 51 70 52 78 53 71 54
REMARK SMILES IDX 72 55 76 56 79 57 73 58 74 59 77 60 75 61 54 62 55 63 63 64
REMARK SMILES IDX 56 65 57 66 61 67 64 68 58 69 59 70 62 71 60 72 8 73 9 74
REMARK SMILES IDX 10 75 11 76 12 77 13 78 14 79 15 80 16 81 26 82 17 83 25 84
REMARK SMILES IDX 27 85 24 86 18 87 19 88 23 89 20 90 22 91 21 92
REMARK H PARENT 84 25 52 36
REMARK Flexibility Score: inf
ROOT
ATOM      1  C   UNL A   1      31.464  27.554  23.065  1.00  0.00     0.188 C 
ENDROOT
BRANCH   1   2
ATOM      2  O   UNL A   1      31.001  27.983  24.354  1.00  0.00    -0.376 OA
BRANCH   2   3
ATOM      3  C   UNL A   1      31.188  29.379  24.595  1.00  0.00     0.202 C 
BRANCH   3   4
ATOM      4  C   UNL A   1      31.778  29.689  25.974  1.00  0.00     0.261 C 
BRANCH   4   5
ATOM      5  O   UNL A   1      32.734  30.761  25.909  1.00  0.00    -0.460 OA
BRANCH   5   6
ATOM      6  C   UNL A   1      33.291  31.438  26.942  1.00  0.00     0.338 C 
ATOM      7  O   UNL A   1      32.747  32.468  27.340  1.00  0.00    -0.246 OA
BRANCH   6   8
ATOM      8  C   UNL A   1      34.498  30.966  27.685  1.00  0.00     0.060 A 
ATOM      9  C   UNL A   1      34.766  29.638  28.023  1.00  0.00     0.016 A 
ATOM     10  C   UNL A   1      35.469  31.933  27.999  1.00  0.00     0.016 A 
ATOM     11  C   UNL A   1      35.898  29.297  28.761  1.00  0.00     0.010 A 
ATOM     12  C   UNL A   1      36.648  31.584  28.668  1.00  0.00     0.010 A 
ATOM     13  C   UNL A   1      36.849  30.265  29.091  1.00  0.00    -0.014 A 
BRANCH  13  14
ATOM     14  C   UNL A   1      37.997  29.895  29.951  1.00  0.00     0.031 A 
ATOM     15  C   UNL A   1      39.067  29.002  29.395  1.00  0.00     0.074 A 
ATOM     16  C   UNL A   1      38.133  30.436  31.176  1.00  0.00     0.049 A 
ATOM     17  N   UNL A   1      40.138  28.531  29.978  1.00  0.00    -0.248 NA
ATOM     18  C   UNL A   1      38.923  28.601  27.986  1.00  0.00     0.031 C 
ATOM     19  C   UNL A   1      37.211  31.401  31.774  1.00  0.00     0.029 A 
ATOM     20  N   UNL A   1      39.115  30.281  32.123  1.00  0.00    -0.354 N 
ATOM     21  C   UNL A   1      40.789  27.777  29.012  1.00  0.00     0.074 A 
ATOM     22  C   UNL A   1      39.985  27.827  27.813  1.00  0.00     0.031 C 
ATOM     23  C   UNL A   1      37.690  31.775  32.971  1.00  0.00     0.029 A 
ATOM     24  C   UNL A   1      38.902  31.020  33.259  1.00  0.00     0.049 A 
ATOM     25  H   UNL A   1      39.896  29.695  31.998  1.00  0.00     0.167 HD
ATOM     26  C   UNL A   1      41.964  27.114  29.117  1.00  0.00     0.037 A 
ATOM     27  C   UNL A   1      39.588  31.065  34.417  1.00  0.00     0.037 A 
ATOM     28  C   UNL A   1      42.763  27.077  30.310  1.00  0.00     0.049 A 
ATOM     29  C   UNL A   1      40.828  30.226  34.550  1.00  0.00     0.074 A 
ATOM     30  C   UNL A   1      43.941  26.391  30.539  1.00  0.00     0.029 A 
ATOM     31  N   UNL A   1      42.464  27.767  31.476  1.00  0.00    -0.354 N 
ATOM     32  N   UNL A   1      41.403  29.464  33.652  1.00  0.00    -0.248 NA
ATOM     33  C   UNL A   1      41.508  30.241  35.851  1.00  0.00     0.031 C 
ATOM     34  C   UNL A   1      44.341  26.644  31.856  1.00  0.00     0.029 A 
ATOM     35  C   UNL A   1      43.428  27.512  32.435  1.00  0.00     0.049 A 
ATOM     36  H   UNL A   1      41.680  28.350  31.603  1.00  0.00     0.167 HD
ATOM     37  C   UNL A   1      42.519  28.922  34.269  1.00  0.00     0.074 A 
ATOM     38  C   UNL A   1      42.549  29.453  35.618  1.00  0.00     0.031 C 
ATOM     39  C   UNL A   1      43.436  28.062  33.766  1.00  0.00     0.037 A 
BRANCH  26  40
ATOM     40  C   UNL A   1      42.431  26.358  27.914  1.00  0.00     0.064 A 
ATOM     41  C   UNL A   1      43.305  26.957  26.995  1.00  0.00     0.173 A 
ATOM     42  C   UNL A   1      42.009  25.045  27.664  1.00  0.00     0.173 A 
ATOM     43  F   UNL A   1      43.742  28.209  27.195  1.00  0.00    -0.203 F 
ATOM     44  C   UNL A   1      43.739  26.266  25.867  1.00  0.00     0.198 A 
ATOM     45  C   UNL A   1      42.459  24.350  26.545  1.00  0.00     0.198 A 
ATOM     46  F   UNL A   1      41.192  24.422  28.528  1.00  0.00    -0.203 F 
ATOM     47  F   UNL A   1      44.569  26.859  24.998  1.00  0.00    -0.200 F 
ATOM     48  C   UNL A   1      43.320  24.963  25.645  1.00  0.00     0.200 A 
ATOM     49  F   UNL A   1      42.076  23.082  26.346  1.00  0.00    -0.200 F 
ATOM     50  F   UNL A   1      43.754  24.292  24.569  1.00  0.00    -0.200 F 
ENDBRANCH  26  40
BRANCH  27  51
ATOM     51  C   UNL A   1      39.094  31.903  35.543  1.00  0.00     0.064 A 
ATOM     52  C   UNL A   1      39.446  33.259  35.643  1.00  0.00     0.173 A 
ATOM     53  C   UNL A   1      38.277  31.368  36.546  1.00  0.00     0.173 A 
ATOM     54  F   UNL A   1      40.231  33.822  34.714  1.00  0.00    -0.203 F 
ATOM     55  C   UNL A   1      39.014  34.039  36.714  1.00  0.00     0.198 A 
ATOM     56  C   UNL A   1      37.824  32.157  37.603  1.00  0.00     0.198 A 
ATOM     57  F   UNL A   1      37.896  30.084  36.486  1.00  0.00    -0.203 F 
ATOM     58  F   UNL A   1      39.397  35.321  36.801  1.00  0.00    -0.200 F 
ATOM     59  C   UNL A   1      38.198  33.491  37.689  1.00  0.00     0.200 A 
ATOM     60  F   UNL A   1      37.017  31.630  38.534  1.00  0.00    -0.200 F 
ATOM     61  F   UNL A   1      37.771  34.246  38.710  1.00  0.00    -0.200 F 
ENDBRANCH  27  51
BRANCH  39  62
ATOM     62  C   UNL A   1      44.558  27.651  34.666  1.00  0.00     0.064 A 
ATOM     63  C   UNL A   1      45.755  28.382  34.687  1.00  0.00     0.173 A 
ATOM     64  C   UNL A   1      44.475  26.488  35.444  1.00  0.00     0.173 A 
ATOM     65  F   UNL A   1      45.878  29.498  33.955  1.00  0.00    -0.203 F 
ATOM     66  C   UNL A   1      46.839  27.951  35.446  1.00  0.00     0.198 A 
ATOM     67  C   UNL A   1      45.555  26.072  36.217  1.00  0.00     0.198 A 
ATOM     68  F   UNL A   1      43.344  25.768  35.463  1.00  0.00    -0.203 F 
ATOM     69  F   UNL A   1      47.984  28.647  35.430  1.00  0.00    -0.200 F 
ATOM     70  C   UNL A   1      46.737  26.798  36.209  1.00  0.00     0.200 A 
ATOM     71  F   UNL A   1      45.451  24.968  36.969  1.00  0.00    -0.200 F 
ATOM     72  F   UNL A   1      47.781  26.385  36.941  1.00  0.00    -0.200 F 
ENDBRANCH  39  62
ENDBRANCH  13  14
ENDBRANCH   6   8
ENDBRANCH   5   6
ENDBRANCH   4   5
ENDBRANCH   3   4
ENDBRANCH   2   3
ENDBRANCH   1   2
BRANCH   1  73
ATOM     73  C   UNL A   1      32.996  27.563  23.024  1.00  0.00     0.188 C 
BRANCH  73  74
ATOM     74  O   UNL A   1      33.564  26.684  22.049  1.00  0.00    -0.376 OA
BRANCH  74  75
ATOM     75  C   UNL A   1      32.728  25.638  21.563  1.00  0.00     0.202 C 
BRANCH  75  76
ATOM     76  C   UNL A   1      33.142  24.214  21.950  1.00  0.00     0.261 C 
BRANCH  76  77
ATOM     77  O   UNL A   1      32.253  23.555  22.870  1.00  0.00    -0.460 OA
BRANCH  77  78
ATOM     78  C   UNL A   1      32.716  23.497  24.143  1.00  0.00     0.341 C 
ATOM     79  O   UNL A   1      32.430  24.230  25.075  1.00  0.00    -0.246 OA
BRANCH  78  80
ATOM     80  C   UNL A   1      33.701  22.424  24.287  1.00  0.00     0.096 A 
ATOM     81  C   UNL A   1      33.315  21.077  24.292  1.00  0.00     0.027 A 
ATOM     82  C   UNL A   1      34.999  22.788  24.629  1.00  0.00     0.137 A 
ATOM     83  C   UNL A   1      34.242  20.083  24.659  1.00  0.00    -0.017 A 
ATOM     84  C   UNL A   1      35.924  21.819  24.992  1.00  0.00     0.041 A 
ATOM     85  F   UNL A   1      35.378  24.074  24.628  1.00  0.00    -0.206 F 
ATOM     86  C   UNL A   1      35.549  20.476  24.999  1.00  0.00     0.012 A 
BRANCH  83  87
ATOM     87  C   UNL A   1      33.860  18.667  24.752  1.00  0.00    -0.018 A 
ATOM     88  C   UNL A   1      32.916  18.222  25.687  1.00  0.00     0.009 A 
ATOM     89  C   UNL A   1      34.414  17.721  23.871  1.00  0.00     0.009 A 
ATOM     90  C   UNL A   1      32.523  16.881  25.730  1.00  0.00     0.001 A 
ATOM     91  C   UNL A   1      34.028  16.380  23.916  1.00  0.00     0.001 A 
ATOM     92  C   UNL A   1      33.076  15.961  24.842  1.00  0.00     0.000 A 
ENDBRANCH  83  87
ENDBRANCH  78  80
ENDBRANCH  77  78
ENDBRANCH  76  77
ENDBRANCH  75  76
ENDBRANCH  74  75
ENDBRANCH  73  74
ENDBRANCH   1  73
TORSDOF 18
ENDMDL
