MODEL 1
REMARK VINA RESULT:     -11.5      0.000      0.000
REMARK SMILES CCc1ccc(C(=O)NCc2ccc(C(=O)OCCOCCOCCOC(=O)c3ccc(-c4c5nc(c(-c6c(F)c(F)c(F)c(F)c6F)c6ccc([nH]6)c(-c6c(F)c(F)c(F)c(F)c6F)c6nc(c(-c7c(F)c(F)c(F)c(F)c7F)c7ccc4[nH]7)C=C6)C=C5)cc3)cc2)cc1
REMARK SMILES IDX 21 1 20 2 19 3 18 4 17 5 15 6 16 7 14 8 11 9 12 10 93 11
REMARK SMILES IDX 13 12 92 13 10 14 9 15 7 16 8 17 6 19 3 20 4 21 95 22 5 23
REMARK SMILES IDX 94 24 2 25 1 26 22 27 23 28 24 29 25 30 26 31 27 32 28 33
REMARK SMILES IDX 29 34 30 35 91 36 31 37 90 38 32 39 33 40 34 41 84 42 35 43
REMARK SMILES IDX 89 44 83 45 85 46 36 47 88 48 82 49 81 50 37 52 69 53 49 54
REMARK SMILES IDX 68 55 50 56 53 57 67 58 86 59 51 60 52 61 66 63 87 64 54 65
REMARK SMILES IDX 38 66 39 67 47 68 40 69 41 70 45 71 48 72 42 73 43 74 46 75
REMARK SMILES IDX 44 76 70 77 71 78 79 79 72 80 73 81 77 82 80 83 74 84 75 85
REMARK SMILES IDX 78 86 76 87 55 88 56 89 64 90 57 91 58 92 62 93 65 94 59 95
REMARK SMILES IDX 60 96 63 97 61 98
REMARK H PARENT 9 18 85 51 53 62
REMARK Flexibility Score: inf
ROOT
ATOM      1  C   UNL A   1      42.554  18.904  26.091  1.00  0.00     0.188 C 
ENDROOT
BRANCH   1   2
ATOM      2  O   UNL A   1      42.001  20.132  26.539  1.00  0.00    -0.376 OA
BRANCH   2   3
ATOM      3  C   UNL A   1      40.618  20.401  26.348  1.00  0.00     0.202 C 
BRANCH   3   4
ATOM      4  C   UNL A   1      40.113  21.845  26.232  1.00  0.00     0.261 C 
BRANCH   4   5
ATOM      5  O   UNL A   1      38.719  21.960  25.914  1.00  0.00    -0.460 OA
BRANCH   5   6
ATOM      6  C   UNL A   1      38.156  23.157  26.227  1.00  0.00     0.338 C 
ATOM      7  O   UNL A   1      38.602  24.002  26.972  1.00  0.00    -0.246 OA
BRANCH   6   8
ATOM      8  C   UNL A   1      36.983  23.400  25.355  1.00  0.00     0.060 A 
ATOM      9  C   UNL A   1      34.851  23.808  23.572  1.00  0.00    -0.029 A 
ATOM     10  C   UNL A   1      35.898  22.937  23.243  1.00  0.00     0.006 A 
ATOM     11  C   UNL A   1      34.869  24.443  24.828  1.00  0.00     0.006 A 
ATOM     12  C   UNL A   1      36.960  22.740  24.123  1.00  0.00     0.016 A 
ATOM     13  C   UNL A   1      35.926  24.234  25.722  1.00  0.00     0.016 A 
BRANCH   9  14
ATOM     14  C   UNL A   1      33.797  24.171  22.550  1.00  0.00     0.152 C 
BRANCH  14  15
ATOM     15  N   UNL A   1      32.487  23.991  23.142  1.00  0.00    -0.348 N 
ATOM     16  C   UNL A   1      31.789  22.952  23.690  1.00  0.00     0.251 C 
ATOM     17  O   UNL A   1      30.655  23.220  24.097  1.00  0.00    -0.269 OA
ATOM     18  H   UNL A   1      31.969  24.828  23.152  1.00  0.00     0.164 HD
BRANCH  16  19
ATOM     19  C   UNL A   1      32.289  21.556  23.858  1.00  0.00     0.039 A 
ATOM     20  C   UNL A   1      33.299  18.953  24.410  1.00  0.00    -0.048 A 
ATOM     21  C   UNL A   1      33.430  19.980  25.346  1.00  0.00     0.004 A 
ATOM     22  C   UNL A   1      32.629  19.237  23.213  1.00  0.00     0.004 A 
ATOM     23  C   UNL A   1      32.934  21.261  25.071  1.00  0.00     0.014 A 
ATOM     24  C   UNL A   1      32.125  20.516  22.947  1.00  0.00     0.014 A 
BRANCH  20  25
ATOM     25  C   UNL A   1      33.823  17.550  24.614  1.00  0.00     0.032 C 
ATOM     26  C   UNL A   1      33.931  16.669  23.378  1.00  0.00     0.009 C 
ENDBRANCH  20  25
ENDBRANCH  16  19
ENDBRANCH  14  15
ENDBRANCH   9  14
ENDBRANCH   6   8
ENDBRANCH   5   6
ENDBRANCH   4   5
ENDBRANCH   3   4
ENDBRANCH   2   3
ENDBRANCH   1   2
BRANCH   1  27
ATOM     27  C   UNL A   1      43.779  18.894  25.152  1.00  0.00     0.188 C 
BRANCH  27  28
ATOM     28  O   UNL A   1      44.250  20.143  24.715  1.00  0.00    -0.376 OA
BRANCH  28  29
ATOM     29  C   UNL A   1      45.455  20.691  25.220  1.00  0.00     0.202 C 
BRANCH  29  30
ATOM     30  C   UNL A   1      45.822  22.187  25.293  1.00  0.00     0.261 C 
BRANCH  30  31
ATOM     31  O   UNL A   1      44.994  23.059  26.062  1.00  0.00    -0.460 OA
BRANCH  31  32
ATOM     32  C   UNL A   1      44.005  23.682  25.382  1.00  0.00     0.338 C 
ATOM     33  O   UNL A   1      43.595  23.428  24.262  1.00  0.00    -0.246 OA
BRANCH  32  34
ATOM     34  C   UNL A   1      43.358  24.650  26.282  1.00  0.00     0.060 A 
ATOM     35  C   UNL A   1      43.835  25.965  26.307  1.00  0.00     0.016 A 
ATOM     36  C   UNL A   1      42.315  24.253  27.120  1.00  0.00     0.016 A 
ATOM     37  C   UNL A   1      43.280  26.889  27.192  1.00  0.00     0.010 A 
ATOM     38  C   UNL A   1      41.772  25.175  28.019  1.00  0.00     0.010 A 
ATOM     39  C   UNL A   1      42.270  26.489  28.077  1.00  0.00    -0.014 A 
BRANCH  39  40
ATOM     40  C   UNL A   1      41.847  27.394  29.172  1.00  0.00     0.031 A 
ATOM     41  C   UNL A   1      42.602  27.359  30.470  1.00  0.00     0.074 A 
ATOM     42  C   UNL A   1      40.812  28.239  29.014  1.00  0.00     0.049 A 
ATOM     43  N   UNL A   1      42.382  28.016  31.581  1.00  0.00    -0.248 NA
ATOM     44  C   UNL A   1      43.766  26.460  30.522  1.00  0.00     0.031 C 
ATOM     45  C   UNL A   1      40.025  28.391  27.793  1.00  0.00     0.029 A 
ATOM     46  N   UNL A   1      40.241  29.120  29.899  1.00  0.00    -0.354 N 
ATOM     47  C   UNL A   1      43.373  27.605  32.463  1.00  0.00     0.074 A 
ATOM     48  C   UNL A   1      44.179  26.624  31.770  1.00  0.00     0.031 C 
ATOM     49  C   UNL A   1      39.060  29.303  28.010  1.00  0.00     0.029 A 
ATOM     50  C   UNL A   1      39.142  29.770  29.394  1.00  0.00     0.049 A 
ATOM     51  H   UNL A   1      40.588  29.272  30.807  1.00  0.00     0.167 HD
ATOM     52  C   UNL A   1      43.593  28.016  33.735  1.00  0.00     0.037 A 
ATOM     53  C   UNL A   1      38.286  30.620  29.992  1.00  0.00     0.037 A 
ATOM     54  C   UNL A   1      42.786  28.986  34.424  1.00  0.00     0.049 A 
ATOM     55  C   UNL A   1      38.508  31.001  31.435  1.00  0.00     0.074 A 
ATOM     56  C   UNL A   1      42.940  29.482  35.708  1.00  0.00     0.029 A 
ATOM     57  N   UNL A   1      41.662  29.601  33.892  1.00  0.00    -0.354 N 
ATOM     58  N   UNL A   1      39.465  30.636  32.253  1.00  0.00    -0.248 NA
ATOM     59  C   UNL A   1      37.527  31.918  32.037  1.00  0.00     0.031 C 
ATOM     60  C   UNL A   1      41.879  30.354  35.969  1.00  0.00     0.029 A 
ATOM     61  C   UNL A   1      41.097  30.449  34.829  1.00  0.00     0.049 A 
ATOM     62  H   UNL A   1      41.318  29.455  32.981  1.00  0.00     0.167 HD
ATOM     63  C   UNL A   1      39.220  31.299  33.450  1.00  0.00     0.074 A 
ATOM     64  C   UNL A   1      38.031  32.099  33.248  1.00  0.00     0.031 C 
ATOM     65  C   UNL A   1      39.919  31.251  34.611  1.00  0.00     0.037 A 
BRANCH  52  66
ATOM     66  C   UNL A   1      44.741  27.392  34.472  1.00  0.00     0.064 A 
ATOM     67  C   UNL A   1      46.045  27.900  34.374  1.00  0.00     0.173 A 
ATOM     68  C   UNL A   1      44.529  26.289  35.314  1.00  0.00     0.173 A 
ATOM     69  F   UNL A   1      46.304  28.944  33.571  1.00  0.00    -0.203 F 
ATOM     70  C   UNL A   1      47.098  27.312  35.070  1.00  0.00     0.198 A 
ATOM     71  C   UNL A   1      45.578  25.723  36.032  1.00  0.00     0.198 A 
ATOM     72  F   UNL A   1      43.301  25.767  35.446  1.00  0.00    -0.203 F 
ATOM     73  F   UNL A   1      48.344  27.784  34.923  1.00  0.00    -0.200 F 
ATOM     74  C   UNL A   1      46.863  26.229  35.903  1.00  0.00     0.200 A 
ATOM     75  F   UNL A   1      45.346  24.684  36.846  1.00  0.00    -0.200 F 
ATOM     76  F   UNL A   1      47.875  25.667  36.578  1.00  0.00    -0.200 F 
ENDBRANCH  52  66
BRANCH  53  77
ATOM     77  C   UNL A   1      37.128  31.166  29.237  1.00  0.00     0.064 A 
ATOM     78  C   UNL A   1      37.097  32.505  28.827  1.00  0.00     0.173 A 
ATOM     79  C   UNL A   1      36.015  30.366  28.936  1.00  0.00     0.173 A 
ATOM     80  F   UNL A   1      38.125  33.318  29.118  1.00  0.00    -0.203 F 
ATOM     81  C   UNL A   1      35.989  33.031  28.164  1.00  0.00     0.198 A 
ATOM     82  C   UNL A   1      34.920  30.884  28.247  1.00  0.00     0.198 A 
ATOM     83  F   UNL A   1      35.991  29.080  29.312  1.00  0.00    -0.203 F 
ATOM     84  F   UNL A   1      35.964  34.329  27.832  1.00  0.00    -0.200 F 
ATOM     85  C   UNL A   1      34.905  32.219  27.869  1.00  0.00     0.200 A 
ATOM     86  F   UNL A   1      33.878  30.094  27.957  1.00  0.00    -0.200 F 
ATOM     87  F   UNL A   1      33.840  32.724  27.233  1.00  0.00    -0.200 F 
ENDBRANCH  53  77
BRANCH  65  88
ATOM     88  C   UNL A   1      39.448  32.120  35.743  1.00  0.00     0.064 A 
ATOM     89  C   UNL A   1      38.492  31.676  36.669  1.00  0.00     0.173 A 
ATOM     90  C   UNL A   1      39.996  33.399  35.929  1.00  0.00     0.173 A 
ATOM     91  F   UNL A   1      37.927  30.467  36.529  1.00  0.00    -0.203 F 
ATOM     92  C   UNL A   1      38.085  32.489  37.724  1.00  0.00     0.198 A 
ATOM     93  C   UNL A   1      39.610  34.196  37.002  1.00  0.00     0.198 A 
ATOM     94  F   UNL A   1      40.920  33.869  35.078  1.00  0.00    -0.203 F 
ATOM     95  F   UNL A   1      37.136  32.063  38.568  1.00  0.00    -0.200 F 
ATOM     96  C   UNL A   1      38.650  33.745  37.894  1.00  0.00     0.200 A 
ATOM     97  F   UNL A   1      40.169  35.402  37.174  1.00  0.00    -0.200 F 
ATOM     98  F   UNL A   1      38.263  34.522  38.915  1.00  0.00    -0.200 F 
ENDBRANCH  65  88
ENDBRANCH  39  40
ENDBRANCH  32  34
ENDBRANCH  31  32
ENDBRANCH  30  31
ENDBRANCH  29  30
ENDBRANCH  28  29
ENDBRANCH  27  28
ENDBRANCH   1  27
TORSDOF 21
ENDMDL
MODEL 2
REMARK VINA RESULT:     -11.3      1.370      2.995
REMARK SMILES CCc1ccc(C(=O)NCc2ccc(C(=O)OCCOCCOCCOC(=O)c3ccc(-c4c5nc(c(-c6c(F)c(F)c(F)c(F)c6F)c6ccc([nH]6)c(-c6c(F)c(F)c(F)c(F)c6F)c6nc(c(-c7c(F)c(F)c(F)c(F)c7F)c7ccc4[nH]7)C=C6)C=C5)cc3)cc2)cc1
REMARK SMILES IDX 21 1 20 2 19 3 18 4 17 5 15 6 16 7 14 8 11 9 12 10 93 11
REMARK SMILES IDX 13 12 92 13 10 14 9 15 7 16 8 17 6 19 3 20 4 21 95 22 5 23
REMARK SMILES IDX 94 24 2 25 1 26 22 27 23 28 24 29 25 30 26 31 27 32 28 33
REMARK SMILES IDX 29 34 30 35 91 36 31 37 90 38 32 39 33 40 34 41 84 42 35 43
REMARK SMILES IDX 89 44 83 45 85 46 36 47 88 48 82 49 81 50 37 52 69 53 49 54
REMARK SMILES IDX 68 55 50 56 53 57 67 58 86 59 51 60 52 61 66 63 87 64 54 65
REMARK SMILES IDX 38 66 39 67 47 68 40 69 41 70 45 71 48 72 42 73 43 74 46 75
REMARK SMILES IDX 44 76 70 77 71 78 79 79 72 80 73 81 77 82 80 83 74 84 75 85
REMARK SMILES IDX 78 86 76 87 55 88 56 89 64 90 57 91 58 92 62 93 65 94 59 95
REMARK SMILES IDX 60 96 63 97 61 98
REMARK H PARENT 9 18 85 51 53 62
REMARK Flexibility Score: inf
ROOT
ATOM      1  C   UNL A   1      42.509  19.100  25.981  1.00  0.00     0.188 C 
ENDROOT
BRANCH   1   2
ATOM      2  O   UNL A   1      41.885  20.323  26.339  1.00  0.00    -0.376 OA
BRANCH   2   3
ATOM      3  C   UNL A   1      40.481  20.480  26.172  1.00  0.00     0.202 C 
BRANCH   3   4
ATOM      4  C   UNL A   1      39.852  21.879  26.140  1.00  0.00     0.261 C 
BRANCH   4   5
ATOM      5  O   UNL A   1      38.454  21.891  25.819  1.00  0.00    -0.460 OA
BRANCH   5   6
ATOM      6  C   UNL A   1      37.851  23.104  25.925  1.00  0.00     0.338 C 
ATOM      7  O   UNL A   1      38.285  24.090  26.479  1.00  0.00    -0.246 OA
BRANCH   6   8
ATOM      8  C   UNL A   1      36.640  23.136  25.073  1.00  0.00     0.060 A 
ATOM      9  C   UNL A   1      34.251  23.168  23.594  1.00  0.00    -0.029 A 
ATOM     10  C   UNL A   1      34.237  23.403  24.975  1.00  0.00     0.006 A 
ATOM     11  C   UNL A   1      35.488  22.955  22.958  1.00  0.00     0.006 A 
ATOM     12  C   UNL A   1      35.421  23.380  25.712  1.00  0.00     0.016 A 
ATOM     13  C   UNL A   1      36.680  22.947  23.691  1.00  0.00     0.016 A 
BRANCH   9  14
ATOM     14  C   UNL A   1      32.959  23.006  22.825  1.00  0.00     0.152 C 
BRANCH  14  15
ATOM     15  N   UNL A   1      32.976  23.899  21.686  1.00  0.00    -0.348 N 
ATOM     16  C   UNL A   1      32.888  25.249  21.492  1.00  0.00     0.251 C 
ATOM     17  O   UNL A   1      32.944  25.631  20.320  1.00  0.00    -0.269 OA
ATOM     18  H   UNL A   1      33.075  23.412  20.836  1.00  0.00     0.164 HD
BRANCH  16  19
ATOM     19  C   UNL A   1      32.759  26.279  22.565  1.00  0.00     0.039 A 
ATOM     20  C   UNL A   1      32.280  28.171  24.636  1.00  0.00    -0.048 A 
ATOM     21  C   UNL A   1      31.234  27.412  24.110  1.00  0.00     0.004 A 
ATOM     22  C   UNL A   1      33.570  27.947  24.137  1.00  0.00     0.004 A 
ATOM     23  C   UNL A   1      31.472  26.483  23.089  1.00  0.00     0.014 A 
ATOM     24  C   UNL A   1      33.805  27.009  23.124  1.00  0.00     0.014 A 
BRANCH  20  25
ATOM     25  C   UNL A   1      32.110  29.209  25.722  1.00  0.00     0.032 C 
ATOM     26  C   UNL A   1      31.226  30.405  25.397  1.00  0.00     0.009 C 
ENDBRANCH  20  25
ENDBRANCH  16  19
ENDBRANCH  14  15
ENDBRANCH   9  14
ENDBRANCH   6   8
ENDBRANCH   5   6
ENDBRANCH   4   5
ENDBRANCH   3   4
ENDBRANCH   2   3
ENDBRANCH   1   2
BRANCH   1  27
ATOM     27  C   UNL A   1      43.759  19.094  25.076  1.00  0.00     0.188 C 
BRANCH  27  28
ATOM     28  O   UNL A   1      44.237  20.346  24.651  1.00  0.00    -0.376 OA
BRANCH  28  29
ATOM     29  C   UNL A   1      45.432  20.893  25.182  1.00  0.00     0.202 C 
BRANCH  29  30
ATOM     30  C   UNL A   1      45.754  22.390  25.360  1.00  0.00     0.261 C 
BRANCH  30  31
ATOM     31  O   UNL A   1      44.878  23.190  26.153  1.00  0.00    -0.460 OA
BRANCH  31  32
ATOM     32  C   UNL A   1      43.908  23.847  25.477  1.00  0.00     0.338 C 
ATOM     33  O   UNL A   1      43.504  23.625  24.348  1.00  0.00    -0.246 OA
BRANCH  32  34
ATOM     34  C   UNL A   1      43.270  24.809  26.391  1.00  0.00     0.060 A 
ATOM     35  C   UNL A   1      43.771  26.114  26.447  1.00  0.00     0.016 A 
ATOM     36  C   UNL A   1      42.213  24.414  27.212  1.00  0.00     0.016 A 
ATOM     37  C   UNL A   1      43.225  27.030  27.346  1.00  0.00     0.010 A 
ATOM     38  C   UNL A   1      41.679  25.327  28.125  1.00  0.00     0.010 A 
ATOM     39  C   UNL A   1      42.201  26.630  28.214  1.00  0.00    -0.014 A 
BRANCH  39  40
ATOM     40  C   UNL A   1      41.784  27.520  29.324  1.00  0.00     0.031 A 
ATOM     41  C   UNL A   1      42.528  27.446  30.627  1.00  0.00     0.074 A 
ATOM     42  C   UNL A   1      40.766  28.386  29.175  1.00  0.00     0.049 A 
ATOM     43  N   UNL A   1      42.310  28.083  31.750  1.00  0.00    -0.248 NA
ATOM     44  C   UNL A   1      43.675  26.525  30.670  1.00  0.00     0.031 C 
ATOM     45  C   UNL A   1      39.993  28.578  27.951  1.00  0.00     0.029 A 
ATOM     46  N   UNL A   1      40.203  29.260  30.073  1.00  0.00    -0.354 N 
ATOM     47  C   UNL A   1      43.286  27.637  32.631  1.00  0.00     0.074 A 
ATOM     48  C   UNL A   1      44.080  26.655  31.925  1.00  0.00     0.031 C 
ATOM     49  C   UNL A   1      39.042  29.501  28.179  1.00  0.00     0.029 A 
ATOM     50  C   UNL A   1      39.120  29.939  29.573  1.00  0.00     0.049 A 
ATOM     51  H   UNL A   1      40.545  29.387  30.987  1.00  0.00     0.167 HD
ATOM     52  C   UNL A   1      43.502  28.017  33.913  1.00  0.00     0.037 A 
ATOM     53  C   UNL A   1      38.275  30.792  30.181  1.00  0.00     0.037 A 
ATOM     54  C   UNL A   1      42.707  28.988  34.616  1.00  0.00     0.049 A 
ATOM     55  C   UNL A   1      38.490  31.140  31.633  1.00  0.00     0.074 A 
ATOM     56  C   UNL A   1      42.858  29.454  35.910  1.00  0.00     0.029 A 
ATOM     57  N   UNL A   1      41.599  29.633  34.086  1.00  0.00    -0.354 N 
ATOM     58  N   UNL A   1      39.434  30.740  32.452  1.00  0.00    -0.248 NA
ATOM     59  C   UNL A   1      37.521  32.061  32.246  1.00  0.00     0.031 C 
ATOM     60  C   UNL A   1      41.811  30.340  36.181  1.00  0.00     0.029 A 
ATOM     61  C   UNL A   1      41.041  30.473  35.036  1.00  0.00     0.049 A 
ATOM     62  H   UNL A   1      41.259  29.512  33.170  1.00  0.00     0.167 HD
ATOM     63  C   UNL A   1      39.191  31.384  33.660  1.00  0.00     0.074 A 
ATOM     64  C   UNL A   1      38.018  32.208  33.465  1.00  0.00     0.031 C 
ATOM     65  C   UNL A   1      39.879  31.299  34.826  1.00  0.00     0.037 A 
BRANCH  52  66
ATOM     66  C   UNL A   1      44.633  27.358  34.646  1.00  0.00     0.064 A 
ATOM     67  C   UNL A   1      45.936  27.877  34.615  1.00  0.00     0.173 A 
ATOM     68  C   UNL A   1      44.403  26.209  35.418  1.00  0.00     0.173 A 
ATOM     69  F   UNL A   1      46.211  28.966  33.879  1.00  0.00    -0.203 F 
ATOM     70  C   UNL A   1      46.972  27.256  35.306  1.00  0.00     0.198 A 
ATOM     71  C   UNL A   1      45.435  25.607  36.133  1.00  0.00     0.198 A 
ATOM     72  F   UNL A   1      43.175  25.674  35.485  1.00  0.00    -0.203 F 
ATOM     73  F   UNL A   1      48.219  27.741  35.223  1.00  0.00    -0.200 F 
ATOM     74  C   UNL A   1      46.720  26.126  36.070  1.00  0.00     0.200 A 
ATOM     75  F   UNL A   1      45.187  24.523  36.880  1.00  0.00    -0.200 F 
ATOM     76  F   UNL A   1      47.716  25.532  36.741  1.00  0.00    -0.200 F 
ENDBRANCH  52  66
BRANCH  53  77
ATOM     77  C   UNL A   1      37.133  31.374  29.428  1.00  0.00     0.064 A 
ATOM     78  C   UNL A   1      37.126  32.723  29.052  1.00  0.00     0.173 A 
ATOM     79  C   UNL A   1      36.011  30.599  29.096  1.00  0.00     0.173 A 
ATOM     80  F   UNL A   1      38.163  33.513  29.373  1.00  0.00    -0.203 F 
ATOM     81  C   UNL A   1      36.033  33.282  28.390  1.00  0.00     0.198 A 
ATOM     82  C   UNL A   1      34.932  31.150  28.409  1.00  0.00     0.198 A 
ATOM     83  F   UNL A   1      35.964  29.304  29.439  1.00  0.00    -0.203 F 
ATOM     84  F   UNL A   1      36.031  34.588  28.090  1.00  0.00    -0.200 F 
ATOM     85  C   UNL A   1      34.940  32.494  28.064  1.00  0.00     0.200 A 
ATOM     86  F   UNL A   1      33.881  30.383  28.088  1.00  0.00    -0.200 F 
ATOM     87  F   UNL A   1      33.890  33.031  27.430  1.00  0.00    -0.200 F 
ENDBRANCH  53  77
BRANCH  65  88
ATOM     88  C   UNL A   1      39.414  32.153  35.971  1.00  0.00     0.064 A 
ATOM     89  C   UNL A   1      39.896  33.456  36.166  1.00  0.00     0.173 A 
ATOM     90  C   UNL A   1      38.437  31.676  36.859  1.00  0.00     0.173 A 
ATOM     91  F   UNL A   1      40.841  33.955  35.355  1.00  0.00    -0.203 F 
ATOM     92  C   UNL A   1      39.436  34.239  37.222  1.00  0.00     0.198 A 
ATOM     93  C   UNL A   1      37.956  32.473  37.894  1.00  0.00     0.198 A 
ATOM     94  F   UNL A   1      37.936  30.440  36.712  1.00  0.00    -0.203 F 
ATOM     95  F   UNL A   1      39.946  35.463  37.418  1.00  0.00    -0.200 F 
ATOM     96  C   UNL A   1      38.461  33.751  38.080  1.00  0.00     0.200 A 
ATOM     97  F   UNL A   1      37.003  32.004  38.711  1.00  0.00    -0.200 F 
ATOM     98  F   UNL A   1      38.013  34.509  39.089  1.00  0.00    -0.200 F 
ENDBRANCH  65  88
ENDBRANCH  39  40
ENDBRANCH  32  34
ENDBRANCH  31  32
ENDBRANCH  30  31
ENDBRANCH  29  30
ENDBRANCH  28  29
ENDBRANCH  27  28
ENDBRANCH   1  27
TORSDOF 21
ENDMDL
MODEL 3
REMARK VINA RESULT:     -11.2      1.136      7.418
REMARK SMILES CCc1ccc(C(=O)NCc2ccc(C(=O)OCCOCCOCCOC(=O)c3ccc(-c4c5nc(c(-c6c(F)c(F)c(F)c(F)c6F)c6ccc([nH]6)c(-c6c(F)c(F)c(F)c(F)c6F)c6nc(c(-c7c(F)c(F)c(F)c(F)c7F)c7ccc4[nH]7)C=C6)C=C5)cc3)cc2)cc1
REMARK SMILES IDX 21 1 20 2 19 3 18 4 17 5 15 6 16 7 14 8 11 9 12 10 93 11
REMARK SMILES IDX 13 12 92 13 10 14 9 15 7 16 8 17 6 19 3 20 4 21 95 22 5 23
REMARK SMILES IDX 94 24 2 25 1 26 22 27 23 28 24 29 25 30 26 31 27 32 28 33
REMARK SMILES IDX 29 34 30 35 91 36 31 37 90 38 32 39 33 40 34 41 84 42 35 43
REMARK SMILES IDX 89 44 83 45 85 46 36 47 88 48 82 49 81 50 37 52 69 53 49 54
REMARK SMILES IDX 68 55 50 56 53 57 67 58 86 59 51 60 52 61 66 63 87 64 54 65
REMARK SMILES IDX 38 66 39 67 47 68 40 69 41 70 45 71 48 72 42 73 43 74 46 75
REMARK SMILES IDX 44 76 70 77 71 78 79 79 72 80 73 81 77 82 80 83 74 84 75 85
REMARK SMILES IDX 78 86 76 87 55 88 56 89 64 90 57 91 58 92 62 93 65 94 59 95
REMARK SMILES IDX 60 96 63 97 61 98
REMARK H PARENT 9 18 85 51 53 62
REMARK Flexibility Score: inf
ROOT
ATOM      1  C   UNL A   1      45.706  18.698  25.636  1.00  0.00     0.188 C 
ENDROOT
BRANCH   1   2
ATOM      2  O   UNL A   1      44.351  18.282  25.713  1.00  0.00    -0.376 OA
BRANCH   2   3
ATOM      3  C   UNL A   1      43.319  19.123  25.212  1.00  0.00     0.202 C 
BRANCH   3   4
ATOM      4  C   UNL A   1      42.605  20.117  26.137  1.00  0.00     0.261 C 
BRANCH   4   5
ATOM      5  O   UNL A   1      41.196  20.238  25.899  1.00  0.00    -0.460 OA
BRANCH   5   6
ATOM      6  C   UNL A   1      40.509  20.914  26.857  1.00  0.00     0.338 C 
ATOM      7  O   UNL A   1      40.828  21.066  28.016  1.00  0.00    -0.246 OA
BRANCH   6   8
ATOM      8  C   UNL A   1      39.377  21.642  26.240  1.00  0.00     0.060 A 
ATOM      9  C   UNL A   1      37.235  23.131  25.196  1.00  0.00    -0.029 A 
ATOM     10  C   UNL A   1      38.121  23.706  26.117  1.00  0.00     0.006 A 
ATOM     11  C   UNL A   1      37.463  21.808  24.776  1.00  0.00     0.006 A 
ATOM     12  C   UNL A   1      39.179  22.967  26.641  1.00  0.00     0.016 A 
ATOM     13  C   UNL A   1      38.534  21.067  25.287  1.00  0.00     0.016 A 
BRANCH   9  14
ATOM     14  C   UNL A   1      35.982  23.863  24.769  1.00  0.00     0.152 C 
BRANCH  14  15
ATOM     15  N   UNL A   1      34.990  23.748  25.818  1.00  0.00    -0.348 N 
ATOM     16  C   UNL A   1      34.006  22.859  26.149  1.00  0.00     0.251 C 
ATOM     17  O   UNL A   1      33.351  23.132  27.158  1.00  0.00    -0.269 OA
ATOM     18  H   UNL A   1      35.036  24.498  26.452  1.00  0.00     0.164 HD
BRANCH  16  19
ATOM     19  C   UNL A   1      33.686  21.598  25.417  1.00  0.00     0.039 A 
ATOM     20  C   UNL A   1      32.896  19.319  23.907  1.00  0.00    -0.048 A 
ATOM     21  C   UNL A   1      32.153  20.499  23.854  1.00  0.00     0.004 A 
ATOM     22  C   UNL A   1      34.053  19.306  24.696  1.00  0.00     0.004 A 
ATOM     23  C   UNL A   1      32.543  21.619  24.600  1.00  0.00     0.014 A 
ATOM     24  C   UNL A   1      34.445  20.432  25.432  1.00  0.00     0.014 A 
BRANCH  20  25
ATOM     25  C   UNL A   1      32.537  18.059  23.154  1.00  0.00     0.032 C 
ATOM     26  C   UNL A   1      33.585  16.954  23.120  1.00  0.00     0.009 C 
ENDBRANCH  20  25
ENDBRANCH  16  19
ENDBRANCH  14  15
ENDBRANCH   9  14
ENDBRANCH   6   8
ENDBRANCH   5   6
ENDBRANCH   4   5
ENDBRANCH   3   4
ENDBRANCH   2   3
ENDBRANCH   1   2
BRANCH   1  27
ATOM     27  C   UNL A   1      46.151  19.721  24.569  1.00  0.00     0.188 C 
BRANCH  27  28
ATOM     28  O   UNL A   1      46.662  20.942  25.040  1.00  0.00    -0.376 OA
BRANCH  28  29
ATOM     29  C   UNL A   1      45.805  22.032  25.334  1.00  0.00     0.202 C 
BRANCH  29  30
ATOM     30  C   UNL A   1      45.898  23.456  24.749  1.00  0.00     0.261 C 
BRANCH  30  31
ATOM     31  O   UNL A   1      45.158  24.503  25.375  1.00  0.00    -0.460 OA
BRANCH  31  32
ATOM     32  C   UNL A   1      43.832  24.527  25.108  1.00  0.00     0.338 C 
ATOM     33  O   UNL A   1      43.231  23.898  24.253  1.00  0.00    -0.246 OA
BRANCH  32  34
ATOM     34  C   UNL A   1      43.163  25.336  26.140  1.00  0.00     0.060 A 
ATOM     35  C   UNL A   1      43.592  26.652  26.344  1.00  0.00     0.016 A 
ATOM     36  C   UNL A   1      42.146  24.787  26.922  1.00  0.00     0.016 A 
ATOM     37  C   UNL A   1      43.017  27.422  27.354  1.00  0.00     0.010 A 
ATOM     38  C   UNL A   1      41.582  25.554  27.946  1.00  0.00     0.010 A 
ATOM     39  C   UNL A   1      42.034  26.865  28.182  1.00  0.00    -0.014 A 
BRANCH  39  40
ATOM     40  C   UNL A   1      41.592  27.591  29.397  1.00  0.00     0.031 A 
ATOM     41  C   UNL A   1      40.358  28.445  29.319  1.00  0.00     0.074 A 
ATOM     42  C   UNL A   1      42.272  27.490  30.553  1.00  0.00     0.049 A 
ATOM     43  N   UNL A   1      39.814  29.210  30.231  1.00  0.00    -0.248 NA
ATOM     44  C   UNL A   1      39.637  28.432  28.036  1.00  0.00     0.031 C 
ATOM     45  C   UNL A   1      43.460  26.667  30.764  1.00  0.00     0.029 A 
ATOM     46  N   UNL A   1      42.060  28.098  31.765  1.00  0.00    -0.354 N 
ATOM     47  C   UNL A   1      38.696  29.774  29.631  1.00  0.00     0.074 A 
ATOM     48  C   UNL A   1      38.651  29.285  28.270  1.00  0.00     0.031 C 
ATOM     49  C   UNL A   1      43.884  26.835  32.029  1.00  0.00     0.029 A 
ATOM     50  C   UNL A   1      43.018  27.801  32.703  1.00  0.00     0.049 A 
ATOM     51  H   UNL A   1      41.295  28.690  31.945  1.00  0.00     0.167 HD
ATOM     52  C   UNL A   1      37.785  30.618  30.171  1.00  0.00     0.037 A 
ATOM     53  C   UNL A   1      43.187  28.278  33.951  1.00  0.00     0.037 A 
ATOM     54  C   UNL A   1      37.835  31.109  31.522  1.00  0.00     0.049 A 
ATOM     55  C   UNL A   1      42.202  29.279  34.502  1.00  0.00     0.074 A 
ATOM     56  C   UNL A   1      36.948  31.953  32.167  1.00  0.00     0.029 A 
ATOM     57  N   UNL A   1      38.836  30.810  32.434  1.00  0.00    -0.354 N 
ATOM     58  N   UNL A   1      41.128  29.783  33.942  1.00  0.00    -0.248 NA
ATOM     59  C   UNL A   1      42.454  29.777  35.863  1.00  0.00     0.031 C 
ATOM     60  C   UNL A   1      37.441  32.207  33.450  1.00  0.00     0.029 A 
ATOM     61  C   UNL A   1      38.604  31.474  33.627  1.00  0.00     0.049 A 
ATOM     62  H   UNL A   1      39.599  30.213  32.259  1.00  0.00     0.167 HD
ATOM     63  C   UNL A   1      40.562  30.627  34.890  1.00  0.00     0.074 A 
ATOM     64  C   UNL A   1      41.404  30.560  36.065  1.00  0.00     0.031 C 
ATOM     65  C   UNL A   1      39.444  31.389  34.795  1.00  0.00     0.037 A 
BRANCH  52  66
ATOM     66  C   UNL A   1      36.669  31.086  29.284  1.00  0.00     0.064 A 
ATOM     67  C   UNL A   1      35.624  30.232  28.898  1.00  0.00     0.173 A 
ATOM     68  C   UNL A   1      36.626  32.417  28.840  1.00  0.00     0.173 A 
ATOM     69  F   UNL A   1      35.626  28.946  29.284  1.00  0.00    -0.203 F 
ATOM     70  C   UNL A   1      34.593  30.685  28.080  1.00  0.00     0.198 A 
ATOM     71  C   UNL A   1      35.577  32.875  28.047  1.00  0.00     0.198 A 
ATOM     72  F   UNL A   1      37.598  33.275  29.183  1.00  0.00    -0.203 F 
ATOM     73  F   UNL A   1      33.632  29.840  27.684  1.00  0.00    -0.200 F 
ATOM     74  C   UNL A   1      34.567  32.007  27.661  1.00  0.00     0.200 A 
ATOM     75  F   UNL A   1      35.548  34.155  27.653  1.00  0.00    -0.200 F 
ATOM     76  F   UNL A   1      33.571  32.445  26.878  1.00  0.00    -0.200 F 
ENDBRANCH  52  66
BRANCH  53  77
ATOM     77  C   UNL A   1      44.343  27.829  34.770  1.00  0.00     0.064 A 
ATOM     78  C   UNL A   1      44.237  26.727  35.630  1.00  0.00     0.173 A 
ATOM     79  C   UNL A   1      45.570  28.510  34.732  1.00  0.00     0.173 A 
ATOM     80  F   UNL A   1      43.076  26.061  35.724  1.00  0.00    -0.203 F 
ATOM     81  C   UNL A   1      45.306  26.337  36.436  1.00  0.00     0.198 A 
ATOM     82  C   UNL A   1      46.646  28.101  35.516  1.00  0.00     0.198 A 
ATOM     83  F   UNL A   1      45.721  29.574  33.931  1.00  0.00    -0.203 F 
ATOM     84  F   UNL A   1      45.158  25.313  37.289  1.00  0.00    -0.200 F 
ATOM     85  C   UNL A   1      46.511  27.020  36.374  1.00  0.00     0.200 A 
ATOM     86  F   UNL A   1      47.811  28.759  35.447  1.00  0.00    -0.200 F 
ATOM     87  F   UNL A   1      47.536  26.645  37.149  1.00  0.00    -0.200 F 
ENDBRANCH  53  77
BRANCH  65  88
ATOM     88  C   UNL A   1      39.035  32.178  36.007  1.00  0.00     0.064 A 
ATOM     89  C   UNL A   1      39.433  33.510  36.192  1.00  0.00     0.173 A 
ATOM     90  C   UNL A   1      38.195  31.605  36.974  1.00  0.00     0.173 A 
ATOM     91  F   UNL A   1      40.248  34.101  35.304  1.00  0.00    -0.203 F 
ATOM     92  C   UNL A   1      39.026  34.231  37.312  1.00  0.00     0.198 A 
ATOM     93  C   UNL A   1      37.764  32.337  38.076  1.00  0.00     0.198 A 
ATOM     94  F   UNL A   1      37.778  30.337  36.842  1.00  0.00    -0.203 F 
ATOM     95  F   UNL A   1      39.457  35.486  37.492  1.00  0.00    -0.200 F 
ATOM     96  C   UNL A   1      38.185  33.647  38.249  1.00  0.00     0.200 A 
ATOM     97  F   UNL A   1      36.938  31.776  38.971  1.00  0.00    -0.200 F 
ATOM     98  F   UNL A   1      37.786  34.345  39.321  1.00  0.00    -0.200 F 
ENDBRANCH  65  88
ENDBRANCH  39  40
ENDBRANCH  32  34
ENDBRANCH  31  32
ENDBRANCH  30  31
ENDBRANCH  29  30
ENDBRANCH  28  29
ENDBRANCH  27  28
ENDBRANCH   1  27
TORSDOF 21
ENDMDL
