MODEL 1
REMARK VINA RESULT:     -10.6      0.000      0.000
REMARK SMILES COc1ccc(O[C@H]2CC[C@@]([NH2+]C(C)C)(C(=O)OCCOCCOCCOC(=O)c3ccc(-c4c5nc(c(-c6c(F)c(F)c(F)c(F)c6F)c6ccc([nH]6)c(-c6c(F)c(F)c(F)c(F)c6F)c6nc(c(-c7c(F)c(F)c(F)c(F)c7F)c7ccc4[nH]7)C=C6)C=C5)cc3)C2)cc1
REMARK SMILES IDX 22 1 21 2 20 3 19 4 18 5 16 6 17 7 11 8 8 9 9 10 93 11 10 12
REMARK SMILES IDX 7 13 6 14 3 15 4 16 95 17 5 18 94 19 2 20 1 21 12 22 13 25
REMARK SMILES IDX 14 26 15 27 23 28 24 29 25 30 26 31 27 32 28 33 29 34 30 35
REMARK SMILES IDX 31 36 92 37 32 38 91 39 33 40 34 41 35 42 85 43 36 44 90 45
REMARK SMILES IDX 84 46 86 47 37 48 89 49 83 50 82 51 38 53 70 54 50 55 69 56
REMARK SMILES IDX 51 57 54 58 68 59 87 60 52 61 53 62 67 64 88 65 55 66 39 67
REMARK SMILES IDX 40 68 48 69 41 70 42 71 46 72 49 73 43 74 44 75 47 76 45 77
REMARK SMILES IDX 71 78 72 79 80 80 73 81 74 82 78 83 81 84 75 85 76 86 79 87
REMARK SMILES IDX 77 88 56 89 57 90 65 91 58 92 59 93 63 94 66 95 60 96 61 97
REMARK SMILES IDX 64 98 62 99
REMARK H PARENT 12 23 12 24 86 52 54 63
REMARK Flexibility Score: inf
ROOT
ATOM      1  C   UNL A   1      34.908  31.916  29.000  1.00  0.00     0.188 C 
ENDROOT
BRANCH   1   2
ATOM      2  O   UNL A   1      35.007  31.467  27.651  1.00  0.00    -0.376 OA
BRANCH   2   3
ATOM      3  C   UNL A   1      34.155  30.354  27.366  1.00  0.00     0.202 C 
BRANCH   3   4
ATOM      4  C   UNL A   1      32.741  30.630  26.809  1.00  0.00     0.261 C 
BRANCH   4   5
ATOM      5  O   UNL A   1      32.480  30.106  25.496  1.00  0.00    -0.459 OA
BRANCH   5   6
ATOM      6  C   UNL A   1      31.723  28.963  25.475  1.00  0.00     0.368 C 
ATOM      7  O   UNL A   1      31.429  28.327  26.473  1.00  0.00    -0.245 OA
BRANCH   6   8
ATOM      8  C   UNL A   1      31.386  28.510  24.015  1.00  0.00     0.198 C 
ATOM      9  C   UNL A   1      32.198  26.280  23.168  1.00  0.00     0.180 C 
ATOM     10  C   UNL A   1      30.693  26.365  22.983  1.00  0.00     0.052 C 
ATOM     11  C   UNL A   1      32.603  27.756  23.387  1.00  0.00     0.126 C 
ATOM     12  C   UNL A   1      30.239  27.470  23.936  1.00  0.00     0.085 C 
BRANCH   9  13
ATOM     13  O   UNL A   1      32.536  25.544  24.342  1.00  0.00    -0.490 OA
BRANCH  13  14
ATOM     14  C   UNL A   1      32.481  24.181  24.383  1.00  0.00     0.119 A 
ATOM     15  C   UNL A   1      32.089  21.416  24.899  1.00  0.00     0.119 A 
ATOM     16  C   UNL A   1      32.623  21.868  23.683  1.00  0.00     0.050 A 
ATOM     17  C   UNL A   1      31.781  22.353  25.868  1.00  0.00     0.050 A 
ATOM     18  C   UNL A   1      32.817  23.245  23.419  1.00  0.00     0.050 A 
ATOM     19  C   UNL A   1      31.977  23.702  25.588  1.00  0.00     0.050 A 
BRANCH  15  20
ATOM     20  O   UNL A   1      31.913  20.066  25.041  1.00  0.00    -0.497 OA
ATOM     21  C   UNL A   1      32.637  19.237  24.127  1.00  0.00     0.278 C 
ENDBRANCH  15  20
ENDBRANCH  13  14
ENDBRANCH   9  13
BRANCH   8  22
ATOM     22  N   UNL A   1      30.936  29.672  23.197  1.00  0.00    -0.330 N 
ATOM     23  H   UNL A   1      31.242  29.504  22.238  1.00  0.00     0.347 HD
ATOM     24  H   UNL A   1      31.348  30.482  23.661  1.00  0.00     0.347 HD
BRANCH  22  25
ATOM     25  C   UNL A   1      29.502  29.972  23.148  1.00  0.00     0.176 C 
ATOM     26  C   UNL A   1      29.147  31.250  23.901  1.00  0.00     0.075 C 
ATOM     27  C   UNL A   1      29.104  30.091  21.674  1.00  0.00     0.075 C 
ENDBRANCH  22  25
ENDBRANCH   8  22
ENDBRANCH   6   8
ENDBRANCH   5   6
ENDBRANCH   4   5
ENDBRANCH   3   4
ENDBRANCH   2   3
ENDBRANCH   1   2
BRANCH   1  28
ATOM     28  C   UNL A   1      34.910  33.414  29.252  1.00  0.00     0.188 C 
BRANCH  28  29
ATOM     29  O   UNL A   1      33.848  34.101  28.609  1.00  0.00    -0.376 OA
BRANCH  29  30
ATOM     30  C   UNL A   1      33.965  35.525  28.637  1.00  0.00     0.202 C 
BRANCH  30  31
ATOM     31  C   UNL A   1      32.912  36.245  29.492  1.00  0.00     0.261 C 
BRANCH  31  32
ATOM     32  O   UNL A   1      32.341  35.400  30.524  1.00  0.00    -0.460 OA
BRANCH  32  33
ATOM     33  C   UNL A   1      32.520  35.893  31.778  1.00  0.00     0.338 C 
ATOM     34  O   UNL A   1      31.760  36.687  32.321  1.00  0.00    -0.246 OA
BRANCH  33  35
ATOM     35  C   UNL A   1      33.646  35.254  32.531  1.00  0.00     0.060 A 
ATOM     36  C   UNL A   1      34.933  35.784  32.627  1.00  0.00     0.016 A 
ATOM     37  C   UNL A   1      33.430  33.960  33.025  1.00  0.00     0.016 A 
ATOM     38  C   UNL A   1      36.009  34.958  33.031  1.00  0.00     0.010 A 
ATOM     39  C   UNL A   1      34.485  33.185  33.528  1.00  0.00     0.010 A 
ATOM     40  C   UNL A   1      35.811  33.641  33.489  1.00  0.00    -0.014 A 
BRANCH  40  41
ATOM     41  C   UNL A   1      36.915  32.717  33.939  1.00  0.00     0.031 A 
ATOM     42  C   UNL A   1      37.618  32.929  35.270  1.00  0.00     0.074 A 
ATOM     43  C   UNL A   1      37.377  31.715  33.161  1.00  0.00     0.049 A 
ATOM     44  N   UNL A   1      38.819  32.555  35.654  1.00  0.00    -0.248 NA
ATOM     45  C   UNL A   1      36.867  33.656  36.304  1.00  0.00     0.031 C 
ATOM     46  C   UNL A   1      36.790  31.264  31.902  1.00  0.00     0.029 A 
ATOM     47  N   UNL A   1      38.492  30.913  33.309  1.00  0.00    -0.354 N 
ATOM     48  C   UNL A   1      38.988  33.052  36.944  1.00  0.00     0.074 A 
ATOM     49  C   UNL A   1      37.759  33.741  37.285  1.00  0.00     0.031 C 
ATOM     50  C   UNL A   1      37.538  30.276  31.394  1.00  0.00     0.029 A 
ATOM     51  C   UNL A   1      38.733  30.116  32.216  1.00  0.00     0.049 A 
ATOM     52  H   UNL A   1      39.056  30.911  34.117  1.00  0.00     0.167 HD
ATOM     53  C   UNL A   1      40.067  32.952  37.761  1.00  0.00     0.037 A 
ATOM     54  C   UNL A   1      39.820  29.412  31.840  1.00  0.00     0.037 A 
ATOM     55  C   UNL A   1      41.273  32.216  37.456  1.00  0.00     0.049 A 
ATOM     56  C   UNL A   1      41.059  29.413  32.686  1.00  0.00     0.074 A 
ATOM     57  C   UNL A   1      42.415  32.065  38.228  1.00  0.00     0.029 A 
ATOM     58  N   UNL A   1      41.485  31.491  36.296  1.00  0.00    -0.354 N 
ATOM     59  N   UNL A   1      41.275  30.001  33.835  1.00  0.00    -0.248 NA
ATOM     60  C   UNL A   1      42.218  28.675  32.162  1.00  0.00     0.031 C 
ATOM     61  C   UNL A   1      43.334  31.286  37.516  1.00  0.00     0.029 A 
ATOM     62  C   UNL A   1      42.746  30.908  36.323  1.00  0.00     0.049 A 
ATOM     63  H   UNL A   1      40.838  31.401  35.559  1.00  0.00     0.167 HD
ATOM     64  C   UNL A   1      42.585  29.697  34.178  1.00  0.00     0.074 A 
ATOM     65  C   UNL A   1      43.112  28.859  33.123  1.00  0.00     0.031 C 
ATOM     66  C   UNL A   1      43.283  30.083  35.273  1.00  0.00     0.037 A 
BRANCH  53  67
ATOM     67  C   UNL A   1      40.040  33.688  39.074  1.00  0.00     0.064 A 
ATOM     68  C   UNL A   1      39.458  33.141  40.226  1.00  0.00     0.173 A 
ATOM     69  C   UNL A   1      40.716  34.914  39.202  1.00  0.00     0.173 A 
ATOM     70  F   UNL A   1      38.805  31.972  40.161  1.00  0.00    -0.203 F 
ATOM     71  C   UNL A   1      39.545  33.798  41.453  1.00  0.00     0.198 A 
ATOM     72  C   UNL A   1      40.823  35.554  40.435  1.00  0.00     0.198 A 
ATOM     73  F   UNL A   1      41.309  35.474  38.136  1.00  0.00    -0.203 F 
ATOM     74  F   UNL A   1      38.965  33.266  42.538  1.00  0.00    -0.200 F 
ATOM     75  C   UNL A   1      40.235  34.997  41.558  1.00  0.00     0.200 A 
ATOM     76  F   UNL A   1      41.510  36.701  40.537  1.00  0.00    -0.200 F 
ATOM     77  F   UNL A   1      40.336  35.613  42.744  1.00  0.00    -0.200 F 
ENDBRANCH  53  67
BRANCH  54  78
ATOM     78  C   UNL A   1      39.808  28.727  30.520  1.00  0.00     0.064 A 
ATOM     79  C   UNL A   1      40.380  29.322  29.390  1.00  0.00     0.173 A 
ATOM     80  C   UNL A   1      39.259  27.442  30.379  1.00  0.00     0.173 A 
ATOM     81  F   UNL A   1      40.881  30.564  29.468  1.00  0.00    -0.203 F 
ATOM     82  C   UNL A   1      40.418  28.652  28.170  1.00  0.00     0.198 A 
ATOM     83  C   UNL A   1      39.329  26.759  29.169  1.00  0.00     0.198 A 
ATOM     84  F   UNL A   1      38.690  26.835  31.431  1.00  0.00    -0.203 F 
ATOM     85  F   UNL A   1      40.946  29.252  27.095  1.00  0.00    -0.200 F 
ATOM     86  C   UNL A   1      39.907  27.365  28.065  1.00  0.00     0.200 A 
ATOM     87  F   UNL A   1      38.852  25.511  29.078  1.00  0.00    -0.200 F 
ATOM     88  F   UNL A   1      39.970  26.711  26.896  1.00  0.00    -0.200 F 
ENDBRANCH  54  78
BRANCH  66  89
ATOM     89  C   UNL A   1      44.690  29.577  35.404  1.00  0.00     0.064 A 
ATOM     90  C   UNL A   1      45.782  30.303  34.907  1.00  0.00     0.173 A 
ATOM     91  C   UNL A   1      44.951  28.349  36.032  1.00  0.00     0.173 A 
ATOM     92  F   UNL A   1      45.586  31.473  34.281  1.00  0.00    -0.203 F 
ATOM     93  C   UNL A   1      47.080  29.805  35.007  1.00  0.00     0.198 A 
ATOM     94  C   UNL A   1      46.251  27.866  36.152  1.00  0.00     0.198 A 
ATOM     95  F   UNL A   1      43.943  27.615  36.527  1.00  0.00    -0.203 F 
ATOM     96  F   UNL A   1      48.102  30.492  34.477  1.00  0.00    -0.200 F 
ATOM     97  C   UNL A   1      47.313  28.589  35.632  1.00  0.00     0.200 A 
ATOM     98  F   UNL A   1      46.475  26.693  36.762  1.00  0.00    -0.200 F 
ATOM     99  F   UNL A   1      48.561  28.107  35.720  1.00  0.00    -0.200 F 
ENDBRANCH  66  89
ENDBRANCH  40  41
ENDBRANCH  33  35
ENDBRANCH  32  33
ENDBRANCH  31  32
ENDBRANCH  30  31
ENDBRANCH  29  30
ENDBRANCH  28  29
ENDBRANCH   1  28
TORSDOF 22
ENDMDL
MODEL 2
REMARK VINA RESULT:     -10.5      1.304      3.961
REMARK SMILES COc1ccc(O[C@H]2CC[C@@]([NH2+]C(C)C)(C(=O)OCCOCCOCCOC(=O)c3ccc(-c4c5nc(c(-c6c(F)c(F)c(F)c(F)c6F)c6ccc([nH]6)c(-c6c(F)c(F)c(F)c(F)c6F)c6nc(c(-c7c(F)c(F)c(F)c(F)c7F)c7ccc4[nH]7)C=C6)C=C5)cc3)C2)cc1
REMARK SMILES IDX 22 1 21 2 20 3 19 4 18 5 16 6 17 7 11 8 8 9 9 10 93 11 10 12
REMARK SMILES IDX 7 13 6 14 3 15 4 16 95 17 5 18 94 19 2 20 1 21 12 22 13 25
REMARK SMILES IDX 14 26 15 27 23 28 24 29 25 30 26 31 27 32 28 33 29 34 30 35
REMARK SMILES IDX 31 36 92 37 32 38 91 39 33 40 34 41 35 42 85 43 36 44 90 45
REMARK SMILES IDX 84 46 86 47 37 48 89 49 83 50 82 51 38 53 70 54 50 55 69 56
REMARK SMILES IDX 51 57 54 58 68 59 87 60 52 61 53 62 67 64 88 65 55 66 39 67
REMARK SMILES IDX 40 68 48 69 41 70 42 71 46 72 49 73 43 74 44 75 47 76 45 77
REMARK SMILES IDX 71 78 72 79 80 80 73 81 74 82 78 83 81 84 75 85 76 86 79 87
REMARK SMILES IDX 77 88 56 89 57 90 65 91 58 92 59 93 63 94 66 95 60 96 61 97
REMARK SMILES IDX 64 98 62 99
REMARK H PARENT 12 23 12 24 86 52 54 63
REMARK Flexibility Score: inf
ROOT
ATOM      1  C   UNL A   1      34.819  31.445  28.256  1.00  0.00     0.188 C 
ENDROOT
BRANCH   1   2
ATOM      2  O   UNL A   1      33.802  31.337  27.265  1.00  0.00    -0.376 OA
BRANCH   2   3
ATOM      3  C   UNL A   1      33.160  30.058  27.257  1.00  0.00     0.202 C 
BRANCH   3   4
ATOM      4  C   UNL A   1      34.015  28.805  26.966  1.00  0.00     0.261 C 
BRANCH   4   5
ATOM      5  O   UNL A   1      33.319  27.711  26.345  1.00  0.00    -0.459 OA
BRANCH   5   6
ATOM      6  C   UNL A   1      33.479  27.626  24.987  1.00  0.00     0.368 C 
ATOM      7  O   UNL A   1      34.341  28.225  24.368  1.00  0.00    -0.245 OA
BRANCH   6   8
ATOM      8  C   UNL A   1      32.353  26.769  24.316  1.00  0.00     0.198 C 
ATOM      9  C   UNL A   1      30.075  27.768  23.920  1.00  0.00     0.180 C 
ATOM     10  C   UNL A   1      30.615  27.223  22.609  1.00  0.00     0.052 C 
ATOM     11  C   UNL A   1      30.971  27.080  24.975  1.00  0.00     0.126 C 
ATOM     12  C   UNL A   1      32.123  27.106  22.821  1.00  0.00     0.085 C 
BRANCH   9  13
ATOM     13  O   UNL A   1      30.272  29.178  24.015  1.00  0.00    -0.490 OA
BRANCH  13  14
ATOM     14  C   UNL A   1      29.587  30.060  23.230  1.00  0.00     0.119 A 
ATOM     15  C   UNL A   1      28.247  32.230  21.982  1.00  0.00     0.119 A 
ATOM     16  C   UNL A   1      28.538  31.048  21.285  1.00  0.00     0.050 A 
ATOM     17  C   UNL A   1      28.603  32.309  23.315  1.00  0.00     0.050 A 
ATOM     18  C   UNL A   1      29.209  29.964  21.902  1.00  0.00     0.050 A 
ATOM     19  C   UNL A   1      29.264  31.234  23.903  1.00  0.00     0.050 A 
BRANCH  15  20
ATOM     20  O   UNL A   1      27.624  33.229  21.285  1.00  0.00    -0.497 OA
ATOM     21  C   UNL A   1      27.595  33.081  19.862  1.00  0.00     0.278 C 
ENDBRANCH  15  20
ENDBRANCH  13  14
ENDBRANCH   9  13
BRANCH   8  22
ATOM     22  N   UNL A   1      32.705  25.320  24.356  1.00  0.00    -0.330 N 
ATOM     23  H   UNL A   1      33.723  25.257  24.376  1.00  0.00     0.347 HD
ATOM     24  H   UNL A   1      32.250  24.929  23.530  1.00  0.00     0.347 HD
BRANCH  22  25
ATOM     25  C   UNL A   1      32.196  24.513  25.468  1.00  0.00     0.176 C 
ATOM     26  C   UNL A   1      31.311  23.363  24.999  1.00  0.00     0.075 C 
ATOM     27  C   UNL A   1      33.405  23.978  26.242  1.00  0.00     0.075 C 
ENDBRANCH  22  25
ENDBRANCH   8  22
ENDBRANCH   6   8
ENDBRANCH   5   6
ENDBRANCH   4   5
ENDBRANCH   3   4
ENDBRANCH   2   3
ENDBRANCH   1   2
BRANCH   1  28
ATOM     28  C   UNL A   1      34.932  32.754  29.018  1.00  0.00     0.188 C 
BRANCH  28  29
ATOM     29  O   UNL A   1      33.764  33.557  28.949  1.00  0.00    -0.376 OA
BRANCH  29  30
ATOM     30  C   UNL A   1      34.011  34.935  28.662  1.00  0.00     0.202 C 
BRANCH  30  31
ATOM     31  C   UNL A   1      33.046  35.920  29.336  1.00  0.00     0.261 C 
BRANCH  31  32
ATOM     32  O   UNL A   1      32.299  35.329  30.431  1.00  0.00    -0.460 OA
BRANCH  32  33
ATOM     33  C   UNL A   1      32.558  35.911  31.631  1.00  0.00     0.338 C 
ATOM     34  O   UNL A   1      31.869  36.795  32.130  1.00  0.00    -0.246 OA
BRANCH  33  35
ATOM     35  C   UNL A   1      33.672  35.267  32.397  1.00  0.00     0.060 A 
ATOM     36  C   UNL A   1      34.961  35.789  32.504  1.00  0.00     0.016 A 
ATOM     37  C   UNL A   1      33.441  33.976  32.893  1.00  0.00     0.016 A 
ATOM     38  C   UNL A   1      36.027  34.957  32.922  1.00  0.00     0.010 A 
ATOM     39  C   UNL A   1      34.486  33.196  33.409  1.00  0.00     0.010 A 
ATOM     40  C   UNL A   1      35.816  33.642  33.382  1.00  0.00    -0.014 A 
BRANCH  40  41
ATOM     41  C   UNL A   1      36.909  32.712  33.845  1.00  0.00     0.031 A 
ATOM     42  C   UNL A   1      37.603  32.926  35.180  1.00  0.00     0.074 A 
ATOM     43  C   UNL A   1      37.370  31.703  33.076  1.00  0.00     0.049 A 
ATOM     44  N   UNL A   1      38.797  32.544  35.576  1.00  0.00    -0.248 NA
ATOM     45  C   UNL A   1      36.849  33.663  36.205  1.00  0.00     0.031 C 
ATOM     46  C   UNL A   1      36.790  31.250  31.814  1.00  0.00     0.029 A 
ATOM     47  N   UNL A   1      38.477  30.893  33.237  1.00  0.00    -0.354 N 
ATOM     48  C   UNL A   1      38.959  33.046  36.865  1.00  0.00     0.074 A 
ATOM     49  C   UNL A   1      37.733  33.746  37.193  1.00  0.00     0.031 C 
ATOM     50  C   UNL A   1      37.535  30.254  31.317  1.00  0.00     0.029 A 
ATOM     51  C   UNL A   1      38.721  30.089  32.149  1.00  0.00     0.049 A 
ATOM     52  H   UNL A   1      39.034  30.891  34.049  1.00  0.00     0.167 HD
ATOM     53  C   UNL A   1      40.031  32.941  37.692  1.00  0.00     0.037 A 
ATOM     54  C   UNL A   1      39.805  29.375  31.786  1.00  0.00     0.037 A 
ATOM     55  C   UNL A   1      41.233  32.195  37.400  1.00  0.00     0.049 A 
ATOM     56  C   UNL A   1      41.038  29.371  32.642  1.00  0.00     0.074 A 
ATOM     57  C   UNL A   1      42.368  32.039  38.182  1.00  0.00     0.029 A 
ATOM     58  N   UNL A   1      41.450  31.462  36.245  1.00  0.00    -0.354 N 
ATOM     59  N   UNL A   1      41.248  29.962  33.791  1.00  0.00    -0.248 NA
ATOM     60  C   UNL A   1      42.195  28.621  32.132  1.00  0.00     0.031 C 
ATOM     61  C   UNL A   1      43.287  31.249  37.482  1.00  0.00     0.029 A 
ATOM     62  C   UNL A   1      42.705  30.871  36.286  1.00  0.00     0.049 A 
ATOM     63  H   UNL A   1      40.808  31.374  35.504  1.00  0.00     0.167 HD
ATOM     64  C   UNL A   1      42.553  29.650  34.145  1.00  0.00     0.074 A 
ATOM     65  C   UNL A   1      43.083  28.802  33.099  1.00  0.00     0.031 C 
ATOM     66  C   UNL A   1      43.245  30.036  35.244  1.00  0.00     0.037 A 
BRANCH  53  67
ATOM     67  C   UNL A   1      39.999  33.684  39.001  1.00  0.00     0.064 A 
ATOM     68  C   UNL A   1      40.518  34.978  39.140  1.00  0.00     0.173 A 
ATOM     69  C   UNL A   1      39.329  33.127  40.104  1.00  0.00     0.173 A 
ATOM     70  F   UNL A   1      41.164  35.558  38.118  1.00  0.00    -0.203 F 
ATOM     71  C   UNL A   1      40.377  35.682  40.335  1.00  0.00     0.198 A 
ATOM     72  C   UNL A   1      39.166  33.843  41.288  1.00  0.00     0.198 A 
ATOM     73  F   UNL A   1      38.794  31.898  40.020  1.00  0.00    -0.203 F 
ATOM     74  F   UNL A   1      40.898  36.912  40.452  1.00  0.00    -0.200 F 
ATOM     75  C   UNL A   1      39.693  35.119  41.403  1.00  0.00     0.200 A 
ATOM     76  F   UNL A   1      38.485  33.305  42.309  1.00  0.00    -0.200 F 
ATOM     77  F   UNL A   1      39.538  35.809  42.542  1.00  0.00    -0.200 F 
ENDBRANCH  53  67
BRANCH  54  78
ATOM     78  C   UNL A   1      39.799  28.684  30.469  1.00  0.00     0.064 A 
ATOM     79  C   UNL A   1      40.338  29.292  29.329  1.00  0.00     0.173 A 
ATOM     80  C   UNL A   1      39.290  27.381  30.341  1.00  0.00     0.173 A 
ATOM     81  F   UNL A   1      40.799  30.550  29.395  1.00  0.00    -0.203 F 
ATOM     82  C   UNL A   1      40.381  28.617  28.112  1.00  0.00     0.198 A 
ATOM     83  C   UNL A   1      39.368  26.695  29.133  1.00  0.00     0.198 A 
ATOM     84  F   UNL A   1      38.756  26.760  31.403  1.00  0.00    -0.203 F 
ATOM     85  F   UNL A   1      40.876  29.229  27.027  1.00  0.00    -0.200 F 
ATOM     86  C   UNL A   1      39.912  27.314  28.019  1.00  0.00     0.200 A 
ATOM     87  F   UNL A   1      38.930  25.431  29.053  1.00  0.00    -0.200 F 
ATOM     88  F   UNL A   1      39.981  26.657  26.853  1.00  0.00    -0.200 F 
ENDBRANCH  54  78
BRANCH  66  89
ATOM     89  C   UNL A   1      44.648  29.520  35.389  1.00  0.00     0.064 A 
ATOM     90  C   UNL A   1      44.920  28.301  36.028  1.00  0.00     0.173 A 
ATOM     91  C   UNL A   1      45.733  30.252  34.885  1.00  0.00     0.173 A 
ATOM     92  F   UNL A   1      43.920  27.572  36.544  1.00  0.00    -0.203 F 
ATOM     93  C   UNL A   1      46.229  27.851  36.184  1.00  0.00     0.198 A 
ATOM     94  C   UNL A   1      47.038  29.788  35.022  1.00  0.00     0.198 A 
ATOM     95  F   UNL A   1      45.528  31.423  34.263  1.00  0.00    -0.203 F 
ATOM     96  F   UNL A   1      46.469  26.710  36.846  1.00  0.00    -0.200 F 
ATOM     97  C   UNL A   1      47.286  28.592  35.678  1.00  0.00     0.200 A 
ATOM     98  F   UNL A   1      48.058  30.503  34.526  1.00  0.00    -0.200 F 
ATOM     99  F   UNL A   1      48.546  28.161  35.836  1.00  0.00    -0.200 F 
ENDBRANCH  66  89
ENDBRANCH  40  41
ENDBRANCH  33  35
ENDBRANCH  32  33
ENDBRANCH  31  32
ENDBRANCH  30  31
ENDBRANCH  29  30
ENDBRANCH  28  29
ENDBRANCH   1  28
TORSDOF 22
ENDMDL
MODEL 3
REMARK VINA RESULT:     -10.5      3.101      8.637
REMARK SMILES COc1ccc(O[C@H]2CC[C@@]([NH2+]C(C)C)(C(=O)OCCOCCOCCOC(=O)c3ccc(-c4c5nc(c(-c6c(F)c(F)c(F)c(F)c6F)c6ccc([nH]6)c(-c6c(F)c(F)c(F)c(F)c6F)c6nc(c(-c7c(F)c(F)c(F)c(F)c7F)c7ccc4[nH]7)C=C6)C=C5)cc3)C2)cc1
REMARK SMILES IDX 22 1 21 2 20 3 19 4 18 5 16 6 17 7 11 8 8 9 9 10 93 11 10 12
REMARK SMILES IDX 7 13 6 14 3 15 4 16 95 17 5 18 94 19 2 20 1 21 12 22 13 25
REMARK SMILES IDX 14 26 15 27 23 28 24 29 25 30 26 31 27 32 28 33 29 34 30 35
REMARK SMILES IDX 31 36 92 37 32 38 91 39 33 40 34 41 35 42 85 43 36 44 90 45
REMARK SMILES IDX 84 46 86 47 37 48 89 49 83 50 82 51 38 53 70 54 50 55 69 56
REMARK SMILES IDX 51 57 54 58 68 59 87 60 52 61 53 62 67 64 88 65 55 66 39 67
REMARK SMILES IDX 40 68 48 69 41 70 42 71 46 72 49 73 43 74 44 75 47 76 45 77
REMARK SMILES IDX 71 78 72 79 80 80 73 81 74 82 78 83 81 84 75 85 76 86 79 87
REMARK SMILES IDX 77 88 56 89 57 90 65 91 58 92 59 93 63 94 66 95 60 96 61 97
REMARK SMILES IDX 64 98 62 99
REMARK H PARENT 12 23 12 24 86 52 54 63
REMARK Flexibility Score: inf
ROOT
ATOM      1  C   UNL A   1      31.081  27.716  23.112  1.00  0.00     0.188 C 
ENDROOT
BRANCH   1   2
ATOM      2  O   UNL A   1      31.107  27.353  21.735  1.00  0.00    -0.376 OA
BRANCH   2   3
ATOM      3  C   UNL A   1      31.434  25.975  21.524  1.00  0.00     0.202 C 
BRANCH   3   4
ATOM      4  C   UNL A   1      32.866  25.618  21.069  1.00  0.00     0.261 C 
BRANCH   4   5
ATOM      5  O   UNL A   1      33.713  25.047  22.082  1.00  0.00    -0.459 OA
BRANCH   5   6
ATOM      6  C   UNL A   1      33.236  23.890  22.642  1.00  0.00     0.368 C 
ATOM      7  O   UNL A   1      32.983  22.883  22.004  1.00  0.00    -0.245 OA
BRANCH   6   8
ATOM      8  C   UNL A   1      32.942  24.057  24.171  1.00  0.00     0.198 C 
ATOM      9  C   UNL A   1      34.773  23.661  25.856  1.00  0.00     0.180 C 
ATOM     10  C   UNL A   1      34.184  25.045  26.075  1.00  0.00     0.052 C 
ATOM     11  C   UNL A   1      33.699  22.963  24.991  1.00  0.00     0.126 C 
ATOM     12  C   UNL A   1      33.478  25.386  24.765  1.00  0.00     0.085 C 
BRANCH   9  13
ATOM     13  O   UNL A   1      35.983  23.726  25.105  1.00  0.00    -0.490 OA
BRANCH  13  14
ATOM     14  C   UNL A   1      37.169  23.268  25.600  1.00  0.00     0.119 A 
ATOM     15  C   UNL A   1      39.544  21.898  26.341  1.00  0.00     0.119 A 
ATOM     16  C   UNL A   1      39.339  23.246  26.673  1.00  0.00     0.050 A 
ATOM     17  C   UNL A   1      38.540  21.231  25.664  1.00  0.00     0.050 A 
ATOM     18  C   UNL A   1      38.159  23.935  26.303  1.00  0.00     0.050 A 
ATOM     19  C   UNL A   1      37.389  21.926  25.307  1.00  0.00     0.050 A 
BRANCH  15  20
ATOM     20  O   UNL A   1      40.733  21.335  26.719  1.00  0.00    -0.497 OA
ATOM     21  C   UNL A   1      40.951  19.984  26.302  1.00  0.00     0.278 C 
ENDBRANCH  15  20
ENDBRANCH  13  14
ENDBRANCH   9  13
BRANCH   8  22
ATOM     22  N   UNL A   1      31.473  24.063  24.424  1.00  0.00    -0.330 N 
ATOM     23  H   UNL A   1      31.133  23.117  24.255  1.00  0.00     0.347 HD
ATOM     24  H   UNL A   1      31.113  24.785  23.799  1.00  0.00     0.347 HD
BRANCH  22  25
ATOM     25  C   UNL A   1      31.000  24.464  25.753  1.00  0.00     0.176 C 
ATOM     26  C   UNL A   1      29.902  25.521  25.688  1.00  0.00     0.075 C 
ATOM     27  C   UNL A   1      30.491  23.205  26.461  1.00  0.00     0.075 C 
ENDBRANCH  22  25
ENDBRANCH   8  22
ENDBRANCH   6   8
ENDBRANCH   5   6
ENDBRANCH   4   5
ENDBRANCH   3   4
ENDBRANCH   2   3
ENDBRANCH   1   2
BRANCH   1  28
ATOM     28  C   UNL A   1      31.849  28.957  23.534  1.00  0.00     0.188 C 
BRANCH  28  29
ATOM     29  O   UNL A   1      31.300  29.610  24.668  1.00  0.00    -0.376 OA
BRANCH  29  30
ATOM     30  C   UNL A   1      31.420  28.876  25.888  1.00  0.00     0.202 C 
BRANCH  30  31
ATOM     31  C   UNL A   1      32.401  29.472  26.908  1.00  0.00     0.261 C 
BRANCH  31  32
ATOM     32  O   UNL A   1      33.215  30.541  26.360  1.00  0.00    -0.460 OA
BRANCH  32  33
ATOM     33  C   UNL A   1      33.756  31.344  27.313  1.00  0.00     0.338 C 
ATOM     34  O   UNL A   1      33.137  32.221  27.906  1.00  0.00    -0.246 OA
BRANCH  33  35
ATOM     35  C   UNL A   1      35.145  30.962  27.719  1.00  0.00     0.060 A 
ATOM     36  C   UNL A   1      35.565  29.654  27.966  1.00  0.00     0.016 A 
ATOM     37  C   UNL A   1      36.028  32.005  28.032  1.00  0.00     0.016 A 
ATOM     38  C   UNL A   1      36.760  29.420  28.688  1.00  0.00     0.010 A 
ATOM     39  C   UNL A   1      37.263  31.756  28.649  1.00  0.00     0.010 A 
ATOM     40  C   UNL A   1      37.635  30.463  29.047  1.00  0.00    -0.014 A 
BRANCH  40  41
ATOM     41  C   UNL A   1      38.923  30.276  29.808  1.00  0.00     0.031 A 
ATOM     42  C   UNL A   1      40.021  29.370  29.275  1.00  0.00     0.074 A 
ATOM     43  C   UNL A   1      39.132  30.835  31.019  1.00  0.00     0.049 A 
ATOM     44  N   UNL A   1      40.979  28.742  29.921  1.00  0.00    -0.248 NA
ATOM     45  C   UNL A   1      40.043  29.146  27.822  1.00  0.00     0.031 C 
ATOM     46  C   UNL A   1      38.270  31.816  31.673  1.00  0.00     0.029 A 
ATOM     47  N   UNL A   1      40.138  30.617  31.940  1.00  0.00    -0.354 N 
ATOM     48  C   UNL A   1      41.674  28.005  28.965  1.00  0.00     0.074 A 
ATOM     49  C   UNL A   1      41.039  28.276  27.692  1.00  0.00     0.031 C 
ATOM     50  C   UNL A   1      38.774  32.115  32.877  1.00  0.00     0.029 A 
ATOM     51  C   UNL A   1      39.917  31.248  33.141  1.00  0.00     0.049 A 
ATOM     52  H   UNL A   1      40.934  30.067  31.755  1.00  0.00     0.167 HD
ATOM     53  C   UNL A   1      42.735  27.174  29.136  1.00  0.00     0.037 A 
ATOM     54  C   UNL A   1      40.481  31.090  34.355  1.00  0.00     0.037 A 
ATOM     55  C   UNL A   1      43.414  26.944  30.391  1.00  0.00     0.049 A 
ATOM     56  C   UNL A   1      41.564  30.073  34.567  1.00  0.00     0.074 A 
ATOM     57  C   UNL A   1      44.496  26.116  30.651  1.00  0.00     0.029 A 
ATOM     58  N   UNL A   1      43.092  27.557  31.590  1.00  0.00    -0.354 N 
ATOM     59  N   UNL A   1      42.125  29.270  33.698  1.00  0.00    -0.248 NA
ATOM     60  C   UNL A   1      42.072  29.922  35.939  1.00  0.00     0.031 C 
ATOM     61  C   UNL A   1      44.799  26.195  32.015  1.00  0.00     0.029 A 
ATOM     62  C   UNL A   1      43.940  27.111  32.595  1.00  0.00     0.049 A 
ATOM     63  H   UNL A   1      42.368  28.213  31.712  1.00  0.00     0.167 HD
ATOM     64  C   UNL A   1      43.055  28.527  34.412  1.00  0.00     0.074 A 
ATOM     65  C   UNL A   1      42.996  28.985  35.784  1.00  0.00     0.031 C 
ATOM     66  C   UNL A   1      43.881  27.552  33.964  1.00  0.00     0.037 A 
BRANCH  53  67
ATOM     67  C   UNL A   1      43.231  26.395  27.947  1.00  0.00     0.064 A 
ATOM     68  C   UNL A   1      42.745  25.119  27.633  1.00  0.00     0.173 A 
ATOM     69  C   UNL A   1      44.126  26.995  27.044  1.00  0.00     0.173 A 
ATOM     70  F   UNL A   1      41.887  24.503  28.458  1.00  0.00    -0.203 F 
ATOM     71  C   UNL A   1      43.144  24.468  26.466  1.00  0.00     0.198 A 
ATOM     72  C   UNL A   1      44.501  26.353  25.866  1.00  0.00     0.198 A 
ATOM     73  F   UNL A   1      44.607  28.225  27.284  1.00  0.00    -0.203 F 
ATOM     74  F   UNL A   1      42.681  23.240  26.195  1.00  0.00    -0.200 F 
ATOM     75  C   UNL A   1      44.012  25.089  25.580  1.00  0.00     0.200 A 
ATOM     76  F   UNL A   1      45.322  26.965  25.001  1.00  0.00    -0.200 F 
ATOM     77  F   UNL A   1      44.374  24.470  24.447  1.00  0.00    -0.200 F 
ENDBRANCH  53  67
BRANCH  54  78
ATOM     78  C   UNL A   1      39.935  31.860  35.504  1.00  0.00     0.064 A 
ATOM     79  C   UNL A   1      40.468  33.104  35.861  1.00  0.00     0.173 A 
ATOM     80  C   UNL A   1      38.838  31.380  36.239  1.00  0.00     0.173 A 
ATOM     81  F   UNL A   1      41.540  33.584  35.214  1.00  0.00    -0.203 F 
ATOM     82  C   UNL A   1      39.915  33.847  36.901  1.00  0.00     0.198 A 
ATOM     83  C   UNL A   1      38.265  32.140  37.253  1.00  0.00     0.198 A 
ATOM     84  F   UNL A   1      38.298  30.189  35.940  1.00  0.00    -0.203 F 
ATOM     85  F   UNL A   1      40.459  35.022  37.244  1.00  0.00    -0.200 F 
ATOM     86  C   UNL A   1      38.805  33.372  37.585  1.00  0.00     0.200 A 
ATOM     87  F   UNL A   1      37.181  31.685  37.897  1.00  0.00    -0.200 F 
ATOM     88  F   UNL A   1      38.257  34.102  38.567  1.00  0.00    -0.200 F 
ENDBRANCH  54  78
BRANCH  66  89
ATOM     89  C   UNL A   1      44.816  26.931  34.961  1.00  0.00     0.064 A 
ATOM     90  C   UNL A   1      44.485  25.751  35.643  1.00  0.00     0.173 A 
ATOM     91  C   UNL A   1      46.057  27.523  35.240  1.00  0.00     0.173 A 
ATOM     92  F   UNL A   1      43.303  25.155  35.427  1.00  0.00    -0.203 F 
ATOM     93  C   UNL A   1      45.349  25.205  36.590  1.00  0.00     0.198 A 
ATOM     94  C   UNL A   1      46.928  26.962  36.169  1.00  0.00     0.198 A 
ATOM     95  F   UNL A   1      46.424  28.652  34.613  1.00  0.00    -0.203 F 
ATOM     96  F   UNL A   1      44.988  24.106  37.269  1.00  0.00    -0.200 F 
ATOM     97  C   UNL A   1      46.571  25.808  36.850  1.00  0.00     0.200 A 
ATOM     98  F   UNL A   1      48.111  27.543  36.414  1.00  0.00    -0.200 F 
ATOM     99  F   UNL A   1      47.397  25.285  37.767  1.00  0.00    -0.200 F 
ENDBRANCH  66  89
ENDBRANCH  40  41
ENDBRANCH  33  35
ENDBRANCH  32  33
ENDBRANCH  31  32
ENDBRANCH  30  31
ENDBRANCH  29  30
ENDBRANCH  28  29
ENDBRANCH   1  28
TORSDOF 22
ENDMDL
