MODEL 1
REMARK VINA RESULT:     -10.8      0.000      0.000
REMARK SMILES COc1cc2c[nH]nc2cc1C(=O)OCCOCCOCCOC(=O)c1ccc(-c2c3nc(c(-c4c(F)c(F)c(F)c(F)c4F)c4ccc([nH]4)c(-c4c(F)c(F)c(F)c(F)c4F)c4nc(c(-c5c(F)c(F)c(F)c(F)c5F)c5ccc2[nH]5)C=C4)C=C3)cc1
REMARK SMILES IDX 19 1 18 2 17 3 16 4 15 5 14 6 12 7 13 8 11 9 3 10 4 11 5 12
REMARK SMILES IDX 10 13 6 14 9 15 7 16 8 17 2 19 1 20 20 21 21 22 22 23 23 24
REMARK SMILES IDX 24 25 25 26 26 27 27 28 88 29 28 30 87 31 29 32 30 33 31 34
REMARK SMILES IDX 81 35 32 36 86 37 80 38 82 39 33 40 85 41 79 42 78 43 34 45
REMARK SMILES IDX 66 46 46 47 65 48 47 49 50 50 64 51 83 52 48 53 49 54 63 56
REMARK SMILES IDX 84 57 51 58 35 59 36 60 44 61 37 62 38 63 42 64 45 65 39 66
REMARK SMILES IDX 40 67 43 68 41 69 67 70 68 71 76 72 69 73 70 74 74 75 77 76
REMARK SMILES IDX 71 77 72 78 75 79 73 80 52 81 53 82 61 83 54 84 55 85 59 86
REMARK SMILES IDX 62 87 56 88 57 89 60 90 58 91
REMARK H PARENT 7 18 82 44 50 55
REMARK Flexibility Score: inf
ROOT
ATOM      1  C   UNL A   1      40.837  21.684  27.513  1.00  0.00     0.188 C 
ENDROOT
BRANCH   1   2
ATOM      2  C   UNL A   1      39.766  21.462  26.424  1.00  0.00     0.188 C 
BRANCH   2   3
ATOM      3  O   UNL A   1      38.785  22.468  26.185  1.00  0.00    -0.376 OA
BRANCH   3   4
ATOM      4  C   UNL A   1      37.557  22.099  25.564  1.00  0.00     0.202 C 
BRANCH   4   5
ATOM      5  C   UNL A   1      36.831  23.178  24.756  1.00  0.00     0.261 C 
BRANCH   5   6
ATOM      6  O   UNL A   1      36.193  24.156  25.594  1.00  0.00    -0.460 OA
BRANCH   6   7
ATOM      7  C   UNL A   1      34.841  24.156  25.577  1.00  0.00     0.342 C 
ATOM      8  O   UNL A   1      34.105  23.415  26.212  1.00  0.00    -0.246 OA
BRANCH   7   9
ATOM      9  C   UNL A   1      34.317  25.301  24.799  1.00  0.00     0.104 A 
ATOM     10  C   UNL A   1      33.920  25.199  23.419  1.00  0.00     0.134 A 
ATOM     11  C   UNL A   1      33.420  26.291  22.666  1.00  0.00     0.059 A 
ATOM     12  C   UNL A   1      33.367  27.451  23.429  1.00  0.00     0.023 A 
ATOM     13  C   UNL A   1      34.252  26.515  25.536  1.00  0.00     0.050 A 
ATOM     14  C   UNL A   1      32.920  28.670  23.004  1.00  0.00     0.114 A 
ATOM     15  C   UNL A   1      33.765  27.606  24.802  1.00  0.00     0.093 A 
ATOM     16  N   UNL A   1      33.076  29.491  24.085  1.00  0.00    -0.285 N 
ATOM     17  N   UNL A   1      33.595  28.886  25.171  1.00  0.00    -0.176 NA
ATOM     18  H   UNL A   1      32.832  30.446  24.071  1.00  0.00     0.189 HD
BRANCH  10  19
ATOM     19  O   UNL A   1      34.098  24.052  22.677  1.00  0.00    -0.496 OA
ATOM     20  C   UNL A   1      33.190  23.953  21.583  1.00  0.00     0.278 C 
ENDBRANCH  10  19
ENDBRANCH   7   9
ENDBRANCH   6   7
ENDBRANCH   5   6
ENDBRANCH   4   5
ENDBRANCH   3   4
ENDBRANCH   2   3
ENDBRANCH   1   2
BRANCH   1  21
ATOM     21  O   UNL A   1      42.015  20.917  27.329  1.00  0.00    -0.376 OA
BRANCH  21  22
ATOM     22  C   UNL A   1      42.441  20.741  25.987  1.00  0.00     0.202 C 
BRANCH  22  23
ATOM     23  C   UNL A   1      43.461  21.776  25.496  1.00  0.00     0.261 C 
BRANCH  23  24
ATOM     24  O   UNL A   1      42.900  23.005  25.004  1.00  0.00    -0.460 OA
BRANCH  24  25
ATOM     25  C   UNL A   1      43.679  24.107  25.059  1.00  0.00     0.338 C 
ATOM     26  O   UNL A   1      44.640  24.368  24.359  1.00  0.00    -0.246 OA
BRANCH  25  27
ATOM     27  C   UNL A   1      43.056  25.047  26.016  1.00  0.00     0.060 A 
ATOM     28  C   UNL A   1      43.583  26.340  26.139  1.00  0.00     0.016 A 
ATOM     29  C   UNL A   1      41.948  24.660  26.774  1.00  0.00     0.016 A 
ATOM     30  C   UNL A   1      43.015  27.241  27.044  1.00  0.00     0.010 A 
ATOM     31  C   UNL A   1      41.393  25.556  27.693  1.00  0.00     0.010 A 
ATOM     32  C   UNL A   1      41.940  26.841  27.852  1.00  0.00    -0.014 A 
BRANCH  32  33
ATOM     33  C   UNL A   1      41.503  27.691  28.987  1.00  0.00     0.031 A 
ATOM     34  C   UNL A   1      42.249  27.584  30.289  1.00  0.00     0.074 A 
ATOM     35  C   UNL A   1      40.464  28.538  28.875  1.00  0.00     0.049 A 
ATOM     36  N   UNL A   1      42.028  28.188  31.430  1.00  0.00    -0.248 NA
ATOM     37  C   UNL A   1      43.401  26.669  30.306  1.00  0.00     0.031 C 
ATOM     38  C   UNL A   1      39.677  28.755  27.665  1.00  0.00     0.029 A 
ATOM     39  N   UNL A   1      39.888  29.365  29.808  1.00  0.00    -0.354 N 
ATOM     40  C   UNL A   1      43.011  27.727  32.295  1.00  0.00     0.074 A 
ATOM     41  C   UNL A   1      43.811  26.772  31.560  1.00  0.00     0.031 C 
ATOM     42  C   UNL A   1      38.708  29.649  27.932  1.00  0.00     0.029 A 
ATOM     43  C   UNL A   1      38.792  30.046  29.338  1.00  0.00     0.049 A 
ATOM     44  H   UNL A   1      40.229  29.462  30.726  1.00  0.00     0.167 HD
ATOM     45  C   UNL A   1      43.233  28.075  33.584  1.00  0.00     0.037 A 
ATOM     46  C   UNL A   1      37.945  30.877  29.977  1.00  0.00     0.037 A 
ATOM     47  C   UNL A   1      42.434  29.015  34.323  1.00  0.00     0.049 A 
ATOM     48  C   UNL A   1      38.170  31.193  31.434  1.00  0.00     0.074 A 
ATOM     49  C   UNL A   1      42.590  29.443  35.629  1.00  0.00     0.029 A 
ATOM     50  N   UNL A   1      41.316  29.664  33.818  1.00  0.00    -0.354 N 
ATOM     51  N   UNL A   1      39.124  30.783  32.235  1.00  0.00    -0.248 NA
ATOM     52  C   UNL A   1      37.199  32.092  32.077  1.00  0.00     0.031 C 
ATOM     53  C   UNL A   1      41.540  30.318  35.930  1.00  0.00     0.029 A 
ATOM     54  C   UNL A   1      40.759  30.472  34.796  1.00  0.00     0.049 A 
ATOM     55  H   UNL A   1      40.972  29.566  32.902  1.00  0.00     0.167 HD
ATOM     56  C   UNL A   1      38.887  31.394  33.460  1.00  0.00     0.074 A 
ATOM     57  C   UNL A   1      37.704  32.212  33.297  1.00  0.00     0.031 C 
ATOM     58  C   UNL A   1      39.588  31.290  34.616  1.00  0.00     0.037 A 
BRANCH  45  59
ATOM     59  C   UNL A   1      44.381  27.413  34.286  1.00  0.00     0.064 A 
ATOM     60  C   UNL A   1      45.658  27.994  34.315  1.00  0.00     0.173 A 
ATOM     61  C   UNL A   1      44.198  26.194  34.956  1.00  0.00     0.173 A 
ATOM     62  F   UNL A   1      45.888  29.151  33.675  1.00  0.00    -0.203 F 
ATOM     63  C   UNL A   1      46.715  27.368  34.970  1.00  0.00     0.198 A 
ATOM     64  C   UNL A   1      45.250  25.583  35.631  1.00  0.00     0.198 A 
ATOM     65  F   UNL A   1      42.996  25.598  34.958  1.00  0.00    -0.203 F 
ATOM     66  F   UNL A   1      47.936  27.918  34.948  1.00  0.00    -0.200 F 
ATOM     67  C   UNL A   1      46.509  26.167  35.633  1.00  0.00     0.200 A 
ATOM     68  F   UNL A   1      45.048  24.428  36.279  1.00  0.00    -0.200 F 
ATOM     69  F   UNL A   1      47.526  25.566  36.266  1.00  0.00    -0.200 F 
ENDBRANCH  45  59
BRANCH  46  70
ATOM     70  C   UNL A   1      36.792  31.469  29.248  1.00  0.00     0.064 A 
ATOM     71  C   UNL A   1      36.768  32.831  28.918  1.00  0.00     0.173 A 
ATOM     72  C   UNL A   1      35.677  30.692  28.901  1.00  0.00     0.173 A 
ATOM     73  F   UNL A   1      37.794  33.621  29.261  1.00  0.00    -0.203 F 
ATOM     74  C   UNL A   1      35.664  33.396  28.282  1.00  0.00     0.198 A 
ATOM     75  C   UNL A   1      34.586  31.253  28.241  1.00  0.00     0.198 A 
ATOM     76  F   UNL A   1      35.646  29.387  29.205  1.00  0.00    -0.203 F 
ATOM     77  F   UNL A   1      35.644  34.711  28.022  1.00  0.00    -0.200 F 
ATOM     78  C   UNL A   1      34.576  32.607  27.938  1.00  0.00     0.200 A 
ATOM     79  F   UNL A   1      33.538  30.487  27.910  1.00  0.00    -0.200 F 
ATOM     80  F   UNL A   1      33.514  33.153  27.331  1.00  0.00    -0.200 F 
ENDBRANCH  46  70
BRANCH  58  81
ATOM     81  C   UNL A   1      39.122  32.107  35.786  1.00  0.00     0.064 A 
ATOM     82  C   UNL A   1      38.294  31.566  36.780  1.00  0.00     0.173 A 
ATOM     83  C   UNL A   1      39.551  33.434  35.940  1.00  0.00     0.173 A 
ATOM     84  F   UNL A   1      37.845  30.305  36.674  1.00  0.00    -0.203 F 
ATOM     85  C   UNL A   1      37.894  32.331  37.874  1.00  0.00     0.198 A 
ATOM     86  C   UNL A   1      39.173  34.187  37.048  1.00  0.00     0.198 A 
ATOM     87  F   UNL A   1      40.351  33.997  35.021  1.00  0.00    -0.203 F 
ATOM     88  F   UNL A   1      37.068  31.807  38.790  1.00  0.00    -0.200 F 
ATOM     89  C   UNL A   1      38.340  33.637  38.011  1.00  0.00     0.200 A 
ATOM     90  F   UNL A   1      39.615  35.445  37.185  1.00  0.00    -0.200 F 
ATOM     91  F   UNL A   1      37.960  34.369  39.067  1.00  0.00    -0.200 F 
ENDBRANCH  58  81
ENDBRANCH  32  33
ENDBRANCH  25  27
ENDBRANCH  24  25
ENDBRANCH  23  24
ENDBRANCH  22  23
ENDBRANCH  21  22
ENDBRANCH   1  21
TORSDOF 18
ENDMDL
MODEL 2
REMARK VINA RESULT:     -10.4      5.045     11.101
REMARK SMILES COc1cc2c[nH]nc2cc1C(=O)OCCOCCOCCOC(=O)c1ccc(-c2c3nc(c(-c4c(F)c(F)c(F)c(F)c4F)c4ccc([nH]4)c(-c4c(F)c(F)c(F)c(F)c4F)c4nc(c(-c5c(F)c(F)c(F)c(F)c5F)c5ccc2[nH]5)C=C4)C=C3)cc1
REMARK SMILES IDX 19 1 18 2 17 3 16 4 15 5 14 6 12 7 13 8 11 9 3 10 4 11 5 12
REMARK SMILES IDX 10 13 6 14 9 15 7 16 8 17 2 19 1 20 20 21 21 22 22 23 23 24
REMARK SMILES IDX 24 25 25 26 26 27 27 28 88 29 28 30 87 31 29 32 30 33 31 34
REMARK SMILES IDX 81 35 32 36 86 37 80 38 82 39 33 40 85 41 79 42 78 43 34 45
REMARK SMILES IDX 66 46 46 47 65 48 47 49 50 50 64 51 83 52 48 53 49 54 63 56
REMARK SMILES IDX 84 57 51 58 35 59 36 60 44 61 37 62 38 63 42 64 45 65 39 66
REMARK SMILES IDX 40 67 43 68 41 69 67 70 68 71 76 72 69 73 70 74 74 75 77 76
REMARK SMILES IDX 71 77 72 78 75 79 73 80 52 81 53 82 61 83 54 84 55 85 59 86
REMARK SMILES IDX 62 87 56 88 57 89 60 90 58 91
REMARK H PARENT 7 18 82 44 50 55
REMARK Flexibility Score: inf
ROOT
ATOM      1  C   UNL A   1      33.604  36.172  28.714  1.00  0.00     0.188 C 
ENDROOT
BRANCH   1   2
ATOM      2  C   UNL A   1      32.858  35.798  30.013  1.00  0.00     0.188 C 
BRANCH   2   3
ATOM      3  O   UNL A   1      32.476  36.824  30.926  1.00  0.00    -0.376 OA
BRANCH   3   4
ATOM      4  C   UNL A   1      33.480  37.449  31.720  1.00  0.00     0.202 C 
BRANCH   4   5
ATOM      5  C   UNL A   1      33.715  36.880  33.122  1.00  0.00     0.261 C 
BRANCH   5   6
ATOM      6  O   UNL A   1      34.858  36.010  33.177  1.00  0.00    -0.460 OA
BRANCH   6   7
ATOM      7  C   UNL A   1      34.592  34.685  33.169  1.00  0.00     0.342 C 
ATOM      8  O   UNL A   1      33.523  34.159  32.897  1.00  0.00    -0.246 OA
BRANCH   7   9
ATOM      9  C   UNL A   1      35.825  33.892  33.377  1.00  0.00     0.104 A 
ATOM     10  C   UNL A   1      36.741  33.566  32.315  1.00  0.00     0.134 A 
ATOM     11  C   UNL A   1      37.921  32.805  32.505  1.00  0.00     0.059 A 
ATOM     12  C   UNL A   1      38.069  32.424  33.833  1.00  0.00     0.023 A 
ATOM     13  C   UNL A   1      36.017  33.471  34.721  1.00  0.00     0.050 A 
ATOM     14  C   UNL A   1      39.106  31.697  34.347  1.00  0.00     0.114 A 
ATOM     15  C   UNL A   1      37.178  32.711  34.924  1.00  0.00     0.093 A 
ATOM     16  N   UNL A   1      38.807  31.558  35.673  1.00  0.00    -0.285 N 
ATOM     17  N   UNL A   1      37.650  32.142  36.044  1.00  0.00    -0.176 NA
ATOM     18  H   UNL A   1      39.387  31.072  36.304  1.00  0.00     0.189 HD
BRANCH  10  19
ATOM     19  O   UNL A   1      36.488  33.873  30.996  1.00  0.00    -0.496 OA
ATOM     20  C   UNL A   1      37.421  33.275  30.099  1.00  0.00     0.278 C 
ENDBRANCH  10  19
ENDBRANCH   7   9
ENDBRANCH   6   7
ENDBRANCH   5   6
ENDBRANCH   4   5
ENDBRANCH   3   4
ENDBRANCH   2   3
ENDBRANCH   1   2
BRANCH   1  21
ATOM     21  O   UNL A   1      34.328  35.100  28.136  1.00  0.00    -0.376 OA
BRANCH  21  22
ATOM     22  C   UNL A   1      33.727  33.818  28.232  1.00  0.00     0.202 C 
BRANCH  22  23
ATOM     23  C   UNL A   1      34.681  32.642  27.985  1.00  0.00     0.261 C 
BRANCH  23  24
ATOM     24  O   UNL A   1      34.318  31.412  28.634  1.00  0.00    -0.460 OA
BRANCH  24  25
ATOM     25  C   UNL A   1      34.713  30.261  28.047  1.00  0.00     0.338 C 
ATOM     26  O   UNL A   1      34.102  29.604  27.223  1.00  0.00    -0.246 OA
BRANCH  25  27
ATOM     27  C   UNL A   1      36.115  30.013  28.448  1.00  0.00     0.060 A 
ATOM     28  C   UNL A   1      37.138  30.236  27.517  1.00  0.00     0.016 A 
ATOM     29  C   UNL A   1      36.418  29.580  29.742  1.00  0.00     0.016 A 
ATOM     30  C   UNL A   1      38.469  29.999  27.873  1.00  0.00     0.010 A 
ATOM     31  C   UNL A   1      37.748  29.324  30.090  1.00  0.00     0.010 A 
ATOM     32  C   UNL A   1      38.777  29.507  29.150  1.00  0.00    -0.014 A 
BRANCH  32  33
ATOM     33  C   UNL A   1      40.143  29.009  29.448  1.00  0.00     0.031 A 
ATOM     34  C   UNL A   1      41.056  29.877  30.270  1.00  0.00     0.074 A 
ATOM     35  C   UNL A   1      40.573  27.817  28.999  1.00  0.00     0.049 A 
ATOM     36  N   UNL A   1      42.302  29.680  30.623  1.00  0.00    -0.248 NA
ATOM     37  C   UNL A   1      40.485  31.142  30.760  1.00  0.00     0.031 C 
ATOM     38  C   UNL A   1      39.781  26.871  28.218  1.00  0.00     0.029 A 
ATOM     39  N   UNL A   1      41.797  27.207  29.130  1.00  0.00    -0.354 N 
ATOM     40  C   UNL A   1      42.659  30.792  31.373  1.00  0.00     0.074 A 
ATOM     41  C   UNL A   1      41.513  31.673  31.401  1.00  0.00     0.031 C 
ATOM     42  C   UNL A   1      40.544  25.803  27.925  1.00  0.00     0.029 A 
ATOM     43  C   UNL A   1      41.884  26.003  28.477  1.00  0.00     0.049 A 
ATOM     44  H   UNL A   1      42.540  27.596  29.645  1.00  0.00     0.167 HD
ATOM     45  C   UNL A   1      43.835  31.050  31.992  1.00  0.00     0.037 A 
ATOM     46  C   UNL A   1      42.934  25.169  28.327  1.00  0.00     0.037 A 
ATOM     47  C   UNL A   1      44.981  30.182  31.958  1.00  0.00     0.049 A 
ATOM     48  C   UNL A   1      44.256  25.515  28.965  1.00  0.00     0.074 A 
ATOM     49  C   UNL A   1      46.212  30.352  32.566  1.00  0.00     0.029 A 
ATOM     50  N   UNL A   1      45.039  28.983  31.263  1.00  0.00    -0.354 N 
ATOM     51  N   UNL A   1      44.576  26.550  29.705  1.00  0.00    -0.248 NA
ATOM     52  C   UNL A   1      45.365  24.573  28.747  1.00  0.00     0.031 C 
ATOM     53  C   UNL A   1      47.031  29.277  32.203  1.00  0.00     0.029 A 
ATOM     54  C   UNL A   1      46.293  28.413  31.410  1.00  0.00     0.049 A 
ATOM     55  H   UNL A   1      44.298  28.594  30.745  1.00  0.00     0.167 HD
ATOM     56  C   UNL A   1      45.905  26.368  30.064  1.00  0.00     0.074 A 
ATOM     57  C   UNL A   1      46.333  25.119  29.470  1.00  0.00     0.031 C 
ATOM     58  C   UNL A   1      46.701  27.163  30.821  1.00  0.00     0.037 A 
BRANCH  45  59
ATOM     59  C   UNL A   1      43.945  32.343  32.744  1.00  0.00     0.064 A 
ATOM     60  C   UNL A   1      43.578  32.441  34.094  1.00  0.00     0.173 A 
ATOM     61  C   UNL A   1      44.445  33.492  32.114  1.00  0.00     0.173 A 
ATOM     62  F   UNL A   1      43.078  31.374  34.737  1.00  0.00    -0.203 F 
ATOM     63  C   UNL A   1      43.685  33.648  34.780  1.00  0.00     0.198 A 
ATOM     64  C   UNL A   1      44.576  34.691  32.808  1.00  0.00     0.198 A 
ATOM     65  F   UNL A   1      44.813  33.450  30.823  1.00  0.00    -0.203 F 
ATOM     66  F   UNL A   1      43.286  33.730  36.056  1.00  0.00    -0.200 F 
ATOM     67  C   UNL A   1      44.189  34.770  34.139  1.00  0.00     0.200 A 
ATOM     68  F   UNL A   1      45.072  35.771  32.191  1.00  0.00    -0.200 F 
ATOM     69  F   UNL A   1      44.296  35.930  34.800  1.00  0.00    -0.200 F 
ENDBRANCH  45  59
BRANCH  46  70
ATOM     70  C   UNL A   1      42.786  23.923  27.529  1.00  0.00     0.064 A 
ATOM     71  C   UNL A   1      42.389  22.722  28.132  1.00  0.00     0.173 A 
ATOM     72  C   UNL A   1      43.074  23.902  26.157  1.00  0.00     0.173 A 
ATOM     73  F   UNL A   1      42.137  22.684  29.448  1.00  0.00    -0.203 F 
ATOM     74  C   UNL A   1      42.301  21.542  27.395  1.00  0.00     0.198 A 
ATOM     75  C   UNL A   1      42.960  22.728  25.416  1.00  0.00     0.198 A 
ATOM     76  F   UNL A   1      43.469  25.022  25.536  1.00  0.00    -0.203 F 
ATOM     77  F   UNL A   1      41.968  20.397  28.005  1.00  0.00    -0.200 F 
ATOM     78  C   UNL A   1      42.581  21.547  26.036  1.00  0.00     0.200 A 
ATOM     79  F   UNL A   1      43.230  22.737  24.103  1.00  0.00    -0.200 F 
ATOM     80  F   UNL A   1      42.500  20.411  25.330  1.00  0.00    -0.200 F 
ENDBRANCH  46  70
BRANCH  58  81
ATOM     81  C   UNL A   1      48.102  26.693  31.086  1.00  0.00     0.064 A 
ATOM     82  C   UNL A   1      49.180  27.101  30.287  1.00  0.00     0.173 A 
ATOM     83  C   UNL A   1      48.376  25.864  32.184  1.00  0.00     0.173 A 
ATOM     84  F   UNL A   1      48.970  27.883  29.217  1.00  0.00    -0.203 F 
ATOM     85  C   UNL A   1      50.477  26.676  30.564  1.00  0.00     0.198 A 
ATOM     86  C   UNL A   1      49.677  25.465  32.475  1.00  0.00     0.198 A 
ATOM     87  F   UNL A   1      47.381  25.452  32.986  1.00  0.00    -0.203 F 
ATOM     88  F   UNL A   1      51.487  27.044  29.762  1.00  0.00    -0.200 F 
ATOM     89  C   UNL A   1      50.726  25.865  31.662  1.00  0.00     0.200 A 
ATOM     90  F   UNL A   1      49.917  24.692  33.544  1.00  0.00    -0.200 F 
ATOM     91  F   UNL A   1      51.976  25.464  31.932  1.00  0.00    -0.200 F 
ENDBRANCH  58  81
ENDBRANCH  32  33
ENDBRANCH  25  27
ENDBRANCH  24  25
ENDBRANCH  23  24
ENDBRANCH  22  23
ENDBRANCH  21  22
ENDBRANCH   1  21
TORSDOF 18
ENDMDL
MODEL 3
REMARK VINA RESULT:     -10.4      2.198      3.154
REMARK SMILES COc1cc2c[nH]nc2cc1C(=O)OCCOCCOCCOC(=O)c1ccc(-c2c3nc(c(-c4c(F)c(F)c(F)c(F)c4F)c4ccc([nH]4)c(-c4c(F)c(F)c(F)c(F)c4F)c4nc(c(-c5c(F)c(F)c(F)c(F)c5F)c5ccc2[nH]5)C=C4)C=C3)cc1
REMARK SMILES IDX 19 1 18 2 17 3 16 4 15 5 14 6 12 7 13 8 11 9 3 10 4 11 5 12
REMARK SMILES IDX 10 13 6 14 9 15 7 16 8 17 2 19 1 20 20 21 21 22 22 23 23 24
REMARK SMILES IDX 24 25 25 26 26 27 27 28 88 29 28 30 87 31 29 32 30 33 31 34
REMARK SMILES IDX 81 35 32 36 86 37 80 38 82 39 33 40 85 41 79 42 78 43 34 45
REMARK SMILES IDX 66 46 46 47 65 48 47 49 50 50 64 51 83 52 48 53 49 54 63 56
REMARK SMILES IDX 84 57 51 58 35 59 36 60 44 61 37 62 38 63 42 64 45 65 39 66
REMARK SMILES IDX 40 67 43 68 41 69 67 70 68 71 76 72 69 73 70 74 74 75 77 76
REMARK SMILES IDX 71 77 72 78 75 79 73 80 52 81 53 82 61 83 54 84 55 85 59 86
REMARK SMILES IDX 62 87 56 88 57 89 60 90 58 91
REMARK H PARENT 7 18 82 44 50 55
REMARK Flexibility Score: inf
ROOT
ATOM      1  C   UNL A   1      40.699  21.312  27.625  1.00  0.00     0.188 C 
ENDROOT
BRANCH   1   2
ATOM      2  C   UNL A   1      39.713  21.350  26.437  1.00  0.00     0.188 C 
BRANCH   2   3
ATOM      3  O   UNL A   1      38.868  22.483  26.259  1.00  0.00    -0.376 OA
BRANCH   3   4
ATOM      4  C   UNL A   1      37.808  22.409  25.310  1.00  0.00     0.202 C 
BRANCH   4   5
ATOM      5  C   UNL A   1      36.460  23.008  25.720  1.00  0.00     0.261 C 
BRANCH   5   6
ATOM      6  O   UNL A   1      35.545  22.015  26.215  1.00  0.00    -0.460 OA
BRANCH   6   7
ATOM      7  C   UNL A   1      34.233  22.273  26.022  1.00  0.00     0.342 C 
ATOM      8  O   UNL A   1      33.610  23.236  26.442  1.00  0.00    -0.246 OA
BRANCH   7   9
ATOM      9  C   UNL A   1      33.633  21.307  25.073  1.00  0.00     0.104 A 
ATOM     10  C   UNL A   1      32.931  21.706  23.881  1.00  0.00     0.134 A 
ATOM     11  C   UNL A   1      32.352  20.788  22.970  1.00  0.00     0.059 A 
ATOM     12  C   UNL A   1      32.552  19.475  23.377  1.00  0.00     0.023 A 
ATOM     13  C   UNL A   1      33.805  19.947  25.451  1.00  0.00     0.050 A 
ATOM     14  C   UNL A   1      32.133  18.357  22.712  1.00  0.00     0.114 A 
ATOM     15  C   UNL A   1      33.232  19.027  24.562  1.00  0.00     0.093 A 
ATOM     16  N   UNL A   1      32.539  17.315  23.498  1.00  0.00    -0.285 N 
ATOM     17  N   UNL A   1      33.186  17.687  24.620  1.00  0.00    -0.176 NA
ATOM     18  H   UNL A   1      32.372  16.373  23.265  1.00  0.00     0.189 HD
BRANCH  10  19
ATOM     19  O   UNL A   1      32.664  23.024  23.582  1.00  0.00    -0.496 OA
ATOM     20  C   UNL A   1      31.283  23.354  23.716  1.00  0.00     0.278 C 
ENDBRANCH  10  19
ENDBRANCH   7   9
ENDBRANCH   6   7
ENDBRANCH   5   6
ENDBRANCH   4   5
ENDBRANCH   3   4
ENDBRANCH   2   3
ENDBRANCH   1   2
BRANCH   1  21
ATOM     21  O   UNL A   1      41.909  20.628  27.348  1.00  0.00    -0.376 OA
BRANCH  21  22
ATOM     22  C   UNL A   1      42.334  20.634  25.994  1.00  0.00     0.202 C 
BRANCH  22  23
ATOM     23  C   UNL A   1      43.358  21.721  25.647  1.00  0.00     0.261 C 
BRANCH  23  24
ATOM     24  O   UNL A   1      42.810  22.919  25.071  1.00  0.00    -0.460 OA
BRANCH  24  25
ATOM     25  C   UNL A   1      43.586  24.024  25.084  1.00  0.00     0.338 C 
ATOM     26  O   UNL A   1      44.529  24.273  24.355  1.00  0.00    -0.246 OA
BRANCH  25  27
ATOM     27  C   UNL A   1      42.986  24.982  26.038  1.00  0.00     0.060 A 
ATOM     28  C   UNL A   1      43.559  26.253  26.177  1.00  0.00     0.016 A 
ATOM     29  C   UNL A   1      41.852  24.633  26.777  1.00  0.00     0.016 A 
ATOM     30  C   UNL A   1      43.012  27.169  27.079  1.00  0.00     0.010 A 
ATOM     31  C   UNL A   1      41.318  25.544  27.693  1.00  0.00     0.010 A 
ATOM     32  C   UNL A   1      41.911  26.806  27.868  1.00  0.00    -0.014 A 
BRANCH  32  33
ATOM     33  C   UNL A   1      41.489  27.666  29.002  1.00  0.00     0.031 A 
ATOM     34  C   UNL A   1      42.258  27.576  30.292  1.00  0.00     0.074 A 
ATOM     35  C   UNL A   1      40.444  28.506  28.899  1.00  0.00     0.049 A 
ATOM     36  N   UNL A   1      42.054  28.191  31.430  1.00  0.00    -0.248 NA
ATOM     37  C   UNL A   1      43.415  26.667  30.297  1.00  0.00     0.031 C 
ATOM     38  C   UNL A   1      39.634  28.707  27.701  1.00  0.00     0.029 A 
ATOM     39  N   UNL A   1      39.879  29.340  29.833  1.00  0.00    -0.354 N 
ATOM     40  C   UNL A   1      43.054  27.744  32.282  1.00  0.00     0.074 A 
ATOM     41  C   UNL A   1      43.846  26.786  31.543  1.00  0.00     0.031 C 
ATOM     42  C   UNL A   1      38.666  29.598  27.975  1.00  0.00     0.029 A 
ATOM     43  C   UNL A   1      38.772  30.010  29.375  1.00  0.00     0.049 A 
ATOM     44  H   UNL A   1      40.236  29.448  30.744  1.00  0.00     0.167 HD
ATOM     45  C   UNL A   1      43.297  28.107  33.563  1.00  0.00     0.037 A 
ATOM     46  C   UNL A   1      37.932  30.844  30.020  1.00  0.00     0.037 A 
ATOM     47  C   UNL A   1      42.506  29.050  34.306  1.00  0.00     0.049 A 
ATOM     48  C   UNL A   1      38.181  31.176  31.470  1.00  0.00     0.074 A 
ATOM     49  C   UNL A   1      42.682  29.494  35.604  1.00  0.00     0.029 A 
ATOM     50  N   UNL A   1      41.376  29.688  33.815  1.00  0.00    -0.354 N 
ATOM     51  N   UNL A   1      39.151  30.780  32.259  1.00  0.00    -0.248 NA
ATOM     52  C   UNL A   1      37.216  32.077  32.120  1.00  0.00     0.031 C 
ATOM     53  C   UNL A   1      41.633  30.365  35.915  1.00  0.00     0.029 A 
ATOM     54  C   UNL A   1      40.832  30.504  34.793  1.00  0.00     0.049 A 
ATOM     55  H   UNL A   1      41.016  29.579  32.905  1.00  0.00     0.167 HD
ATOM     56  C   UNL A   1      38.931  31.402  33.481  1.00  0.00     0.074 A 
ATOM     57  C   UNL A   1      37.741  32.213  33.330  1.00  0.00     0.031 C 
ATOM     58  C   UNL A   1      39.653  31.314  34.625  1.00  0.00     0.037 A 
BRANCH  45  59
ATOM     59  C   UNL A   1      44.460  27.458  34.252  1.00  0.00     0.064 A 
ATOM     60  C   UNL A   1      44.323  26.239  34.933  1.00  0.00     0.173 A 
ATOM     61  C   UNL A   1      45.731  28.049  34.211  1.00  0.00     0.173 A 
ATOM     62  F   UNL A   1      43.124  25.641  35.015  1.00  0.00    -0.203 F 
ATOM     63  C   UNL A   1      45.412  25.648  35.569  1.00  0.00     0.198 A 
ATOM     64  C   UNL A   1      46.823  27.443  34.826  1.00  0.00     0.198 A 
ATOM     65  F   UNL A   1      45.915  29.214  33.571  1.00  0.00    -0.203 F 
ATOM     66  F   UNL A   1      45.249  24.507  36.252  1.00  0.00    -0.200 F 
ATOM     67  C   UNL A   1      46.661  26.247  35.510  1.00  0.00     0.200 A 
ATOM     68  F   UNL A   1      48.031  28.018  34.759  1.00  0.00    -0.200 F 
ATOM     69  F   UNL A   1      47.710  25.676  36.119  1.00  0.00    -0.200 F 
ENDBRANCH  45  59
BRANCH  46  70
ATOM     70  C   UNL A   1      36.763  31.422  29.306  1.00  0.00     0.064 A 
ATOM     71  C   UNL A   1      35.672  30.621  28.940  1.00  0.00     0.173 A 
ATOM     72  C   UNL A   1      36.730  32.776  28.944  1.00  0.00     0.173 A 
ATOM     73  F   UNL A   1      35.673  29.313  29.232  1.00  0.00    -0.203 F 
ATOM     74  C   UNL A   1      34.600  31.152  28.224  1.00  0.00     0.198 A 
ATOM     75  C   UNL A   1      35.646  33.310  28.252  1.00  0.00     0.198 A 
ATOM     76  F   UNL A   1      37.755  33.581  29.261  1.00  0.00    -0.203 F 
ATOM     77  F   UNL A   1      33.593  30.354  27.841  1.00  0.00    -0.200 F 
ATOM     78  C   UNL A   1      34.584  32.497  27.885  1.00  0.00     0.200 A 
ATOM     79  F   UNL A   1      35.634  34.611  27.928  1.00  0.00    -0.200 F 
ATOM     80  F   UNL A   1      33.555  33.004  27.194  1.00  0.00    -0.200 F 
ENDBRANCH  46  70
BRANCH  58  81
ATOM     81  C   UNL A   1      39.203  32.141  35.795  1.00  0.00     0.064 A 
ATOM     82  C   UNL A   1      38.356  31.620  36.783  1.00  0.00     0.173 A 
ATOM     83  C   UNL A   1      39.667  33.455  35.954  1.00  0.00     0.173 A 
ATOM     84  F   UNL A   1      37.874  30.372  36.672  1.00  0.00    -0.203 F 
ATOM     85  C   UNL A   1      37.971  32.393  37.877  1.00  0.00     0.198 A 
ATOM     86  C   UNL A   1      39.304  34.216  37.061  1.00  0.00     0.198 A 
ATOM     87  F   UNL A   1      40.487  33.998  35.041  1.00  0.00    -0.203 F 
ATOM     88  F   UNL A   1      37.126  31.890  38.788  1.00  0.00    -0.200 F 
ATOM     89  C   UNL A   1      38.451  33.687  38.019  1.00  0.00     0.200 A 
ATOM     90  F   UNL A   1      39.779  35.461  37.204  1.00  0.00    -0.200 F 
ATOM     91  F   UNL A   1      38.086  34.427  39.075  1.00  0.00    -0.200 F 
ENDBRANCH  58  81
ENDBRANCH  32  33
ENDBRANCH  25  27
ENDBRANCH  24  25
ENDBRANCH  23  24
ENDBRANCH  22  23
ENDBRANCH  21  22
ENDBRANCH   1  21
TORSDOF 18
ENDMDL
