MODEL 1
REMARK VINA RESULT:     -10.8      0.000      0.000
REMARK SMILES O=C(OCCOCCOCCOC(=O)c1ccccc1[C@@H]1SCC(=O)N1NC(=S)Nc1ccccc1)c1ccc(-c2c3nc(c(-c4c(F)c(F)c(F)c(F)c4F)c4ccc([nH]4)c(-c4c(F)c(F)c(F)c(F)c4F)c4nc(c(-c5c(F)c(F)c(F)c(F)c5F)c5ccc2[nH]5)C=C4)C=C3)cc1
REMARK SMILES IDX 9 1 8 2 7 3 6 4 5 5 4 6 3 7 2 8 1 9 37 10 38 11 99 12 39 13
REMARK SMILES IDX 98 14 40 15 41 16 42 17 92 18 43 19 97 20 91 21 93 22 44 23
REMARK SMILES IDX 96 24 90 25 89 26 45 28 77 29 57 30 76 31 58 32 61 33 75 34
REMARK SMILES IDX 94 35 59 36 60 37 74 39 95 40 62 41 46 42 47 43 55 44 48 45
REMARK SMILES IDX 49 46 53 47 56 48 50 49 51 50 54 51 52 52 78 53 79 54 87 55
REMARK SMILES IDX 80 56 81 57 85 58 88 59 82 60 83 61 86 62 84 63 63 64 64 65
REMARK SMILES IDX 72 66 65 67 66 68 70 69 73 70 67 71 68 72 71 73 69 74 10 75
REMARK SMILES IDX 11 76 12 77 13 78 14 79 15 80 16 81 20 82 17 83 19 84 18 85
REMARK SMILES IDX 21 86 22 87 26 88 23 89 24 90 25 91 27 92 28 94 29 95 30 96
REMARK SMILES IDX 31 98 32 99 36 100 33 101 35 102 34 103
REMARK H PARENT 93 27 61 38 27 93 30 97
REMARK Flexibility Score: inf
ROOT
ATOM      1  O   UNL A   1      35.652  29.731  28.016  1.00  0.00    -0.376 OA
ENDROOT
BRANCH   1   2
ATOM      2  C   UNL A   1      35.772  31.150  28.004  1.00  0.00     0.188 C 
BRANCH   2   3
ATOM      3  C   UNL A   1      34.501  31.893  28.403  1.00  0.00     0.188 C 
BRANCH   3   4
ATOM      4  O   UNL A   1      34.727  32.987  29.299  1.00  0.00    -0.376 OA
BRANCH   4   5
ATOM      5  C   UNL A   1      34.625  34.267  28.662  1.00  0.00     0.202 C 
BRANCH   5   6
ATOM      6  C   UNL A   1      33.232  34.913  28.756  1.00  0.00     0.261 C 
BRANCH   6   7
ATOM      7  O   UNL A   1      32.689  34.887  30.089  1.00  0.00    -0.460 OA
BRANCH   7   8
ATOM      8  C   UNL A   1      33.129  35.510  31.210  1.00  0.00     0.338 C 
ATOM      9  O   UNL A   1      32.621  36.590  31.512  1.00  0.00    -0.246 OA
BRANCH   8  10
ATOM     10  C   UNL A   1      34.155  34.947  32.147  1.00  0.00     0.060 A 
ATOM     11  C   UNL A   1      35.408  35.494  32.403  1.00  0.00     0.016 A 
ATOM     12  C   UNL A   1      33.816  33.756  32.824  1.00  0.00     0.016 A 
ATOM     13  C   UNL A   1      36.350  34.799  33.150  1.00  0.00     0.010 A 
ATOM     14  C   UNL A   1      34.745  33.077  33.626  1.00  0.00     0.010 A 
ATOM     15  C   UNL A   1      36.046  33.568  33.728  1.00  0.00    -0.014 A 
BRANCH  15  16
ATOM     16  C   UNL A   1      37.181  32.749  34.211  1.00  0.00     0.031 A 
ATOM     17  C   UNL A   1      37.863  31.850  33.221  1.00  0.00     0.074 A 
ATOM     18  C   UNL A   1      37.722  32.981  35.420  1.00  0.00     0.049 A 
ATOM     19  N   UNL A   1      38.967  31.161  33.344  1.00  0.00    -0.248 NA
ATOM     20  C   UNL A   1      37.220  31.720  31.902  1.00  0.00     0.031 C 
ATOM     21  C   UNL A   1      37.190  33.925  36.399  1.00  0.00     0.029 A 
ATOM     22  N   UNL A   1      38.886  32.526  35.989  1.00  0.00    -0.354 N 
ATOM     23  C   UNL A   1      39.120  30.482  32.143  1.00  0.00     0.074 A 
ATOM     24  C   UNL A   1      38.016  30.859  31.291  1.00  0.00     0.031 C 
ATOM     25  C   UNL A   1      38.084  34.068  37.392  1.00  0.00     0.029 A 
ATOM     26  C   UNL A   1      39.226  33.195  37.142  1.00  0.00     0.049 A 
ATOM     27  H   UNL A   1      39.422  31.793  35.611  1.00  0.00     0.167 HD
ATOM     28  C   UNL A   1      40.084  29.598  31.797  1.00  0.00     0.037 A 
ATOM     29  C   UNL A   1      40.351  33.135  37.882  1.00  0.00     0.037 A 
ATOM     30  C   UNL A   1      41.185  29.249  32.651  1.00  0.00     0.049 A 
ATOM     31  C   UNL A   1      41.420  32.155  37.468  1.00  0.00     0.074 A 
ATOM     32  C   UNL A   1      42.156  28.284  32.466  1.00  0.00     0.029 A 
ATOM     33  N   UNL A   1      41.463  29.879  33.856  1.00  0.00    -0.354 N 
ATOM     34  N   UNL A   1      41.504  31.432  36.378  1.00  0.00    -0.248 NA
ATOM     35  C   UNL A   1      42.532  31.957  38.409  1.00  0.00     0.031 C 
ATOM     36  C   UNL A   1      43.003  28.304  33.581  1.00  0.00     0.029 A 
ATOM     37  C   UNL A   1      42.585  29.313  34.436  1.00  0.00     0.049 A 
ATOM     38  H   UNL A   1      40.940  30.618  34.242  1.00  0.00     0.167 HD
ATOM     39  C   UNL A   1      42.671  30.689  36.504  1.00  0.00     0.074 A 
ATOM     40  C   UNL A   1      43.288  31.090  37.752  1.00  0.00     0.031 C 
ATOM     41  C   UNL A   1      43.172  29.737  35.679  1.00  0.00     0.037 A 
BRANCH  28  42
ATOM     42  C   UNL A   1      39.903  28.876  30.497  1.00  0.00     0.064 A 
ATOM     43  C   UNL A   1      39.264  27.632  30.409  1.00  0.00     0.173 A 
ATOM     44  C   UNL A   1      40.437  29.427  29.322  1.00  0.00     0.173 A 
ATOM     45  F   UNL A   1      38.770  27.047  31.511  1.00  0.00    -0.203 F 
ATOM     46  C   UNL A   1      39.192  26.951  29.195  1.00  0.00     0.198 A 
ATOM     47  C   UNL A   1      40.341  28.756  28.106  1.00  0.00     0.198 A 
ATOM     48  F   UNL A   1      41.069  30.610  29.356  1.00  0.00    -0.203 F 
ATOM     49  F   UNL A   1      38.632  25.735  29.143  1.00  0.00    -0.200 F 
ATOM     50  C   UNL A   1      39.728  27.515  28.046  1.00  0.00     0.200 A 
ATOM     51  F   UNL A   1      40.861  29.302  26.999  1.00  0.00    -0.200 F 
ATOM     52  F   UNL A   1      39.669  26.852  26.882  1.00  0.00    -0.200 F 
ENDBRANCH  28  42
BRANCH  29  53
ATOM     53  C   UNL A   1      40.553  34.023  39.063  1.00  0.00     0.064 A 
ATOM     54  C   UNL A   1      41.172  35.275  38.923  1.00  0.00     0.173 A 
ATOM     55  C   UNL A   1      40.168  33.639  40.357  1.00  0.00     0.173 A 
ATOM     56  F   UNL A   1      41.579  35.690  37.715  1.00  0.00    -0.203 F 
ATOM     57  C   UNL A   1      41.416  36.093  40.026  1.00  0.00     0.198 A 
ATOM     58  C   UNL A   1      40.382  34.472  41.455  1.00  0.00     0.198 A 
ATOM     59  F   UNL A   1      39.569  32.456  40.557  1.00  0.00    -0.203 F 
ATOM     60  F   UNL A   1      42.053  37.262  39.865  1.00  0.00    -0.200 F 
ATOM     61  C   UNL A   1      41.015  35.693  41.290  1.00  0.00     0.200 A 
ATOM     62  F   UNL A   1      39.968  34.090  42.670  1.00  0.00    -0.200 F 
ATOM     63  F   UNL A   1      41.241  36.481  42.351  1.00  0.00    -0.200 F 
ENDBRANCH  29  53
BRANCH  41  64
ATOM     64  C   UNL A   1      44.433  29.055  36.114  1.00  0.00     0.064 A 
ATOM     65  C   UNL A   1      44.393  27.854  36.840  1.00  0.00     0.173 A 
ATOM     66  C   UNL A   1      45.686  29.571  35.757  1.00  0.00     0.173 A 
ATOM     67  F   UNL A   1      43.217  27.329  37.213  1.00  0.00    -0.203 F 
ATOM     68  C   UNL A   1      45.568  27.209  37.213  1.00  0.00     0.198 A 
ATOM     69  C   UNL A   1      46.857  28.907  36.110  1.00  0.00     0.198 A 
ATOM     70  F   UNL A   1      45.773  30.711  35.056  1.00  0.00    -0.203 F 
ATOM     71  F   UNL A   1      45.508  26.084  37.942  1.00  0.00    -0.200 F 
ATOM     72  C   UNL A   1      46.797  27.731  36.842  1.00  0.00     0.200 A 
ATOM     73  F   UNL A   1      48.045  29.406  35.740  1.00  0.00    -0.200 F 
ATOM     74  F   UNL A   1      47.926  27.102  37.195  1.00  0.00    -0.200 F 
ENDBRANCH  41  64
ENDBRANCH  15  16
ENDBRANCH   8  10
ENDBRANCH   7   8
ENDBRANCH   6   7
ENDBRANCH   5   6
ENDBRANCH   4   5
ENDBRANCH   3   4
ENDBRANCH   2   3
ENDBRANCH   1   2
BRANCH   1  75
ATOM     75  C   UNL A   1      35.008  29.148  26.881  1.00  0.00     0.202 C 
BRANCH  75  76
ATOM     76  C   UNL A   1      33.628  28.565  27.171  1.00  0.00     0.261 C 
BRANCH  76  77
ATOM     77  O   UNL A   1      32.842  28.427  25.964  1.00  0.00    -0.460 OA
BRANCH  77  78
ATOM     78  C   UNL A   1      31.971  29.427  25.745  1.00  0.00     0.338 C 
ATOM     79  O   UNL A   1      31.788  30.408  26.470  1.00  0.00    -0.246 OA
BRANCH  78  80
ATOM     80  C   UNL A   1      31.254  29.267  24.470  1.00  0.00     0.066 A 
ATOM     81  C   UNL A   1      30.270  30.250  24.247  1.00  0.00     0.016 A 
ATOM     82  C   UNL A   1      31.325  28.104  23.662  1.00  0.00     0.001 A 
ATOM     83  C   UNL A   1      29.302  30.075  23.264  1.00  0.00     0.001 A 
ATOM     84  C   UNL A   1      30.280  27.931  22.726  1.00  0.00     0.008 A 
ATOM     85  C   UNL A   1      29.285  28.897  22.530  1.00  0.00     0.000 A 
BRANCH  82  86
ATOM     86  C   UNL A   1      32.433  27.045  23.677  1.00  0.00     0.197 C 
ATOM     87  S   UNL A   1      33.257  26.786  22.105  1.00  0.00    -0.120 SA
ATOM     88  N   UNL A   1      31.972  25.732  24.086  1.00  0.00    -0.236 N 
ATOM     89  C   UNL A   1      32.369  25.233  21.795  1.00  0.00     0.174 C 
ATOM     90  C   UNL A   1      31.553  24.911  23.049  1.00  0.00     0.252 C 
ATOM     91  O   UNL A   1      30.685  24.047  23.099  1.00  0.00    -0.272 OA
BRANCH  88  92
ATOM     92  N   UNL A   1      31.866  25.479  25.470  1.00  0.00    -0.270 N 
ATOM     93  H   UNL A   1      31.464  26.210  25.993  1.00  0.00     0.191 HD
BRANCH  92  94
ATOM     94  C   UNL A   1      32.229  24.387  26.201  1.00  0.00     0.189 C 
ATOM     95  S   UNL A   1      31.024  23.370  26.767  1.00  0.00    -0.039 S 
BRANCH  94  96
ATOM     96  N   UNL A   1      33.494  23.965  26.366  1.00  0.00    -0.331 N 
ATOM     97  H   UNL A   1      33.760  23.851  27.307  1.00  0.00     0.169 HD
BRANCH  96  98
ATOM     98  C   UNL A   1      34.498  23.658  25.446  1.00  0.00     0.040 A 
ATOM     99  C   UNL A   1      35.797  24.080  25.756  1.00  0.00     0.026 A 
ATOM    100  C   UNL A   1      34.249  22.959  24.267  1.00  0.00     0.026 A 
ATOM    101  C   UNL A   1      36.864  23.700  24.947  1.00  0.00     0.002 A 
ATOM    102  C   UNL A   1      35.316  22.626  23.430  1.00  0.00     0.002 A 
ATOM    103  C   UNL A   1      36.623  22.969  23.786  1.00  0.00     0.000 A 
ENDBRANCH  96  98
ENDBRANCH  94  96
ENDBRANCH  92  94
ENDBRANCH  88  92
ENDBRANCH  82  86
ENDBRANCH  78  80
ENDBRANCH  77  78
ENDBRANCH  76  77
ENDBRANCH  75  76
ENDBRANCH   1  75
TORSDOF 22
ENDMDL
MODEL 2
REMARK VINA RESULT:     -10.6      1.550      7.261
REMARK SMILES O=C(OCCOCCOCCOC(=O)c1ccccc1[C@@H]1SCC(=O)N1NC(=S)Nc1ccccc1)c1ccc(-c2c3nc(c(-c4c(F)c(F)c(F)c(F)c4F)c4ccc([nH]4)c(-c4c(F)c(F)c(F)c(F)c4F)c4nc(c(-c5c(F)c(F)c(F)c(F)c5F)c5ccc2[nH]5)C=C4)C=C3)cc1
REMARK SMILES IDX 9 1 8 2 7 3 6 4 5 5 4 6 3 7 2 8 1 9 37 10 38 11 99 12 39 13
REMARK SMILES IDX 98 14 40 15 41 16 42 17 92 18 43 19 97 20 91 21 93 22 44 23
REMARK SMILES IDX 96 24 90 25 89 26 45 28 77 29 57 30 76 31 58 32 61 33 75 34
REMARK SMILES IDX 94 35 59 36 60 37 74 39 95 40 62 41 46 42 47 43 55 44 48 45
REMARK SMILES IDX 49 46 53 47 56 48 50 49 51 50 54 51 52 52 78 53 79 54 87 55
REMARK SMILES IDX 80 56 81 57 85 58 88 59 82 60 83 61 86 62 84 63 63 64 64 65
REMARK SMILES IDX 72 66 65 67 66 68 70 69 73 70 67 71 68 72 71 73 69 74 10 75
REMARK SMILES IDX 11 76 12 77 13 78 14 79 15 80 16 81 20 82 17 83 19 84 18 85
REMARK SMILES IDX 21 86 22 87 26 88 23 89 24 90 25 91 27 92 28 94 29 95 30 96
REMARK SMILES IDX 31 98 32 99 36 100 33 101 35 102 34 103
REMARK H PARENT 93 27 61 38 27 93 30 97
REMARK Flexibility Score: inf
ROOT
ATOM      1  O   UNL A   1      35.666  30.705  28.538  1.00  0.00    -0.376 OA
ENDROOT
BRANCH   1   2
ATOM      2  C   UNL A   1      35.870  32.085  28.250  1.00  0.00     0.188 C 
BRANCH   2   3
ATOM      3  C   UNL A   1      34.585  32.896  28.114  1.00  0.00     0.188 C 
BRANCH   3   4
ATOM      4  O   UNL A   1      34.364  33.816  29.189  1.00  0.00    -0.376 OA
BRANCH   4   5
ATOM      5  C   UNL A   1      34.171  35.165  28.745  1.00  0.00     0.202 C 
BRANCH   5   6
ATOM      6  C   UNL A   1      33.025  35.908  29.454  1.00  0.00     0.261 C 
BRANCH   6   7
ATOM      7  O   UNL A   1      32.415  35.132  30.502  1.00  0.00    -0.460 OA
BRANCH   7   8
ATOM      8  C   UNL A   1      32.593  35.210  31.844  1.00  0.00     0.338 C 
ATOM      9  O   UNL A   1      31.646  35.588  32.534  1.00  0.00    -0.246 OA
BRANCH   8  10
ATOM     10  C   UNL A   1      33.848  34.810  32.560  1.00  0.00     0.060 A 
ATOM     11  C   UNL A   1      34.941  35.635  32.805  1.00  0.00     0.016 A 
ATOM     12  C   UNL A   1      33.924  33.478  33.019  1.00  0.00     0.016 A 
ATOM     13  C   UNL A   1      36.124  35.119  33.317  1.00  0.00     0.010 A 
ATOM     14  C   UNL A   1      35.098  32.964  33.589  1.00  0.00     0.010 A 
ATOM     15  C   UNL A   1      36.230  33.774  33.668  1.00  0.00    -0.014 A 
BRANCH  15  16
ATOM     16  C   UNL A   1      37.594  33.237  33.880  1.00  0.00     0.031 A 
ATOM     17  C   UNL A   1      38.183  33.355  35.256  1.00  0.00     0.074 A 
ATOM     18  C   UNL A   1      38.177  32.471  32.942  1.00  0.00     0.049 A 
ATOM     19  N   UNL A   1      39.277  32.829  35.741  1.00  0.00    -0.248 NA
ATOM     20  C   UNL A   1      37.426  34.165  36.226  1.00  0.00     0.031 C 
ATOM     21  C   UNL A   1      37.618  32.209  31.619  1.00  0.00     0.029 A 
ATOM     22  N   UNL A   1      39.307  31.692  32.990  1.00  0.00    -0.354 N 
ATOM     23  C   UNL A   1      39.362  33.286  37.049  1.00  0.00     0.074 A 
ATOM     24  C   UNL A   1      38.199  34.106  37.296  1.00  0.00     0.031 C 
ATOM     25  C   UNL A   1      38.339  31.241  31.028  1.00  0.00     0.029 A 
ATOM     26  C   UNL A   1      39.434  30.850  31.909  1.00  0.00     0.049 A 
ATOM     27  H   UNL A   1      39.962  31.733  33.723  1.00  0.00     0.167 HD
ATOM     28  C   UNL A   1      40.343  33.061  37.953  1.00  0.00     0.037 A 
ATOM     29  C   UNL A   1      40.311  29.853  31.683  1.00  0.00     0.037 A 
ATOM     30  C   UNL A   1      41.484  32.227  37.695  1.00  0.00     0.049 A 
ATOM     31  C   UNL A   1      41.387  29.608  32.711  1.00  0.00     0.074 A 
ATOM     32  C   UNL A   1      42.601  32.015  38.481  1.00  0.00     0.029 A 
ATOM     33  N   UNL A   1      41.635  31.448  36.556  1.00  0.00    -0.354 N 
ATOM     34  N   UNL A   1      41.523  30.126  33.908  1.00  0.00    -0.248 NA
ATOM     35  C   UNL A   1      42.452  28.665  32.340  1.00  0.00     0.031 C 
ATOM     36  C   UNL A   1      43.449  31.136  37.797  1.00  0.00     0.029 A 
ATOM     37  C   UNL A   1      42.837  30.765  36.609  1.00  0.00     0.049 A 
ATOM     38  H   UNL A   1      40.985  31.392  35.819  1.00  0.00     0.167 HD
ATOM     39  C   UNL A   1      42.688  29.580  34.429  1.00  0.00     0.074 A 
ATOM     40  C   UNL A   1      43.192  28.649  33.439  1.00  0.00     0.031 C 
ATOM     41  C   UNL A   1      43.307  29.847  35.606  1.00  0.00     0.037 A 
BRANCH  28  42
ATOM     42  C   UNL A   1      40.267  33.828  39.238  1.00  0.00     0.064 A 
ATOM     43  C   UNL A   1      39.542  33.370  40.346  1.00  0.00     0.173 A 
ATOM     44  C   UNL A   1      40.895  35.079  39.332  1.00  0.00     0.173 A 
ATOM     45  F   UNL A   1      38.893  32.197  40.291  1.00  0.00    -0.203 F 
ATOM     46  C   UNL A   1      39.423  34.152  41.493  1.00  0.00     0.198 A 
ATOM     47  C   UNL A   1      40.796  35.847  40.489  1.00  0.00     0.198 A 
ATOM     48  F   UNL A   1      41.591  35.567  38.294  1.00  0.00    -0.203 F 
ATOM     49  F   UNL A   1      38.674  33.725  42.519  1.00  0.00    -0.200 F 
ATOM     50  C   UNL A   1      40.052  35.388  41.564  1.00  0.00     0.200 A 
ATOM     51  F   UNL A   1      41.403  37.040  40.554  1.00  0.00    -0.200 F 
ATOM     52  F   UNL A   1      39.925  36.144  42.664  1.00  0.00    -0.200 F 
ENDBRANCH  28  42
BRANCH  29  53
ATOM     53  C   UNL A   1      40.217  28.995  30.467  1.00  0.00     0.064 A 
ATOM     54  C   UNL A   1      40.783  29.409  29.250  1.00  0.00     0.173 A 
ATOM     55  C   UNL A   1      39.541  27.765  30.474  1.00  0.00     0.173 A 
ATOM     56  F   UNL A   1      41.425  30.583  29.175  1.00  0.00    -0.203 F 
ATOM     57  C   UNL A   1      40.656  28.643  28.091  1.00  0.00     0.198 A 
ATOM     58  C   UNL A   1      39.446  26.983  29.323  1.00  0.00     0.198 A 
ATOM     59  F   UNL A   1      38.983  27.311  31.605  1.00  0.00    -0.203 F 
ATOM     60  F   UNL A   1      41.165  29.089  26.934  1.00  0.00    -0.200 F 
ATOM     61  C   UNL A   1      39.993  27.427  28.131  1.00  0.00     0.200 A 
ATOM     62  F   UNL A   1      38.825  25.796  29.375  1.00  0.00    -0.200 F 
ATOM     63  F   UNL A   1      39.878  26.685  27.020  1.00  0.00    -0.200 F 
ENDBRANCH  29  53
BRANCH  41  64
ATOM     64  C   UNL A   1      44.601  29.139  35.870  1.00  0.00     0.064 A 
ATOM     65  C   UNL A   1      44.628  27.904  36.536  1.00  0.00     0.173 A 
ATOM     66  C   UNL A   1      45.813  29.668  35.406  1.00  0.00     0.173 A 
ATOM     67  F   UNL A   1      43.494  27.366  37.006  1.00  0.00    -0.203 F 
ATOM     68  C   UNL A   1      45.829  27.236  36.749  1.00  0.00     0.198 A 
ATOM     69  C   UNL A   1      47.010  28.982  35.599  1.00  0.00     0.198 A 
ATOM     70  F   UNL A   1      45.836  30.841  34.757  1.00  0.00    -0.203 F 
ATOM     71  F   UNL A   1      45.838  26.077  37.423  1.00  0.00    -0.200 F 
ATOM     72  C   UNL A   1      47.017  27.771  36.275  1.00  0.00     0.200 A 
ATOM     73  F   UNL A   1      48.155  29.495  35.129  1.00  0.00    -0.200 F 
ATOM     74  F   UNL A   1      48.172  27.122  36.473  1.00  0.00    -0.200 F 
ENDBRANCH  41  64
ENDBRANCH  15  16
ENDBRANCH   8  10
ENDBRANCH   7   8
ENDBRANCH   6   7
ENDBRANCH   5   6
ENDBRANCH   4   5
ENDBRANCH   3   4
ENDBRANCH   2   3
ENDBRANCH   1   2
BRANCH   1  75
ATOM     75  C   UNL A   1      35.688  29.822  27.415  1.00  0.00     0.202 C 
BRANCH  75  76
ATOM     76  C   UNL A   1      34.428  28.975  27.256  1.00  0.00     0.261 C 
BRANCH  76  77
ATOM     77  O   UNL A   1      34.718  27.699  26.639  1.00  0.00    -0.460 OA
BRANCH  77  78
ATOM     78  C   UNL A   1      33.664  27.110  26.048  1.00  0.00     0.338 C 
ATOM     79  O   UNL A   1      32.617  26.762  26.601  1.00  0.00    -0.246 OA
BRANCH  78  80
ATOM     80  C   UNL A   1      33.857  26.955  24.598  1.00  0.00     0.066 A 
ATOM     81  C   UNL A   1      33.770  28.167  23.883  1.00  0.00     0.016 A 
ATOM     82  C   UNL A   1      33.854  25.707  23.926  1.00  0.00     0.001 A 
ATOM     83  C   UNL A   1      33.617  28.165  22.501  1.00  0.00     0.001 A 
ATOM     84  C   UNL A   1      33.622  25.749  22.533  1.00  0.00     0.008 A 
ATOM     85  C   UNL A   1      33.504  26.955  21.831  1.00  0.00     0.000 A 
BRANCH  82  86
ATOM     86  C   UNL A   1      34.112  24.331  24.551  1.00  0.00     0.197 C 
ATOM     87  S   UNL A   1      35.301  24.319  25.894  1.00  0.00    -0.120 SA
ATOM     88  N   UNL A   1      34.600  23.347  23.604  1.00  0.00    -0.236 N 
ATOM     89  C   UNL A   1      36.607  23.612  24.850  1.00  0.00     0.174 C 
ATOM     90  C   UNL A   1      35.981  23.274  23.496  1.00  0.00     0.252 C 
ATOM     91  O   UNL A   1      36.626  22.974  22.498  1.00  0.00    -0.272 OA
BRANCH  88  92
ATOM     92  N   UNL A   1      33.646  22.681  22.806  1.00  0.00    -0.270 N 
ATOM     93  H   UNL A   1      33.869  22.635  21.848  1.00  0.00     0.191 HD
BRANCH  92  94
ATOM     94  C   UNL A   1      32.464  22.090  23.145  1.00  0.00     0.189 C 
ATOM     95  S   UNL A   1      32.509  20.593  23.896  1.00  0.00    -0.039 S 
BRANCH  94  96
ATOM     96  N   UNL A   1      31.264  22.688  23.076  1.00  0.00    -0.331 N 
ATOM     97  H   UNL A   1      30.656  22.297  22.408  1.00  0.00     0.169 HD
BRANCH  96  98
ATOM     98  C   UNL A   1      30.721  23.765  23.782  1.00  0.00     0.040 A 
ATOM     99  C   UNL A   1      30.628  23.632  25.173  1.00  0.00     0.026 A 
ATOM    100  C   UNL A   1      30.290  24.932  23.157  1.00  0.00     0.026 A 
ATOM    101  C   UNL A   1      30.215  24.712  25.948  1.00  0.00     0.002 A 
ATOM    102  C   UNL A   1      29.826  25.994  23.935  1.00  0.00     0.002 A 
ATOM    103  C   UNL A   1      29.818  25.895  25.329  1.00  0.00     0.000 A 
ENDBRANCH  96  98
ENDBRANCH  94  96
ENDBRANCH  92  94
ENDBRANCH  88  92
ENDBRANCH  82  86
ENDBRANCH  78  80
ENDBRANCH  77  78
ENDBRANCH  76  77
ENDBRANCH  75  76
ENDBRANCH   1  75
TORSDOF 22
ENDMDL
MODEL 3
REMARK VINA RESULT:     -10.4      4.983      9.540
REMARK SMILES O=C(OCCOCCOCCOC(=O)c1ccccc1[C@@H]1SCC(=O)N1NC(=S)Nc1ccccc1)c1ccc(-c2c3nc(c(-c4c(F)c(F)c(F)c(F)c4F)c4ccc([nH]4)c(-c4c(F)c(F)c(F)c(F)c4F)c4nc(c(-c5c(F)c(F)c(F)c(F)c5F)c5ccc2[nH]5)C=C4)C=C3)cc1
REMARK SMILES IDX 9 1 8 2 7 3 6 4 5 5 4 6 3 7 2 8 1 9 37 10 38 11 99 12 39 13
REMARK SMILES IDX 98 14 40 15 41 16 42 17 92 18 43 19 97 20 91 21 93 22 44 23
REMARK SMILES IDX 96 24 90 25 89 26 45 28 77 29 57 30 76 31 58 32 61 33 75 34
REMARK SMILES IDX 94 35 59 36 60 37 74 39 95 40 62 41 46 42 47 43 55 44 48 45
REMARK SMILES IDX 49 46 53 47 56 48 50 49 51 50 54 51 52 52 78 53 79 54 87 55
REMARK SMILES IDX 80 56 81 57 85 58 88 59 82 60 83 61 86 62 84 63 63 64 64 65
REMARK SMILES IDX 72 66 65 67 66 68 70 69 73 70 67 71 68 72 71 73 69 74 10 75
REMARK SMILES IDX 11 76 12 77 13 78 14 79 15 80 16 81 20 82 17 83 19 84 18 85
REMARK SMILES IDX 21 86 22 87 26 88 23 89 24 90 25 91 27 92 28 94 29 95 30 96
REMARK SMILES IDX 31 98 32 99 36 100 33 101 35 102 34 103
REMARK H PARENT 93 27 61 38 27 93 30 97
REMARK Flexibility Score: inf
ROOT
ATOM      1  O   UNL A   1      33.865  32.615  28.243  1.00  0.00    -0.376 OA
ENDROOT
BRANCH   1   2
ATOM      2  C   UNL A   1      34.725  33.604  28.800  1.00  0.00     0.188 C 
BRANCH   2   3
ATOM      3  C   UNL A   1      34.001  34.819  29.372  1.00  0.00     0.188 C 
BRANCH   3   4
ATOM      4  O   UNL A   1      34.068  34.915  30.799  1.00  0.00    -0.376 OA
BRANCH   4   5
ATOM      5  C   UNL A   1      34.369  33.665  31.433  1.00  0.00     0.202 C 
BRANCH   5   6
ATOM      6  C   UNL A   1      35.337  33.775  32.624  1.00  0.00     0.261 C 
BRANCH   6   7
ATOM      7  O   UNL A   1      35.598  32.509  33.256  1.00  0.00    -0.460 OA
BRANCH   7   8
ATOM      8  C   UNL A   1      36.784  31.920  33.548  1.00  0.00     0.338 C 
ATOM      9  O   UNL A   1      37.196  31.989  34.707  1.00  0.00    -0.246 OA
BRANCH   8  10
ATOM     10  C   UNL A   1      37.607  31.137  32.571  1.00  0.00     0.060 A 
ATOM     11  C   UNL A   1      38.676  30.306  32.891  1.00  0.00     0.016 A 
ATOM     12  C   UNL A   1      37.267  31.259  31.207  1.00  0.00     0.016 A 
ATOM     13  C   UNL A   1      39.483  29.767  31.899  1.00  0.00     0.010 A 
ATOM     14  C   UNL A   1      38.045  30.671  30.200  1.00  0.00     0.010 A 
ATOM     15  C   UNL A   1      39.206  29.981  30.550  1.00  0.00    -0.014 A 
BRANCH  15  16
ATOM     16  C   UNL A   1      40.281  29.667  29.581  1.00  0.00     0.031 A 
ATOM     17  C   UNL A   1      41.445  30.611  29.501  1.00  0.00     0.074 A 
ATOM     18  C   UNL A   1      40.321  28.467  28.974  1.00  0.00     0.049 A 
ATOM     19  N   UNL A   1      42.578  30.483  28.862  1.00  0.00    -0.248 NA
ATOM     20  C   UNL A   1      41.322  31.869  30.258  1.00  0.00     0.031 C 
ATOM     21  C   UNL A   1      39.286  27.443  29.091  1.00  0.00     0.029 A 
ATOM     22  N   UNL A   1      41.306  27.867  28.230  1.00  0.00    -0.354 N 
ATOM     23  C   UNL A   1      43.275  31.660  29.100  1.00  0.00     0.074 A 
ATOM     24  C   UNL A   1      42.457  32.479  29.963  1.00  0.00     0.031 C 
ATOM     25  C   UNL A   1      39.742  26.303  28.546  1.00  0.00     0.029 A 
ATOM     26  C   UNL A   1      41.077  26.529  28.002  1.00  0.00     0.049 A 
ATOM     27  H   UNL A   1      42.097  28.345  27.892  1.00  0.00     0.167 HD
ATOM     28  C   UNL A   1      44.482  32.032  28.614  1.00  0.00     0.037 A 
ATOM     29  C   UNL A   1      41.876  25.593  27.453  1.00  0.00     0.037 A 
ATOM     30  C   UNL A   1      45.290  31.195  27.771  1.00  0.00     0.049 A 
ATOM     31  C   UNL A   1      43.223  26.025  26.933  1.00  0.00     0.074 A 
ATOM     32  C   UNL A   1      46.470  31.500  27.120  1.00  0.00     0.029 A 
ATOM     33  N   UNL A   1      44.997  29.870  27.481  1.00  0.00    -0.354 N 
ATOM     34  N   UNL A   1      43.833  27.178  27.069  1.00  0.00    -0.248 NA
ATOM     35  C   UNL A   1      43.977  25.034  26.151  1.00  0.00     0.031 C 
ATOM     36  C   UNL A   1      46.872  30.367  26.402  1.00  0.00     0.029 A 
ATOM     37  C   UNL A   1      45.967  29.345  26.645  1.00  0.00     0.049 A 
ATOM     38  H   UNL A   1      44.215  29.377  27.819  1.00  0.00     0.167 HD
ATOM     39  C   UNL A   1      45.035  27.055  26.386  1.00  0.00     0.074 A 
ATOM     40  C   UNL A   1      45.092  25.698  25.882  1.00  0.00     0.031 C 
ATOM     41  C   UNL A   1      45.993  27.989  26.164  1.00  0.00     0.037 A 
BRANCH  28  42
ATOM     42  C   UNL A   1      44.918  33.438  28.891  1.00  0.00     0.064 A 
ATOM     43  C   UNL A   1      45.704  33.777  30.000  1.00  0.00     0.173 A 
ATOM     44  C   UNL A   1      44.485  34.473  28.048  1.00  0.00     0.173 A 
ATOM     45  F   UNL A   1      46.111  32.828  30.856  1.00  0.00    -0.203 F 
ATOM     46  C   UNL A   1      46.016  35.109  30.272  1.00  0.00     0.198 A 
ATOM     47  C   UNL A   1      44.820  35.799  28.308  1.00  0.00     0.198 A 
ATOM     48  F   UNL A   1      43.720  34.200  26.980  1.00  0.00    -0.203 F 
ATOM     49  F   UNL A   1      46.716  35.420  31.372  1.00  0.00    -0.200 F 
ATOM     50  C   UNL A   1      45.576  36.116  29.425  1.00  0.00     0.200 A 
ATOM     51  F   UNL A   1      44.392  36.769  27.489  1.00  0.00    -0.200 F 
ATOM     52  F   UNL A   1      45.867  37.396  29.696  1.00  0.00    -0.200 F 
ENDBRANCH  28  42
BRANCH  29  53
ATOM     53  C   UNL A   1      41.459  24.162  27.379  1.00  0.00     0.064 A 
ATOM     54  C   UNL A   1      42.152  23.174  28.095  1.00  0.00     0.173 A 
ATOM     55  C   UNL A   1      40.389  23.740  26.575  1.00  0.00     0.173 A 
ATOM     56  F   UNL A   1      43.196  23.512  28.866  1.00  0.00    -0.203 F 
ATOM     57  C   UNL A   1      41.808  21.826  27.993  1.00  0.00     0.198 A 
ATOM     58  C   UNL A   1      40.023  22.396  26.501  1.00  0.00     0.198 A 
ATOM     59  F   UNL A   1      39.683  24.636  25.870  1.00  0.00    -0.203 F 
ATOM     60  F   UNL A   1      42.521  20.901  28.652  1.00  0.00    -0.200 F 
ATOM     61  C   UNL A   1      40.739  21.439  27.201  1.00  0.00     0.200 A 
ATOM     62  F   UNL A   1      38.972  22.033  25.754  1.00  0.00    -0.200 F 
ATOM     63  F   UNL A   1      40.401  20.145  27.108  1.00  0.00    -0.200 F 
ENDBRANCH  29  53
BRANCH  41  64
ATOM     64  C   UNL A   1      47.165  27.576  25.327  1.00  0.00     0.064 A 
ATOM     65  C   UNL A   1      47.182  27.803  23.943  1.00  0.00     0.173 A 
ATOM     66  C   UNL A   1      48.299  27.003  25.918  1.00  0.00     0.173 A 
ATOM     67  F   UNL A   1      46.115  28.339  23.333  1.00  0.00    -0.203 F 
ATOM     68  C   UNL A   1      48.287  27.448  23.176  1.00  0.00     0.198 A 
ATOM     69  C   UNL A   1      49.413  26.674  25.151  1.00  0.00     0.198 A 
ATOM     70  F   UNL A   1      48.332  26.776  27.239  1.00  0.00    -0.203 F 
ATOM     71  F   UNL A   1      48.267  27.635  21.849  1.00  0.00    -0.200 F 
ATOM     72  C   UNL A   1      49.403  26.891  23.781  1.00  0.00     0.200 A 
ATOM     73  F   UNL A   1      50.496  26.147  25.738  1.00  0.00    -0.200 F 
ATOM     74  F   UNL A   1      50.470  26.557  23.042  1.00  0.00    -0.200 F 
ENDBRANCH  41  64
ENDBRANCH  15  16
ENDBRANCH   8  10
ENDBRANCH   7   8
ENDBRANCH   6   7
ENDBRANCH   5   6
ENDBRANCH   4   5
ENDBRANCH   3   4
ENDBRANCH   2   3
ENDBRANCH   1   2
BRANCH   1  75
ATOM     75  C   UNL A   1      34.411  31.299  28.137  1.00  0.00     0.202 C 
BRANCH  75  76
ATOM     76  C   UNL A   1      33.942  30.520  26.911  1.00  0.00     0.261 C 
BRANCH  76  77
ATOM     77  O   UNL A   1      32.572  30.838  26.569  1.00  0.00    -0.460 OA
BRANCH  77  78
ATOM     78  C   UNL A   1      31.782  29.769  26.371  1.00  0.00     0.338 C 
ATOM     79  O   UNL A   1      31.532  28.884  27.194  1.00  0.00    -0.246 OA
BRANCH  78  80
ATOM     80  C   UNL A   1      31.167  29.775  25.035  1.00  0.00     0.066 A 
ATOM     81  C   UNL A   1      30.286  30.855  24.823  1.00  0.00     0.016 A 
ATOM     82  C   UNL A   1      31.214  28.681  24.135  1.00  0.00     0.001 A 
ATOM     83  C   UNL A   1      29.395  30.844  23.756  1.00  0.00     0.001 A 
ATOM     84  C   UNL A   1      30.243  28.675  23.109  1.00  0.00     0.008 A 
ATOM     85  C   UNL A   1      29.348  29.736  22.921  1.00  0.00     0.000 A 
BRANCH  82  86
ATOM     86  C   UNL A   1      32.229  27.532  24.144  1.00  0.00     0.197 C 
ATOM     87  S   UNL A   1      33.880  27.976  23.603  1.00  0.00    -0.120 SA
ATOM     88  N   UNL A   1      31.842  26.412  23.308  1.00  0.00    -0.236 N 
ATOM     89  C   UNL A   1      33.655  27.192  21.980  1.00  0.00     0.174 C 
ATOM     90  C   UNL A   1      32.305  26.471  22.001  1.00  0.00     0.252 C 
ATOM     91  O   UNL A   1      31.755  26.017  21.005  1.00  0.00    -0.272 OA
BRANCH  88  92
ATOM     92  N   UNL A   1      30.943  25.471  23.852  1.00  0.00    -0.270 N 
ATOM     93  H   UNL A   1      30.023  25.532  23.506  1.00  0.00     0.191 HD
BRANCH  92  94
ATOM     94  C   UNL A   1      31.139  24.491  24.780  1.00  0.00     0.189 C 
ATOM     95  S   UNL A   1      30.318  24.597  26.236  1.00  0.00    -0.039 S 
BRANCH  94  96
ATOM     96  N   UNL A   1      31.816  23.353  24.556  1.00  0.00    -0.331 N 
ATOM     97  H   UNL A   1      31.266  22.624  24.187  1.00  0.00     0.169 HD
BRANCH  96  98
ATOM     98  C   UNL A   1      33.157  23.015  24.752  1.00  0.00     0.040 A 
ATOM     99  C   UNL A   1      34.007  24.029  25.212  1.00  0.00     0.026 A 
ATOM    100  C   UNL A   1      33.652  21.736  24.516  1.00  0.00     0.026 A 
ATOM    101  C   UNL A   1      35.325  23.731  25.548  1.00  0.00     0.002 A 
ATOM    102  C   UNL A   1      34.989  21.455  24.804  1.00  0.00     0.002 A 
ATOM    103  C   UNL A   1      35.814  22.443  25.348  1.00  0.00     0.000 A 
ENDBRANCH  96  98
ENDBRANCH  94  96
ENDBRANCH  92  94
ENDBRANCH  88  92
ENDBRANCH  82  86
ENDBRANCH  78  80
ENDBRANCH  77  78
ENDBRANCH  76  77
ENDBRANCH  75  76
ENDBRANCH   1  75
TORSDOF 22
ENDMDL
