MODEL 1
REMARK VINA RESULT:     -11.2      0.000      0.000
REMARK SMILES Nc1cc(C(=O)OCCOCCOCCOC(=O)c2ccc(-c3c4nc(c(-c5c(F)c(F)c(F)c(F)c5F)c5ccc([nH]5)c(-c5c(F)c(F)c(F)c(F)c5F)c5nc(c(-c6c(F)c(F)c(F)c(F)c6F)c6ccc3[nH]6)C=C5)C=C4)cc2)c(-c2ccc(F)cc2O)cn1
REMARK SMILES IDX 11 1 10 2 9 3 8 4 7 5 5 6 6 7 4 8 2 9 3 10 92 11 91 12 82 13
REMARK SMILES IDX 1 14 83 17 84 18 89 19 85 20 88 21 86 22 87 23 90 24 12 26
REMARK SMILES IDX 13 27 14 28 15 29 16 30 17 31 18 32 19 33 20 34 81 35 21 36
REMARK SMILES IDX 80 37 22 38 23 39 24 40 74 41 25 42 79 43 73 44 75 45 26 46
REMARK SMILES IDX 78 47 72 48 71 49 27 51 59 52 39 53 58 54 40 55 43 56 57 57
REMARK SMILES IDX 76 58 41 59 42 60 56 62 77 63 44 64 28 65 29 66 37 67 30 68
REMARK SMILES IDX 31 69 35 70 38 71 32 72 33 73 36 74 34 75 60 76 61 77 69 78
REMARK SMILES IDX 62 79 63 80 67 81 70 82 64 83 65 84 68 85 66 86 45 87 46 88
REMARK SMILES IDX 54 89 47 90 48 91 52 92 55 93 49 94 50 95 53 96 51 97
REMARK H PARENT 1 15 1 16 90 25 75 50 43 61
REMARK Flexibility Score: inf
ROOT
ATOM      1  C   UNL A   1      30.044  27.885  23.153  1.00  0.00     0.188 C 
ENDROOT
BRANCH   1   2
ATOM      2  O   UNL A   1      30.686  27.365  22.016  1.00  0.00    -0.376 OA
BRANCH   2   3
ATOM      3  C   UNL A   1      31.978  26.805  22.090  1.00  0.00     0.202 C 
BRANCH   3   4
ATOM      4  C   UNL A   1      32.350  25.328  21.862  1.00  0.00     0.261 C 
BRANCH   4   5
ATOM      5  O   UNL A   1      33.184  24.671  22.820  1.00  0.00    -0.460 OA
BRANCH   5   6
ATOM      6  C   UNL A   1      32.767  23.450  23.247  1.00  0.00     0.339 C 
ATOM      7  O   UNL A   1      32.734  22.427  22.585  1.00  0.00    -0.246 OA
BRANCH   6   8
ATOM      8  C   UNL A   1      32.357  23.513  24.677  1.00  0.00     0.073 A 
ATOM      9  C   UNL A   1      30.674  23.956  26.315  1.00  0.00     0.124 A 
ATOM     10  C   UNL A   1      31.064  23.941  24.989  1.00  0.00     0.062 A 
ATOM     11  N   UNL A   1      31.489  23.577  27.312  1.00  0.00    -0.239 NA
ATOM     12  C   UNL A   1      32.738  23.166  26.995  1.00  0.00     0.123 A 
ATOM     13  C   UNL A   1      33.244  23.133  25.703  1.00  0.00     0.018 A 
BRANCH   9  14
ATOM     14  N   UNL A   1      29.443  24.450  26.684  1.00  0.00    -0.384 N 
ATOM     15  H   UNL A   1      28.651  23.865  26.660  1.00  0.00     0.158 HD
ATOM     16  H   UNL A   1      29.355  25.387  26.973  1.00  0.00     0.158 HD
ENDBRANCH   9  14
BRANCH  13  17
ATOM     17  C   UNL A   1      34.670  22.905  25.458  1.00  0.00     0.026 A 
ATOM     18  C   UNL A   1      35.628  23.910  25.642  1.00  0.00     0.015 A 
ATOM     19  C   UNL A   1      35.120  21.609  25.167  1.00  0.00     0.126 A 
ATOM     20  C   UNL A   1      36.990  23.590  25.643  1.00  0.00     0.040 A 
ATOM     21  C   UNL A   1      36.455  21.263  25.289  1.00  0.00     0.086 A 
ATOM     22  C   UNL A   1      37.385  22.264  25.520  1.00  0.00     0.126 A 
ATOM     23  F   UNL A   1      38.686  21.952  25.579  1.00  0.00    -0.207 F 
BRANCH  19  24
ATOM     24  O   UNL A   1      34.263  20.620  24.777  1.00  0.00    -0.507 OA
ATOM     25  H   UNL A   1      33.347  20.694  24.962  1.00  0.00     0.293 HD
ENDBRANCH  19  24
ENDBRANCH  13  17
ENDBRANCH   6   8
ENDBRANCH   5   6
ENDBRANCH   4   5
ENDBRANCH   3   4
ENDBRANCH   2   3
ENDBRANCH   1   2
BRANCH   1  26
ATOM     26  C   UNL A   1      30.732  27.583  24.501  1.00  0.00     0.188 C 
BRANCH  26  27
ATOM     27  O   UNL A   1      31.496  28.582  25.164  1.00  0.00    -0.376 OA
BRANCH  27  28
ATOM     28  C   UNL A   1      31.075  29.934  25.092  1.00  0.00     0.202 C 
BRANCH  28  29
ATOM     29  C   UNL A   1      31.670  30.944  26.080  1.00  0.00     0.261 C 
BRANCH  29  30
ATOM     30  O   UNL A   1      32.967  30.614  26.600  1.00  0.00    -0.460 OA
BRANCH  30  31
ATOM     31  C   UNL A   1      33.560  31.590  27.331  1.00  0.00     0.338 C 
ATOM     32  O   UNL A   1      33.071  32.661  27.659  1.00  0.00    -0.246 OA
BRANCH  31  33
ATOM     33  C   UNL A   1      34.894  31.156  27.805  1.00  0.00     0.060 A 
ATOM     34  C   UNL A   1      35.073  29.802  28.119  1.00  0.00     0.016 A 
ATOM     35  C   UNL A   1      35.939  32.061  28.012  1.00  0.00     0.016 A 
ATOM     36  C   UNL A   1      36.287  29.351  28.643  1.00  0.00     0.010 A 
ATOM     37  C   UNL A   1      37.147  31.613  28.568  1.00  0.00     0.010 A 
ATOM     38  C   UNL A   1      37.322  30.259  28.905  1.00  0.00    -0.014 A 
BRANCH  38  39
ATOM     39  C   UNL A   1      38.519  29.812  29.666  1.00  0.00     0.031 A 
ATOM     40  C   UNL A   1      38.755  30.369  31.034  1.00  0.00     0.074 A 
ATOM     41  C   UNL A   1      39.385  28.912  29.170  1.00  0.00     0.049 A 
ATOM     42  N   UNL A   1      39.724  30.111  31.874  1.00  0.00    -0.248 NA
ATOM     43  C   UNL A   1      37.772  31.348  31.517  1.00  0.00     0.031 C 
ATOM     44  C   UNL A   1      39.252  28.294  27.866  1.00  0.00     0.029 A 
ATOM     45  N   UNL A   1      40.536  28.363  29.679  1.00  0.00    -0.354 N 
ATOM     46  C   UNL A   1      39.463  30.886  32.991  1.00  0.00     0.074 A 
ATOM     47  C   UNL A   1      38.262  31.647  32.711  1.00  0.00     0.031 C 
ATOM     48  C   UNL A   1      40.268  27.444  27.660  1.00  0.00     0.029 A 
ATOM     49  C   UNL A   1      41.157  27.491  28.815  1.00  0.00     0.049 A 
ATOM     50  H   UNL A   1      40.884  28.573  30.575  1.00  0.00     0.167 HD
ATOM     51  C   UNL A   1      40.164  30.954  34.147  1.00  0.00     0.037 A 
ATOM     52  C   UNL A   1      42.322  26.823  28.924  1.00  0.00     0.037 A 
ATOM     53  C   UNL A   1      41.385  30.235  34.399  1.00  0.00     0.049 A 
ATOM     54  C   UNL A   1      43.131  26.986  30.181  1.00  0.00     0.074 A 
ATOM     55  C   UNL A   1      42.172  30.248  35.537  1.00  0.00     0.029 A 
ATOM     56  N   UNL A   1      42.013  29.393  33.491  1.00  0.00    -0.354 N 
ATOM     57  N   UNL A   1      42.856  27.691  31.251  1.00  0.00    -0.248 NA
ATOM     58  C   UNL A   1      44.409  26.265  30.249  1.00  0.00     0.031 C 
ATOM     59  C   UNL A   1      43.305  29.464  35.295  1.00  0.00     0.029 A 
ATOM     60  C   UNL A   1      43.194  28.906  34.031  1.00  0.00     0.049 A 
ATOM     61  H   UNL A   1      41.669  29.175  32.594  1.00  0.00     0.167 HD
ATOM     62  C   UNL A   1      43.910  27.483  32.128  1.00  0.00     0.074 A 
ATOM     63  C   UNL A   1      44.825  26.572  31.470  1.00  0.00     0.031 C 
ATOM     64  C   UNL A   1      44.098  28.000  33.367  1.00  0.00     0.037 A 
BRANCH  51  65
ATOM     65  C   UNL A   1      39.637  31.884  35.197  1.00  0.00     0.064 A 
ATOM     66  C   UNL A   1      38.771  31.437  36.208  1.00  0.00     0.173 A 
ATOM     67  C   UNL A   1      39.983  33.243  35.179  1.00  0.00     0.173 A 
ATOM     68  F   UNL A   1      38.393  30.150  36.254  1.00  0.00    -0.203 F 
ATOM     69  C   UNL A   1      38.241  32.326  37.139  1.00  0.00     0.198 A 
ATOM     70  C   UNL A   1      39.476  34.122  36.130  1.00  0.00     0.198 A 
ATOM     71  F   UNL A   1      40.804  33.719  34.231  1.00  0.00    -0.203 F 
ATOM     72  F   UNL A   1      37.366  31.891  38.056  1.00  0.00    -0.200 F 
ATOM     73  C   UNL A   1      38.597  33.666  37.102  1.00  0.00     0.200 A 
ATOM     74  F   UNL A   1      39.827  35.415  36.099  1.00  0.00    -0.200 F 
ATOM     75  F   UNL A   1      38.083  34.523  37.995  1.00  0.00    -0.200 F 
ENDBRANCH  51  65
BRANCH  52  76
ATOM     76  C   UNL A   1      42.800  25.956  27.812  1.00  0.00     0.064 A 
ATOM     77  C   UNL A   1      43.673  26.448  26.833  1.00  0.00     0.173 A 
ATOM     78  C   UNL A   1      42.381  24.622  27.697  1.00  0.00     0.173 A 
ATOM     79  F   UNL A   1      44.082  27.725  26.880  1.00  0.00    -0.203 F 
ATOM     80  C   UNL A   1      44.099  25.645  25.776  1.00  0.00     0.198 A 
ATOM     81  C   UNL A   1      42.831  23.810  26.657  1.00  0.00     0.198 A 
ATOM     82  F   UNL A   1      41.538  24.102  28.600  1.00  0.00    -0.203 F 
ATOM     83  F   UNL A   1      44.898  26.155  24.828  1.00  0.00    -0.200 F 
ATOM     84  C   UNL A   1      43.684  24.324  25.693  1.00  0.00     0.200 A 
ATOM     85  F   UNL A   1      42.433  22.533  26.585  1.00  0.00    -0.200 F 
ATOM     86  F   UNL A   1      44.096  23.552  24.678  1.00  0.00    -0.200 F 
ENDBRANCH  52  76
BRANCH  64  87
ATOM     87  C   UNL A   1      45.325  27.562  34.112  1.00  0.00     0.064 A 
ATOM     88  C   UNL A   1      46.539  28.258  34.017  1.00  0.00     0.173 A 
ATOM     89  C   UNL A   1      45.273  26.447  34.965  1.00  0.00     0.173 A 
ATOM     90  F   UNL A   1      46.647  29.318  33.202  1.00  0.00    -0.203 F 
ATOM     91  C   UNL A   1      47.662  27.839  34.726  1.00  0.00     0.198 A 
ATOM     92  C   UNL A   1      46.387  26.052  35.698  1.00  0.00     0.198 A 
ATOM     93  F   UNL A   1      44.134  25.749  35.095  1.00  0.00    -0.203 F 
ATOM     94  F   UNL A   1      48.825  28.488  34.581  1.00  0.00    -0.200 F 
ATOM     95  C   UNL A   1      47.582  26.742  35.573  1.00  0.00     0.200 A 
ATOM     96  F   UNL A   1      46.304  25.000  36.525  1.00  0.00    -0.200 F 
ATOM     97  F   UNL A   1      48.662  26.347  36.262  1.00  0.00    -0.200 F 
ENDBRANCH  64  87
ENDBRANCH  38  39
ENDBRANCH  31  33
ENDBRANCH  30  31
ENDBRANCH  29  30
ENDBRANCH  28  29
ENDBRANCH  27  28
ENDBRANCH  26  27
ENDBRANCH   1  26
TORSDOF 20
ENDMDL
MODEL 2
REMARK VINA RESULT:     -11.1      0.499      7.280
REMARK SMILES Nc1cc(C(=O)OCCOCCOCCOC(=O)c2ccc(-c3c4nc(c(-c5c(F)c(F)c(F)c(F)c5F)c5ccc([nH]5)c(-c5c(F)c(F)c(F)c(F)c5F)c5nc(c(-c6c(F)c(F)c(F)c(F)c6F)c6ccc3[nH]6)C=C5)C=C4)cc2)c(-c2ccc(F)cc2O)cn1
REMARK SMILES IDX 11 1 10 2 9 3 8 4 7 5 5 6 6 7 4 8 2 9 3 10 92 11 91 12 82 13
REMARK SMILES IDX 1 14 83 17 84 18 89 19 85 20 88 21 86 22 87 23 90 24 12 26
REMARK SMILES IDX 13 27 14 28 15 29 16 30 17 31 18 32 19 33 20 34 81 35 21 36
REMARK SMILES IDX 80 37 22 38 23 39 24 40 74 41 25 42 79 43 73 44 75 45 26 46
REMARK SMILES IDX 78 47 72 48 71 49 27 51 59 52 39 53 58 54 40 55 43 56 57 57
REMARK SMILES IDX 76 58 41 59 42 60 56 62 77 63 44 64 28 65 29 66 37 67 30 68
REMARK SMILES IDX 31 69 35 70 38 71 32 72 33 73 36 74 34 75 60 76 61 77 69 78
REMARK SMILES IDX 62 79 63 80 67 81 70 82 64 83 65 84 68 85 66 86 45 87 46 88
REMARK SMILES IDX 54 89 47 90 48 91 52 92 55 93 49 94 50 95 53 96 51 97
REMARK H PARENT 1 15 1 16 90 25 75 50 43 61
REMARK Flexibility Score: inf
ROOT
ATOM      1  C   UNL A   1      30.161  27.840  23.399  1.00  0.00     0.188 C 
ENDROOT
BRANCH   1   2
ATOM      2  O   UNL A   1      30.925  27.577  22.250  1.00  0.00    -0.376 OA
BRANCH   2   3
ATOM      3  C   UNL A   1      32.105  26.806  22.310  1.00  0.00     0.202 C 
BRANCH   3   4
ATOM      4  C   UNL A   1      32.225  25.294  22.042  1.00  0.00     0.261 C 
BRANCH   4   5
ATOM      5  O   UNL A   1      33.187  24.537  22.783  1.00  0.00    -0.460 OA
BRANCH   5   6
ATOM      6  C   UNL A   1      32.774  23.328  23.247  1.00  0.00     0.339 C 
ATOM      7  O   UNL A   1      32.734  22.287  22.612  1.00  0.00    -0.246 OA
BRANCH   6   8
ATOM      8  C   UNL A   1      32.379  23.428  24.679  1.00  0.00     0.073 A 
ATOM      9  C   UNL A   1      30.709  23.897  26.322  1.00  0.00     0.124 A 
ATOM     10  C   UNL A   1      31.084  23.847  24.993  1.00  0.00     0.062 A 
ATOM     11  N   UNL A   1      31.541  23.561  27.321  1.00  0.00    -0.239 NA
ATOM     12  C   UNL A   1      32.793  23.159  27.001  1.00  0.00     0.123 A 
ATOM     13  C   UNL A   1      33.284  23.093  25.706  1.00  0.00     0.018 A 
BRANCH   9  14
ATOM     14  N   UNL A   1      29.475  24.384  26.691  1.00  0.00    -0.384 N 
ATOM     15  H   UNL A   1      28.888  23.847  27.271  1.00  0.00     0.158 HD
ATOM     16  H   UNL A   1      29.181  25.268  26.375  1.00  0.00     0.158 HD
ENDBRANCH   9  14
BRANCH  13  17
ATOM     17  C   UNL A   1      34.711  22.878  25.451  1.00  0.00     0.026 A 
ATOM     18  C   UNL A   1      35.656  23.899  25.602  1.00  0.00     0.015 A 
ATOM     19  C   UNL A   1      35.174  21.582  25.183  1.00  0.00     0.126 A 
ATOM     20  C   UNL A   1      37.023  23.598  25.596  1.00  0.00     0.040 A 
ATOM     21  C   UNL A   1      36.515  21.257  25.299  1.00  0.00     0.086 A 
ATOM     22  C   UNL A   1      37.434  22.274  25.498  1.00  0.00     0.126 A 
ATOM     23  F   UNL A   1      38.739  21.981  25.550  1.00  0.00    -0.207 F 
BRANCH  19  24
ATOM     24  O   UNL A   1      34.327  20.574  24.824  1.00  0.00    -0.507 OA
ATOM     25  H   UNL A   1      33.406  20.658  24.980  1.00  0.00     0.293 HD
ENDBRANCH  19  24
ENDBRANCH  13  17
ENDBRANCH   6   8
ENDBRANCH   5   6
ENDBRANCH   4   5
ENDBRANCH   3   4
ENDBRANCH   2   3
ENDBRANCH   1   2
BRANCH   1  26
ATOM     26  C   UNL A   1      30.818  27.449  24.740  1.00  0.00     0.188 C 
BRANCH  26  27
ATOM     27  O   UNL A   1      31.390  28.442  25.582  1.00  0.00    -0.376 OA
BRANCH  27  28
ATOM     28  C   UNL A   1      31.208  29.809  25.258  1.00  0.00     0.202 C 
BRANCH  28  29
ATOM     29  C   UNL A   1      31.758  30.872  26.216  1.00  0.00     0.261 C 
BRANCH  29  30
ATOM     30  O   UNL A   1      33.176  30.830  26.443  1.00  0.00    -0.460 OA
BRANCH  30  31
ATOM     31  C   UNL A   1      33.653  31.775  27.290  1.00  0.00     0.338 C 
ATOM     32  O   UNL A   1      33.086  32.801  27.639  1.00  0.00    -0.246 OA
BRANCH  31  33
ATOM     33  C   UNL A   1      34.954  31.361  27.863  1.00  0.00     0.060 A 
ATOM     34  C   UNL A   1      35.099  30.030  28.274  1.00  0.00     0.016 A 
ATOM     35  C   UNL A   1      35.999  32.269  28.064  1.00  0.00     0.016 A 
ATOM     36  C   UNL A   1      36.278  29.603  28.891  1.00  0.00     0.010 A 
ATOM     37  C   UNL A   1      37.170  31.847  28.711  1.00  0.00     0.010 A 
ATOM     38  C   UNL A   1      37.309  30.517  29.146  1.00  0.00    -0.014 A 
BRANCH  38  39
ATOM     39  C   UNL A   1      38.460  30.111  29.998  1.00  0.00     0.031 A 
ATOM     40  C   UNL A   1      39.453  29.135  29.454  1.00  0.00     0.074 A 
ATOM     41  C   UNL A   1      38.642  30.609  31.233  1.00  0.00     0.049 A 
ATOM     42  N   UNL A   1      40.532  28.655  30.018  1.00  0.00    -0.248 NA
ATOM     43  C   UNL A   1      39.196  28.630  28.099  1.00  0.00     0.031 C 
ATOM     44  C   UNL A   1      37.756  31.570  31.857  1.00  0.00     0.029 A 
ATOM     45  N   UNL A   1      39.608  30.385  32.183  1.00  0.00    -0.354 N 
ATOM     46  C   UNL A   1      41.090  27.800  29.082  1.00  0.00     0.074 A 
ATOM     47  C   UNL A   1      40.216  27.802  27.927  1.00  0.00     0.031 C 
ATOM     48  C   UNL A   1      38.204  31.870  33.085  1.00  0.00     0.029 A 
ATOM     49  C   UNL A   1      39.400  31.080  33.352  1.00  0.00     0.049 A 
ATOM     50  H   UNL A   1      40.375  29.785  32.042  1.00  0.00     0.167 HD
ATOM     51  C   UNL A   1      42.231  27.079  29.182  1.00  0.00     0.037 A 
ATOM     52  C   UNL A   1      40.077  31.066  34.516  1.00  0.00     0.037 A 
ATOM     53  C   UNL A   1      43.068  27.040  30.352  1.00  0.00     0.049 A 
ATOM     54  C   UNL A   1      41.290  30.186  34.635  1.00  0.00     0.074 A 
ATOM     55  C   UNL A   1      44.239  26.330  30.550  1.00  0.00     0.029 A 
ATOM     56  N   UNL A   1      42.810  27.720  31.535  1.00  0.00    -0.354 N 
ATOM     57  N   UNL A   1      41.835  29.409  33.730  1.00  0.00    -0.248 NA
ATOM     58  C   UNL A   1      41.982  30.176  35.931  1.00  0.00     0.031 C 
ATOM     59  C   UNL A   1      44.656  26.532  31.871  1.00  0.00     0.029 A 
ATOM     60  C   UNL A   1      43.783  27.421  32.477  1.00  0.00     0.049 A 
ATOM     61  H   UNL A   1      42.047  28.325  31.684  1.00  0.00     0.167 HD
ATOM     62  C   UNL A   1      42.944  28.838  34.335  1.00  0.00     0.074 A 
ATOM     63  C   UNL A   1      43.004  29.369  35.682  1.00  0.00     0.031 C 
ATOM     64  C   UNL A   1      43.833  27.955  33.816  1.00  0.00     0.037 A 
BRANCH  51  65
ATOM     65  C   UNL A   1      42.597  26.237  27.997  1.00  0.00     0.064 A 
ATOM     66  C   UNL A   1      43.484  26.700  27.013  1.00  0.00     0.173 A 
ATOM     67  C   UNL A   1      42.037  24.963  27.833  1.00  0.00     0.173 A 
ATOM     68  F   UNL A   1      44.030  27.922  27.114  1.00  0.00    -0.203 F 
ATOM     69  C   UNL A   1      43.766  25.931  25.887  1.00  0.00     0.198 A 
ATOM     70  C   UNL A   1      42.346  24.184  26.722  1.00  0.00     0.198 A 
ATOM     71  F   UNL A   1      41.181  24.478  28.745  1.00  0.00    -0.203 F 
ATOM     72  F   UNL A   1      44.566  26.417  24.927  1.00  0.00    -0.200 F 
ATOM     73  C   UNL A   1      43.201  24.672  25.745  1.00  0.00     0.200 A 
ATOM     74  F   UNL A   1      41.805  22.965  26.590  1.00  0.00    -0.200 F 
ATOM     75  F   UNL A   1      43.468  23.934  24.659  1.00  0.00    -0.200 F 
ENDBRANCH  51  65
BRANCH  52  76
ATOM     76  C   UNL A   1      39.617  31.896  35.664  1.00  0.00     0.064 A 
ATOM     77  C   UNL A   1      38.627  31.435  36.542  1.00  0.00     0.173 A 
ATOM     78  C   UNL A   1      40.148  33.174  35.897  1.00  0.00     0.173 A 
ATOM     79  F   UNL A   1      38.066  30.232  36.347  1.00  0.00    -0.203 F 
ATOM     80  C   UNL A   1      38.176  32.223  37.600  1.00  0.00     0.198 A 
ATOM     81  C   UNL A   1      39.719  33.949  36.974  1.00  0.00     0.198 A 
ATOM     82  F   UNL A   1      41.090  33.669  35.083  1.00  0.00    -0.203 F 
ATOM     83  F   UNL A   1      37.195  31.776  38.396  1.00  0.00    -0.200 F 
ATOM     84  C   UNL A   1      38.728  33.476  37.820  1.00  0.00     0.200 A 
ATOM     85  F   UNL A   1      40.259  35.157  37.187  1.00  0.00    -0.200 F 
ATOM     86  F   UNL A   1      38.296  34.232  38.839  1.00  0.00    -0.200 F 
ENDBRANCH  52  76
BRANCH  64  87
ATOM     87  C   UNL A   1      44.973  27.534  34.698  1.00  0.00     0.064 A 
ATOM     88  C   UNL A   1      46.186  28.237  34.728  1.00  0.00     0.173 A 
ATOM     89  C   UNL A   1      44.833  26.429  35.553  1.00  0.00     0.173 A 
ATOM     90  F   UNL A   1      46.378  29.288  33.918  1.00  0.00    -0.203 F 
ATOM     91  C   UNL A   1      47.226  27.834  35.562  1.00  0.00     0.198 A 
ATOM     92  C   UNL A   1      45.861  26.049  36.409  1.00  0.00     0.198 A 
ATOM     93  F   UNL A   1      43.690  25.724  35.565  1.00  0.00    -0.203 F 
ATOM     94  F   UNL A   1      48.394  28.489  35.539  1.00  0.00    -0.200 F 
ATOM     95  C   UNL A   1      47.059  26.747  36.409  1.00  0.00     0.200 A 
ATOM     96  F   UNL A   1      45.693  25.007  37.235  1.00  0.00    -0.200 F 
ATOM     97  F   UNL A   1      48.058  26.367  37.218  1.00  0.00    -0.200 F 
ENDBRANCH  64  87
ENDBRANCH  38  39
ENDBRANCH  31  33
ENDBRANCH  30  31
ENDBRANCH  29  30
ENDBRANCH  28  29
ENDBRANCH  27  28
ENDBRANCH  26  27
ENDBRANCH   1  26
TORSDOF 20
ENDMDL
MODEL 3
REMARK VINA RESULT:     -11.1      2.022      7.754
REMARK SMILES Nc1cc(C(=O)OCCOCCOCCOC(=O)c2ccc(-c3c4nc(c(-c5c(F)c(F)c(F)c(F)c5F)c5ccc([nH]5)c(-c5c(F)c(F)c(F)c(F)c5F)c5nc(c(-c6c(F)c(F)c(F)c(F)c6F)c6ccc3[nH]6)C=C5)C=C4)cc2)c(-c2ccc(F)cc2O)cn1
REMARK SMILES IDX 11 1 10 2 9 3 8 4 7 5 5 6 6 7 4 8 2 9 3 10 92 11 91 12 82 13
REMARK SMILES IDX 1 14 83 17 84 18 89 19 85 20 88 21 86 22 87 23 90 24 12 26
REMARK SMILES IDX 13 27 14 28 15 29 16 30 17 31 18 32 19 33 20 34 81 35 21 36
REMARK SMILES IDX 80 37 22 38 23 39 24 40 74 41 25 42 79 43 73 44 75 45 26 46
REMARK SMILES IDX 78 47 72 48 71 49 27 51 59 52 39 53 58 54 40 55 43 56 57 57
REMARK SMILES IDX 76 58 41 59 42 60 56 62 77 63 44 64 28 65 29 66 37 67 30 68
REMARK SMILES IDX 31 69 35 70 38 71 32 72 33 73 36 74 34 75 60 76 61 77 69 78
REMARK SMILES IDX 62 79 63 80 67 81 70 82 64 83 65 84 68 85 66 86 45 87 46 88
REMARK SMILES IDX 54 89 47 90 48 91 52 92 55 93 49 94 50 95 53 96 51 97
REMARK H PARENT 1 15 1 16 90 25 75 50 43 61
REMARK Flexibility Score: inf
ROOT
ATOM      1  C   UNL A   1      30.946  26.046  25.825  1.00  0.00     0.188 C 
ENDROOT
BRANCH   1   2
ATOM      2  O   UNL A   1      31.220  24.756  25.340  1.00  0.00    -0.376 OA
BRANCH   2   3
ATOM      3  C   UNL A   1      31.350  23.653  26.210  1.00  0.00     0.202 C 
BRANCH   3   4
ATOM      4  C   UNL A   1      32.342  22.484  26.064  1.00  0.00     0.261 C 
BRANCH   4   5
ATOM      5  O   UNL A   1      31.982  21.373  25.238  1.00  0.00    -0.460 OA
BRANCH   5   6
ATOM      6  C   UNL A   1      32.653  21.252  24.063  1.00  0.00     0.339 C 
ATOM      7  O   UNL A   1      32.161  21.252  22.948  1.00  0.00    -0.246 OA
BRANCH   6   8
ATOM      8  C   UNL A   1      34.116  21.132  24.311  1.00  0.00     0.073 A 
ATOM      9  C   UNL A   1      36.270  22.160  24.444  1.00  0.00     0.124 A 
ATOM     10  C   UNL A   1      34.919  22.267  24.172  1.00  0.00     0.062 A 
ATOM     11  N   UNL A   1      36.838  21.008  24.835  1.00  0.00    -0.239 NA
ATOM     12  C   UNL A   1      36.049  19.917  24.964  1.00  0.00     0.123 A 
ATOM     13  C   UNL A   1      34.688  19.902  24.694  1.00  0.00     0.018 A 
BRANCH   9  14
ATOM     14  N   UNL A   1      37.119  23.223  24.240  1.00  0.00    -0.384 N 
ATOM     15  H   UNL A   1      37.219  23.607  23.339  1.00  0.00     0.158 HD
ATOM     16  H   UNL A   1      37.626  23.599  24.995  1.00  0.00     0.158 HD
ENDBRANCH   9  14
BRANCH  13  17
ATOM     17  C   UNL A   1      33.947  18.641  24.628  1.00  0.00     0.026 A 
ATOM     18  C   UNL A   1      34.039  17.780  23.527  1.00  0.00     0.015 A 
ATOM     19  C   UNL A   1      33.231  18.203  25.751  1.00  0.00     0.126 A 
ATOM     20  C   UNL A   1      33.522  16.482  23.606  1.00  0.00     0.040 A 
ATOM     21  C   UNL A   1      32.828  16.885  25.882  1.00  0.00     0.086 A 
ATOM     22  C   UNL A   1      32.970  16.033  24.799  1.00  0.00     0.126 A 
ATOM     23  F   UNL A   1      32.529  14.772  24.891  1.00  0.00    -0.207 F 
BRANCH  19  24
ATOM     24  O   UNL A   1      32.920  19.045  26.781  1.00  0.00    -0.507 OA
ATOM     25  H   UNL A   1      33.480  19.092  27.531  1.00  0.00     0.293 HD
ENDBRANCH  19  24
ENDBRANCH  13  17
ENDBRANCH   6   8
ENDBRANCH   5   6
ENDBRANCH   4   5
ENDBRANCH   3   4
ENDBRANCH   2   3
ENDBRANCH   1   2
BRANCH   1  26
ATOM     26  C   UNL A   1      30.601  27.101  24.753  1.00  0.00     0.188 C 
BRANCH  26  27
ATOM     27  O   UNL A   1      31.536  28.115  24.408  1.00  0.00    -0.376 OA
BRANCH  27  28
ATOM     28  C   UNL A   1      31.203  29.471  24.648  1.00  0.00     0.202 C 
BRANCH  28  29
ATOM     29  C   UNL A   1      31.649  30.116  25.965  1.00  0.00     0.261 C 
BRANCH  29  30
ATOM     30  O   UNL A   1      33.068  30.262  26.136  1.00  0.00    -0.460 OA
BRANCH  30  31
ATOM     31  C   UNL A   1      33.448  31.253  26.980  1.00  0.00     0.338 C 
ATOM     32  O   UNL A   1      32.790  32.229  27.309  1.00  0.00    -0.246 OA
BRANCH  31  33
ATOM     33  C   UNL A   1      34.772  30.960  27.574  1.00  0.00     0.060 A 
ATOM     34  C   UNL A   1      35.093  29.621  27.838  1.00  0.00     0.016 A 
ATOM     35  C   UNL A   1      35.664  31.973  27.939  1.00  0.00     0.016 A 
ATOM     36  C   UNL A   1      36.296  29.293  28.468  1.00  0.00     0.010 A 
ATOM     37  C   UNL A   1      36.857  31.645  28.599  1.00  0.00     0.010 A 
ATOM     38  C   UNL A   1      37.172  30.304  28.885  1.00  0.00    -0.014 A 
BRANCH  38  39
ATOM     39  C   UNL A   1      38.334  29.963  29.750  1.00  0.00     0.031 A 
ATOM     40  C   UNL A   1      39.357  29.001  29.239  1.00  0.00     0.074 A 
ATOM     41  C   UNL A   1      38.500  30.507  30.968  1.00  0.00     0.049 A 
ATOM     42  N   UNL A   1      40.450  28.574  29.818  1.00  0.00    -0.248 NA
ATOM     43  C   UNL A   1      39.117  28.443  27.901  1.00  0.00     0.031 C 
ATOM     44  C   UNL A   1      37.584  31.460  31.560  1.00  0.00     0.029 A 
ATOM     45  N   UNL A   1      39.471  30.345  31.924  1.00  0.00    -0.354 N 
ATOM     46  C   UNL A   1      41.035  27.706  28.911  1.00  0.00     0.074 A 
ATOM     47  C   UNL A   1      40.161  27.642  27.757  1.00  0.00     0.031 C 
ATOM     48  C   UNL A   1      38.022  31.815  32.777  1.00  0.00     0.029 A 
ATOM     49  C   UNL A   1      39.241  31.072  33.069  1.00  0.00     0.049 A 
ATOM     50  H   UNL A   1      40.257  29.765  31.803  1.00  0.00     0.167 HD
ATOM     51  C   UNL A   1      42.198  27.024  29.034  1.00  0.00     0.037 A 
ATOM     52  C   UNL A   1      39.918  31.118  34.234  1.00  0.00     0.037 A 
ATOM     53  C   UNL A   1      43.035  27.050  30.205  1.00  0.00     0.049 A 
ATOM     54  C   UNL A   1      41.158  30.281  34.381  1.00  0.00     0.074 A 
ATOM     55  C   UNL A   1      44.227  26.384  30.425  1.00  0.00     0.029 A 
ATOM     56  N   UNL A   1      42.755  27.761  31.364  1.00  0.00    -0.354 N 
ATOM     57  N   UNL A   1      41.727  29.491  33.503  1.00  0.00    -0.248 NA
ATOM     58  C   UNL A   1      41.849  30.335  35.676  1.00  0.00     0.031 C 
ATOM     59  C   UNL A   1      44.636  26.643  31.738  1.00  0.00     0.029 A 
ATOM     60  C   UNL A   1      43.736  27.524  32.316  1.00  0.00     0.049 A 
ATOM     61  H   UNL A   1      41.973  28.346  31.493  1.00  0.00     0.167 HD
ATOM     62  C   UNL A   1      42.853  28.975  34.125  1.00  0.00     0.074 A 
ATOM     63  C   UNL A   1      42.896  29.552  35.453  1.00  0.00     0.031 C 
ATOM     64  C   UNL A   1      43.769  28.103  33.636  1.00  0.00     0.037 A 
BRANCH  51  65
ATOM     65  C   UNL A   1      42.591  26.155  27.878  1.00  0.00     0.064 A 
ATOM     66  C   UNL A   1      43.475  26.606  26.886  1.00  0.00     0.173 A 
ATOM     67  C   UNL A   1      42.058  24.864  27.748  1.00  0.00     0.173 A 
ATOM     68  F   UNL A   1      43.994  27.842  26.954  1.00  0.00    -0.203 F 
ATOM     69  C   UNL A   1      43.782  25.810  25.786  1.00  0.00     0.198 A 
ATOM     70  C   UNL A   1      42.392  24.060  26.664  1.00  0.00     0.198 A 
ATOM     71  F   UNL A   1      41.206  24.389  28.668  1.00  0.00    -0.203 F 
ATOM     72  F   UNL A   1      44.578  26.284  24.818  1.00  0.00    -0.200 F 
ATOM     73  C   UNL A   1      43.244  24.536  25.678  1.00  0.00     0.200 A 
ATOM     74  F   UNL A   1      41.878  22.826  26.565  1.00  0.00    -0.200 F 
ATOM     75  F   UNL A   1      43.535  23.772  24.617  1.00  0.00    -0.200 F 
ENDBRANCH  51  65
BRANCH  52  76
ATOM     76  C   UNL A   1      39.431  31.971  35.353  1.00  0.00     0.064 A 
ATOM     77  C   UNL A   1      39.857  33.299  35.491  1.00  0.00     0.173 A 
ATOM     78  C   UNL A   1      38.541  31.471  36.316  1.00  0.00     0.173 A 
ATOM     79  F   UNL A   1      40.729  33.818  34.614  1.00  0.00    -0.203 F 
ATOM     80  C   UNL A   1      39.422  34.089  36.555  1.00  0.00     0.198 A 
ATOM     81  C   UNL A   1      38.084  32.271  37.361  1.00  0.00     0.198 A 
ATOM     82  F   UNL A   1      38.109  30.204  36.238  1.00  0.00    -0.203 F 
ATOM     83  F   UNL A   1      39.882  35.341  36.689  1.00  0.00    -0.200 F 
ATOM     84  C   UNL A   1      38.530  33.577  37.485  1.00  0.00     0.200 A 
ATOM     85  F   UNL A   1      37.216  31.774  38.254  1.00  0.00    -0.200 F 
ATOM     86  F   UNL A   1      38.111  34.339  38.505  1.00  0.00    -0.200 F 
ENDBRANCH  52  76
BRANCH  64  87
ATOM     87  C   UNL A   1      44.921  27.747  34.531  1.00  0.00     0.064 A 
ATOM     88  C   UNL A   1      44.852  26.681  35.440  1.00  0.00     0.173 A 
ATOM     89  C   UNL A   1      46.125  28.463  34.448  1.00  0.00     0.173 A 
ATOM     90  F   UNL A   1      43.718  25.978  35.571  1.00  0.00    -0.203 F 
ATOM     91  C   UNL A   1      45.937  26.363  36.252  1.00  0.00     0.198 A 
ATOM     92  C   UNL A   1      47.219  28.121  35.237  1.00  0.00     0.198 A 
ATOM     93  F   UNL A   1      46.245  29.489  33.591  1.00  0.00    -0.203 F 
ATOM     94  F   UNL A   1      45.833  25.374  37.149  1.00  0.00    -0.200 F 
ATOM     95  C   UNL A   1      47.123  27.076  36.143  1.00  0.00     0.200 A 
ATOM     96  F   UNL A   1      48.367  28.803  35.120  1.00  0.00    -0.200 F 
ATOM     97  F   UNL A   1      48.169  26.761  36.919  1.00  0.00    -0.200 F 
ENDBRANCH  64  87
ENDBRANCH  38  39
ENDBRANCH  31  33
ENDBRANCH  30  31
ENDBRANCH  29  30
ENDBRANCH  28  29
ENDBRANCH  27  28
ENDBRANCH  26  27
ENDBRANCH   1  26
TORSDOF 20
ENDMDL
