MODEL 1
REMARK VINA RESULT:     -10.5      0.000      0.000
REMARK SMILES C[C@@](O)(CNC(=O)c1ccc(Br)cc1N)CC(=O)OCCOCCOCCOC(=O)c1ccc(-c2c3nc(c(-c4c(F)c(F)c(F)c(F)c4F)c4ccc([nH]4)c(-c4c(F)c(F)c(F)c(F)c4F)c4nc(c(-c5c(F)c(F)c(F)c(F)c5F)c5ccc2[nH]5)C=C4)C=C3)cc1
REMARK SMILES IDX 22 1 21 2 20 3 19 4 17 5 18 6 16 7 2 8 1 9 3 10 4 12 5 13
REMARK SMILES IDX 6 14 7 16 8 17 9 18 14 19 10 20 13 21 11 22 12 23 15 24
REMARK SMILES IDX 23 27 24 28 25 29 26 30 27 31 28 32 29 33 30 34 31 35 32 36
REMARK SMILES IDX 93 37 33 38 92 39 34 40 35 41 36 42 86 43 37 44 91 45 85 46
REMARK SMILES IDX 87 47 38 48 90 49 84 50 83 51 39 53 71 54 51 55 70 56 52 57
REMARK SMILES IDX 55 58 69 59 88 60 53 61 54 62 68 64 89 65 56 66 40 67 41 68
REMARK SMILES IDX 49 69 42 70 43 71 47 72 50 73 44 74 45 75 48 76 46 77 72 78
REMARK SMILES IDX 73 79 81 80 74 81 75 82 79 83 82 84 76 85 77 86 80 87 78 88
REMARK SMILES IDX 57 89 58 90 66 91 59 92 60 93 64 94 67 95 61 96 62 97 65 98
REMARK SMILES IDX 63 99
REMARK H PARENT 3 11 5 15 15 25 15 26 87 52 55 63
REMARK Flexibility Score: inf
ROOT
ATOM      1  O   UNL A   1      37.959  21.213  25.986  1.00  0.00    -0.376 OA
ENDROOT
BRANCH   1   2
ATOM      2  C   UNL A   1      37.520  20.927  24.657  1.00  0.00     0.202 C 
BRANCH   2   3
ATOM      3  C   UNL A   1      36.994  22.126  23.856  1.00  0.00     0.261 C 
BRANCH   3   4
ATOM      4  O   UNL A   1      35.554  22.301  23.885  1.00  0.00    -0.463 OA
BRANCH   4   5
ATOM      5  C   UNL A   1      35.121  23.468  24.425  1.00  0.00     0.308 C 
ATOM      6  O   UNL A   1      34.779  24.450  23.768  1.00  0.00    -0.252 OA
BRANCH   5   7
ATOM      7  C   UNL A   1      34.851  23.430  25.915  1.00  0.00     0.159 C 
BRANCH   7   8
ATOM      8  C   UNL A   1      34.037  22.346  26.638  1.00  0.00     0.090 C 
ATOM      9  C   UNL A   1      33.936  22.573  28.141  1.00  0.00     0.044 C 
BRANCH   8  10
ATOM     10  O   UNL A   1      34.822  21.123  26.517  1.00  0.00    -0.388 OA
ATOM     11  H   UNL A   1      35.614  21.191  27.072  1.00  0.00     0.211 HD
ENDBRANCH   8  10
BRANCH   8  12
ATOM     12  C   UNL A   1      32.674  21.975  26.021  1.00  0.00     0.151 C 
BRANCH  12  13
ATOM     13  N   UNL A   1      31.476  22.315  26.771  1.00  0.00    -0.349 N 
ATOM     14  C   UNL A   1      30.555  23.309  26.513  1.00  0.00     0.253 C 
ATOM     15  H   UNL A   1      31.301  21.764  27.569  1.00  0.00     0.163 HD
ATOM     16  O   UNL A   1      29.586  23.477  27.248  1.00  0.00    -0.269 OA
BRANCH  14  17
ATOM     17  C   UNL A   1      30.803  24.226  25.377  1.00  0.00     0.062 A 
ATOM     18  C   UNL A   1      30.689  23.735  24.070  1.00  0.00     0.017 A 
ATOM     19  C   UNL A   1      31.277  25.526  25.624  1.00  0.00     0.045 A 
ATOM     20  C   UNL A   1      31.192  24.483  23.008  1.00  0.00     0.016 A 
ATOM     21  C   UNL A   1      31.826  26.239  24.557  1.00  0.00     0.042 A 
ATOM     22  C   UNL A   1      31.791  25.715  23.263  1.00  0.00     0.020 A 
ATOM     23  Br  UNL A   1      32.578  26.684  21.843  1.00  0.00    -0.051 Br
BRANCH  19  24
ATOM     24  N   UNL A   1      31.297  26.083  26.894  1.00  0.00    -0.398 N 
ATOM     25  H   UNL A   1      32.061  26.635  27.176  1.00  0.00     0.156 HD
ATOM     26  H   UNL A   1      30.546  25.928  27.511  1.00  0.00     0.156 HD
ENDBRANCH  19  24
ENDBRANCH  14  17
ENDBRANCH  12  13
ENDBRANCH   8  12
ENDBRANCH   7   8
ENDBRANCH   5   7
ENDBRANCH   4   5
ENDBRANCH   3   4
ENDBRANCH   2   3
ENDBRANCH   1   2
BRANCH   1  27
ATOM     27  C   UNL A   1      38.716  22.405  26.130  1.00  0.00     0.188 C 
BRANCH  27  28
ATOM     28  C   UNL A   1      40.151  22.228  26.640  1.00  0.00     0.188 C 
BRANCH  28  29
ATOM     29  O   UNL A   1      41.023  21.458  25.821  1.00  0.00    -0.376 OA
BRANCH  29  30
ATOM     30  C   UNL A   1      42.420  21.493  26.138  1.00  0.00     0.202 C 
BRANCH  30  31
ATOM     31  C   UNL A   1      43.332  22.312  25.212  1.00  0.00     0.261 C 
BRANCH  31  32
ATOM     32  O   UNL A   1      42.917  23.679  25.012  1.00  0.00    -0.460 OA
BRANCH  32  33
ATOM     33  C   UNL A   1      43.796  24.675  25.293  1.00  0.00     0.338 C 
ATOM     34  O   UNL A   1      44.752  25.010  24.627  1.00  0.00    -0.246 OA
BRANCH  33  35
ATOM     35  C   UNL A   1      43.203  25.491  26.397  1.00  0.00     0.060 A 
ATOM     36  C   UNL A   1      42.140  25.013  27.173  1.00  0.00     0.016 A 
ATOM     37  C   UNL A   1      43.618  26.824  26.539  1.00  0.00     0.016 A 
ATOM     38  C   UNL A   1      41.504  25.857  28.086  1.00  0.00     0.010 A 
ATOM     39  C   UNL A   1      42.983  27.669  27.458  1.00  0.00     0.010 A 
ATOM     40  C   UNL A   1      41.932  27.185  28.252  1.00  0.00    -0.014 A 
BRANCH  40  41
ATOM     41  C   UNL A   1      41.438  27.973  29.408  1.00  0.00     0.031 A 
ATOM     42  C   UNL A   1      40.259  28.896  29.328  1.00  0.00     0.074 A 
ATOM     43  C   UNL A   1      42.112  27.843  30.567  1.00  0.00     0.049 A 
ATOM     44  N   UNL A   1      39.696  29.586  30.290  1.00  0.00    -0.248 NA
ATOM     45  C   UNL A   1      39.636  29.081  28.011  1.00  0.00     0.031 C 
ATOM     46  C   UNL A   1      43.300  27.007  30.749  1.00  0.00     0.029 A 
ATOM     47  N   UNL A   1      41.904  28.404  31.799  1.00  0.00    -0.354 N 
ATOM     48  C   UNL A   1      38.642  30.274  29.703  1.00  0.00     0.074 A 
ATOM     49  C   UNL A   1      38.669  29.949  28.291  1.00  0.00     0.031 C 
ATOM     50  C   UNL A   1      43.706  27.095  32.022  1.00  0.00     0.029 A 
ATOM     51  C   UNL A   1      42.822  28.009  32.739  1.00  0.00     0.049 A 
ATOM     52  H   UNL A   1      41.168  29.027  31.992  1.00  0.00     0.167 HD
ATOM     53  C   UNL A   1      37.733  31.085  30.299  1.00  0.00     0.037 A 
ATOM     54  C   UNL A   1      42.945  28.340  34.037  1.00  0.00     0.037 A 
ATOM     55  C   UNL A   1      37.717  31.405  31.707  1.00  0.00     0.049 A 
ATOM     56  C   UNL A   1      41.934  29.257  34.662  1.00  0.00     0.074 A 
ATOM     57  C   UNL A   1      36.791  32.163  32.406  1.00  0.00     0.029 A 
ATOM     58  N   UNL A   1      38.673  31.003  32.628  1.00  0.00    -0.354 N 
ATOM     59  N   UNL A   1      40.886  29.822  34.117  1.00  0.00    -0.248 NA
ATOM     60  C   UNL A   1      42.117  29.573  36.086  1.00  0.00     0.031 C 
ATOM     61  C   UNL A   1      37.216  32.265  33.735  1.00  0.00     0.029 A 
ATOM     62  C   UNL A   1      38.378  31.527  33.879  1.00  0.00     0.049 A 
ATOM     63  H   UNL A   1      39.448  30.431  32.424  1.00  0.00     0.167 HD
ATOM     64  C   UNL A   1      40.274  30.544  35.132  1.00  0.00     0.074 A 
ATOM     65  C   UNL A   1      41.057  30.330  36.331  1.00  0.00     0.031 C 
ATOM     66  C   UNL A   1      39.163  31.317  35.068  1.00  0.00     0.037 A 
BRANCH  53  67
ATOM     67  C   UNL A   1      36.649  31.686  29.451  1.00  0.00     0.064 A 
ATOM     68  C   UNL A   1      35.563  30.916  29.010  1.00  0.00     0.173 A 
ATOM     69  C   UNL A   1      36.620  33.066  29.199  1.00  0.00     0.173 A 
ATOM     70  F   UNL A   1      35.540  29.594  29.230  1.00  0.00    -0.203 F 
ATOM     71  C   UNL A   1      34.490  31.506  28.344  1.00  0.00     0.198 A 
ATOM     72  C   UNL A   1      35.535  33.656  28.555  1.00  0.00     0.198 A 
ATOM     73  F   UNL A   1      37.626  33.851  29.615  1.00  0.00    -0.203 F 
ATOM     74  F   UNL A   1      33.466  30.749  27.925  1.00  0.00    -0.200 F 
ATOM     75  C   UNL A   1      34.471  32.875  28.128  1.00  0.00     0.200 A 
ATOM     76  F   UNL A   1      35.509  34.983  28.366  1.00  0.00    -0.200 F 
ATOM     77  F   UNL A   1      33.424  33.446  27.516  1.00  0.00    -0.200 F 
ENDBRANCH  53  67
BRANCH  54  78
ATOM     78  C   UNL A   1      44.053  27.758  34.833  1.00  0.00     0.064 A 
ATOM     79  C   UNL A   1      45.256  28.457  35.004  1.00  0.00     0.173 A 
ATOM     80  C   UNL A   1      43.920  26.514  35.466  1.00  0.00     0.173 A 
ATOM     81  F   UNL A   1      45.431  29.644  34.407  1.00  0.00    -0.203 F 
ATOM     82  C   UNL A   1      46.289  27.926  35.772  1.00  0.00     0.198 A 
ATOM     83  C   UNL A   1      44.943  25.998  36.257  1.00  0.00     0.198 A 
ATOM     84  F   UNL A   1      42.782  25.815  35.341  1.00  0.00    -0.203 F 
ATOM     85  F   UNL A   1      47.441  28.599  35.896  1.00  0.00    -0.200 F 
ATOM     86  C   UNL A   1      46.129  26.702  36.404  1.00  0.00     0.200 A 
ATOM     87  F   UNL A   1      44.776  24.825  36.881  1.00  0.00    -0.200 F 
ATOM     88  F   UNL A   1      47.118  26.199  37.153  1.00  0.00    -0.200 F 
ENDBRANCH  54  78
BRANCH  66  89
ATOM     89  C   UNL A   1      38.716  31.991  36.333  1.00  0.00     0.064 A 
ATOM     90  C   UNL A   1      39.070  33.319  36.618  1.00  0.00     0.173 A 
ATOM     91  C   UNL A   1      37.881  31.326  37.243  1.00  0.00     0.173 A 
ATOM     92  F   UNL A   1      39.881  33.994  35.789  1.00  0.00    -0.203 F 
ATOM     93  C   UNL A   1      38.616  33.948  37.774  1.00  0.00     0.198 A 
ATOM     94  C   UNL A   1      37.405  31.967  38.383  1.00  0.00     0.198 A 
ATOM     95  F   UNL A   1      37.510  30.056  37.015  1.00  0.00    -0.203 F 
ATOM     96  F   UNL A   1      38.999  35.205  38.045  1.00  0.00    -0.200 F 
ATOM     97  C   UNL A   1      37.777  33.276  38.650  1.00  0.00     0.200 A 
ATOM     98  F   UNL A   1      36.584  31.321  39.222  1.00  0.00    -0.200 F 
ATOM     99  F   UNL A   1      37.330  33.889  39.755  1.00  0.00    -0.200 F 
ENDBRANCH  66  89
ENDBRANCH  40  41
ENDBRANCH  33  35
ENDBRANCH  32  33
ENDBRANCH  31  32
ENDBRANCH  30  31
ENDBRANCH  29  30
ENDBRANCH  28  29
ENDBRANCH  27  28
ENDBRANCH   1  27
TORSDOF 23
ENDMDL
MODEL 2
REMARK VINA RESULT:     -10.2      4.779      9.390
REMARK SMILES C[C@@](O)(CNC(=O)c1ccc(Br)cc1N)CC(=O)OCCOCCOCCOC(=O)c1ccc(-c2c3nc(c(-c4c(F)c(F)c(F)c(F)c4F)c4ccc([nH]4)c(-c4c(F)c(F)c(F)c(F)c4F)c4nc(c(-c5c(F)c(F)c(F)c(F)c5F)c5ccc2[nH]5)C=C4)C=C3)cc1
REMARK SMILES IDX 22 1 21 2 20 3 19 4 17 5 18 6 16 7 2 8 1 9 3 10 4 12 5 13
REMARK SMILES IDX 6 14 7 16 8 17 9 18 14 19 10 20 13 21 11 22 12 23 15 24
REMARK SMILES IDX 23 27 24 28 25 29 26 30 27 31 28 32 29 33 30 34 31 35 32 36
REMARK SMILES IDX 93 37 33 38 92 39 34 40 35 41 36 42 86 43 37 44 91 45 85 46
REMARK SMILES IDX 87 47 38 48 90 49 84 50 83 51 39 53 71 54 51 55 70 56 52 57
REMARK SMILES IDX 55 58 69 59 88 60 53 61 54 62 68 64 89 65 56 66 40 67 41 68
REMARK SMILES IDX 49 69 42 70 43 71 47 72 50 73 44 74 45 75 48 76 46 77 72 78
REMARK SMILES IDX 73 79 81 80 74 81 75 82 79 83 82 84 76 85 77 86 80 87 78 88
REMARK SMILES IDX 57 89 58 90 66 91 59 92 60 93 64 94 67 95 61 96 62 97 65 98
REMARK SMILES IDX 63 99
REMARK H PARENT 3 11 5 15 15 25 15 26 87 52 55 63
REMARK Flexibility Score: inf
ROOT
ATOM      1  O   UNL A   1      35.672  23.592  22.904  1.00  0.00    -0.376 OA
ENDROOT
BRANCH   1   2
ATOM      2  C   UNL A   1      34.307  23.291  23.196  1.00  0.00     0.202 C 
BRANCH   2   3
ATOM      3  C   UNL A   1      33.276  23.835  22.197  1.00  0.00     0.261 C 
BRANCH   3   4
ATOM      4  O   UNL A   1      32.483  24.950  22.678  1.00  0.00    -0.463 OA
BRANCH   4   5
ATOM      5  C   UNL A   1      32.703  26.133  22.054  1.00  0.00     0.308 C 
ATOM      6  O   UNL A   1      33.613  26.334  21.250  1.00  0.00    -0.252 OA
BRANCH   5   7
ATOM      7  C   UNL A   1      31.607  27.167  22.221  1.00  0.00     0.159 C 
BRANCH   7   8
ATOM      8  C   UNL A   1      31.786  28.545  22.876  1.00  0.00     0.090 C 
ATOM      9  C   UNL A   1      30.695  28.874  23.887  1.00  0.00     0.044 C 
BRANCH   8  10
ATOM     10  O   UNL A   1      31.581  29.514  21.806  1.00  0.00    -0.388 OA
ATOM     11  H   UNL A   1      32.018  29.202  20.998  1.00  0.00     0.211 HD
ENDBRANCH   8  10
BRANCH   8  12
ATOM     12  C   UNL A   1      33.190  28.879  23.417  1.00  0.00     0.151 C 
BRANCH  12  13
ATOM     13  N   UNL A   1      33.276  29.677  24.629  1.00  0.00    -0.349 N 
ATOM     14  C   UNL A   1      33.316  29.247  25.939  1.00  0.00     0.253 C 
ATOM     15  H   UNL A   1      33.309  30.653  24.497  1.00  0.00     0.163 HD
ATOM     16  O   UNL A   1      33.386  30.050  26.865  1.00  0.00    -0.269 OA
BRANCH  14  17
ATOM     17  C   UNL A   1      33.187  27.797  26.212  1.00  0.00     0.062 A 
ATOM     18  C   UNL A   1      34.126  26.916  25.658  1.00  0.00     0.017 A 
ATOM     19  C   UNL A   1      32.061  27.317  26.902  1.00  0.00     0.045 A 
ATOM     20  C   UNL A   1      33.865  25.547  25.657  1.00  0.00     0.016 A 
ATOM     21  C   UNL A   1      31.788  25.949  26.844  1.00  0.00     0.042 A 
ATOM     22  C   UNL A   1      32.680  25.076  26.218  1.00  0.00     0.020 A 
ATOM     23  Br  UNL A   1      32.267  23.234  26.118  1.00  0.00    -0.051 Br
BRANCH  19  24
ATOM     24  N   UNL A   1      31.174  28.158  27.557  1.00  0.00    -0.398 N 
ATOM     25  H   UNL A   1      31.218  28.251  28.536  1.00  0.00     0.156 HD
ATOM     26  H   UNL A   1      30.504  28.663  27.043  1.00  0.00     0.156 HD
ENDBRANCH  19  24
ENDBRANCH  14  17
ENDBRANCH  12  13
ENDBRANCH   8  12
ENDBRANCH   7   8
ENDBRANCH   5   7
ENDBRANCH   4   5
ENDBRANCH   3   4
ENDBRANCH   2   3
ENDBRANCH   1   2
BRANCH   1  27
ATOM     27  C   UNL A   1      36.628  22.788  23.578  1.00  0.00     0.188 C 
BRANCH  27  28
ATOM     28  C   UNL A   1      36.074  21.865  24.671  1.00  0.00     0.188 C 
BRANCH  28  29
ATOM     29  O   UNL A   1      36.839  20.703  24.965  1.00  0.00    -0.376 OA
BRANCH  29  30
ATOM     30  C   UNL A   1      38.223  20.893  25.283  1.00  0.00     0.202 C 
BRANCH  30  31
ATOM     31  C   UNL A   1      39.116  19.643  25.322  1.00  0.00     0.261 C 
BRANCH  31  32
ATOM     32  O   UNL A   1      40.021  19.583  26.443  1.00  0.00    -0.460 OA
BRANCH  32  33
ATOM     33  C   UNL A   1      41.357  19.557  26.202  1.00  0.00     0.338 C 
ATOM     34  O   UNL A   1      41.975  18.684  25.630  1.00  0.00    -0.246 OA
BRANCH  33  35
ATOM     35  C   UNL A   1      41.887  20.927  26.483  1.00  0.00     0.060 A 
ATOM     36  C   UNL A   1      42.191  21.822  25.450  1.00  0.00     0.016 A 
ATOM     37  C   UNL A   1      42.239  21.249  27.803  1.00  0.00     0.016 A 
ATOM     38  C   UNL A   1      42.833  23.029  25.735  1.00  0.00     0.010 A 
ATOM     39  C   UNL A   1      42.879  22.461  28.089  1.00  0.00     0.010 A 
ATOM     40  C   UNL A   1      43.164  23.369  27.058  1.00  0.00    -0.014 A 
BRANCH  40  41
ATOM     41  C   UNL A   1      43.585  24.757  27.372  1.00  0.00     0.031 A 
ATOM     42  C   UNL A   1      44.983  25.256  27.165  1.00  0.00     0.074 A 
ATOM     43  C   UNL A   1      42.646  25.578  27.880  1.00  0.00     0.049 A 
ATOM     44  N   UNL A   1      45.452  26.468  27.342  1.00  0.00    -0.248 NA
ATOM     45  C   UNL A   1      45.987  24.283  26.715  1.00  0.00     0.031 C 
ATOM     46  C   UNL A   1      41.264  25.187  28.163  1.00  0.00     0.029 A 
ATOM     47  N   UNL A   1      42.704  26.896  28.248  1.00  0.00    -0.354 N 
ATOM     48  C   UNL A   1      46.799  26.411  27.010  1.00  0.00     0.074 A 
ATOM     49  C   UNL A   1      47.082  25.034  26.659  1.00  0.00     0.031 C 
ATOM     50  C   UNL A   1      40.599  26.246  28.645  1.00  0.00     0.029 A 
ATOM     51  C   UNL A   1      41.512  27.382  28.723  1.00  0.00     0.049 A 
ATOM     52  H   UNL A   1      43.520  27.442  28.176  1.00  0.00     0.167 HD
ATOM     53  C   UNL A   1      47.702  27.423  26.988  1.00  0.00     0.037 A 
ATOM     54  C   UNL A   1      41.182  28.606  29.173  1.00  0.00     0.037 A 
ATOM     55  C   UNL A   1      47.410  28.792  27.342  1.00  0.00     0.049 A 
ATOM     56  C   UNL A   1      42.211  29.700  29.155  1.00  0.00     0.074 A 
ATOM     57  C   UNL A   1      48.247  29.894  27.282  1.00  0.00     0.029 A 
ATOM     58  N   UNL A   1      46.196  29.247  27.838  1.00  0.00    -0.354 N 
ATOM     59  N   UNL A   1      43.454  29.655  28.746  1.00  0.00    -0.248 NA
ATOM     60  C   UNL A   1      41.786  31.016  29.650  1.00  0.00     0.031 C 
ATOM     61  C   UNL A   1      47.561  31.001  27.791  1.00  0.00     0.029 A 
ATOM     62  C   UNL A   1      46.276  30.603  28.120  1.00  0.00     0.049 A 
ATOM     63  H   UNL A   1      45.396  28.688  27.972  1.00  0.00     0.167 HD
ATOM     64  C   UNL A   1      43.955  30.938  28.915  1.00  0.00     0.074 A 
ATOM     65  C   UNL A   1      42.876  31.744  29.447  1.00  0.00     0.031 C 
ATOM     66  C   UNL A   1      45.202  31.400  28.655  1.00  0.00     0.037 A 
BRANCH  53  67
ATOM     67  C   UNL A   1      49.104  27.119  26.546  1.00  0.00     0.064 A 
ATOM     68  C   UNL A   1      50.055  26.614  27.445  1.00  0.00     0.173 A 
ATOM     69  C   UNL A   1      49.460  27.196  25.190  1.00  0.00     0.173 A 
ATOM     70  F   UNL A   1      49.763  26.515  28.749  1.00  0.00    -0.203 F 
ATOM     71  C   UNL A   1      51.311  26.201  27.003  1.00  0.00     0.198 A 
ATOM     72  C   UNL A   1      50.707  26.760  24.749  1.00  0.00     0.198 A 
ATOM     73  F   UNL A   1      48.581  27.656  24.286  1.00  0.00    -0.203 F 
ATOM     74  F   UNL A   1      52.206  25.729  27.882  1.00  0.00    -0.200 F 
ATOM     75  C   UNL A   1      51.631  26.263  25.656  1.00  0.00     0.200 A 
ATOM     76  F   UNL A   1      51.007  26.801  23.443  1.00  0.00    -0.200 F 
ATOM     77  F   UNL A   1      52.828  25.836  25.228  1.00  0.00    -0.200 F 
ENDBRANCH  53  67
BRANCH  54  78
ATOM     78  C   UNL A   1      39.798  28.859  29.640  1.00  0.00     0.064 A 
ATOM     79  C   UNL A   1      38.809  29.296  28.749  1.00  0.00     0.173 A 
ATOM     80  C   UNL A   1      39.427  28.632  30.973  1.00  0.00     0.173 A 
ATOM     81  F   UNL A   1      39.123  29.537  27.468  1.00  0.00    -0.203 F 
ATOM     82  C   UNL A   1      37.502  29.509  29.178  1.00  0.00     0.198 A 
ATOM     83  C   UNL A   1      38.113  28.818  31.394  1.00  0.00     0.198 A 
ATOM     84  F   UNL A   1      40.337  28.200  31.860  1.00  0.00    -0.203 F 
ATOM     85  F   UNL A   1      36.582  29.958  28.314  1.00  0.00    -0.200 F 
ATOM     86  C   UNL A   1      37.153  29.262  30.497  1.00  0.00     0.200 A 
ATOM     87  F   UNL A   1      37.776  28.559  32.665  1.00  0.00    -0.200 F 
ATOM     88  F   UNL A   1      35.892  29.454  30.905  1.00  0.00    -0.200 F 
ENDBRANCH  54  78
BRANCH  66  89
ATOM     89  C   UNL A   1      45.475  32.850  28.935  1.00  0.00     0.064 A 
ATOM     90  C   UNL A   1      45.210  33.842  27.978  1.00  0.00     0.173 A 
ATOM     91  C   UNL A   1      45.954  33.258  30.188  1.00  0.00     0.173 A 
ATOM     92  F   UNL A   1      44.766  33.502  26.759  1.00  0.00    -0.203 F 
ATOM     93  C   UNL A   1      45.428  35.187  28.264  1.00  0.00     0.198 A 
ATOM     94  C   UNL A   1      46.145  34.607  30.480  1.00  0.00     0.198 A 
ATOM     95  F   UNL A   1      46.220  32.349  31.139  1.00  0.00    -0.203 F 
ATOM     96  F   UNL A   1      45.204  36.114  27.321  1.00  0.00    -0.200 F 
ATOM     97  C   UNL A   1      45.886  35.569  29.516  1.00  0.00     0.200 A 
ATOM     98  F   UNL A   1      46.575  34.975  31.694  1.00  0.00    -0.200 F 
ATOM     99  F   UNL A   1      46.082  36.866  29.792  1.00  0.00    -0.200 F 
ENDBRANCH  66  89
ENDBRANCH  40  41
ENDBRANCH  33  35
ENDBRANCH  32  33
ENDBRANCH  31  32
ENDBRANCH  30  31
ENDBRANCH  29  30
ENDBRANCH  28  29
ENDBRANCH  27  28
ENDBRANCH   1  27
TORSDOF 23
ENDMDL
MODEL 3
REMARK VINA RESULT:     -10.2      5.139      7.894
REMARK SMILES C[C@@](O)(CNC(=O)c1ccc(Br)cc1N)CC(=O)OCCOCCOCCOC(=O)c1ccc(-c2c3nc(c(-c4c(F)c(F)c(F)c(F)c4F)c4ccc([nH]4)c(-c4c(F)c(F)c(F)c(F)c4F)c4nc(c(-c5c(F)c(F)c(F)c(F)c5F)c5ccc2[nH]5)C=C4)C=C3)cc1
REMARK SMILES IDX 22 1 21 2 20 3 19 4 17 5 18 6 16 7 2 8 1 9 3 10 4 12 5 13
REMARK SMILES IDX 6 14 7 16 8 17 9 18 14 19 10 20 13 21 11 22 12 23 15 24
REMARK SMILES IDX 23 27 24 28 25 29 26 30 27 31 28 32 29 33 30 34 31 35 32 36
REMARK SMILES IDX 93 37 33 38 92 39 34 40 35 41 36 42 86 43 37 44 91 45 85 46
REMARK SMILES IDX 87 47 38 48 90 49 84 50 83 51 39 53 71 54 51 55 70 56 52 57
REMARK SMILES IDX 55 58 69 59 88 60 53 61 54 62 68 64 89 65 56 66 40 67 41 68
REMARK SMILES IDX 49 69 42 70 43 71 47 72 50 73 44 74 45 75 48 76 46 77 72 78
REMARK SMILES IDX 73 79 81 80 74 81 75 82 79 83 82 84 76 85 77 86 80 87 78 88
REMARK SMILES IDX 57 89 58 90 66 91 59 92 60 93 64 94 67 95 61 96 62 97 65 98
REMARK SMILES IDX 63 99
REMARK H PARENT 3 11 5 15 15 25 15 26 87 52 55 63
REMARK Flexibility Score: inf
ROOT
ATOM      1  O   UNL A   1      38.349  21.852  26.134  1.00  0.00    -0.376 OA
ENDROOT
BRANCH   1   2
ATOM      2  C   UNL A   1      37.741  21.726  24.848  1.00  0.00     0.202 C 
BRANCH   2   3
ATOM      3  C   UNL A   1      36.787  22.861  24.448  1.00  0.00     0.261 C 
BRANCH   3   4
ATOM      4  O   UNL A   1      35.990  22.605  23.263  1.00  0.00    -0.463 OA
BRANCH   4   5
ATOM      5  C   UNL A   1      34.747  23.147  23.270  1.00  0.00     0.308 C 
ATOM      6  O   UNL A   1      34.493  24.302  22.931  1.00  0.00    -0.252 OA
BRANCH   5   7
ATOM      7  C   UNL A   1      33.615  22.167  23.503  1.00  0.00     0.159 C 
BRANCH   7   8
ATOM      8  C   UNL A   1      33.420  21.330  24.776  1.00  0.00     0.090 C 
ATOM      9  C   UNL A   1      34.245  20.048  24.783  1.00  0.00     0.044 C 
BRANCH   8  10
ATOM     10  O   UNL A   1      32.040  20.861  24.727  1.00  0.00    -0.388 OA
ATOM     11  H   UNL A   1      31.565  21.171  25.514  1.00  0.00     0.211 HD
ENDBRANCH   8  10
BRANCH   8  12
ATOM     12  C   UNL A   1      33.512  22.078  26.120  1.00  0.00     0.151 C 
BRANCH  12  13
ATOM     13  N   UNL A   1      32.269  22.454  26.772  1.00  0.00    -0.349 N 
ATOM     14  C   UNL A   1      31.536  23.614  26.620  1.00  0.00     0.253 C 
ATOM     15  H   UNL A   1      31.902  21.796  27.405  1.00  0.00     0.163 HD
ATOM     16  O   UNL A   1      30.497  23.790  27.248  1.00  0.00    -0.269 OA
BRANCH  14  17
ATOM     17  C   UNL A   1      32.074  24.681  25.744  1.00  0.00     0.062 A 
ATOM     18  C   UNL A   1      33.177  25.427  26.182  1.00  0.00     0.017 A 
ATOM     19  C   UNL A   1      31.395  25.017  24.561  1.00  0.00     0.045 A 
ATOM     20  C   UNL A   1      33.514  26.607  25.521  1.00  0.00     0.016 A 
ATOM     21  C   UNL A   1      31.710  26.229  23.943  1.00  0.00     0.042 A 
ATOM     22  C   UNL A   1      32.755  27.018  24.428  1.00  0.00     0.020 A 
ATOM     23  Br  UNL A   1      33.135  28.674  23.597  1.00  0.00    -0.051 Br
BRANCH  19  24
ATOM     24  N   UNL A   1      30.373  24.236  24.041  1.00  0.00    -0.398 N 
ATOM     25  H   UNL A   1      29.577  24.043  24.586  1.00  0.00     0.156 HD
ATOM     26  H   UNL A   1      30.444  23.878  23.127  1.00  0.00     0.156 HD
ENDBRANCH  19  24
ENDBRANCH  14  17
ENDBRANCH  12  13
ENDBRANCH   8  12
ENDBRANCH   7   8
ENDBRANCH   5   7
ENDBRANCH   4   5
ENDBRANCH   3   4
ENDBRANCH   2   3
ENDBRANCH   1   2
BRANCH   1  27
ATOM     27  C   UNL A   1      39.768  21.820  26.139  1.00  0.00     0.188 C 
BRANCH  27  28
ATOM     28  C   UNL A   1      40.406  20.442  26.353  1.00  0.00     0.188 C 
BRANCH  28  29
ATOM     29  O   UNL A   1      41.825  20.408  26.439  1.00  0.00    -0.376 OA
BRANCH  29  30
ATOM     30  C   UNL A   1      42.437  19.131  26.657  1.00  0.00     0.202 C 
BRANCH  30  31
ATOM     31  C   UNL A   1      43.051  18.428  25.437  1.00  0.00     0.261 C 
BRANCH  31  32
ATOM     32  O   UNL A   1      44.469  18.638  25.269  1.00  0.00    -0.460 OA
BRANCH  32  33
ATOM     33  C   UNL A   1      44.897  19.404  24.234  1.00  0.00     0.338 C 
ATOM     34  O   UNL A   1      44.969  19.076  23.069  1.00  0.00    -0.246 OA
BRANCH  33  35
ATOM     35  C   UNL A   1      44.968  20.815  24.725  1.00  0.00     0.060 A 
ATOM     36  C   UNL A   1      45.340  21.116  26.041  1.00  0.00     0.016 A 
ATOM     37  C   UNL A   1      44.487  21.837  23.892  1.00  0.00     0.016 A 
ATOM     38  C   UNL A   1      45.241  22.426  26.515  1.00  0.00     0.010 A 
ATOM     39  C   UNL A   1      44.392  23.151  24.366  1.00  0.00     0.010 A 
ATOM     40  C   UNL A   1      44.786  23.458  25.677  1.00  0.00    -0.014 A 
BRANCH  40  41
ATOM     41  C   UNL A   1      44.950  24.870  26.102  1.00  0.00     0.031 A 
ATOM     42  C   UNL A   1      43.827  25.697  26.651  1.00  0.00     0.074 A 
ATOM     43  C   UNL A   1      46.176  25.410  25.961  1.00  0.00     0.049 A 
ATOM     44  N   UNL A   1      43.867  26.922  27.117  1.00  0.00    -0.248 NA
ATOM     45  C   UNL A   1      42.491  25.088  26.675  1.00  0.00     0.031 C 
ATOM     46  C   UNL A   1      47.333  24.712  25.397  1.00  0.00     0.029 A 
ATOM     47  N   UNL A   1      46.655  26.656  26.272  1.00  0.00    -0.354 N 
ATOM     48  C   UNL A   1      42.570  27.227  27.507  1.00  0.00     0.074 A 
ATOM     49  C   UNL A   1      41.757  26.072  27.185  1.00  0.00     0.031 C 
ATOM     50  C   UNL A   1      48.392  25.532  25.419  1.00  0.00     0.029 A 
ATOM     51  C   UNL A   1      47.984  26.818  25.976  1.00  0.00     0.049 A 
ATOM     52  H   UNL A   1      46.099  27.363  26.671  1.00  0.00     0.167 HD
ATOM     53  C   UNL A   1      42.115  28.363  28.092  1.00  0.00     0.037 A 
ATOM     54  C   UNL A   1      48.794  27.881  26.134  1.00  0.00     0.037 A 
ATOM     55  C   UNL A   1      42.933  29.510  28.406  1.00  0.00     0.049 A 
ATOM     56  C   UNL A   1      48.253  29.130  26.767  1.00  0.00     0.074 A 
ATOM     57  C   UNL A   1      42.567  30.675  29.063  1.00  0.00     0.029 A 
ATOM     58  N   UNL A   1      44.273  29.649  28.076  1.00  0.00    -0.354 N 
ATOM     59  N   UNL A   1      47.048  29.370  27.220  1.00  0.00    -0.248 NA
ATOM     60  C   UNL A   1      49.189  30.253  26.921  1.00  0.00     0.031 C 
ATOM     61  C   UNL A   1      43.668  31.538  29.080  1.00  0.00     0.029 A 
ATOM     62  C   UNL A   1      44.737  30.893  28.483  1.00  0.00     0.049 A 
ATOM     63  H   UNL A   1      44.815  28.966  27.618  1.00  0.00     0.167 HD
ATOM     64  C   UNL A   1      47.084  30.660  27.729  1.00  0.00     0.074 A 
ATOM     65  C   UNL A   1      48.436  31.146  27.547  1.00  0.00     0.031 C 
ATOM     66  C   UNL A   1      46.081  31.375  28.294  1.00  0.00     0.037 A 
BRANCH  53  67
ATOM     67  C   UNL A   1      40.662  28.441  28.465  1.00  0.00     0.064 A 
ATOM     68  C   UNL A   1      40.225  28.106  29.755  1.00  0.00     0.173 A 
ATOM     69  C   UNL A   1      39.723  28.987  27.576  1.00  0.00     0.173 A 
ATOM     70  F   UNL A   1      41.083  27.585  30.644  1.00  0.00    -0.203 F 
ATOM     71  C   UNL A   1      38.901  28.312  30.139  1.00  0.00     0.198 A 
ATOM     72  C   UNL A   1      38.407  29.214  27.970  1.00  0.00     0.198 A 
ATOM     73  F   UNL A   1      40.094  29.340  26.335  1.00  0.00    -0.203 F 
ATOM     74  F   UNL A   1      38.504  27.977  31.374  1.00  0.00    -0.200 F 
ATOM     75  C   UNL A   1      37.997  28.876  29.252  1.00  0.00     0.200 A 
ATOM     76  F   UNL A   1      37.541  29.779  27.118  1.00  0.00    -0.200 F 
ATOM     77  F   UNL A   1      36.732  29.103  29.633  1.00  0.00    -0.200 F 
ENDBRANCH  53  67
BRANCH  54  78
ATOM     78  C   UNL A   1      50.213  27.780  25.717  1.00  0.00     0.064 A 
ATOM     79  C   UNL A   1      51.227  27.580  26.663  1.00  0.00     0.173 A 
ATOM     80  C   UNL A   1      50.580  27.845  24.365  1.00  0.00     0.173 A 
ATOM     81  F   UNL A   1      50.922  27.524  27.967  1.00  0.00    -0.203 F 
ATOM     82  C   UNL A   1      52.558  27.459  26.272  1.00  0.00     0.198 A 
ATOM     83  C   UNL A   1      51.907  27.695  23.973  1.00  0.00     0.198 A 
ATOM     84  F   UNL A   1      49.642  28.023  23.422  1.00  0.00    -0.203 F 
ATOM     85  F   UNL A   1      53.512  27.299  27.199  1.00  0.00    -0.200 F 
ATOM     86  C   UNL A   1      52.896  27.509  24.929  1.00  0.00     0.200 A 
ATOM     87  F   UNL A   1      52.227  27.724  22.673  1.00  0.00    -0.200 F 
ATOM     88  F   UNL A   1      54.175  27.378  24.553  1.00  0.00    -0.200 F 
ENDBRANCH  54  78
BRANCH  66  89
ATOM     89  C   UNL A   1      46.401  32.764  28.764  1.00  0.00     0.064 A 
ATOM     90  C   UNL A   1      46.898  33.003  30.055  1.00  0.00     0.173 A 
ATOM     91  C   UNL A   1      46.263  33.862  27.902  1.00  0.00     0.173 A 
ATOM     92  F   UNL A   1      47.033  31.990  30.924  1.00  0.00    -0.203 F 
ATOM     93  C   UNL A   1      47.231  34.291  30.467  1.00  0.00     0.198 A 
ATOM     94  C   UNL A   1      46.623  35.144  28.307  1.00  0.00     0.198 A 
ATOM     95  F   UNL A   1      45.795  33.687  26.656  1.00  0.00    -0.203 F 
ATOM     96  F   UNL A   1      47.668  34.500  31.717  1.00  0.00    -0.200 F 
ATOM     97  C   UNL A   1      47.102  35.358  29.591  1.00  0.00     0.200 A 
ATOM     98  F   UNL A   1      46.510  36.172  27.455  1.00  0.00    -0.200 F 
ATOM     99  F   UNL A   1      47.435  36.595  29.986  1.00  0.00    -0.200 F 
ENDBRANCH  66  89
ENDBRANCH  40  41
ENDBRANCH  33  35
ENDBRANCH  32  33
ENDBRANCH  31  32
ENDBRANCH  30  31
ENDBRANCH  29  30
ENDBRANCH  28  29
ENDBRANCH  27  28
ENDBRANCH   1  27
TORSDOF 23
ENDMDL
