MODEL 1
REMARK VINA RESULT:     -10.7      0.000      0.000
REMARK SMILES [NH3+][C@H]1CCCN(C(=O)NC[C@H]2CC[C@@H](C(=O)OCCOCCOCCOC(=O)c3ccc(-c4c5nc(c(-c6c(F)c(F)c(F)c(F)c6F)c6ccc([nH]6)c(-c6c(F)c(F)c(F)c(F)c6F)c6nc(c(-c7c(F)c(F)c(F)c(F)c7F)c7ccc4[nH]7)C=C6)C=C5)cc3)CC2)C1
REMARK SMILES IDX 21 1 20 2 19 3 18 4 17 5 15 6 16 7 14 8 11 9 12 10 93 11
REMARK SMILES IDX 13 12 92 13 10 14 9 15 7 16 8 17 6 19 2 20 3 21 94 22 4 23
REMARK SMILES IDX 5 24 1 25 22 29 23 30 24 31 25 32 26 33 27 34 28 35 29 36
REMARK SMILES IDX 30 37 91 38 31 39 90 40 32 41 33 42 34 43 84 44 35 45 89 46
REMARK SMILES IDX 83 47 85 48 36 49 88 50 82 51 81 52 37 54 69 55 49 56 68 57
REMARK SMILES IDX 50 58 53 59 67 60 86 61 51 62 52 63 66 65 87 66 54 67 38 68
REMARK SMILES IDX 39 69 47 70 40 71 41 72 45 73 48 74 42 75 43 76 46 77 44 78
REMARK SMILES IDX 70 79 71 80 79 81 72 82 73 83 77 84 80 85 74 86 75 87 78 88
REMARK SMILES IDX 76 89 55 90 56 91 64 92 57 93 58 94 62 95 65 96 59 97 60 98
REMARK SMILES IDX 63 99 61 100
REMARK H PARENT 9 18 1 26 1 27 1 28 85 53 53 64
REMARK Flexibility Score: inf
ROOT
ATOM      1  C   UNL A   1      40.447  22.245  26.759  1.00  0.00     0.188 C 
ENDROOT
BRANCH   1   2
ATOM      2  O   UNL A   1      39.148  22.589  26.312  1.00  0.00    -0.376 OA
BRANCH   2   3
ATOM      3  C   UNL A   1      38.334  21.572  25.749  1.00  0.00     0.202 C 
BRANCH   3   4
ATOM      4  C   UNL A   1      37.397  21.952  24.596  1.00  0.00     0.261 C 
BRANCH   4   5
ATOM      5  O   UNL A   1      36.005  22.099  24.942  1.00  0.00    -0.463 OA
BRANCH   5   6
ATOM      6  C   UNL A   1      35.352  20.948  25.270  1.00  0.00     0.309 C 
ATOM      7  O   UNL A   1      35.749  19.820  25.003  1.00  0.00    -0.252 OA
BRANCH   6   8
ATOM      8  C   UNL A   1      34.010  21.188  25.963  1.00  0.00     0.099 C 
ATOM      9  C   UNL A   1      31.757  23.134  26.165  1.00  0.00     0.008 C 
ATOM     10  C   UNL A   1      31.610  21.839  25.354  1.00  0.00     0.006 C 
ATOM     11  C   UNL A   1      32.613  22.818  27.393  1.00  0.00     0.006 C 
ATOM     12  C   UNL A   1      32.952  21.309  24.860  1.00  0.00     0.015 C 
ATOM     13  C   UNL A   1      34.003  22.335  26.989  1.00  0.00     0.015 C 
BRANCH   9  14
ATOM     14  C   UNL A   1      32.367  24.295  25.349  1.00  0.00     0.121 C 
BRANCH  14  15
ATOM     15  N   UNL A   1      32.158  25.572  25.990  1.00  0.00    -0.338 N 
ATOM     16  C   UNL A   1      31.407  26.651  25.715  1.00  0.00     0.317 C 
ATOM     17  O   UNL A   1      31.219  27.412  26.670  1.00  0.00    -0.249 OA
ATOM     18  H   UNL A   1      32.684  25.676  26.815  1.00  0.00     0.165 HD
BRANCH  16  19
ATOM     19  N   UNL A   1      30.871  26.883  24.483  1.00  0.00    -0.319 N 
ATOM     20  C   UNL A   1      30.753  28.920  23.077  1.00  0.00     0.200 C 
ATOM     21  C   UNL A   1      29.400  28.429  22.534  1.00  0.00     0.068 C 
ATOM     22  C   UNL A   1      31.622  27.737  23.559  1.00  0.00     0.186 C 
ATOM     23  C   UNL A   1      28.714  27.468  23.510  1.00  0.00     0.028 C 
ATOM     24  C   UNL A   1      29.662  26.331  23.884  1.00  0.00     0.122 C 
BRANCH  20  25
ATOM     25  N   UNL A   1      31.438  29.699  22.042  1.00  0.00    -0.354 N 
ATOM     26  H   UNL A   1      30.956  29.578  21.151  1.00  0.00     0.344 HD
ATOM     27  H   UNL A   1      32.401  29.376  21.954  1.00  0.00     0.344 HD
ATOM     28  H   UNL A   1      31.432  30.686  22.300  1.00  0.00     0.344 HD
ENDBRANCH  20  25
ENDBRANCH  16  19
ENDBRANCH  14  15
ENDBRANCH   9  14
ENDBRANCH   6   8
ENDBRANCH   5   6
ENDBRANCH   4   5
ENDBRANCH   3   4
ENDBRANCH   2   3
ENDBRANCH   1   2
BRANCH   1  29
ATOM     29  C   UNL A   1      41.525  21.832  25.749  1.00  0.00     0.188 C 
BRANCH  29  30
ATOM     30  O   UNL A   1      42.618  21.098  26.262  1.00  0.00    -0.376 OA
BRANCH  30  31
ATOM     31  C   UNL A   1      43.868  21.392  25.642  1.00  0.00     0.202 C 
BRANCH  31  32
ATOM     32  C   UNL A   1      43.756  22.621  24.722  1.00  0.00     0.261 C 
BRANCH  32  33
ATOM     33  O   UNL A   1      44.744  23.653  24.946  1.00  0.00    -0.460 OA
BRANCH  33  34
ATOM     34  C   UNL A   1      45.304  23.725  26.179  1.00  0.00     0.338 C 
ATOM     35  O   UNL A   1      46.409  23.312  26.495  1.00  0.00    -0.246 OA
BRANCH  34  36
ATOM     36  C   UNL A   1      44.494  24.655  27.018  1.00  0.00     0.060 A 
ATOM     37  C   UNL A   1      44.704  26.039  26.879  1.00  0.00     0.016 A 
ATOM     38  C   UNL A   1      43.498  24.195  27.881  1.00  0.00     0.016 A 
ATOM     39  C   UNL A   1      43.960  26.954  27.633  1.00  0.00     0.010 A 
ATOM     40  C   UNL A   1      42.765  25.112  28.650  1.00  0.00     0.010 A 
ATOM     41  C   UNL A   1      43.015  26.495  28.561  1.00  0.00    -0.014 A 
BRANCH  41  42
ATOM     42  C   UNL A   1      42.455  27.419  29.587  1.00  0.00     0.031 A 
ATOM     43  C   UNL A   1      43.128  27.476  30.934  1.00  0.00     0.074 A 
ATOM     44  C   UNL A   1      41.378  28.194  29.359  1.00  0.00     0.049 A 
ATOM     45  N   UNL A   1      42.788  28.130  32.016  1.00  0.00    -0.248 NA
ATOM     46  C   UNL A   1      44.354  26.676  31.076  1.00  0.00     0.031 C 
ATOM     47  C   UNL A   1      40.643  28.277  28.102  1.00  0.00     0.029 A 
ATOM     48  N   UNL A   1      40.704  29.048  30.202  1.00  0.00    -0.354 N 
ATOM     49  C   UNL A   1      43.744  27.804  32.969  1.00  0.00     0.074 A 
ATOM     50  C   UNL A   1      44.663  26.877  32.347  1.00  0.00     0.031 C 
ATOM     51  C   UNL A   1      39.602  29.115  28.261  1.00  0.00     0.029 A 
ATOM     52  C   UNL A   1      39.577  29.601  29.642  1.00  0.00     0.049 A 
ATOM     53  H   UNL A   1      41.000  29.246  31.120  1.00  0.00     0.167 HD
ATOM     54  C   UNL A   1      43.854  28.239  34.248  1.00  0.00     0.037 A 
ATOM     55  C   UNL A   1      38.620  30.382  30.187  1.00  0.00     0.037 A 
ATOM     56  C   UNL A   1      42.947  29.162  34.877  1.00  0.00     0.049 A 
ATOM     57  C   UNL A   1      38.724  30.805  31.634  1.00  0.00     0.074 A 
ATOM     58  C   UNL A   1      43.002  29.688  36.157  1.00  0.00     0.029 A 
ATOM     59  N   UNL A   1      41.809  29.684  34.281  1.00  0.00    -0.354 N 
ATOM     60  N   UNL A   1      39.651  30.525  32.517  1.00  0.00    -0.248 NA
ATOM     61  C   UNL A   1      37.643  31.657  32.158  1.00  0.00     0.031 C 
ATOM     62  C   UNL A   1      41.863  30.476  36.356  1.00  0.00     0.029 A 
ATOM     63  C   UNL A   1      41.135  30.498  35.178  1.00  0.00     0.049 A 
ATOM     64  H   UNL A   1      41.522  29.505  33.356  1.00  0.00     0.167 HD
ATOM     65  C   UNL A   1      39.283  31.184  33.686  1.00  0.00     0.074 A 
ATOM     66  C   UNL A   1      38.054  31.890  33.397  1.00  0.00     0.031 C 
ATOM     67  C   UNL A   1      39.912  31.203  34.888  1.00  0.00     0.037 A 
BRANCH  54  68
ATOM     68  C   UNL A   1      44.981  27.682  35.070  1.00  0.00     0.064 A 
ATOM     69  C   UNL A   1      46.231  28.316  35.141  1.00  0.00     0.173 A 
ATOM     70  C   UNL A   1      44.801  26.502  35.807  1.00  0.00     0.173 A 
ATOM     71  F   UNL A   1      46.461  29.438  34.443  1.00  0.00    -0.203 F 
ATOM     72  C   UNL A   1      47.270  27.767  35.890  1.00  0.00     0.198 A 
ATOM     73  C   UNL A   1      45.830  25.976  36.583  1.00  0.00     0.198 A 
ATOM     74  F   UNL A   1      43.624  25.860  35.778  1.00  0.00    -0.203 F 
ATOM     75  F   UNL A   1      48.474  28.355  35.893  1.00  0.00    -0.200 F 
ATOM     76  C   UNL A   1      47.067  26.602  36.614  1.00  0.00     0.200 A 
ATOM     77  F   UNL A   1      45.627  24.858  37.292  1.00  0.00    -0.200 F 
ATOM     78  F   UNL A   1      48.067  26.076  37.335  1.00  0.00    -0.200 F 
ENDBRANCH  54  68
BRANCH  55  79
ATOM     79  C   UNL A   1      37.449  30.800  29.367  1.00  0.00     0.064 A 
ATOM     80  C   UNL A   1      37.321  32.112  28.893  1.00  0.00     0.173 A 
ATOM     81  C   UNL A   1      36.420  29.895  29.064  1.00  0.00     0.173 A 
ATOM     82  F   UNL A   1      38.259  33.025  29.187  1.00  0.00    -0.203 F 
ATOM     83  C   UNL A   1      36.205  32.507  28.158  1.00  0.00     0.198 A 
ATOM     84  C   UNL A   1      35.320  30.283  28.302  1.00  0.00     0.198 A 
ATOM     85  F   UNL A   1      36.487  28.630  29.503  1.00  0.00    -0.203 F 
ATOM     86  F   UNL A   1      36.084  33.781  27.760  1.00  0.00    -0.200 F 
ATOM     87  C   UNL A   1      35.209  31.590  27.855  1.00  0.00     0.200 A 
ATOM     88  F   UNL A   1      34.364  29.391  28.008  1.00  0.00    -0.200 F 
ATOM     89  F   UNL A   1      34.139  31.969  27.144  1.00  0.00    -0.200 F 
ENDBRANCH  55  79
BRANCH  67  90
ATOM     90  C   UNL A   1      39.309  32.042  35.982  1.00  0.00     0.064 A 
ATOM     91  C   UNL A   1      38.318  31.542  36.841  1.00  0.00     0.173 A 
ATOM     92  C   UNL A   1      39.768  33.351  36.207  1.00  0.00     0.173 A 
ATOM     93  F   UNL A   1      37.836  30.304  36.665  1.00  0.00    -0.203 F 
ATOM     94  C   UNL A   1      37.793  32.328  37.865  1.00  0.00     0.198 A 
ATOM     95  C   UNL A   1      39.265  34.121  37.252  1.00  0.00     0.198 A 
ATOM     96  F   UNL A   1      40.721  33.877  35.423  1.00  0.00    -0.203 F 
ATOM     97  F   UNL A   1      36.815  31.845  38.642  1.00  0.00    -0.200 F 
ATOM     98  C   UNL A   1      38.272  33.613  38.075  1.00  0.00     0.200 A 
ATOM     99  F   UNL A   1      39.741  35.355  37.463  1.00  0.00    -0.200 F 
ATOM    100  F   UNL A   1      37.773  34.363  39.067  1.00  0.00    -0.200 F 
ENDBRANCH  67  90
ENDBRANCH  41  42
ENDBRANCH  34  36
ENDBRANCH  33  34
ENDBRANCH  32  33
ENDBRANCH  31  32
ENDBRANCH  30  31
ENDBRANCH  29  30
ENDBRANCH   1  29
TORSDOF 21
ENDMDL
MODEL 2
REMARK VINA RESULT:     -10.6      4.651      9.143
REMARK SMILES [NH3+][C@H]1CCCN(C(=O)NC[C@H]2CC[C@@H](C(=O)OCCOCCOCCOC(=O)c3ccc(-c4c5nc(c(-c6c(F)c(F)c(F)c(F)c6F)c6ccc([nH]6)c(-c6c(F)c(F)c(F)c(F)c6F)c6nc(c(-c7c(F)c(F)c(F)c(F)c7F)c7ccc4[nH]7)C=C6)C=C5)cc3)CC2)C1
REMARK SMILES IDX 21 1 20 2 19 3 18 4 17 5 15 6 16 7 14 8 11 9 12 10 93 11
REMARK SMILES IDX 13 12 92 13 10 14 9 15 7 16 8 17 6 19 2 20 3 21 94 22 4 23
REMARK SMILES IDX 5 24 1 25 22 29 23 30 24 31 25 32 26 33 27 34 28 35 29 36
REMARK SMILES IDX 30 37 91 38 31 39 90 40 32 41 33 42 34 43 84 44 35 45 89 46
REMARK SMILES IDX 83 47 85 48 36 49 88 50 82 51 81 52 37 54 69 55 49 56 68 57
REMARK SMILES IDX 50 58 53 59 67 60 86 61 51 62 52 63 66 65 87 66 54 67 38 68
REMARK SMILES IDX 39 69 47 70 40 71 41 72 45 73 48 74 42 75 43 76 46 77 44 78
REMARK SMILES IDX 70 79 71 80 79 81 72 82 73 83 77 84 80 85 74 86 75 87 78 88
REMARK SMILES IDX 76 89 55 90 56 91 64 92 57 93 58 94 62 95 65 96 59 97 60 98
REMARK SMILES IDX 63 99 61 100
REMARK H PARENT 9 18 1 26 1 27 1 28 85 53 53 64
REMARK Flexibility Score: inf
ROOT
ATOM      1  C   UNL A   1      36.720  23.667  25.004  1.00  0.00     0.188 C 
ENDROOT
BRANCH   1   2
ATOM      2  O   UNL A   1      35.919  23.574  26.168  1.00  0.00    -0.376 OA
BRANCH   2   3
ATOM      3  C   UNL A   1      34.564  23.181  26.027  1.00  0.00     0.202 C 
BRANCH   3   4
ATOM      4  C   UNL A   1      34.219  21.697  26.209  1.00  0.00     0.261 C 
BRANCH   4   5
ATOM      5  O   UNL A   1      32.814  21.373  26.187  1.00  0.00    -0.463 OA
BRANCH   5   6
ATOM      6  C   UNL A   1      32.188  21.539  24.987  1.00  0.00     0.309 C 
ATOM      7  O   UNL A   1      32.505  20.970  23.949  1.00  0.00    -0.252 OA
BRANCH   6   8
ATOM      8  C   UNL A   1      31.062  22.574  25.028  1.00  0.00     0.099 C 
ATOM      9  C   UNL A   1      30.458  25.393  25.795  1.00  0.00     0.008 C 
ATOM     10  C   UNL A   1      30.642  24.998  24.323  1.00  0.00     0.006 C 
ATOM     11  C   UNL A   1      29.750  24.235  26.501  1.00  0.00     0.006 C 
ATOM     12  C   UNL A   1      31.510  23.756  24.160  1.00  0.00     0.015 C 
ATOM     13  C   UNL A   1      30.582  22.957  26.438  1.00  0.00     0.015 C 
BRANCH   9  14
ATOM     14  C   UNL A   1      31.787  25.741  26.500  1.00  0.00     0.121 C 
BRANCH  14  15
ATOM     15  N   UNL A   1      31.773  27.079  27.044  1.00  0.00    -0.338 N 
ATOM     16  C   UNL A   1      31.949  28.307  26.528  1.00  0.00     0.317 C 
ATOM     17  O   UNL A   1      31.522  29.232  27.226  1.00  0.00    -0.249 OA
ATOM     18  H   UNL A   1      31.595  27.096  28.012  1.00  0.00     0.165 HD
BRANCH  16  19
ATOM     19  N   UNL A   1      32.533  28.521  25.315  1.00  0.00    -0.319 N 
ATOM     20  C   UNL A   1      31.609  28.616  23.018  1.00  0.00     0.200 C 
ATOM     21  C   UNL A   1      32.931  28.028  22.495  1.00  0.00     0.068 C 
ATOM     22  C   UNL A   1      31.822  29.366  24.351  1.00  0.00     0.186 C 
ATOM     23  C   UNL A   1      33.665  27.235  23.581  1.00  0.00     0.028 C 
ATOM     24  C   UNL A   1      33.840  28.093  24.832  1.00  0.00     0.122 C 
BRANCH  20  25
ATOM     25  N   UNL A   1      31.032  29.495  21.997  1.00  0.00    -0.354 N 
ATOM     26  H   UNL A   1      31.271  29.143  21.070  1.00  0.00     0.344 HD
ATOM     27  H   UNL A   1      31.406  30.438  22.109  1.00  0.00     0.344 HD
ATOM     28  H   UNL A   1      30.017  29.517  22.101  1.00  0.00     0.344 HD
ENDBRANCH  20  25
ENDBRANCH  16  19
ENDBRANCH  14  15
ENDBRANCH   9  14
ENDBRANCH   6   8
ENDBRANCH   5   6
ENDBRANCH   4   5
ENDBRANCH   3   4
ENDBRANCH   2   3
ENDBRANCH   1   2
BRANCH   1  29
ATOM     29  C   UNL A   1      36.789  22.492  24.020  1.00  0.00     0.188 C 
BRANCH  29  30
ATOM     30  O   UNL A   1      37.522  21.361  24.443  1.00  0.00    -0.376 OA
BRANCH  30  31
ATOM     31  C   UNL A   1      38.078  21.474  25.751  1.00  0.00     0.202 C 
BRANCH  31  32
ATOM     32  C   UNL A   1      39.593  21.203  25.735  1.00  0.00     0.261 C 
BRANCH  32  33
ATOM     33  O   UNL A   1      39.988  19.881  26.171  1.00  0.00    -0.460 OA
BRANCH  33  34
ATOM     34  C   UNL A   1      41.311  19.585  26.151  1.00  0.00     0.338 C 
ATOM     35  O   UNL A   1      41.812  18.546  25.750  1.00  0.00    -0.246 OA
BRANCH  34  36
ATOM     36  C   UNL A   1      42.083  20.835  26.410  1.00  0.00     0.060 A 
ATOM     37  C   UNL A   1      42.283  21.235  27.743  1.00  0.00     0.016 A 
ATOM     38  C   UNL A   1      42.664  21.573  25.377  1.00  0.00     0.016 A 
ATOM     39  C   UNL A   1      43.012  22.393  28.041  1.00  0.00     0.010 A 
ATOM     40  C   UNL A   1      43.380  22.742  25.675  1.00  0.00     0.010 A 
ATOM     41  C   UNL A   1      43.528  23.182  27.004  1.00  0.00    -0.014 A 
BRANCH  41  42
ATOM     42  C   UNL A   1      44.018  24.562  27.280  1.00  0.00     0.031 A 
ATOM     43  C   UNL A   1      43.017  25.593  27.732  1.00  0.00     0.074 A 
ATOM     44  C   UNL A   1      45.308  24.920  27.137  1.00  0.00     0.049 A 
ATOM     45  N   UNL A   1      43.173  26.875  27.954  1.00  0.00    -0.248 NA
ATOM     46  C   UNL A   1      41.648  25.106  27.959  1.00  0.00     0.031 C 
ATOM     47  C   UNL A   1      46.397  24.032  26.743  1.00  0.00     0.029 A 
ATOM     48  N   UNL A   1      45.912  26.147  27.290  1.00  0.00    -0.354 N 
ATOM     49  C   UNL A   1      41.921  27.348  28.326  1.00  0.00     0.074 A 
ATOM     50  C   UNL A   1      41.012  26.223  28.276  1.00  0.00     0.031 C 
ATOM     51  C   UNL A   1      47.533  24.747  26.659  1.00  0.00     0.029 A 
ATOM     52  C   UNL A   1      47.246  26.151  26.960  1.00  0.00     0.049 A 
ATOM     53  H   UNL A   1      45.435  26.948  27.607  1.00  0.00     0.167 HD
ATOM     54  C   UNL A   1      41.556  28.603  28.682  1.00  0.00     0.037 A 
ATOM     55  C   UNL A   1      48.126  27.172  26.878  1.00  0.00     0.037 A 
ATOM     56  C   UNL A   1      42.451  29.728  28.736  1.00  0.00     0.049 A 
ATOM     57  C   UNL A   1      47.686  28.577  27.215  1.00  0.00     0.074 A 
ATOM     58  C   UNL A   1      42.177  31.030  29.123  1.00  0.00     0.029 A 
ATOM     59  N   UNL A   1      43.790  29.693  28.377  1.00  0.00    -0.354 N 
ATOM     60  N   UNL A   1      46.511  29.009  27.604  1.00  0.00    -0.248 NA
ATOM     61  C   UNL A   1      48.702  29.638  27.104  1.00  0.00     0.031 C 
ATOM     62  C   UNL A   1      43.333  31.795  28.935  1.00  0.00     0.029 A 
ATOM     63  C   UNL A   1      44.346  30.957  28.498  1.00  0.00     0.049 A 
ATOM     64  H   UNL A   1      44.274  28.889  28.080  1.00  0.00     0.167 HD
ATOM     65  C   UNL A   1      46.652  30.378  27.808  1.00  0.00     0.074 A 
ATOM     66  C   UNL A   1      48.029  30.705  27.514  1.00  0.00     0.031 C 
ATOM     67  C   UNL A   1      45.720  31.280  28.207  1.00  0.00     0.037 A 
BRANCH  54  68
ATOM     68  C   UNL A   1      40.107  28.834  29.002  1.00  0.00     0.064 A 
ATOM     69  C   UNL A   1      39.606  28.716  30.308  1.00  0.00     0.173 A 
ATOM     70  C   UNL A   1      39.208  29.192  27.985  1.00  0.00     0.173 A 
ATOM     71  F   UNL A   1      40.420  28.362  31.314  1.00  0.00    -0.203 F 
ATOM     72  C   UNL A   1      38.253  28.910  30.576  1.00  0.00     0.198 A 
ATOM     73  C   UNL A   1      37.863  29.420  28.263  1.00  0.00     0.198 A 
ATOM     74  F   UNL A   1      39.635  29.323  26.720  1.00  0.00    -0.203 F 
ATOM     75  F   UNL A   1      37.787  28.731  31.820  1.00  0.00    -0.200 F 
ATOM     76  C   UNL A   1      37.385  29.268  29.556  1.00  0.00     0.200 A 
ATOM     77  F   UNL A   1      37.028  29.778  27.278  1.00  0.00    -0.200 F 
ATOM     78  F   UNL A   1      36.084  29.456  29.816  1.00  0.00    -0.200 F 
ENDBRANCH  54  68
BRANCH  55  79
ATOM     79  C   UNL A   1      49.521  26.912  26.426  1.00  0.00     0.064 A 
ATOM     80  C   UNL A   1      50.552  26.669  27.343  1.00  0.00     0.173 A 
ATOM     81  C   UNL A   1      49.853  26.928  25.062  1.00  0.00     0.173 A 
ATOM     82  F   UNL A   1      50.294  26.681  28.659  1.00  0.00    -0.203 F 
ATOM     83  C   UNL A   1      51.863  26.464  26.916  1.00  0.00     0.198 A 
ATOM     84  C   UNL A   1      51.158  26.691  24.635  1.00  0.00     0.198 A 
ATOM     85  F   UNL A   1      48.907  27.167  24.143  1.00  0.00    -0.203 F 
ATOM     86  F   UNL A   1      52.839  26.285  27.817  1.00  0.00    -0.200 F 
ATOM     87  C   UNL A   1      52.163  26.466  25.561  1.00  0.00     0.200 A 
ATOM     88  F   UNL A   1      51.442  26.689  23.325  1.00  0.00    -0.200 F 
ATOM     89  F   UNL A   1      53.423  26.264  25.152  1.00  0.00    -0.200 F 
ENDBRANCH  55  79
BRANCH  67  90
ATOM     90  C   UNL A   1      46.159  32.708  28.389  1.00  0.00     0.064 A 
ATOM     91  C   UNL A   1      45.984  33.673  27.386  1.00  0.00     0.173 A 
ATOM     92  C   UNL A   1      46.716  33.129  29.609  1.00  0.00     0.173 A 
ATOM     93  F   UNL A   1      45.466  33.325  26.199  1.00  0.00    -0.203 F 
ATOM     94  C   UNL A   1      46.373  34.996  27.585  1.00  0.00     0.198 A 
ATOM     95  C   UNL A   1      47.073  34.459  29.817  1.00  0.00     0.198 A 
ATOM     96  F   UNL A   1      46.897  32.252  30.607  1.00  0.00    -0.203 F 
ATOM     97  F   UNL A   1      46.238  35.888  26.595  1.00  0.00    -0.200 F 
ATOM     98  C   UNL A   1      46.909  35.389  28.803  1.00  0.00     0.200 A 
ATOM     99  F   UNL A   1      47.575  34.839  30.999  1.00  0.00    -0.200 F 
ATOM    100  F   UNL A   1      47.272  36.665  28.997  1.00  0.00    -0.200 F 
ENDBRANCH  67  90
ENDBRANCH  41  42
ENDBRANCH  34  36
ENDBRANCH  33  34
ENDBRANCH  32  33
ENDBRANCH  31  32
ENDBRANCH  30  31
ENDBRANCH  29  30
ENDBRANCH   1  29
TORSDOF 21
ENDMDL
MODEL 3
REMARK VINA RESULT:     -10.5      4.430      7.126
REMARK SMILES [NH3+][C@H]1CCCN(C(=O)NC[C@H]2CC[C@@H](C(=O)OCCOCCOCCOC(=O)c3ccc(-c4c5nc(c(-c6c(F)c(F)c(F)c(F)c6F)c6ccc([nH]6)c(-c6c(F)c(F)c(F)c(F)c6F)c6nc(c(-c7c(F)c(F)c(F)c(F)c7F)c7ccc4[nH]7)C=C6)C=C5)cc3)CC2)C1
REMARK SMILES IDX 21 1 20 2 19 3 18 4 17 5 15 6 16 7 14 8 11 9 12 10 93 11
REMARK SMILES IDX 13 12 92 13 10 14 9 15 7 16 8 17 6 19 2 20 3 21 94 22 4 23
REMARK SMILES IDX 5 24 1 25 22 29 23 30 24 31 25 32 26 33 27 34 28 35 29 36
REMARK SMILES IDX 30 37 91 38 31 39 90 40 32 41 33 42 34 43 84 44 35 45 89 46
REMARK SMILES IDX 83 47 85 48 36 49 88 50 82 51 81 52 37 54 69 55 49 56 68 57
REMARK SMILES IDX 50 58 53 59 67 60 86 61 51 62 52 63 66 65 87 66 54 67 38 68
REMARK SMILES IDX 39 69 47 70 40 71 41 72 45 73 48 74 42 75 43 76 46 77 44 78
REMARK SMILES IDX 70 79 71 80 79 81 72 82 73 83 77 84 80 85 74 86 75 87 78 88
REMARK SMILES IDX 76 89 55 90 56 91 64 92 57 93 58 94 62 95 65 96 59 97 60 98
REMARK SMILES IDX 63 99 61 100
REMARK H PARENT 9 18 1 26 1 27 1 28 85 53 53 64
REMARK Flexibility Score: inf
ROOT
ATOM      1  C   UNL A   1      36.304  23.077  25.161  1.00  0.00     0.188 C 
ENDROOT
BRANCH   1   2
ATOM      2  O   UNL A   1      35.098  22.380  25.416  1.00  0.00    -0.376 OA
BRANCH   2   3
ATOM      3  C   UNL A   1      34.729  22.135  26.764  1.00  0.00     0.202 C 
BRANCH   3   4
ATOM      4  C   UNL A   1      33.345  22.605  27.231  1.00  0.00     0.261 C 
BRANCH   4   5
ATOM      5  O   UNL A   1      32.847  23.806  26.609  1.00  0.00    -0.463 OA
BRANCH   5   6
ATOM      6  C   UNL A   1      31.492  23.886  26.477  1.00  0.00     0.309 C 
ATOM      7  O   UNL A   1      30.691  23.708  27.387  1.00  0.00    -0.252 OA
BRANCH   6   8
ATOM      8  C   UNL A   1      31.036  24.160  25.043  1.00  0.00     0.099 C 
ATOM      9  C   UNL A   1      31.308  26.106  22.798  1.00  0.00     0.008 C 
ATOM     10  C   UNL A   1      32.057  24.766  22.775  1.00  0.00     0.006 C 
ATOM     11  C   UNL A   1      29.943  25.863  23.445  1.00  0.00     0.006 C 
ATOM     12  C   UNL A   1      32.299  24.214  24.175  1.00  0.00     0.015 C 
ATOM     13  C   UNL A   1      30.092  25.363  24.880  1.00  0.00     0.015 C 
BRANCH   9  14
ATOM     14  C   UNL A   1      32.081  27.220  23.536  1.00  0.00     0.121 C 
BRANCH  14  15
ATOM     15  N   UNL A   1      31.231  28.344  23.857  1.00  0.00    -0.338 N 
ATOM     16  C   UNL A   1      31.244  29.292  24.808  1.00  0.00     0.317 C 
ATOM     17  O   UNL A   1      30.557  30.288  24.560  1.00  0.00    -0.249 OA
ATOM     18  H   UNL A   1      30.472  28.436  23.238  1.00  0.00     0.165 HD
BRANCH  16  19
ATOM     19  N   UNL A   1      31.975  29.179  25.953  1.00  0.00    -0.319 N 
ATOM     20  C   UNL A   1      33.729  30.614  26.955  1.00  0.00     0.200 C 
ATOM     21  C   UNL A   1      34.397  29.350  27.522  1.00  0.00     0.068 C 
ATOM     22  C   UNL A   1      32.216  30.395  26.735  1.00  0.00     0.186 C 
ATOM     23  C   UNL A   1      34.028  28.104  26.710  1.00  0.00     0.028 C 
ATOM     24  C   UNL A   1      32.510  27.983  26.592  1.00  0.00     0.122 C 
BRANCH  20  25
ATOM     25  N   UNL A   1      33.980  31.742  27.858  1.00  0.00    -0.354 N 
ATOM     26  H   UNL A   1      34.093  32.596  27.312  1.00  0.00     0.344 HD
ATOM     27  H   UNL A   1      34.829  31.565  28.394  1.00  0.00     0.344 HD
ATOM     28  H   UNL A   1      33.190  31.848  28.496  1.00  0.00     0.344 HD
ENDBRANCH  20  25
ENDBRANCH  16  19
ENDBRANCH  14  15
ENDBRANCH   9  14
ENDBRANCH   6   8
ENDBRANCH   5   6
ENDBRANCH   4   5
ENDBRANCH   3   4
ENDBRANCH   2   3
ENDBRANCH   1   2
BRANCH   1  29
ATOM     29  C   UNL A   1      37.655  22.391  25.401  1.00  0.00     0.188 C 
BRANCH  29  30
ATOM     30  O   UNL A   1      37.611  21.034  25.788  1.00  0.00    -0.376 OA
BRANCH  30  31
ATOM     31  C   UNL A   1      38.433  20.170  25.005  1.00  0.00     0.202 C 
BRANCH  31  32
ATOM     32  C   UNL A   1      39.443  19.416  25.887  1.00  0.00     0.261 C 
BRANCH  32  33
ATOM     33  O   UNL A   1      40.798  19.919  25.843  1.00  0.00    -0.460 OA
BRANCH  33  34
ATOM     34  C   UNL A   1      41.443  20.081  27.025  1.00  0.00     0.338 C 
ATOM     35  O   UNL A   1      42.053  19.219  27.639  1.00  0.00    -0.246 OA
BRANCH  34  36
ATOM     36  C   UNL A   1      41.554  21.540  27.312  1.00  0.00     0.060 A 
ATOM     37  C   UNL A   1      41.065  22.450  26.358  1.00  0.00     0.016 A 
ATOM     38  C   UNL A   1      42.064  22.020  28.520  1.00  0.00     0.016 A 
ATOM     39  C   UNL A   1      41.132  23.830  26.586  1.00  0.00     0.010 A 
ATOM     40  C   UNL A   1      42.148  23.403  28.740  1.00  0.00     0.010 A 
ATOM     41  C   UNL A   1      41.718  24.320  27.761  1.00  0.00    -0.014 A 
BRANCH  41  42
ATOM     42  C   UNL A   1      42.088  25.758  27.877  1.00  0.00     0.031 A 
ATOM     43  C   UNL A   1      43.410  26.199  27.305  1.00  0.00     0.074 A 
ATOM     44  C   UNL A   1      41.295  26.669  28.472  1.00  0.00     0.049 A 
ATOM     45  N   UNL A   1      43.998  27.369  27.351  1.00  0.00    -0.248 NA
ATOM     46  C   UNL A   1      44.177  25.170  26.586  1.00  0.00     0.031 C 
ATOM     47  C   UNL A   1      39.977  26.406  29.039  1.00  0.00     0.029 A 
ATOM     48  N   UNL A   1      41.505  28.008  28.714  1.00  0.00    -0.354 N 
ATOM     49  C   UNL A   1      45.207  27.210  26.686  1.00  0.00     0.074 A 
ATOM     50  C   UNL A   1      45.281  25.827  26.268  1.00  0.00     0.031 C 
ATOM     51  C   UNL A   1      39.505  27.540  29.588  1.00  0.00     0.029 A 
ATOM     52  C   UNL A   1      40.502  28.602  29.441  1.00  0.00     0.049 A 
ATOM     53  H   UNL A   1      42.300  28.495  28.396  1.00  0.00     0.167 HD
ATOM     54  C   UNL A   1      46.170  28.130  26.439  1.00  0.00     0.037 A 
ATOM     55  C   UNL A   1      40.412  29.847  29.956  1.00  0.00     0.037 A 
ATOM     56  C   UNL A   1      46.106  29.508  26.849  1.00  0.00     0.049 A 
ATOM     57  C   UNL A   1      41.525  30.841  29.727  1.00  0.00     0.074 A 
ATOM     58  C   UNL A   1      47.019  30.522  26.609  1.00  0.00     0.029 A 
ATOM     59  N   UNL A   1      45.081  30.065  27.599  1.00  0.00    -0.354 N 
ATOM     60  N   UNL A   1      42.647  30.695  29.065  1.00  0.00    -0.248 NA
ATOM     61  C   UNL A   1      41.356  32.180  30.319  1.00  0.00     0.031 C 
ATOM     62  C   UNL A   1      46.578  31.674  27.269  1.00  0.00     0.029 A 
ATOM     63  C   UNL A   1      45.356  31.398  27.861  1.00  0.00     0.049 A 
ATOM     64  H   UNL A   1      44.276  29.584  27.900  1.00  0.00     0.167 HD
ATOM     65  C   UNL A   1      43.300  31.922  29.136  1.00  0.00     0.074 A 
ATOM     66  C   UNL A   1      42.445  32.806  29.895  1.00  0.00     0.031 C 
ATOM     67  C   UNL A   1      44.501  32.279  28.615  1.00  0.00     0.037 A 
BRANCH  54  68
ATOM     68  C   UNL A   1      47.404  27.660  25.723  1.00  0.00     0.064 A 
ATOM     69  C   UNL A   1      48.509  27.139  26.412  1.00  0.00     0.173 A 
ATOM     70  C   UNL A   1      47.474  27.722  24.323  1.00  0.00     0.173 A 
ATOM     71  F   UNL A   1      48.500  27.072  27.753  1.00  0.00    -0.203 F 
ATOM     72  C   UNL A   1      49.653  26.733  25.729  1.00  0.00     0.198 A 
ATOM     73  C   UNL A   1      48.605  27.283  23.640  1.00  0.00     0.198 A 
ATOM     74  F   UNL A   1      46.443  28.208  23.615  1.00  0.00    -0.203 F 
ATOM     75  F   UNL A   1      50.720  26.297  26.412  1.00  0.00    -0.200 F 
ATOM     76  C   UNL A   1      49.697  26.799  24.344  1.00  0.00     0.200 A 
ATOM     77  F   UNL A   1      48.640  27.335  22.302  1.00  0.00    -0.200 F 
ATOM     78  F   UNL A   1      50.798  26.407  23.688  1.00  0.00    -0.200 F 
ENDBRANCH  54  68
BRANCH  55  79
ATOM     79  C   UNL A   1      39.227  30.225  30.775  1.00  0.00     0.064 A 
ATOM     80  C   UNL A   1      39.203  30.021  32.161  1.00  0.00     0.173 A 
ATOM     81  C   UNL A   1      38.082  30.777  30.179  1.00  0.00     0.173 A 
ATOM     82  F   UNL A   1      40.257  29.462  32.774  1.00  0.00    -0.203 F 
ATOM     83  C   UNL A   1      38.077  30.342  32.918  1.00  0.00     0.198 A 
ATOM     84  C   UNL A   1      36.969  31.127  30.941  1.00  0.00     0.198 A 
ATOM     85  F   UNL A   1      38.048  30.982  28.854  1.00  0.00    -0.203 F 
ATOM     86  F   UNL A   1      38.062  30.089  34.234  1.00  0.00    -0.200 F 
ATOM     87  C   UNL A   1      36.965  30.903  32.308  1.00  0.00     0.200 A 
ATOM     88  F   UNL A   1      35.900  31.674  30.348  1.00  0.00    -0.200 F 
ATOM     89  F   UNL A   1      35.885  31.216  33.037  1.00  0.00    -0.200 F 
ENDBRANCH  55  79
BRANCH  67  90
ATOM     90  C   UNL A   1      44.955  33.700  28.810  1.00  0.00     0.064 A 
ATOM     91  C   UNL A   1      44.570  34.730  27.938  1.00  0.00     0.173 A 
ATOM     92  C   UNL A   1      45.745  34.047  29.919  1.00  0.00     0.173 A 
ATOM     93  F   UNL A   1      43.824  34.454  26.857  1.00  0.00    -0.203 F 
ATOM     94  C   UNL A   1      44.979  36.044  28.152  1.00  0.00     0.198 A 
ATOM     95  C   UNL A   1      46.125  35.367  30.149  1.00  0.00     0.198 A 
ATOM     96  F   UNL A   1      46.135  33.106  30.792  1.00  0.00    -0.203 F 
ATOM     97  F   UNL A   1      44.637  37.001  27.279  1.00  0.00    -0.200 F 
ATOM     98  C   UNL A   1      45.749  36.363  29.261  1.00  0.00     0.200 A 
ATOM     99  F   UNL A   1      46.854  35.674  31.230  1.00  0.00    -0.200 F 
ATOM    100  F   UNL A   1      46.133  37.630  29.472  1.00  0.00    -0.200 F 
ENDBRANCH  67  90
ENDBRANCH  41  42
ENDBRANCH  34  36
ENDBRANCH  33  34
ENDBRANCH  32  33
ENDBRANCH  31  32
ENDBRANCH  30  31
ENDBRANCH  29  30
ENDBRANCH   1  29
TORSDOF 21
ENDMDL
