MODEL 1
REMARK VINA RESULT:     -10.1      0.000      0.000
REMARK SMILES O=C(Cc1ccccc1F)NC[C@@H]1CC[C@@H](C(=O)OCCOCCOCCOC(=O)c2ccc(-c3c4nc(c(-c5c(F)c(F)c(F)c(F)c5F)c5ccc([nH]5)c(-c5c(F)c(F)c(F)c(F)c5F)c5nc(c(-c6c(F)c(F)c(F)c(F)c6F)c6ccc3[nH]6)C=C5)C=C4)cc2)O1
REMARK SMILES IDX 23 1 22 2 21 3 20 4 19 5 17 6 18 7 16 8 13 9 14 10 94 11
REMARK SMILES IDX 15 12 12 13 11 14 1 15 2 16 3 18 4 19 5 20 9 21 6 22 8 23
REMARK SMILES IDX 10 24 7 25 24 26 25 27 26 28 27 29 28 30 29 31 30 32 31 33
REMARK SMILES IDX 32 34 93 35 33 36 92 37 34 38 35 39 36 40 86 41 37 42 91 43
REMARK SMILES IDX 85 44 87 45 38 46 90 47 84 48 83 49 39 51 71 52 51 53 70 54
REMARK SMILES IDX 52 55 55 56 69 57 88 58 53 59 54 60 68 62 89 63 56 64 40 65
REMARK SMILES IDX 41 66 49 67 42 68 43 69 47 70 50 71 44 72 45 73 48 74 46 75
REMARK SMILES IDX 72 76 73 77 81 78 74 79 75 80 79 81 82 82 76 83 77 84 80 85
REMARK SMILES IDX 78 86 57 87 58 88 66 89 59 90 60 91 64 92 67 93 61 94 62 95
REMARK SMILES IDX 65 96 63 97
REMARK H PARENT 11 17 87 50 55 61
REMARK Flexibility Score: inf
ROOT
ATOM      1  C   UNL A   1      35.015  32.110  28.692  1.00  0.00     0.188 C 
ENDROOT
BRANCH   1   2
ATOM      2  O   UNL A   1      34.411  31.736  27.460  1.00  0.00    -0.376 OA
BRANCH   2   3
ATOM      3  C   UNL A   1      33.355  30.778  27.481  1.00  0.00     0.202 C 
BRANCH   3   4
ATOM      4  C   UNL A   1      33.642  29.395  26.879  1.00  0.00     0.261 C 
BRANCH   4   5
ATOM      5  O   UNL A   1      32.549  28.866  26.098  1.00  0.00    -0.461 OA
BRANCH   5   6
ATOM      6  C   UNL A   1      32.062  27.666  26.516  1.00  0.00     0.335 C 
ATOM      7  O   UNL A   1      31.290  27.530  27.462  1.00  0.00    -0.249 OA
BRANCH   6   8
ATOM      8  C   UNL A   1      32.455  26.486  25.616  1.00  0.00     0.228 C 
ATOM      9  C   UNL A   1      32.804  26.225  23.299  1.00  0.00     0.138 C 
ATOM     10  C   UNL A   1      33.926  25.506  24.032  1.00  0.00     0.037 C 
ATOM     11  O   UNL A   1      31.883  26.679  24.312  1.00  0.00    -0.361 OA
ATOM     12  C   UNL A   1      33.922  26.146  25.409  1.00  0.00     0.047 C 
BRANCH   9  13
ATOM     13  C   UNL A   1      32.057  25.355  22.277  1.00  0.00     0.147 C 
BRANCH  13  14
ATOM     14  N   UNL A   1      31.812  24.025  22.806  1.00  0.00    -0.353 N 
ATOM     15  O   UNL A   1      33.532  22.963  21.732  1.00  0.00    -0.275 OA
ATOM     16  C   UNL A   1      32.635  22.950  22.568  1.00  0.00     0.224 C 
ATOM     17  H   UNL A   1      31.015  23.886  23.366  1.00  0.00     0.163 HD
BRANCH  16  18
ATOM     18  C   UNL A   1      32.388  21.776  23.501  1.00  0.00     0.138 C 
BRANCH  18  19
ATOM     19  C   UNL A   1      32.842  22.001  24.929  1.00  0.00    -0.003 A 
ATOM     20  C   UNL A   1      31.997  22.471  25.947  1.00  0.00     0.007 A 
ATOM     21  C   UNL A   1      34.173  21.722  25.260  1.00  0.00     0.126 A 
ATOM     22  C   UNL A   1      32.469  22.632  27.253  1.00  0.00     0.001 A 
ATOM     23  C   UNL A   1      34.652  21.887  26.559  1.00  0.00     0.039 A 
ATOM     24  F   UNL A   1      35.013  21.284  24.312  1.00  0.00    -0.207 F 
ATOM     25  C   UNL A   1      33.795  22.340  27.560  1.00  0.00     0.003 A 
ENDBRANCH  18  19
ENDBRANCH  16  18
ENDBRANCH  13  14
ENDBRANCH   9  13
ENDBRANCH   6   8
ENDBRANCH   5   6
ENDBRANCH   4   5
ENDBRANCH   3   4
ENDBRANCH   2   3
ENDBRANCH   1   2
BRANCH   1  26
ATOM     26  C   UNL A   1      34.597  33.436  29.347  1.00  0.00     0.188 C 
BRANCH  26  27
ATOM     27  O   UNL A   1      34.964  34.597  28.626  1.00  0.00    -0.376 OA
BRANCH  27  28
ATOM     28  C   UNL A   1      34.070  35.697  28.704  1.00  0.00     0.202 C 
BRANCH  28  29
ATOM     29  C   UNL A   1      32.923  35.495  29.704  1.00  0.00     0.261 C 
BRANCH  29  30
ATOM     30  O   UNL A   1      33.078  36.208  30.947  1.00  0.00    -0.460 OA
BRANCH  30  31
ATOM     31  C   UNL A   1      32.738  35.542  32.069  1.00  0.00     0.338 C 
ATOM     32  O   UNL A   1      31.602  35.309  32.475  1.00  0.00    -0.246 OA
BRANCH  31  33
ATOM     33  C   UNL A   1      33.951  34.912  32.623  1.00  0.00     0.060 A 
ATOM     34  C   UNL A   1      35.171  35.593  32.512  1.00  0.00     0.016 A 
ATOM     35  C   UNL A   1      33.892  33.664  33.246  1.00  0.00     0.016 A 
ATOM     36  C   UNL A   1      36.342  35.013  32.994  1.00  0.00     0.010 A 
ATOM     37  C   UNL A   1      35.072  33.071  33.707  1.00  0.00     0.010 A 
ATOM     38  C   UNL A   1      36.306  33.728  33.553  1.00  0.00    -0.014 A 
BRANCH  38  39
ATOM     39  C   UNL A   1      37.580  33.004  33.780  1.00  0.00     0.031 A 
ATOM     40  C   UNL A   1      38.317  33.242  35.070  1.00  0.00     0.074 A 
ATOM     41  C   UNL A   1      38.044  32.103  32.895  1.00  0.00     0.049 A 
ATOM     42  N   UNL A   1      39.439  32.722  35.498  1.00  0.00    -0.248 NA
ATOM     43  C   UNL A   1      37.701  34.195  36.008  1.00  0.00     0.031 C 
ATOM     44  C   UNL A   1      37.394  31.740  31.640  1.00  0.00     0.029 A 
ATOM     45  N   UNL A   1      39.172  31.321  32.933  1.00  0.00    -0.354 N 
ATOM     46  C   UNL A   1      39.659  33.281  36.749  1.00  0.00     0.074 A 
ATOM     47  C   UNL A   1      38.577  34.206  37.001  1.00  0.00     0.031 C 
ATOM     48  C   UNL A   1      38.127  30.793  31.030  1.00  0.00     0.029 A 
ATOM     49  C   UNL A   1      39.310  30.502  31.840  1.00  0.00     0.049 A 
ATOM     50  H   UNL A   1      39.819  31.344  33.674  1.00  0.00     0.167 HD
ATOM     51  C   UNL A   1      40.669  33.036  37.617  1.00  0.00     0.037 A 
ATOM     52  C   UNL A   1      40.285  29.624  31.529  1.00  0.00     0.037 A 
ATOM     53  C   UNL A   1      41.743  32.111  37.373  1.00  0.00     0.049 A 
ATOM     54  C   UNL A   1      41.440  29.426  32.478  1.00  0.00     0.074 A 
ATOM     55  C   UNL A   1      42.811  31.799  38.193  1.00  0.00     0.029 A 
ATOM     56  N   UNL A   1      41.884  31.351  36.222  1.00  0.00    -0.354 N 
ATOM     57  N   UNL A   1      41.650  29.968  33.653  1.00  0.00    -0.248 NA
ATOM     58  C   UNL A   1      42.496  28.494  32.055  1.00  0.00     0.031 C 
ATOM     59  C   UNL A   1      43.628  30.887  37.519  1.00  0.00     0.029 A 
ATOM     60  C   UNL A   1      43.037  30.588  36.301  1.00  0.00     0.049 A 
ATOM     61  H   UNL A   1      41.258  31.353  35.462  1.00  0.00     0.167 HD
ATOM     62  C   UNL A   1      42.842  29.427  34.119  1.00  0.00     0.074 A 
ATOM     63  C   UNL A   1      43.307  28.506  33.104  1.00  0.00     0.031 C 
ATOM     64  C   UNL A   1      43.492  29.673  35.285  1.00  0.00     0.037 A 
BRANCH  51  65
ATOM     65  C   UNL A   1      40.673  33.795  38.909  1.00  0.00     0.064 A 
ATOM     66  C   UNL A   1      39.889  33.361  39.988  1.00  0.00     0.173 A 
ATOM     67  C   UNL A   1      41.410  34.979  39.065  1.00  0.00     0.173 A 
ATOM     68  F   UNL A   1      39.166  32.235  39.889  1.00  0.00    -0.203 F 
ATOM     69  C   UNL A   1      39.829  34.092  41.170  1.00  0.00     0.198 A 
ATOM     70  C   UNL A   1      41.370  35.693  40.260  1.00  0.00     0.198 A 
ATOM     71  F   UNL A   1      42.191  35.425  38.071  1.00  0.00    -0.203 F 
ATOM     72  F   UNL A   1      39.050  33.674  42.177  1.00  0.00    -0.200 F 
ATOM     73  C   UNL A   1      40.573  35.256  41.308  1.00  0.00     0.200 A 
ATOM     74  F   UNL A   1      42.109  36.802  40.401  1.00  0.00    -0.200 F 
ATOM     75  F   UNL A   1      40.524  35.952  42.451  1.00  0.00    -0.200 F 
ENDBRANCH  51  65
BRANCH  52  76
ATOM     76  C   UNL A   1      40.208  28.860  30.255  1.00  0.00     0.064 A 
ATOM     77  C   UNL A   1      39.568  27.613  30.194  1.00  0.00     0.173 A 
ATOM     78  C   UNL A   1      40.773  29.360  29.074  1.00  0.00     0.173 A 
ATOM     79  F   UNL A   1      39.000  27.094  31.292  1.00  0.00    -0.203 F 
ATOM     80  C   UNL A   1      39.518  26.887  29.006  1.00  0.00     0.198 A 
ATOM     81  C   UNL A   1      40.700  28.645  27.881  1.00  0.00     0.198 A 
ATOM     82  F   UNL A   1      41.362  30.565  29.073  1.00  0.00    -0.203 F 
ATOM     83  F   UNL A   1      38.921  25.687  28.983  1.00  0.00    -0.200 F 
ATOM     84  C   UNL A   1      40.080  27.405  27.850  1.00  0.00     0.200 A 
ATOM     85  F   UNL A   1      41.210  29.166  26.757  1.00  0.00    -0.200 F 
ATOM     86  F   UNL A   1      40.011  26.715  26.702  1.00  0.00    -0.200 F 
ENDBRANCH  52  76
BRANCH  64  87
ATOM     87  C   UNL A   1      44.770  28.927  35.546  1.00  0.00     0.064 A 
ATOM     88  C   UNL A   1      44.752  27.708  36.242  1.00  0.00     0.173 A 
ATOM     89  C   UNL A   1      46.016  29.457  35.182  1.00  0.00     0.173 A 
ATOM     90  F   UNL A   1      43.587  27.164  36.624  1.00  0.00    -0.203 F 
ATOM     91  C   UNL A   1      45.935  27.053  36.571  1.00  0.00     0.198 A 
ATOM     92  C   UNL A   1      47.196  28.784  35.489  1.00  0.00     0.198 A 
ATOM     93  F   UNL A   1      46.087  30.616  34.511  1.00  0.00    -0.203 F 
ATOM     94  F   UNL A   1      45.894  25.908  37.267  1.00  0.00    -0.200 F 
ATOM     95  C   UNL A   1      47.155  27.589  36.192  1.00  0.00     0.200 A 
ATOM     96  F   UNL A   1      48.375  29.292  35.102  1.00  0.00    -0.200 F 
ATOM     97  F   UNL A   1      48.293  26.951  36.500  1.00  0.00    -0.200 F 
ENDBRANCH  64  87
ENDBRANCH  38  39
ENDBRANCH  31  33
ENDBRANCH  30  31
ENDBRANCH  29  30
ENDBRANCH  28  29
ENDBRANCH  27  28
ENDBRANCH  26  27
ENDBRANCH   1  26
TORSDOF 21
ENDMDL
MODEL 2
REMARK VINA RESULT:      -9.8      4.675     10.947
REMARK SMILES O=C(Cc1ccccc1F)NC[C@@H]1CC[C@@H](C(=O)OCCOCCOCCOC(=O)c2ccc(-c3c4nc(c(-c5c(F)c(F)c(F)c(F)c5F)c5ccc([nH]5)c(-c5c(F)c(F)c(F)c(F)c5F)c5nc(c(-c6c(F)c(F)c(F)c(F)c6F)c6ccc3[nH]6)C=C5)C=C4)cc2)O1
REMARK SMILES IDX 23 1 22 2 21 3 20 4 19 5 17 6 18 7 16 8 13 9 14 10 94 11
REMARK SMILES IDX 15 12 12 13 11 14 1 15 2 16 3 18 4 19 5 20 9 21 6 22 8 23
REMARK SMILES IDX 10 24 7 25 24 26 25 27 26 28 27 29 28 30 29 31 30 32 31 33
REMARK SMILES IDX 32 34 93 35 33 36 92 37 34 38 35 39 36 40 86 41 37 42 91 43
REMARK SMILES IDX 85 44 87 45 38 46 90 47 84 48 83 49 39 51 71 52 51 53 70 54
REMARK SMILES IDX 52 55 55 56 69 57 88 58 53 59 54 60 68 62 89 63 56 64 40 65
REMARK SMILES IDX 41 66 49 67 42 68 43 69 47 70 50 71 44 72 45 73 48 74 46 75
REMARK SMILES IDX 72 76 73 77 81 78 74 79 75 80 79 81 82 82 76 83 77 84 80 85
REMARK SMILES IDX 78 86 57 87 58 88 66 89 59 90 60 91 64 92 67 93 61 94 62 95
REMARK SMILES IDX 65 96 63 97
REMARK H PARENT 11 17 87 50 55 61
REMARK Flexibility Score: inf
ROOT
ATOM      1  C   UNL A   1      32.854  36.138  31.053  1.00  0.00     0.188 C 
ENDROOT
BRANCH   1   2
ATOM      2  O   UNL A   1      34.078  35.965  31.757  1.00  0.00    -0.376 OA
BRANCH   2   3
ATOM      3  C   UNL A   1      34.084  36.158  33.171  1.00  0.00     0.202 C 
BRANCH   3   4
ATOM      4  C   UNL A   1      34.831  35.122  34.023  1.00  0.00     0.261 C 
BRANCH   4   5
ATOM      5  O   UNL A   1      36.268  35.239  33.948  1.00  0.00    -0.461 OA
BRANCH   5   6
ATOM      6  C   UNL A   1      36.901  34.228  33.292  1.00  0.00     0.335 C 
ATOM      7  O   UNL A   1      36.725  33.963  32.106  1.00  0.00    -0.249 OA
BRANCH   6   8
ATOM      8  C   UNL A   1      37.969  33.514  34.130  1.00  0.00     0.228 C 
ATOM      9  C   UNL A   1      39.368  31.649  33.776  1.00  0.00     0.138 C 
ATOM     10  C   UNL A   1      40.201  32.754  34.407  1.00  0.00     0.037 C 
ATOM     11  O   UNL A   1      38.007  32.126  33.761  1.00  0.00    -0.361 OA
ATOM     12  C   UNL A   1      39.405  34.013  34.114  1.00  0.00     0.047 C 
BRANCH   9  13
ATOM     13  C   UNL A   1      39.434  30.306  34.520  1.00  0.00     0.147 C 
BRANCH  13  14
ATOM     14  N   UNL A   1      40.800  29.821  34.598  1.00  0.00    -0.353 N 
ATOM     15  O   UNL A   1      40.423  27.740  33.723  1.00  0.00    -0.275 OA
ATOM     16  C   UNL A   1      41.206  28.606  34.098  1.00  0.00     0.224 C 
ATOM     17  H   UNL A   1      41.473  30.393  35.033  1.00  0.00     0.163 HD
BRANCH  16  18
ATOM     18  C   UNL A   1      42.713  28.474  33.969  1.00  0.00     0.138 C 
BRANCH  18  19
ATOM     19  C   UNL A   1      43.217  27.047  33.910  1.00  0.00    -0.003 A 
ATOM     20  C   UNL A   1      43.868  26.500  32.792  1.00  0.00     0.007 A 
ATOM     21  C   UNL A   1      43.033  26.225  35.027  1.00  0.00     0.126 A 
ATOM     22  C   UNL A   1      44.334  25.181  32.809  1.00  0.00     0.001 A 
ATOM     23  C   UNL A   1      43.489  24.907  35.048  1.00  0.00     0.039 A 
ATOM     24  F   UNL A   1      42.405  26.708  36.109  1.00  0.00    -0.207 F 
ATOM     25  C   UNL A   1      44.146  24.386  33.936  1.00  0.00     0.003 A 
ENDBRANCH  18  19
ENDBRANCH  16  18
ENDBRANCH  13  14
ENDBRANCH   9  13
ENDBRANCH   6   8
ENDBRANCH   5   6
ENDBRANCH   4   5
ENDBRANCH   3   4
ENDBRANCH   2   3
ENDBRANCH   1   2
BRANCH   1  26
ATOM     26  C   UNL A   1      32.842  35.930  29.531  1.00  0.00     0.188 C 
BRANCH  26  27
ATOM     27  O   UNL A   1      32.725  34.583  29.115  1.00  0.00    -0.376 OA
BRANCH  27  28
ATOM     28  C   UNL A   1      33.775  34.081  28.301  1.00  0.00     0.202 C 
BRANCH  28  29
ATOM     29  C   UNL A   1      34.356  32.747  28.791  1.00  0.00     0.261 C 
BRANCH  29  30
ATOM     30  O   UNL A   1      34.938  31.930  27.757  1.00  0.00    -0.460 OA
BRANCH  30  31
ATOM     31  C   UNL A   1      34.854  30.595  27.926  1.00  0.00     0.338 C 
ATOM     32  O   UNL A   1      33.876  29.883  27.718  1.00  0.00    -0.246 OA
BRANCH  31  33
ATOM     33  C   UNL A   1      36.211  30.071  28.173  1.00  0.00     0.060 A 
ATOM     34  C   UNL A   1      36.499  29.521  29.429  1.00  0.00     0.016 A 
ATOM     35  C   UNL A   1      37.192  30.120  27.180  1.00  0.00     0.016 A 
ATOM     36  C   UNL A   1      37.779  29.046  29.708  1.00  0.00     0.010 A 
ATOM     37  C   UNL A   1      38.483  29.667  27.469  1.00  0.00     0.010 A 
ATOM     38  C   UNL A   1      38.791  29.160  28.745  1.00  0.00    -0.014 A 
BRANCH  38  39
ATOM     39  C   UNL A   1      40.200  28.939  29.149  1.00  0.00     0.031 A 
ATOM     40  C   UNL A   1      40.876  27.666  28.719  1.00  0.00     0.074 A 
ATOM     41  C   UNL A   1      40.892  29.873  29.826  1.00  0.00     0.049 A 
ATOM     42  N   UNL A   1      42.097  27.253  28.941  1.00  0.00    -0.248 NA
ATOM     43  C   UNL A   1      40.061  26.730  27.926  1.00  0.00     0.031 C 
ATOM     44  C   UNL A   1      40.371  31.170  30.248  1.00  0.00     0.029 A 
ATOM     45  N   UNL A   1      42.194  29.871  30.263  1.00  0.00    -0.354 N 
ATOM     46  C   UNL A   1      42.197  26.018  28.315  1.00  0.00     0.074 A 
ATOM     47  C   UNL A   1      40.906  25.728  27.734  1.00  0.00     0.031 C 
ATOM     48  C   UNL A   1      41.349  31.848  30.873  1.00  0.00     0.029 A 
ATOM     49  C   UNL A   1      42.556  31.022  30.917  1.00  0.00     0.049 A 
ATOM     50  H   UNL A   1      42.809  29.116  30.121  1.00  0.00     0.167 HD
ATOM     51  C   UNL A   1      43.273  25.203  28.224  1.00  0.00     0.037 A 
ATOM     52  C   UNL A   1      43.728  31.365  31.491  1.00  0.00     0.037 A 
ATOM     53  C   UNL A   1      44.562  25.491  28.795  1.00  0.00     0.049 A 
ATOM     54  C   UNL A   1      44.890  30.405  31.441  1.00  0.00     0.074 A 
ATOM     55  C   UNL A   1      45.711  24.723  28.755  1.00  0.00     0.029 A 
ATOM     56  N   UNL A   1      44.869  26.638  29.510  1.00  0.00    -0.354 N 
ATOM     57  N   UNL A   1      44.974  29.233  30.861  1.00  0.00    -0.248 NA
ATOM     58  C   UNL A   1      46.121  30.817  32.132  1.00  0.00     0.031 C 
ATOM     59  C   UNL A   1      46.701  25.382  29.489  1.00  0.00     0.029 A 
ATOM     60  C   UNL A   1      46.185  26.587  29.939  1.00  0.00     0.049 A 
ATOM     61  H   UNL A   1      44.245  27.379  29.687  1.00  0.00     0.167 HD
ATOM     62  C   UNL A   1      46.267  28.780  31.092  1.00  0.00     0.074 A 
ATOM     63  C   UNL A   1      46.937  29.808  31.859  1.00  0.00     0.031 C 
ATOM     64  C   UNL A   1      46.845  27.616  30.702  1.00  0.00     0.037 A 
BRANCH  51  65
ATOM     65  C   UNL A   1      43.102  23.905  27.493  1.00  0.00     0.064 A 
ATOM     66  C   UNL A   1      43.407  23.816  26.127  1.00  0.00     0.173 A 
ATOM     67  C   UNL A   1      42.587  22.765  28.128  1.00  0.00     0.173 A 
ATOM     68  F   UNL A   1      43.902  24.879  25.474  1.00  0.00    -0.203 F 
ATOM     69  C   UNL A   1      43.189  22.638  25.419  1.00  0.00     0.198 A 
ATOM     70  C   UNL A   1      42.396  21.580  27.423  1.00  0.00     0.198 A 
ATOM     71  F   UNL A   1      42.298  22.793  29.438  1.00  0.00    -0.203 F 
ATOM     72  F   UNL A   1      43.461  22.586  24.108  1.00  0.00    -0.200 F 
ATOM     73  C   UNL A   1      42.687  21.519  26.068  1.00  0.00     0.200 A 
ATOM     74  F   UNL A   1      41.936  20.492  28.057  1.00  0.00    -0.200 F 
ATOM     75  F   UNL A   1      42.489  20.382  25.388  1.00  0.00    -0.200 F 
ENDBRANCH  51  65
BRANCH  52  76
ATOM     76  C   UNL A   1      43.859  32.686  32.162  1.00  0.00     0.064 A 
ATOM     77  C   UNL A   1      44.189  33.840  31.435  1.00  0.00     0.173 A 
ATOM     78  C   UNL A   1      43.662  32.820  33.543  1.00  0.00     0.173 A 
ATOM     79  F   UNL A   1      44.377  33.768  30.110  1.00  0.00    -0.203 F 
ATOM     80  C   UNL A   1      44.336  35.072  32.068  1.00  0.00     0.198 A 
ATOM     81  C   UNL A   1      43.784  34.058  34.171  1.00  0.00     0.198 A 
ATOM     82  F   UNL A   1      43.308  31.753  34.275  1.00  0.00    -0.203 F 
ATOM     83  F   UNL A   1      44.675  36.153  31.353  1.00  0.00    -0.200 F 
ATOM     84  C   UNL A   1      44.131  35.181  33.435  1.00  0.00     0.200 A 
ATOM     85  F   UNL A   1      43.546  34.167  35.485  1.00  0.00    -0.200 F 
ATOM     86  F   UNL A   1      44.250  36.372  34.039  1.00  0.00    -0.200 F 
ENDBRANCH  52  76
BRANCH  64  87
ATOM     87  C   UNL A   1      48.281  27.386  31.077  1.00  0.00     0.064 A 
ATOM     88  C   UNL A   1      49.312  27.722  30.185  1.00  0.00     0.173 A 
ATOM     89  C   UNL A   1      48.634  26.761  32.282  1.00  0.00     0.173 A 
ATOM     90  F   UNL A   1      49.027  28.310  29.014  1.00  0.00    -0.203 F 
ATOM     91  C   UNL A   1      50.639  27.430  30.481  1.00  0.00     0.198 A 
ATOM     92  C   UNL A   1      49.967  26.497  32.587  1.00  0.00     0.198 A 
ATOM     93  F   UNL A   1      47.687  26.426  33.171  1.00  0.00    -0.203 F 
ATOM     94  F   UNL A   1      51.603  27.727  29.597  1.00  0.00    -0.200 F 
ATOM     95  C   UNL A   1      50.967  26.822  31.682  1.00  0.00     0.200 A 
ATOM     96  F   UNL A   1      50.284  25.928  33.758  1.00  0.00    -0.200 F 
ATOM     97  F   UNL A   1      52.248  26.551  31.970  1.00  0.00    -0.200 F 
ENDBRANCH  64  87
ENDBRANCH  38  39
ENDBRANCH  31  33
ENDBRANCH  30  31
ENDBRANCH  29  30
ENDBRANCH  28  29
ENDBRANCH  27  28
ENDBRANCH  26  27
ENDBRANCH   1  26
TORSDOF 21
ENDMDL
MODEL 3
REMARK VINA RESULT:      -9.7      5.024      7.368
REMARK SMILES O=C(Cc1ccccc1F)NC[C@@H]1CC[C@@H](C(=O)OCCOCCOCCOC(=O)c2ccc(-c3c4nc(c(-c5c(F)c(F)c(F)c(F)c5F)c5ccc([nH]5)c(-c5c(F)c(F)c(F)c(F)c5F)c5nc(c(-c6c(F)c(F)c(F)c(F)c6F)c6ccc3[nH]6)C=C5)C=C4)cc2)O1
REMARK SMILES IDX 23 1 22 2 21 3 20 4 19 5 17 6 18 7 16 8 13 9 14 10 94 11
REMARK SMILES IDX 15 12 12 13 11 14 1 15 2 16 3 18 4 19 5 20 9 21 6 22 8 23
REMARK SMILES IDX 10 24 7 25 24 26 25 27 26 28 27 29 28 30 29 31 30 32 31 33
REMARK SMILES IDX 32 34 93 35 33 36 92 37 34 38 35 39 36 40 86 41 37 42 91 43
REMARK SMILES IDX 85 44 87 45 38 46 90 47 84 48 83 49 39 51 71 52 51 53 70 54
REMARK SMILES IDX 52 55 55 56 69 57 88 58 53 59 54 60 68 62 89 63 56 64 40 65
REMARK SMILES IDX 41 66 49 67 42 68 43 69 47 70 50 71 44 72 45 73 48 74 46 75
REMARK SMILES IDX 72 76 73 77 81 78 74 79 75 80 79 81 82 82 76 83 77 84 80 85
REMARK SMILES IDX 78 86 57 87 58 88 66 89 59 90 60 91 64 92 67 93 61 94 62 95
REMARK SMILES IDX 65 96 63 97
REMARK H PARENT 11 17 87 50 55 61
REMARK Flexibility Score: inf
ROOT
ATOM      1  C   UNL A   1      34.962  33.310  28.127  1.00  0.00     0.188 C 
ENDROOT
BRANCH   1   2
ATOM      2  O   UNL A   1      34.237  32.379  27.334  1.00  0.00    -0.376 OA
BRANCH   2   3
ATOM      3  C   UNL A   1      34.144  31.028  27.782  1.00  0.00     0.202 C 
BRANCH   3   4
ATOM      4  C   UNL A   1      33.221  30.084  26.998  1.00  0.00     0.261 C 
BRANCH   4   5
ATOM      5  O   UNL A   1      33.568  28.690  27.137  1.00  0.00    -0.461 OA
BRANCH   5   6
ATOM      6  C   UNL A   1      32.522  27.821  27.076  1.00  0.00     0.335 C 
ATOM      7  O   UNL A   1      31.447  28.001  27.642  1.00  0.00    -0.249 OA
BRANCH   6   8
ATOM      8  C   UNL A   1      32.747  26.641  26.122  1.00  0.00     0.228 C 
ATOM      9  C   UNL A   1      33.034  26.437  23.790  1.00  0.00     0.138 C 
ATOM     10  C   UNL A   1      34.059  25.546  24.474  1.00  0.00     0.037 C 
ATOM     11  O   UNL A   1      32.192  26.963  24.837  1.00  0.00    -0.361 OA
ATOM     12  C   UNL A   1      34.153  26.120  25.877  1.00  0.00     0.047 C 
BRANCH   9  13
ATOM     13  C   UNL A   1      32.167  25.717  22.745  1.00  0.00     0.147 C 
BRANCH  13  14
ATOM     14  N   UNL A   1      31.921  24.341  23.133  1.00  0.00    -0.353 N 
ATOM     15  O   UNL A   1      33.567  23.381  21.866  1.00  0.00    -0.275 OA
ATOM     16  C   UNL A   1      32.710  23.286  22.738  1.00  0.00     0.224 C 
ATOM     17  H   UNL A   1      31.147  24.151  23.711  1.00  0.00     0.163 HD
BRANCH  16  18
ATOM     18  C   UNL A   1      32.481  22.019  23.544  1.00  0.00     0.138 C 
BRANCH  18  19
ATOM     19  C   UNL A   1      32.993  22.080  24.968  1.00  0.00    -0.003 A 
ATOM     20  C   UNL A   1      32.225  22.543  26.049  1.00  0.00     0.007 A 
ATOM     21  C   UNL A   1      34.297  21.645  25.231  1.00  0.00     0.126 A 
ATOM     22  C   UNL A   1      32.745  22.549  27.347  1.00  0.00     0.001 A 
ATOM     23  C   UNL A   1      34.824  21.655  26.522  1.00  0.00     0.039 A 
ATOM     24  F   UNL A   1      35.065  21.207  24.223  1.00  0.00    -0.207 F 
ATOM     25  C   UNL A   1      34.043  22.104  27.584  1.00  0.00     0.003 A 
ENDBRANCH  18  19
ENDBRANCH  16  18
ENDBRANCH  13  14
ENDBRANCH   9  13
ENDBRANCH   6   8
ENDBRANCH   5   6
ENDBRANCH   4   5
ENDBRANCH   3   4
ENDBRANCH   2   3
ENDBRANCH   1   2
BRANCH   1  26
ATOM     26  C   UNL A   1      34.192  34.440  28.829  1.00  0.00     0.188 C 
BRANCH  26  27
ATOM     27  O   UNL A   1      33.686  34.110  30.108  1.00  0.00    -0.376 OA
BRANCH  27  28
ATOM     28  C   UNL A   1      34.272  34.786  31.211  1.00  0.00     0.202 C 
BRANCH  28  29
ATOM     29  C   UNL A   1      35.771  34.506  31.386  1.00  0.00     0.261 C 
BRANCH  29  30
ATOM     30  O   UNL A   1      36.108  33.755  32.569  1.00  0.00    -0.460 OA
BRANCH  30  31
ATOM     31  C   UNL A   1      35.762  32.452  32.572  1.00  0.00     0.338 C 
ATOM     32  O   UNL A   1      34.679  31.975  32.899  1.00  0.00    -0.246 OA
BRANCH  31  33
ATOM     33  C   UNL A   1      36.818  31.688  31.882  1.00  0.00     0.060 A 
ATOM     34  C   UNL A   1      37.973  31.343  32.597  1.00  0.00     0.016 A 
ATOM     35  C   UNL A   1      36.677  31.315  30.543  1.00  0.00     0.016 A 
ATOM     36  C   UNL A   1      39.005  30.650  31.968  1.00  0.00     0.010 A 
ATOM     37  C   UNL A   1      37.725  30.643  29.905  1.00  0.00     0.010 A 
ATOM     38  C   UNL A   1      38.906  30.338  30.605  1.00  0.00    -0.014 A 
BRANCH  38  39
ATOM     39  C   UNL A   1      40.116  29.882  29.880  1.00  0.00     0.031 A 
ATOM     40  C   UNL A   1      41.270  30.837  29.742  1.00  0.00     0.074 A 
ATOM     41  C   UNL A   1      40.222  28.626  29.408  1.00  0.00     0.049 A 
ATOM     42  N   UNL A   1      42.430  30.666  29.162  1.00  0.00    -0.248 NA
ATOM     43  C   UNL A   1      41.091  32.168  30.346  1.00  0.00     0.031 C 
ATOM     44  C   UNL A   1      39.201  27.590  29.530  1.00  0.00     0.029 A 
ATOM     45  N   UNL A   1      41.253  28.011  28.742  1.00  0.00    -0.354 N 
ATOM     46  C   UNL A   1      43.117  31.861  29.334  1.00  0.00     0.074 A 
ATOM     47  C   UNL A   1      42.235  32.763  30.040  1.00  0.00     0.031 C 
ATOM     48  C   UNL A   1      39.662  26.459  28.968  1.00  0.00     0.029 A 
ATOM     49  C   UNL A   1      40.999  26.700  28.426  1.00  0.00     0.049 A 
ATOM     50  H   UNL A   1      42.095  28.467  28.514  1.00  0.00     0.167 HD
ATOM     51  C   UNL A   1      44.375  32.174  28.947  1.00  0.00     0.037 A 
ATOM     52  C   UNL A   1      41.759  25.800  27.768  1.00  0.00     0.037 A 
ATOM     53  C   UNL A   1      45.258  31.276  28.251  1.00  0.00     0.049 A 
ATOM     54  C   UNL A   1      43.129  26.199  27.280  1.00  0.00     0.074 A 
ATOM     55  C   UNL A   1      46.551  31.507  27.817  1.00  0.00     0.029 A 
ATOM     56  N   UNL A   1      44.938  29.978  27.888  1.00  0.00    -0.354 N 
ATOM     57  N   UNL A   1      43.767  27.334  27.432  1.00  0.00    -0.248 NA
ATOM     58  C   UNL A   1      43.885  25.189  26.524  1.00  0.00     0.031 C 
ATOM     59  C   UNL A   1      46.996  30.365  27.146  1.00  0.00     0.029 A 
ATOM     60  C   UNL A   1      46.001  29.403  27.212  1.00  0.00     0.049 A 
ATOM     61  H   UNL A   1      44.082  29.530  28.082  1.00  0.00     0.167 HD
ATOM     62  C   UNL A   1      45.001  27.168  26.817  1.00  0.00     0.074 A 
ATOM     63  C   UNL A   1      45.029  25.819  26.295  1.00  0.00     0.031 C 
ATOM     64  C   UNL A   1      46.020  28.057  26.696  1.00  0.00     0.037 A 
BRANCH  51  65
ATOM     65  C   UNL A   1      44.871  33.556  29.250  1.00  0.00     0.064 A 
ATOM     66  C   UNL A   1      44.671  34.597  28.332  1.00  0.00     0.173 A 
ATOM     67  C   UNL A   1      45.589  33.840  30.421  1.00  0.00     0.173 A 
ATOM     68  F   UNL A   1      43.991  34.376  27.197  1.00  0.00    -0.203 F 
ATOM     69  C   UNL A   1      45.185  35.868  28.567  1.00  0.00     0.198 A 
ATOM     70  C   UNL A   1      46.077  35.121  30.667  1.00  0.00     0.198 A 
ATOM     71  F   UNL A   1      45.790  32.884  31.340  1.00  0.00    -0.203 F 
ATOM     72  F   UNL A   1      45.006  36.840  27.662  1.00  0.00    -0.200 F 
ATOM     73  C   UNL A   1      45.884  36.131  29.736  1.00  0.00     0.200 A 
ATOM     74  F   UNL A   1      46.730  35.380  31.809  1.00  0.00    -0.200 F 
ATOM     75  F   UNL A   1      46.368  37.359  29.968  1.00  0.00    -0.200 F 
ENDBRANCH  51  65
BRANCH  52  76
ATOM     76  C   UNL A   1      41.238  24.427  27.536  1.00  0.00     0.064 A 
ATOM     77  C   UNL A   1      41.809  23.316  28.174  1.00  0.00     0.173 A 
ATOM     78  C   UNL A   1      40.161  24.198  26.669  1.00  0.00     0.173 A 
ATOM     79  F   UNL A   1      42.834  23.482  29.023  1.00  0.00    -0.203 F 
ATOM     80  C   UNL A   1      41.336  22.027  27.937  1.00  0.00     0.198 A 
ATOM     81  C   UNL A   1      39.673  22.911  26.452  1.00  0.00     0.198 A 
ATOM     82  F   UNL A   1      39.558  25.231  26.064  1.00  0.00    -0.203 F 
ATOM     83  F   UNL A   1      41.917  20.982  28.543  1.00  0.00    -0.200 F 
ATOM     84  C   UNL A   1      40.267  21.826  27.079  1.00  0.00     0.200 A 
ATOM     85  F   UNL A   1      38.614  22.724  25.652  1.00  0.00    -0.200 F 
ATOM     86  F   UNL A   1      39.798  20.587  26.869  1.00  0.00    -0.200 F 
ENDBRANCH  52  76
BRANCH  64  87
ATOM     87  C   UNL A   1      47.266  27.604  25.989  1.00  0.00     0.064 A 
ATOM     88  C   UNL A   1      47.372  27.717  24.594  1.00  0.00     0.173 A 
ATOM     89  C   UNL A   1      48.318  26.987  26.679  1.00  0.00     0.173 A 
ATOM     90  F   UNL A   1      46.388  28.289  23.884  1.00  0.00    -0.203 F 
ATOM     91  C   UNL A   1      48.480  27.218  23.917  1.00  0.00     0.198 A 
ATOM     92  C   UNL A   1      49.439  26.514  26.001  1.00  0.00     0.198 A 
ATOM     93  F   UNL A   1      48.268  26.860  28.014  1.00  0.00    -0.203 F 
ATOM     94  F   UNL A   1      48.544  27.305  22.580  1.00  0.00    -0.200 F 
ATOM     95  C   UNL A   1      49.515  26.621  24.620  1.00  0.00     0.200 A 
ATOM     96  F   UNL A   1      50.448  25.957  26.685  1.00  0.00    -0.200 F 
ATOM     97  F   UNL A   1      50.587  26.151  23.968  1.00  0.00    -0.200 F 
ENDBRANCH  64  87
ENDBRANCH  38  39
ENDBRANCH  31  33
ENDBRANCH  30  31
ENDBRANCH  29  30
ENDBRANCH  28  29
ENDBRANCH  27  28
ENDBRANCH  26  27
ENDBRANCH   1  26
TORSDOF 21
ENDMDL
