MODEL 1
REMARK VINA RESULT:     -10.3      0.000      0.000
REMARK SMILES CC[N@H+](CC(C)(C)C(=O)OCCOCCOCCOC(=O)c1ccc(-c2c3nc(c(-c4c(F)c(F)c(F)c(F)c4F)c4ccc([nH]4)c(-c4c(F)c(F)c(F)c(F)c4F)c4nc(c(-c5c(F)c(F)c(F)c(F)c5F)c5ccc2[nH]5)C=C4)C=C3)cc1)[C@H]1CC[NH2+]C1
REMARK SMILES IDX 14 1 13 2 12 3 11 4 10 5 8 6 9 7 5 8 6 9 7 10 4 11 3 12 2 14
REMARK SMILES IDX 1 15 85 16 86 17 89 18 87 19 88 20 15 23 16 24 17 25 18 26
REMARK SMILES IDX 19 27 20 28 21 29 22 30 23 31 84 32 24 33 83 34 25 35 26 36
REMARK SMILES IDX 27 37 77 38 28 39 82 40 76 41 78 42 29 43 81 44 75 45 74 46
REMARK SMILES IDX 30 48 62 49 42 50 61 51 43 52 46 53 60 54 79 55 44 56 45 57
REMARK SMILES IDX 59 59 80 60 47 61 31 62 32 63 40 64 33 65 34 66 38 67 41 68
REMARK SMILES IDX 35 69 36 70 39 71 37 72 63 73 64 74 72 75 65 76 66 77 70 78
REMARK SMILES IDX 73 79 67 80 68 81 71 82 69 83 48 84 49 85 57 86 50 87 51 88
REMARK SMILES IDX 55 89 58 90 52 91 53 92 56 93 54 94
REMARK H PARENT 3 13 88 21 88 22 78 47 46 58
REMARK Flexibility Score: inf
ROOT
ATOM      1  C   UNL A   1      30.511  27.711  22.402  1.00  0.00     0.188 C 
ENDROOT
BRANCH   1   2
ATOM      2  O   UNL A   1      31.106  26.500  22.833  1.00  0.00    -0.376 OA
BRANCH   2   3
ATOM      3  C   UNL A   1      32.222  26.043  22.074  1.00  0.00     0.202 C 
BRANCH   3   4
ATOM      4  C   UNL A   1      33.540  25.789  22.823  1.00  0.00     0.261 C 
BRANCH   4   5
ATOM      5  O   UNL A   1      33.424  24.700  23.761  1.00  0.00    -0.463 OA
BRANCH   5   6
ATOM      6  C   UNL A   1      33.707  23.436  23.367  1.00  0.00     0.317 C 
ATOM      7  O   UNL A   1      34.730  23.128  22.767  1.00  0.00    -0.251 OA
BRANCH   6   8
ATOM      8  C   UNL A   1      32.585  22.459  23.769  1.00  0.00     0.111 C 
ATOM      9  C   UNL A   1      32.067  21.779  22.491  1.00  0.00     0.029 C 
ATOM     10  C   UNL A   1      31.392  23.261  24.372  1.00  0.00     0.029 C 
BRANCH   8  11
ATOM     11  C   UNL A   1      33.038  21.387  24.818  1.00  0.00     0.280 C 
BRANCH  11  12
ATOM     12  N   UNL A   1      34.154  20.469  24.475  1.00  0.00    -0.327 N 
ATOM     13  H   UNL A   1      34.372  20.628  23.492  1.00  0.00     0.348 HD
BRANCH  12  14
ATOM     14  C   UNL A   1      35.353  20.781  25.286  1.00  0.00     0.259 C 
ATOM     15  C   UNL A   1      35.175  21.862  26.350  1.00  0.00     0.071 C 
ENDBRANCH  12  14
BRANCH  12  16
ATOM     16  C   UNL A   1      33.788  19.034  24.577  1.00  0.00     0.245 C 
ATOM     17  C   UNL A   1      32.911  18.618  25.757  1.00  0.00     0.132 C 
ATOM     18  C   UNL A   1      33.089  18.367  23.369  1.00  0.00     0.326 C 
ATOM     19  C   UNL A   1      32.452  17.234  25.339  1.00  0.00     0.267 C 
ATOM     20  N   UNL A   1      32.172  17.341  23.906  1.00  0.00    -0.341 N 
ATOM     21  H   UNL A   1      31.203  17.625  23.758  1.00  0.00     0.346 HD
ATOM     22  H   UNL A   1      32.307  16.446  23.438  1.00  0.00     0.346 HD
ENDBRANCH  12  16
ENDBRANCH  11  12
ENDBRANCH   8  11
ENDBRANCH   6   8
ENDBRANCH   5   6
ENDBRANCH   4   5
ENDBRANCH   3   4
ENDBRANCH   2   3
ENDBRANCH   1   2
BRANCH   1  23
ATOM     23  C   UNL A   1      30.620  28.866  23.420  1.00  0.00     0.188 C 
BRANCH  23  24
ATOM     24  O   UNL A   1      31.139  28.641  24.720  1.00  0.00    -0.376 OA
BRANCH  24  25
ATOM     25  C   UNL A   1      32.156  29.505  25.208  1.00  0.00     0.202 C 
BRANCH  25  26
ATOM     26  C   UNL A   1      31.768  30.788  25.964  1.00  0.00     0.261 C 
BRANCH  26  27
ATOM     27  O   UNL A   1      32.348  30.944  27.273  1.00  0.00    -0.460 OA
BRANCH  27  28
ATOM     28  C   UNL A   1      33.180  31.997  27.418  1.00  0.00     0.338 C 
ATOM     29  O   UNL A   1      32.877  33.192  27.410  1.00  0.00    -0.246 OA
BRANCH  28  30
ATOM     30  C   UNL A   1      34.534  31.547  27.791  1.00  0.00     0.060 A 
ATOM     31  C   UNL A   1      34.746  30.172  27.978  1.00  0.00     0.016 A 
ATOM     32  C   UNL A   1      35.552  32.461  28.067  1.00  0.00     0.016 A 
ATOM     33  C   UNL A   1      35.955  29.710  28.494  1.00  0.00     0.010 A 
ATOM     34  C   UNL A   1      36.753  32.000  28.621  1.00  0.00     0.010 A 
ATOM     35  C   UNL A   1      36.935  30.631  28.886  1.00  0.00    -0.014 A 
BRANCH  35  36
ATOM     36  C   UNL A   1      37.988  30.172  29.825  1.00  0.00     0.031 A 
ATOM     37  C   UNL A   1      39.073  29.282  29.282  1.00  0.00     0.074 A 
ATOM     38  C   UNL A   1      38.028  30.584  31.103  1.00  0.00     0.049 A 
ATOM     39  N   UNL A   1      40.117  28.775  29.885  1.00  0.00    -0.248 NA
ATOM     40  C   UNL A   1      38.953  28.899  27.865  1.00  0.00     0.031 C 
ATOM     41  C   UNL A   1      37.042  31.450  31.737  1.00  0.00     0.029 A 
ATOM     42  N   UNL A   1      38.955  30.346  32.088  1.00  0.00    -0.354 N 
ATOM     43  C   UNL A   1      40.752  27.985  28.934  1.00  0.00     0.074 A 
ATOM     44  C   UNL A   1      39.980  28.078  27.716  1.00  0.00     0.031 C 
ATOM     45  C   UNL A   1      37.442  31.716  32.993  1.00  0.00     0.029 A 
ATOM     46  C   UNL A   1      38.694  31.011  33.261  1.00  0.00     0.049 A 
ATOM     47  H   UNL A   1      39.733  29.755  31.965  1.00  0.00     0.167 HD
ATOM     48  C   UNL A   1      41.874  27.238  29.070  1.00  0.00     0.037 A 
ATOM     49  C   UNL A   1      39.396  31.045  34.412  1.00  0.00     0.037 A 
ATOM     50  C   UNL A   1      42.642  27.147  30.283  1.00  0.00     0.049 A 
ATOM     51  C   UNL A   1      40.658  30.223  34.528  1.00  0.00     0.074 A 
ATOM     52  C   UNL A   1      43.779  26.400  30.533  1.00  0.00     0.029 A 
ATOM     53  N   UNL A   1      42.347  27.832  31.453  1.00  0.00    -0.354 N 
ATOM     54  N   UNL A   1      41.248  29.473  33.629  1.00  0.00    -0.248 NA
ATOM     55  C   UNL A   1      41.342  30.242  35.830  1.00  0.00     0.031 C 
ATOM     56  C   UNL A   1      44.146  26.597  31.868  1.00  0.00     0.029 A 
ATOM     57  C   UNL A   1      43.276  27.517  32.431  1.00  0.00     0.049 A 
ATOM     58  H   UNL A   1      41.590  28.451  31.571  1.00  0.00     0.167 HD
ATOM     59  C   UNL A   1      42.375  28.946  34.247  1.00  0.00     0.074 A 
ATOM     60  C   UNL A   1      42.406  29.490  35.589  1.00  0.00     0.031 C 
ATOM     61  C   UNL A   1      43.296  28.079  33.758  1.00  0.00     0.037 A 
BRANCH  48  62
ATOM     62  C   UNL A   1      42.298  26.414  27.889  1.00  0.00     0.064 A 
ATOM     63  C   UNL A   1      41.781  25.133  27.650  1.00  0.00     0.173 A 
ATOM     64  C   UNL A   1      43.238  26.923  26.979  1.00  0.00     0.173 A 
ATOM     65  F   UNL A   1      40.897  24.592  28.502  1.00  0.00    -0.203 F 
ATOM     66  C   UNL A   1      42.211  24.379  26.561  1.00  0.00     0.198 A 
ATOM     67  C   UNL A   1      43.642  26.180  25.874  1.00  0.00     0.198 A 
ATOM     68  F   UNL A   1      43.767  28.142  27.163  1.00  0.00    -0.203 F 
ATOM     69  F   UNL A   1      41.745  23.135  26.384  1.00  0.00    -0.200 F 
ATOM     70  C   UNL A   1      43.135  24.906  25.669  1.00  0.00     0.200 A 
ATOM     71  F   UNL A   1      44.526  26.695  25.009  1.00  0.00    -0.200 F 
ATOM     72  F   UNL A   1      43.544  24.180  24.620  1.00  0.00    -0.200 F 
ENDBRANCH  48  62
BRANCH  49  73
ATOM     73  C   UNL A   1      38.942  31.892  35.552  1.00  0.00     0.064 A 
ATOM     74  C   UNL A   1      39.310  33.245  35.635  1.00  0.00     0.173 A 
ATOM     75  C   UNL A   1      38.168  31.367  36.596  1.00  0.00     0.173 A 
ATOM     76  F   UNL A   1      40.077  33.790  34.679  1.00  0.00    -0.203 F 
ATOM     77  C   UNL A   1      38.944  34.029  36.727  1.00  0.00     0.198 A 
ATOM     78  C   UNL A   1      37.770  32.162  37.670  1.00  0.00     0.198 A 
ATOM     79  F   UNL A   1      37.790  30.081  36.572  1.00  0.00    -0.203 F 
ATOM     80  F   UNL A   1      39.365  35.298  36.811  1.00  0.00    -0.200 F 
ATOM     81  C   UNL A   1      38.167  33.489  37.740  1.00  0.00     0.200 A 
ATOM     82  F   UNL A   1      37.008  31.640  38.639  1.00  0.00    -0.200 F 
ATOM     83  F   UNL A   1      37.814  34.241  38.792  1.00  0.00    -0.200 F 
ENDBRANCH  49  73
BRANCH  61  84
ATOM     84  C   UNL A   1      44.434  27.693  34.661  1.00  0.00     0.064 A 
ATOM     85  C   UNL A   1      44.380  26.551  35.475  1.00  0.00     0.173 A 
ATOM     86  C   UNL A   1      45.610  28.461  34.686  1.00  0.00     0.173 A 
ATOM     87  F   UNL A   1      43.278  25.787  35.495  1.00  0.00    -0.203 F 
ATOM     88  C   UNL A   1      45.445  26.214  36.309  1.00  0.00     0.198 A 
ATOM     89  C   UNL A   1      46.685  28.101  35.495  1.00  0.00     0.198 A 
ATOM     90  F   UNL A   1      45.720  29.555  33.918  1.00  0.00    -0.203 F 
ATOM     91  F   UNL A   1      45.347  25.152  37.120  1.00  0.00    -0.200 F 
ATOM     92  C   UNL A   1      46.598  26.985  36.313  1.00  0.00     0.200 A 
ATOM     93  F   UNL A   1      47.804  28.837  35.484  1.00  0.00    -0.200 F 
ATOM     94  F   UNL A   1      47.622  26.657  37.113  1.00  0.00    -0.200 F 
ENDBRANCH  61  84
ENDBRANCH  35  36
ENDBRANCH  28  30
ENDBRANCH  27  28
ENDBRANCH  26  27
ENDBRANCH  25  26
ENDBRANCH  24  25
ENDBRANCH  23  24
ENDBRANCH   1  23
TORSDOF 21
ENDMDL
MODEL 2
REMARK VINA RESULT:     -10.1      1.109      2.539
REMARK SMILES CC[N@H+](CC(C)(C)C(=O)OCCOCCOCCOC(=O)c1ccc(-c2c3nc(c(-c4c(F)c(F)c(F)c(F)c4F)c4ccc([nH]4)c(-c4c(F)c(F)c(F)c(F)c4F)c4nc(c(-c5c(F)c(F)c(F)c(F)c5F)c5ccc2[nH]5)C=C4)C=C3)cc1)[C@H]1CC[NH2+]C1
REMARK SMILES IDX 14 1 13 2 12 3 11 4 10 5 8 6 9 7 5 8 6 9 7 10 4 11 3 12 2 14
REMARK SMILES IDX 1 15 85 16 86 17 89 18 87 19 88 20 15 23 16 24 17 25 18 26
REMARK SMILES IDX 19 27 20 28 21 29 22 30 23 31 84 32 24 33 83 34 25 35 26 36
REMARK SMILES IDX 27 37 77 38 28 39 82 40 76 41 78 42 29 43 81 44 75 45 74 46
REMARK SMILES IDX 30 48 62 49 42 50 61 51 43 52 46 53 60 54 79 55 44 56 45 57
REMARK SMILES IDX 59 59 80 60 47 61 31 62 32 63 40 64 33 65 34 66 38 67 41 68
REMARK SMILES IDX 35 69 36 70 39 71 37 72 63 73 64 74 72 75 65 76 66 77 70 78
REMARK SMILES IDX 73 79 67 80 68 81 71 82 69 83 48 84 49 85 57 86 50 87 51 88
REMARK SMILES IDX 55 89 58 90 52 91 53 92 56 93 54 94
REMARK H PARENT 3 13 88 21 88 22 78 47 46 58
REMARK Flexibility Score: inf
ROOT
ATOM      1  C   UNL A   1      30.273  28.247  22.361  1.00  0.00     0.188 C 
ENDROOT
BRANCH   1   2
ATOM      2  O   UNL A   1      31.485  27.514  22.338  1.00  0.00    -0.376 OA
BRANCH   2   3
ATOM      3  C   UNL A   1      31.428  26.223  21.737  1.00  0.00     0.202 C 
BRANCH   3   4
ATOM      4  C   UNL A   1      32.743  25.614  21.226  1.00  0.00     0.261 C 
BRANCH   4   5
ATOM      5  O   UNL A   1      33.618  25.236  22.310  1.00  0.00    -0.463 OA
BRANCH   5   6
ATOM      6  C   UNL A   1      33.761  23.930  22.637  1.00  0.00     0.317 C 
ATOM      7  O   UNL A   1      33.350  23.009  21.943  1.00  0.00    -0.251 OA
BRANCH   6   8
ATOM      8  C   UNL A   1      34.500  23.768  23.981  1.00  0.00     0.111 C 
ATOM      9  C   UNL A   1      34.647  25.162  24.612  1.00  0.00     0.029 C 
ATOM     10  C   UNL A   1      35.941  23.234  23.718  1.00  0.00     0.029 C 
BRANCH   8  11
ATOM     11  C   UNL A   1      33.785  22.788  24.971  1.00  0.00     0.280 C 
BRANCH  11  12
ATOM     12  N   UNL A   1      32.311  22.621  24.882  1.00  0.00    -0.327 N 
ATOM     13  H   UNL A   1      32.046  22.867  23.928  1.00  0.00     0.348 HD
BRANCH  12  14
ATOM     14  C   UNL A   1      31.931  21.211  25.133  1.00  0.00     0.259 C 
ATOM     15  C   UNL A   1      32.858  20.155  24.535  1.00  0.00     0.071 C 
ENDBRANCH  12  14
BRANCH  12  16
ATOM     16  C   UNL A   1      31.558  23.551  25.760  1.00  0.00     0.245 C 
ATOM     17  C   UNL A   1      30.876  24.744  25.093  1.00  0.00     0.132 C 
ATOM     18  C   UNL A   1      30.444  22.970  26.663  1.00  0.00     0.326 C 
ATOM     19  C   UNL A   1      29.939  25.225  26.184  1.00  0.00     0.267 C 
ATOM     20  N   UNL A   1      29.399  24.005  26.789  1.00  0.00    -0.341 N 
ATOM     21  H   UNL A   1      28.554  23.714  26.297  1.00  0.00     0.346 HD
ATOM     22  H   UNL A   1      29.151  24.160  27.765  1.00  0.00     0.346 HD
ENDBRANCH  12  16
ENDBRANCH  11  12
ENDBRANCH   8  11
ENDBRANCH   6   8
ENDBRANCH   5   6
ENDBRANCH   4   5
ENDBRANCH   3   4
ENDBRANCH   2   3
ENDBRANCH   1   2
BRANCH   1  23
ATOM     23  C   UNL A   1      30.146  29.221  23.551  1.00  0.00     0.188 C 
BRANCH  23  24
ATOM     24  O   UNL A   1      31.043  29.149  24.647  1.00  0.00    -0.376 OA
BRANCH  24  25
ATOM     25  C   UNL A   1      31.651  30.345  25.112  1.00  0.00     0.202 C 
BRANCH  25  26
ATOM     26  C   UNL A   1      31.482  30.766  26.582  1.00  0.00     0.261 C 
BRANCH  26  27
ATOM     27  O   UNL A   1      32.649  30.626  27.414  1.00  0.00    -0.460 OA
BRANCH  27  28
ATOM     28  C   UNL A   1      33.455  31.707  27.471  1.00  0.00     0.338 C 
ATOM     29  O   UNL A   1      33.118  32.891  27.401  1.00  0.00    -0.246 OA
BRANCH  28  30
ATOM     30  C   UNL A   1      34.831  31.317  27.829  1.00  0.00     0.060 A 
ATOM     31  C   UNL A   1      35.114  29.949  27.975  1.00  0.00     0.016 A 
ATOM     32  C   UNL A   1      35.801  32.274  28.132  1.00  0.00     0.016 A 
ATOM     33  C   UNL A   1      36.346  29.535  28.476  1.00  0.00     0.010 A 
ATOM     34  C   UNL A   1      37.025  31.859  28.672  1.00  0.00     0.010 A 
ATOM     35  C   UNL A   1      37.278  30.494  28.895  1.00  0.00    -0.014 A 
BRANCH  35  36
ATOM     36  C   UNL A   1      38.355  30.061  29.819  1.00  0.00     0.031 A 
ATOM     37  C   UNL A   1      39.439  29.175  29.268  1.00  0.00     0.074 A 
ATOM     38  C   UNL A   1      38.417  30.494  31.089  1.00  0.00     0.049 A 
ATOM     39  N   UNL A   1      40.501  28.689  29.857  1.00  0.00    -0.248 NA
ATOM     40  C   UNL A   1      39.294  28.768  27.860  1.00  0.00     0.031 C 
ATOM     41  C   UNL A   1      37.434  31.359  31.730  1.00  0.00     0.029 A 
ATOM     42  N   UNL A   1      39.366  30.283  32.059  1.00  0.00    -0.354 N 
ATOM     43  C   UNL A   1      41.126  27.891  28.906  1.00  0.00     0.074 A 
ATOM     44  C   UNL A   1      40.327  27.956  27.704  1.00  0.00     0.031 C 
ATOM     45  C   UNL A   1      37.856  31.650  32.973  1.00  0.00     0.029 A 
ATOM     46  C   UNL A   1      39.122  30.964  33.227  1.00  0.00     0.049 A 
ATOM     47  H   UNL A   1      40.148  29.698  31.929  1.00  0.00     0.167 HD
ATOM     48  C   UNL A   1      42.258  27.158  29.031  1.00  0.00     0.037 A 
ATOM     49  C   UNL A   1      39.846  31.024  34.362  1.00  0.00     0.037 A 
ATOM     50  C   UNL A   1      43.051  27.096  30.229  1.00  0.00     0.049 A 
ATOM     51  C   UNL A   1      41.120  30.217  34.465  1.00  0.00     0.074 A 
ATOM     52  C   UNL A   1      44.202  26.365  30.467  1.00  0.00     0.029 A 
ATOM     53  N   UNL A   1      42.773  27.797  31.394  1.00  0.00    -0.354 N 
ATOM     54  N   UNL A   1      41.700  29.459  33.566  1.00  0.00    -0.248 NA
ATOM     55  C   UNL A   1      41.831  30.265  35.752  1.00  0.00     0.031 C 
ATOM     56  C   UNL A   1      44.594  26.588  31.792  1.00  0.00     0.029 A 
ATOM     57  C   UNL A   1      43.726  27.507  32.357  1.00  0.00     0.049 A 
ATOM     58  H   UNL A   1      42.012  28.408  31.518  1.00  0.00     0.167 HD
ATOM     59  C   UNL A   1      42.846  28.955  34.169  1.00  0.00     0.074 A 
ATOM     60  C   UNL A   1      42.898  29.521  35.501  1.00  0.00     0.031 C 
ATOM     61  C   UNL A   1      43.766  28.090  33.674  1.00  0.00     0.037 A 
BRANCH  48  62
ATOM     62  C   UNL A   1      42.667  26.321  27.855  1.00  0.00     0.064 A 
ATOM     63  C   UNL A   1      43.569  26.786  26.887  1.00  0.00     0.173 A 
ATOM     64  C   UNL A   1      42.146  25.027  27.698  1.00  0.00     0.173 A 
ATOM     65  F   UNL A   1      44.078  28.025  26.978  1.00  0.00    -0.203 F 
ATOM     66  C   UNL A   1      43.912  25.999  25.791  1.00  0.00     0.198 A 
ATOM     67  C   UNL A   1      42.516  24.231  26.618  1.00  0.00     0.198 A 
ATOM     68  F   UNL A   1      41.277  24.534  28.593  1.00  0.00    -0.203 F 
ATOM     69  F   UNL A   1      44.732  26.486  24.849  1.00  0.00    -0.200 F 
ATOM     70  C   UNL A   1      43.392  24.719  25.661  1.00  0.00     0.200 A 
ATOM     71  F   UNL A   1      42.020  22.991  26.501  1.00  0.00    -0.200 F 
ATOM     72  F   UNL A   1      43.727  23.962  24.607  1.00  0.00    -0.200 F 
ENDBRANCH  48  62
BRANCH  49  73
ATOM     73  C   UNL A   1      39.407  31.884  35.497  1.00  0.00     0.064 A 
ATOM     74  C   UNL A   1      38.555  31.381  36.493  1.00  0.00     0.173 A 
ATOM     75  C   UNL A   1      39.794  33.228  35.594  1.00  0.00     0.173 A 
ATOM     76  F   UNL A   1      38.129  30.111  36.431  1.00  0.00    -0.203 F 
ATOM     77  C   UNL A   1      38.088  32.195  37.524  1.00  0.00     0.198 A 
ATOM     78  C   UNL A   1      39.356  34.031  36.647  1.00  0.00     0.198 A 
ATOM     79  F   UNL A   1      40.603  33.763  34.670  1.00  0.00    -0.203 F 
ATOM     80  F   UNL A   1      37.223  31.704  38.423  1.00  0.00    -0.200 F 
ATOM     81  C   UNL A   1      38.495  33.517  37.605  1.00  0.00     0.200 A 
ATOM     82  F   UNL A   1      39.764  35.304  36.728  1.00  0.00    -0.200 F 
ATOM     83  F   UNL A   1      38.047  34.301  38.596  1.00  0.00    -0.200 F 
ENDBRANCH  49  73
BRANCH  61  84
ATOM     84  C   UNL A   1      44.927  27.732  34.560  1.00  0.00     0.064 A 
ATOM     85  C   UNL A   1      44.890  26.621  35.416  1.00  0.00     0.173 A 
ATOM     86  C   UNL A   1      46.106  28.494  34.525  1.00  0.00     0.173 A 
ATOM     87  F   UNL A   1      43.786  25.864  35.494  1.00  0.00    -0.203 F 
ATOM     88  C   UNL A   1      45.976  26.309  36.232  1.00  0.00     0.198 A 
ATOM     89  C   UNL A   1      47.202  28.158  35.317  1.00  0.00     0.198 A 
ATOM     90  F   UNL A   1      46.200  29.559  33.714  1.00  0.00    -0.203 F 
ATOM     91  F   UNL A   1      45.895  25.278  37.084  1.00  0.00    -0.200 F 
ATOM     92  C   UNL A   1      47.131  27.073  36.177  1.00  0.00     0.200 A 
ATOM     93  F   UNL A   1      48.323  28.888  35.249  1.00  0.00    -0.200 F 
ATOM     94  F   UNL A   1      48.176  26.770  36.961  1.00  0.00    -0.200 F 
ENDBRANCH  61  84
ENDBRANCH  35  36
ENDBRANCH  28  30
ENDBRANCH  27  28
ENDBRANCH  26  27
ENDBRANCH  25  26
ENDBRANCH  24  25
ENDBRANCH  23  24
ENDBRANCH   1  23
TORSDOF 21
ENDMDL
MODEL 3
REMARK VINA RESULT:      -9.8      4.312      7.469
REMARK SMILES CC[N@H+](CC(C)(C)C(=O)OCCOCCOCCOC(=O)c1ccc(-c2c3nc(c(-c4c(F)c(F)c(F)c(F)c4F)c4ccc([nH]4)c(-c4c(F)c(F)c(F)c(F)c4F)c4nc(c(-c5c(F)c(F)c(F)c(F)c5F)c5ccc2[nH]5)C=C4)C=C3)cc1)[C@H]1CC[NH2+]C1
REMARK SMILES IDX 14 1 13 2 12 3 11 4 10 5 8 6 9 7 5 8 6 9 7 10 4 11 3 12 2 14
REMARK SMILES IDX 1 15 85 16 86 17 89 18 87 19 88 20 15 23 16 24 17 25 18 26
REMARK SMILES IDX 19 27 20 28 21 29 22 30 23 31 84 32 24 33 83 34 25 35 26 36
REMARK SMILES IDX 27 37 77 38 28 39 82 40 76 41 78 42 29 43 81 44 75 45 74 46
REMARK SMILES IDX 30 48 62 49 42 50 61 51 43 52 46 53 60 54 79 55 44 56 45 57
REMARK SMILES IDX 59 59 80 60 47 61 31 62 32 63 40 64 33 65 34 66 38 67 41 68
REMARK SMILES IDX 35 69 36 70 39 71 37 72 63 73 64 74 72 75 65 76 66 77 70 78
REMARK SMILES IDX 73 79 67 80 68 81 71 82 69 83 48 84 49 85 57 86 50 87 51 88
REMARK SMILES IDX 55 89 58 90 52 91 53 92 56 93 54 94
REMARK H PARENT 3 13 88 21 88 22 78 47 46 58
REMARK Flexibility Score: inf
ROOT
ATOM      1  C   UNL A   1      34.625  24.236  25.525  1.00  0.00     0.188 C 
ENDROOT
BRANCH   1   2
ATOM      2  O   UNL A   1      33.237  24.044  25.318  1.00  0.00    -0.376 OA
BRANCH   2   3
ATOM      3  C   UNL A   1      32.400  24.229  26.456  1.00  0.00     0.202 C 
BRANCH   3   4
ATOM      4  C   UNL A   1      30.886  24.344  26.218  1.00  0.00     0.261 C 
BRANCH   4   5
ATOM      5  O   UNL A   1      30.550  25.511  25.439  1.00  0.00    -0.463 OA
BRANCH   5   6
ATOM      6  C   UNL A   1      30.491  25.427  24.089  1.00  0.00     0.317 C 
ATOM      7  O   UNL A   1      30.400  24.368  23.480  1.00  0.00    -0.251 OA
BRANCH   6   8
ATOM      8  C   UNL A   1      30.551  26.823  23.438  1.00  0.00     0.111 C 
ATOM      9  C   UNL A   1      29.137  27.424  23.472  1.00  0.00     0.029 C 
ATOM     10  C   UNL A   1      30.947  26.677  21.937  1.00  0.00     0.029 C 
BRANCH   8  11
ATOM     11  C   UNL A   1      31.575  27.787  24.126  1.00  0.00     0.280 C 
BRANCH  11  12
ATOM     12  N   UNL A   1      32.824  27.223  24.700  1.00  0.00    -0.327 N 
ATOM     13  H   UNL A   1      32.654  26.228  24.851  1.00  0.00     0.348 HD
BRANCH  12  14
ATOM     14  C   UNL A   1      33.950  27.375  23.749  1.00  0.00     0.259 C 
ATOM     15  C   UNL A   1      33.864  28.568  22.801  1.00  0.00     0.071 C 
ENDBRANCH  12  14
BRANCH  12  16
ATOM     16  C   UNL A   1      33.163  27.778  26.035  1.00  0.00     0.245 C 
ATOM     17  C   UNL A   1      34.239  28.861  26.089  1.00  0.00     0.132 C 
ATOM     18  C   UNL A   1      32.022  28.374  26.893  1.00  0.00     0.326 C 
ATOM     19  C   UNL A   1      34.050  29.427  27.484  1.00  0.00     0.267 C 
ATOM     20  N   UNL A   1      32.600  29.482  27.681  1.00  0.00    -0.341 N 
ATOM     21  H   UNL A   1      32.235  30.376  27.351  1.00  0.00     0.346 HD
ATOM     22  H   UNL A   1      32.361  29.395  28.668  1.00  0.00     0.346 HD
ENDBRANCH  12  16
ENDBRANCH  11  12
ENDBRANCH   8  11
ENDBRANCH   6   8
ENDBRANCH   5   6
ENDBRANCH   4   5
ENDBRANCH   3   4
ENDBRANCH   2   3
ENDBRANCH   1   2
BRANCH   1  23
ATOM     23  C   UNL A   1      35.501  23.047  25.076  1.00  0.00     0.188 C 
BRANCH  23  24
ATOM     24  O   UNL A   1      35.652  21.904  25.900  1.00  0.00    -0.376 OA
BRANCH  24  25
ATOM     25  C   UNL A   1      36.121  20.697  25.316  1.00  0.00     0.202 C 
BRANCH  25  26
ATOM     26  C   UNL A   1      37.574  20.603  24.820  1.00  0.00     0.261 C 
BRANCH  26  27
ATOM     27  O   UNL A   1      38.431  21.705  25.174  1.00  0.00    -0.460 OA
BRANCH  27  28
ATOM     28  C   UNL A   1      39.419  21.415  26.046  1.00  0.00     0.338 C 
ATOM     29  O   UNL A   1      40.108  20.392  26.077  1.00  0.00    -0.246 OA
BRANCH  28  30
ATOM     30  C   UNL A   1      39.736  22.584  26.888  1.00  0.00     0.060 A 
ATOM     31  C   UNL A   1      38.965  23.746  26.723  1.00  0.00     0.016 A 
ATOM     32  C   UNL A   1      40.840  22.585  27.742  1.00  0.00     0.016 A 
ATOM     33  C   UNL A   1      39.327  24.927  27.365  1.00  0.00     0.010 A 
ATOM     34  C   UNL A   1      41.225  23.783  28.358  1.00  0.00     0.010 A 
ATOM     35  C   UNL A   1      40.502  24.967  28.127  1.00  0.00    -0.014 A 
BRANCH  35  36
ATOM     36  C   UNL A   1      41.102  26.293  28.416  1.00  0.00     0.031 A 
ATOM     37  C   UNL A   1      42.473  26.578  27.865  1.00  0.00     0.074 A 
ATOM     38  C   UNL A   1      40.430  27.245  29.084  1.00  0.00     0.049 A 
ATOM     39  N   UNL A   1      43.197  27.663  27.949  1.00  0.00    -0.248 NA
ATOM     40  C   UNL A   1      43.121  25.478  27.131  1.00  0.00     0.031 C 
ATOM     41  C   UNL A   1      39.098  27.089  29.656  1.00  0.00     0.029 A 
ATOM     42  N   UNL A   1      40.773  28.544  29.370  1.00  0.00    -0.354 N 
ATOM     43  C   UNL A   1      44.397  27.364  27.315  1.00  0.00     0.074 A 
ATOM     44  C   UNL A   1      44.305  25.998  26.852  1.00  0.00     0.031 C 
ATOM     45  C   UNL A   1      38.711  28.265  30.181  1.00  0.00     0.029 A 
ATOM     46  C   UNL A   1      39.781  29.246  30.012  1.00  0.00     0.049 A 
ATOM     47  H   UNL A   1      41.646  28.935  29.137  1.00  0.00     0.167 HD
ATOM     48  C   UNL A   1      45.484  28.154  27.147  1.00  0.00     0.037 A 
ATOM     49  C   UNL A   1      39.750  30.535  30.407  1.00  0.00     0.037 A 
ATOM     50  C   UNL A   1      45.572  29.514  27.608  1.00  0.00     0.049 A 
ATOM     51  C   UNL A   1      40.966  31.402  30.183  1.00  0.00     0.074 A 
ATOM     52  C   UNL A   1      46.636  30.393  27.510  1.00  0.00     0.029 A 
ATOM     53  N   UNL A   1      44.550  30.192  28.256  1.00  0.00    -0.354 N 
ATOM     54  N   UNL A   1      42.099  31.110  29.591  1.00  0.00    -0.248 NA
ATOM     55  C   UNL A   1      40.902  32.778  30.700  1.00  0.00     0.031 C 
ATOM     56  C   UNL A   1      46.274  31.588  28.139  1.00  0.00     0.029 A 
ATOM     57  C   UNL A   1      44.963  31.477  28.572  1.00  0.00     0.049 A 
ATOM     58  H   UNL A   1      43.664  29.817  28.461  1.00  0.00     0.167 HD
ATOM     59  C   UNL A   1      42.872  32.264  29.650  1.00  0.00     0.074 A 
ATOM     60  C   UNL A   1      42.066  33.272  30.305  1.00  0.00     0.031 C 
ATOM     61  C   UNL A   1      44.140  32.470  29.214  1.00  0.00     0.037 A 
BRANCH  48  62
ATOM     62  C   UNL A   1      46.683  27.541  26.485  1.00  0.00     0.064 A 
ATOM     63  C   UNL A   1      46.859  27.563  25.094  1.00  0.00     0.173 A 
ATOM     64  C   UNL A   1      47.676  26.923  27.262  1.00  0.00     0.173 A 
ATOM     65  F   UNL A   1      45.928  28.121  24.304  1.00  0.00    -0.203 F 
ATOM     66  C   UNL A   1      47.968  26.964  24.503  1.00  0.00     0.198 A 
ATOM     67  C   UNL A   1      48.799  26.354  26.670  1.00  0.00     0.198 A 
ATOM     68  F   UNL A   1      47.556  26.871  28.597  1.00  0.00    -0.203 F 
ATOM     69  F   UNL A   1      48.086  26.947  23.168  1.00  0.00    -0.200 F 
ATOM     70  C   UNL A   1      48.941  26.366  25.291  1.00  0.00     0.200 A 
ATOM     71  F   UNL A   1      49.743  25.787  27.434  1.00  0.00    -0.200 F 
ATOM     72  F   UNL A   1      50.010  25.794  24.720  1.00  0.00    -0.200 F 
ENDBRANCH  48  62
BRANCH  49  73
ATOM     73  C   UNL A   1      38.528  31.102  31.046  1.00  0.00     0.064 A 
ATOM     74  C   UNL A   1      37.518  31.692  30.269  1.00  0.00     0.173 A 
ATOM     75  C   UNL A   1      38.358  31.102  32.437  1.00  0.00     0.173 A 
ATOM     76  F   UNL A   1      37.646  31.747  28.935  1.00  0.00    -0.203 F 
ATOM     77  C   UNL A   1      36.402  32.280  30.860  1.00  0.00     0.198 A 
ATOM     78  C   UNL A   1      37.222  31.658  33.026  1.00  0.00     0.198 A 
ATOM     79  F   UNL A   1      39.292  30.556  33.229  1.00  0.00    -0.203 F 
ATOM     80  F   UNL A   1      35.487  32.894  30.097  1.00  0.00    -0.200 F 
ATOM     81  C   UNL A   1      36.251  32.256  32.238  1.00  0.00     0.200 A 
ATOM     82  F   UNL A   1      37.074  31.619  34.356  1.00  0.00    -0.200 F 
ATOM     83  F   UNL A   1      35.178  32.822  32.808  1.00  0.00    -0.200 F 
ENDBRANCH  49  73
BRANCH  61  84
ATOM     84  C   UNL A   1      44.721  33.844  29.398  1.00  0.00     0.064 A 
ATOM     85  C   UNL A   1      44.572  34.847  28.428  1.00  0.00     0.173 A 
ATOM     86  C   UNL A   1      45.407  34.171  30.579  1.00  0.00     0.173 A 
ATOM     87  F   UNL A   1      43.932  34.585  27.278  1.00  0.00    -0.203 F 
ATOM     88  C   UNL A   1      45.123  36.113  28.615  1.00  0.00     0.198 A 
ATOM     89  C   UNL A   1      45.926  35.448  30.777  1.00  0.00     0.198 A 
ATOM     90  F   UNL A   1      45.567  33.254  31.545  1.00  0.00    -0.203 F 
ATOM     91  F   UNL A   1      45.018  37.036  27.650  1.00  0.00    -0.200 F 
ATOM     92  C   UNL A   1      45.792  36.414  29.792  1.00  0.00     0.200 A 
ATOM     93  F   UNL A   1      46.558  35.742  31.921  1.00  0.00    -0.200 F 
ATOM     94  F   UNL A   1      46.318  37.634  29.972  1.00  0.00    -0.200 F 
ENDBRANCH  61  84
ENDBRANCH  35  36
ENDBRANCH  28  30
ENDBRANCH  27  28
ENDBRANCH  26  27
ENDBRANCH  25  26
ENDBRANCH  24  25
ENDBRANCH  23  24
ENDBRANCH   1  23
TORSDOF 21
ENDMDL
