MODEL 1
REMARK VINA RESULT:     -11.7      0.000      0.000
REMARK SMILES NS(=O)(=O)c1ccc(N2N=C(C(=O)OCCOCCOCCOC(=O)c3ccc(-c4c5nc(c(-c6c(F)c(F)c(F)c(F)c6F)c6ccc([nH]6)c(-c6c(F)c(F)c(F)c(F)c6F)c6nc(c(-c7c(F)c(F)c(F)c(F)c7F)c7ccc4[nH]7)C=C6)C=C5)cc3)C[C@H]2c2ccco2)cc1
REMARK SMILES IDX 18 1 17 2 16 3 15 4 14 5 12 6 13 7 11 8 9 9 10 10 90 11
REMARK SMILES IDX 89 12 8 13 5 14 6 15 97 16 7 17 96 18 2 19 3 20 4 21 1 22
REMARK SMILES IDX 91 25 92 26 95 27 93 28 94 29 19 30 20 31 21 32 22 33 23 34
REMARK SMILES IDX 24 35 25 36 26 37 27 38 88 39 28 40 87 41 29 42 30 43 31 44
REMARK SMILES IDX 81 45 32 46 86 47 80 48 82 49 33 50 85 51 79 52 78 53 34 55
REMARK SMILES IDX 66 56 46 57 65 58 47 59 50 60 64 61 83 62 48 63 49 64 63 66
REMARK SMILES IDX 84 67 51 68 35 69 36 70 44 71 37 72 38 73 42 74 45 75 39 76
REMARK SMILES IDX 40 77 43 78 41 79 67 80 68 81 76 82 69 83 70 84 74 85 77 86
REMARK SMILES IDX 71 87 72 88 75 89 73 90 52 91 53 92 61 93 54 94 55 95 59 96
REMARK SMILES IDX 62 97 56 98 57 99 60 100 58 101
REMARK H PARENT 1 23 1 24 82 54 50 65
REMARK Flexibility Score: inf
ROOT
ATOM      1  C   UNL A   1      33.170  28.994  25.234  1.00  0.00     0.188 C 
ENDROOT
BRANCH   1   2
ATOM      2  O   UNL A   1      31.903  28.434  24.902  1.00  0.00    -0.376 OA
BRANCH   2   3
ATOM      3  C   UNL A   1      31.362  28.638  23.600  1.00  0.00     0.202 C 
BRANCH   3   4
ATOM      4  C   UNL A   1      31.650  27.580  22.527  1.00  0.00     0.261 C 
BRANCH   4   5
ATOM      5  O   UNL A   1      33.009  27.122  22.551  1.00  0.00    -0.459 OA
BRANCH   5   6
ATOM      6  C   UNL A   1      33.221  25.910  22.001  1.00  0.00     0.354 C 
ATOM      7  O   UNL A   1      33.280  25.619  20.823  1.00  0.00    -0.245 OA
BRANCH   6   8
ATOM      8  C   UNL A   1      33.534  24.921  23.094  1.00  0.00     0.148 C 
ATOM      9  N   UNL A   1      33.944  23.080  24.071  1.00  0.00    -0.254 N 
ATOM     10  N   UNL A   1      33.703  23.655  22.854  1.00  0.00    -0.169 NA
ATOM     11  C   UNL A   1      33.609  23.994  25.185  1.00  0.00     0.180 C 
ATOM     12  C   UNL A   1      33.762  25.364  24.502  1.00  0.00     0.101 C 
BRANCH   9  13
ATOM     13  C   UNL A   1      33.838  21.695  24.163  1.00  0.00     0.060 A 
ATOM     14  C   UNL A   1      33.574  18.903  24.369  1.00  0.00     0.082 A 
ATOM     15  C   UNL A   1      32.597  19.648  23.703  1.00  0.00     0.024 A 
ATOM     16  C   UNL A   1      34.673  19.538  24.944  1.00  0.00     0.024 A 
ATOM     17  C   UNL A   1      32.735  21.037  23.603  1.00  0.00     0.029 A 
ATOM     18  C   UNL A   1      34.787  20.929  24.854  1.00  0.00     0.029 A 
BRANCH  14  19
ATOM     19  S   UNL A   1      33.379  17.148  24.449  1.00  0.00     0.238 S 
ATOM     20  O   UNL A   1      33.542  16.612  23.119  1.00  0.00    -0.207 OA
ATOM     21  O   UNL A   1      32.235  16.854  25.283  1.00  0.00    -0.207 OA
BRANCH  19  22
ATOM     22  N   UNL A   1      34.716  16.600  25.312  1.00  0.00    -0.225 NA
ATOM     23  H   UNL A   1      35.110  17.371  25.852  1.00  0.00     0.137 HD
ATOM     24  H   UNL A   1      35.417  16.246  24.663  1.00  0.00     0.137 HD
ENDBRANCH  19  22
ENDBRANCH  14  19
ENDBRANCH   9  13
BRANCH  11  25
ATOM     25  C   UNL A   1      32.254  23.849  25.824  1.00  0.00     0.128 A 
ATOM     26  C   UNL A   1      31.730  22.943  26.726  1.00  0.00     0.048 A 
ATOM     27  O   UNL A   1      31.296  24.769  25.496  1.00  0.00    -0.467 OA
ATOM     28  C   UNL A   1      30.385  23.329  26.951  1.00  0.00     0.042 A 
ATOM     29  C   UNL A   1      30.177  24.452  26.188  1.00  0.00     0.195 A 
ENDBRANCH  11  25
ENDBRANCH   6   8
ENDBRANCH   5   6
ENDBRANCH   4   5
ENDBRANCH   3   4
ENDBRANCH   2   3
ENDBRANCH   1   2
BRANCH   1  30
ATOM     30  C   UNL A   1      33.314  29.873  26.493  1.00  0.00     0.188 C 
BRANCH  30  31
ATOM     31  O   UNL A   1      32.092  30.349  27.027  1.00  0.00    -0.376 OA
BRANCH  31  32
ATOM     32  C   UNL A   1      31.498  31.449  26.347  1.00  0.00     0.202 C 
BRANCH  32  33
ATOM     33  C   UNL A   1      31.720  32.830  26.981  1.00  0.00     0.261 C 
BRANCH  33  34
ATOM     34  O   UNL A   1      33.080  33.300  26.982  1.00  0.00    -0.460 OA
BRANCH  34  35
ATOM     35  C   UNL A   1      33.519  33.910  28.105  1.00  0.00     0.338 C 
ATOM     36  O   UNL A   1      32.960  34.790  28.731  1.00  0.00    -0.246 OA
BRANCH  35  37
ATOM     37  C   UNL A   1      34.720  33.183  28.572  1.00  0.00     0.060 A 
ATOM     38  C   UNL A   1      34.557  31.927  29.169  1.00  0.00     0.016 A 
ATOM     39  C   UNL A   1      35.997  33.730  28.416  1.00  0.00     0.016 A 
ATOM     40  C   UNL A   1      35.672  31.224  29.630  1.00  0.00     0.010 A 
ATOM     41  C   UNL A   1      37.111  33.030  28.893  1.00  0.00     0.010 A 
ATOM     42  C   UNL A   1      36.952  31.785  29.526  1.00  0.00    -0.014 A 
BRANCH  42  43
ATOM     43  C   UNL A   1      38.096  31.121  30.200  1.00  0.00     0.031 A 
ATOM     44  C   UNL A   1      38.399  31.462  31.632  1.00  0.00     0.074 A 
ATOM     45  C   UNL A   1      38.833  30.196  29.564  1.00  0.00     0.049 A 
ATOM     46  N   UNL A   1      39.318  30.978  32.430  1.00  0.00    -0.248 NA
ATOM     47  C   UNL A   1      37.545  32.489  32.250  1.00  0.00     0.031 C 
ATOM     48  C   UNL A   1      38.637  29.762  28.183  1.00  0.00     0.029 A 
ATOM     49  N   UNL A   1      39.901  29.452  30.003  1.00  0.00    -0.354 N 
ATOM     50  C   UNL A   1      39.143  31.627  33.645  1.00  0.00     0.074 A 
ATOM     51  C   UNL A   1      38.064  32.575  33.466  1.00  0.00     0.031 C 
ATOM     52  C   UNL A   1      39.561  28.833  27.883  1.00  0.00     0.029 A 
ATOM     53  C   UNL A   1      40.423  28.619  29.045  1.00  0.00     0.049 A 
ATOM     54  H   UNL A   1      40.259  29.511  30.919  1.00  0.00     0.167 HD
ATOM     55  C   UNL A   1      39.808  31.437  34.810  1.00  0.00     0.037 A 
ATOM     56  C   UNL A   1      41.481  27.788  29.097  1.00  0.00     0.037 A 
ATOM     57  C   UNL A   1      40.899  30.514  34.985  1.00  0.00     0.049 A 
ATOM     58  C   UNL A   1      42.248  27.639  30.386  1.00  0.00     0.074 A 
ATOM     59  C   UNL A   1      41.634  30.250  36.129  1.00  0.00     0.029 A 
ATOM     60  N   UNL A   1      41.421  29.710  33.983  1.00  0.00    -0.354 N 
ATOM     61  N   UNL A   1      42.059  28.234  31.539  1.00  0.00    -0.248 NA
ATOM     62  C   UNL A   1      43.371  26.690  30.381  1.00  0.00     0.031 C 
ATOM     63  C   UNL A   1      42.634  29.325  35.804  1.00  0.00     0.029 A 
ATOM     64  C   UNL A   1      42.486  28.969  34.473  1.00  0.00     0.049 A 
ATOM     65  H   UNL A   1      41.084  29.671  33.058  1.00  0.00     0.167 HD
ATOM     66  C   UNL A   1      43.020  27.719  32.399  1.00  0.00     0.074 A 
ATOM     67  C   UNL A   1      43.780  26.748  31.640  1.00  0.00     0.031 C 
ATOM     68  C   UNL A   1      43.251  28.021  33.702  1.00  0.00     0.037 A 
BRANCH  55  69
ATOM     69  C   UNL A   1      39.379  32.272  35.983  1.00  0.00     0.064 A 
ATOM     70  C   UNL A   1      38.383  31.833  36.872  1.00  0.00     0.173 A 
ATOM     71  C   UNL A   1      39.969  33.520  36.225  1.00  0.00     0.173 A 
ATOM     72  F   UNL A   1      37.775  30.654  36.676  1.00  0.00    -0.203 F 
ATOM     73  C   UNL A   1      37.972  32.630  37.936  1.00  0.00     0.198 A 
ATOM     74  C   UNL A   1      39.576  34.302  37.309  1.00  0.00     0.198 A 
ATOM     75  F   UNL A   1      40.927  33.986  35.409  1.00  0.00    -0.203 F 
ATOM     76  F   UNL A   1      36.980  32.216  38.737  1.00  0.00    -0.200 F 
ATOM     77  C   UNL A   1      38.572  33.861  38.157  1.00  0.00     0.200 A 
ATOM     78  F   UNL A   1      40.164  35.485  37.527  1.00  0.00    -0.200 F 
ATOM     79  F   UNL A   1      38.173  34.627  39.182  1.00  0.00    -0.200 F 
ENDBRANCH  55  69
BRANCH  56  80
ATOM     80  C   UNL A   1      41.885  27.037  27.879  1.00  0.00     0.064 A 
ATOM     81  C   UNL A   1      41.372  25.762  27.604  1.00  0.00     0.173 A 
ATOM     82  C   UNL A   1      42.801  27.583  26.969  1.00  0.00     0.173 A 
ATOM     83  F   UNL A   1      40.527  25.177  28.465  1.00  0.00    -0.203 F 
ATOM     84  C   UNL A   1      41.768  25.058  26.467  1.00  0.00     0.198 A 
ATOM     85  C   UNL A   1      43.176  26.890  25.820  1.00  0.00     0.198 A 
ATOM     86  F   UNL A   1      43.331  28.794  27.193  1.00  0.00    -0.203 F 
ATOM     87  F   UNL A   1      41.297  23.822  26.249  1.00  0.00    -0.200 F 
ATOM     88  C   UNL A   1      42.662  25.626  25.572  1.00  0.00     0.200 A 
ATOM     89  F   UNL A   1      44.038  27.443  24.957  1.00  0.00    -0.200 F 
ATOM     90  F   UNL A   1      43.040  24.950  24.479  1.00  0.00    -0.200 F 
ENDBRANCH  56  80
BRANCH  68  91
ATOM     91  C   UNL A   1      44.367  27.284  34.388  1.00  0.00     0.064 A 
ATOM     92  C   UNL A   1      44.166  26.028  34.981  1.00  0.00     0.173 A 
ATOM     93  C   UNL A   1      45.656  27.836  34.448  1.00  0.00     0.173 A 
ATOM     94  F   UNL A   1      42.951  25.460  34.964  1.00  0.00    -0.203 F 
ATOM     95  C   UNL A   1      45.202  25.372  35.642  1.00  0.00     0.198 A 
ATOM     96  C   UNL A   1      46.697  27.163  35.082  1.00  0.00     0.198 A 
ATOM     97  F   UNL A   1      45.909  29.030  33.890  1.00  0.00    -0.203 F 
ATOM     98  F   UNL A   1      44.970  24.202  36.253  1.00  0.00    -0.200 F 
ATOM     99  C   UNL A   1      46.468  25.938  35.688  1.00  0.00     0.200 A 
ATOM    100  F   UNL A   1      47.924  27.705  35.114  1.00  0.00    -0.200 F 
ATOM    101  F   UNL A   1      47.463  25.306  36.327  1.00  0.00    -0.200 F 
ENDBRANCH  68  91
ENDBRANCH  42  43
ENDBRANCH  35  37
ENDBRANCH  34  35
ENDBRANCH  33  34
ENDBRANCH  32  33
ENDBRANCH  31  32
ENDBRANCH  30  31
ENDBRANCH   1  30
TORSDOF 21
ENDMDL
MODEL 2
REMARK VINA RESULT:     -11.3      1.430      7.152
REMARK SMILES NS(=O)(=O)c1ccc(N2N=C(C(=O)OCCOCCOCCOC(=O)c3ccc(-c4c5nc(c(-c6c(F)c(F)c(F)c(F)c6F)c6ccc([nH]6)c(-c6c(F)c(F)c(F)c(F)c6F)c6nc(c(-c7c(F)c(F)c(F)c(F)c7F)c7ccc4[nH]7)C=C6)C=C5)cc3)C[C@H]2c2ccco2)cc1
REMARK SMILES IDX 18 1 17 2 16 3 15 4 14 5 12 6 13 7 11 8 9 9 10 10 90 11
REMARK SMILES IDX 89 12 8 13 5 14 6 15 97 16 7 17 96 18 2 19 3 20 4 21 1 22
REMARK SMILES IDX 91 25 92 26 95 27 93 28 94 29 19 30 20 31 21 32 22 33 23 34
REMARK SMILES IDX 24 35 25 36 26 37 27 38 88 39 28 40 87 41 29 42 30 43 31 44
REMARK SMILES IDX 81 45 32 46 86 47 80 48 82 49 33 50 85 51 79 52 78 53 34 55
REMARK SMILES IDX 66 56 46 57 65 58 47 59 50 60 64 61 83 62 48 63 49 64 63 66
REMARK SMILES IDX 84 67 51 68 35 69 36 70 44 71 37 72 38 73 42 74 45 75 39 76
REMARK SMILES IDX 40 77 43 78 41 79 67 80 68 81 76 82 69 83 70 84 74 85 77 86
REMARK SMILES IDX 71 87 72 88 75 89 73 90 52 91 53 92 61 93 54 94 55 95 59 96
REMARK SMILES IDX 62 97 56 98 57 99 60 100 58 101
REMARK H PARENT 1 23 1 24 82 54 50 65
REMARK Flexibility Score: inf
ROOT
ATOM      1  C   UNL A   1      31.900  29.189  25.350  1.00  0.00     0.188 C 
ENDROOT
BRANCH   1   2
ATOM      2  O   UNL A   1      30.886  29.018  24.364  1.00  0.00    -0.376 OA
BRANCH   2   3
ATOM      3  C   UNL A   1      30.690  27.738  23.771  1.00  0.00     0.202 C 
BRANCH   3   4
ATOM      4  C   UNL A   1      31.114  27.548  22.309  1.00  0.00     0.261 C 
BRANCH   4   5
ATOM      5  O   UNL A   1      31.553  26.211  22.029  1.00  0.00    -0.459 OA
BRANCH   5   6
ATOM      6  C   UNL A   1      32.889  26.033  22.008  1.00  0.00     0.354 C 
ATOM      7  O   UNL A   1      33.717  26.633  21.351  1.00  0.00    -0.245 OA
BRANCH   6   8
ATOM      8  C   UNL A   1      33.268  25.030  23.066  1.00  0.00     0.148 C 
ATOM      9  N   UNL A   1      33.761  23.180  23.986  1.00  0.00    -0.254 N 
ATOM     10  N   UNL A   1      33.457  23.773  22.792  1.00  0.00    -0.169 NA
ATOM     11  C   UNL A   1      33.449  24.062  25.132  1.00  0.00     0.180 C 
ATOM     12  C   UNL A   1      33.541  25.449  24.473  1.00  0.00     0.101 C 
BRANCH   9  13
ATOM     13  C   UNL A   1      33.691  21.791  24.052  1.00  0.00     0.060 A 
ATOM     14  C   UNL A   1      33.500  18.989  24.202  1.00  0.00     0.082 A 
ATOM     15  C   UNL A   1      32.536  19.716  23.498  1.00  0.00     0.024 A 
ATOM     16  C   UNL A   1      34.549  19.646  24.843  1.00  0.00     0.024 A 
ATOM     17  C   UNL A   1      32.638  21.111  23.425  1.00  0.00     0.029 A 
ATOM     18  C   UNL A   1      34.625  21.041  24.779  1.00  0.00     0.029 A 
BRANCH  14  19
ATOM     19  S   UNL A   1      33.352  17.228  24.247  1.00  0.00     0.238 S 
ATOM     20  O   UNL A   1      34.298  16.719  25.211  1.00  0.00    -0.207 OA
ATOM     21  O   UNL A   1      33.272  16.742  22.888  1.00  0.00    -0.207 OA
BRANCH  19  22
ATOM     22  N   UNL A   1      31.838  16.935  24.918  1.00  0.00    -0.225 NA
ATOM     23  H   UNL A   1      31.870  16.076  25.468  1.00  0.00     0.137 HD
ATOM     24  H   UNL A   1      31.149  16.836  24.173  1.00  0.00     0.137 HD
ENDBRANCH  19  22
ENDBRANCH  14  19
ENDBRANCH   9  13
BRANCH  11  25
ATOM     25  C   UNL A   1      32.124  23.870  25.820  1.00  0.00     0.128 A 
ATOM     26  C   UNL A   1      31.666  22.949  26.742  1.00  0.00     0.048 A 
ATOM     27  O   UNL A   1      31.123  24.755  25.526  1.00  0.00    -0.467 OA
ATOM     28  C   UNL A   1      30.318  23.288  27.016  1.00  0.00     0.042 A 
ATOM     29  C   UNL A   1      30.041  24.400  26.259  1.00  0.00     0.195 A 
ENDBRANCH  11  25
ENDBRANCH   6   8
ENDBRANCH   5   6
ENDBRANCH   4   5
ENDBRANCH   3   4
ENDBRANCH   2   3
ENDBRANCH   1   2
BRANCH   1  30
ATOM     30  C   UNL A   1      31.941  30.482  26.190  1.00  0.00     0.188 C 
BRANCH  30  31
ATOM     31  O   UNL A   1      32.848  30.456  27.277  1.00  0.00    -0.376 OA
BRANCH  31  32
ATOM     32  C   UNL A   1      33.489  31.687  27.586  1.00  0.00     0.202 C 
BRANCH  32  33
ATOM     33  C   UNL A   1      32.584  32.928  27.617  1.00  0.00     0.261 C 
BRANCH  33  34
ATOM     34  O   UNL A   1      33.268  34.193  27.573  1.00  0.00    -0.460 OA
BRANCH  34  35
ATOM     35  C   UNL A   1      33.303  34.914  28.717  1.00  0.00     0.338 C 
ATOM     36  O   UNL A   1      32.490  35.738  29.092  1.00  0.00    -0.246 OA
BRANCH  35  37
ATOM     37  C   UNL A   1      34.406  34.385  29.549  1.00  0.00     0.060 A 
ATOM     38  C   UNL A   1      35.713  34.446  29.053  1.00  0.00     0.016 A 
ATOM     39  C   UNL A   1      34.154  33.841  30.812  1.00  0.00     0.016 A 
ATOM     40  C   UNL A   1      36.771  33.943  29.812  1.00  0.00     0.010 A 
ATOM     41  C   UNL A   1      35.214  33.324  31.565  1.00  0.00     0.010 A 
ATOM     42  C   UNL A   1      36.525  33.348  31.057  1.00  0.00    -0.014 A 
BRANCH  42  43
ATOM     43  C   UNL A   1      37.626  32.639  31.757  1.00  0.00     0.031 A 
ATOM     44  C   UNL A   1      38.274  31.458  31.092  1.00  0.00     0.074 A 
ATOM     45  C   UNL A   1      38.076  33.063  32.950  1.00  0.00     0.049 A 
ATOM     46  N   UNL A   1      39.276  30.716  31.496  1.00  0.00    -0.248 NA
ATOM     47  C   UNL A   1      37.717  31.059  29.790  1.00  0.00     0.031 C 
ATOM     48  C   UNL A   1      37.548  34.203  33.696  1.00  0.00     0.029 A 
ATOM     49  N   UNL A   1      39.085  32.578  33.745  1.00  0.00    -0.354 N 
ATOM     50  C   UNL A   1      39.479  29.777  30.494  1.00  0.00     0.074 A 
ATOM     51  C   UNL A   1      38.466  30.009  29.487  1.00  0.00     0.031 C 
ATOM     52  C   UNL A   1      38.232  34.325  34.846  1.00  0.00     0.029 A 
ATOM     53  C   UNL A   1      39.234  33.263  34.925  1.00  0.00     0.049 A 
ATOM     54  H   UNL A   1      39.648  31.810  33.493  1.00  0.00     0.167 HD
ATOM     55  C   UNL A   1      40.434  28.820  30.411  1.00  0.00     0.037 A 
ATOM     56  C   UNL A   1      40.076  33.050  35.955  1.00  0.00     0.037 A 
ATOM     57  C   UNL A   1      41.427  28.569  31.424  1.00  0.00     0.049 A 
ATOM     58  C   UNL A   1      41.090  31.939  35.870  1.00  0.00     0.074 A 
ATOM     59  C   UNL A   1      42.438  27.623  31.428  1.00  0.00     0.029 A 
ATOM     60  N   UNL A   1      41.527  29.264  32.620  1.00  0.00    -0.354 N 
ATOM     61  N   UNL A   1      41.295  31.073  34.907  1.00  0.00    -0.248 NA
ATOM     62  C   UNL A   1      41.999  31.784  37.015  1.00  0.00     0.031 C 
ATOM     63  C   UNL A   1      43.115  27.711  32.650  1.00  0.00     0.029 A 
ATOM     64  C   UNL A   1      42.564  28.749  33.383  1.00  0.00     0.049 A 
ATOM     65  H   UNL A   1      40.946  30.012  32.888  1.00  0.00     0.167 HD
ATOM     66  C   UNL A   1      42.365  30.288  35.317  1.00  0.00     0.074 A 
ATOM     67  C   UNL A   1      42.779  30.793  36.610  1.00  0.00     0.031 C 
ATOM     68  C   UNL A   1      42.954  29.245  34.680  1.00  0.00     0.037 A 
BRANCH  55  69
ATOM     69  C   UNL A   1      40.428  27.956  29.182  1.00  0.00     0.064 A 
ATOM     70  C   UNL A   1      41.185  28.288  28.047  1.00  0.00     0.173 A 
ATOM     71  C   UNL A   1      39.661  26.783  29.138  1.00  0.00     0.173 A 
ATOM     72  F   UNL A   1      41.923  29.409  28.031  1.00  0.00    -0.203 F 
ATOM     73  C   UNL A   1      41.146  27.497  26.903  1.00  0.00     0.198 A 
ATOM     74  C   UNL A   1      39.648  25.976  28.002  1.00  0.00     0.198 A 
ATOM     75  F   UNL A   1      38.922  26.417  30.196  1.00  0.00    -0.203 F 
ATOM     76  F   UNL A   1      41.831  27.865  25.811  1.00  0.00    -0.200 F 
ATOM     77  C   UNL A   1      40.382  26.339  26.883  1.00  0.00     0.200 A 
ATOM     78  F   UNL A   1      38.918  24.854  27.988  1.00  0.00    -0.200 F 
ATOM     79  F   UNL A   1      40.344  25.579  25.780  1.00  0.00    -0.200 F 
ENDBRANCH  55  69
BRANCH  56  80
ATOM     80  C   UNL A   1      39.986  33.909  37.165  1.00  0.00     0.064 A 
ATOM     81  C   UNL A   1      39.129  33.588  38.226  1.00  0.00     0.173 A 
ATOM     82  C   UNL A   1      40.755  35.076  37.276  1.00  0.00     0.173 A 
ATOM     83  F   UNL A   1      38.341  32.506  38.150  1.00  0.00    -0.203 F 
ATOM     84  C   UNL A   1      39.040  34.407  39.351  1.00  0.00     0.198 A 
ATOM     85  C   UNL A   1      40.684  35.881  38.411  1.00  0.00     0.198 A 
ATOM     86  F   UNL A   1      41.580  35.436  36.282  1.00  0.00    -0.203 F 
ATOM     87  F   UNL A   1      38.181  34.102  40.334  1.00  0.00    -0.200 F 
ATOM     88  C   UNL A   1      39.823  35.548  39.446  1.00  0.00     0.200 A 
ATOM     89  F   UNL A   1      41.443  36.981  38.500  1.00  0.00    -0.200 F 
ATOM     90  F   UNL A   1      39.738  36.334  40.529  1.00  0.00    -0.200 F 
ENDBRANCH  56  80
BRANCH  68  91
ATOM     91  C   UNL A   1      44.115  28.586  35.372  1.00  0.00     0.064 A 
ATOM     92  C   UNL A   1      43.932  27.511  36.256  1.00  0.00     0.173 A 
ATOM     93  C   UNL A   1      45.427  29.029  35.143  1.00  0.00     0.173 A 
ATOM     94  F   UNL A   1      42.699  27.056  36.520  1.00  0.00    -0.203 F 
ATOM     95  C   UNL A   1      45.015  26.932  36.914  1.00  0.00     0.198 A 
ATOM     96  C   UNL A   1      46.510  28.426  35.778  1.00  0.00     0.198 A 
ATOM     97  F   UNL A   1      45.662  30.046  34.300  1.00  0.00    -0.203 F 
ATOM     98  F   UNL A   1      44.809  25.947  37.799  1.00  0.00    -0.200 F 
ATOM     99  C   UNL A   1      46.303  27.387  36.672  1.00  0.00     0.200 A 
ATOM    100  F   UNL A   1      47.755  28.858  35.532  1.00  0.00    -0.200 F 
ATOM    101  F   UNL A   1      47.342  26.829  37.308  1.00  0.00    -0.200 F 
ENDBRANCH  68  91
ENDBRANCH  42  43
ENDBRANCH  35  37
ENDBRANCH  34  35
ENDBRANCH  33  34
ENDBRANCH  32  33
ENDBRANCH  31  32
ENDBRANCH  30  31
ENDBRANCH   1  30
TORSDOF 21
ENDMDL
MODEL 3
REMARK VINA RESULT:     -11.3      5.038      9.367
REMARK SMILES NS(=O)(=O)c1ccc(N2N=C(C(=O)OCCOCCOCCOC(=O)c3ccc(-c4c5nc(c(-c6c(F)c(F)c(F)c(F)c6F)c6ccc([nH]6)c(-c6c(F)c(F)c(F)c(F)c6F)c6nc(c(-c7c(F)c(F)c(F)c(F)c7F)c7ccc4[nH]7)C=C6)C=C5)cc3)C[C@H]2c2ccco2)cc1
REMARK SMILES IDX 18 1 17 2 16 3 15 4 14 5 12 6 13 7 11 8 9 9 10 10 90 11
REMARK SMILES IDX 89 12 8 13 5 14 6 15 97 16 7 17 96 18 2 19 3 20 4 21 1 22
REMARK SMILES IDX 91 25 92 26 95 27 93 28 94 29 19 30 20 31 21 32 22 33 23 34
REMARK SMILES IDX 24 35 25 36 26 37 27 38 88 39 28 40 87 41 29 42 30 43 31 44
REMARK SMILES IDX 81 45 32 46 86 47 80 48 82 49 33 50 85 51 79 52 78 53 34 55
REMARK SMILES IDX 66 56 46 57 65 58 47 59 50 60 64 61 83 62 48 63 49 64 63 66
REMARK SMILES IDX 84 67 51 68 35 69 36 70 44 71 37 72 38 73 42 74 45 75 39 76
REMARK SMILES IDX 40 77 43 78 41 79 67 80 68 81 76 82 69 83 70 84 74 85 77 86
REMARK SMILES IDX 71 87 72 88 75 89 73 90 52 91 53 92 61 93 54 94 55 95 59 96
REMARK SMILES IDX 62 97 56 98 57 99 60 100 58 101
REMARK H PARENT 1 23 1 24 82 54 50 65
REMARK Flexibility Score: inf
ROOT
ATOM      1  C   UNL A   1      35.800  21.038  25.316  1.00  0.00     0.188 C 
ENDROOT
BRANCH   1   2
ATOM      2  O   UNL A   1      34.673  20.953  24.448  1.00  0.00    -0.376 OA
BRANCH   2   3
ATOM      3  C   UNL A   1      33.410  20.555  24.972  1.00  0.00     0.202 C 
BRANCH   3   4
ATOM      4  C   UNL A   1      32.803  21.392  26.105  1.00  0.00     0.261 C 
BRANCH   4   5
ATOM      5  O   UNL A   1      31.594  22.060  25.714  1.00  0.00    -0.459 OA
BRANCH   5   6
ATOM      6  C   UNL A   1      31.210  23.076  26.513  1.00  0.00     0.354 C 
ATOM      7  O   UNL A   1      30.728  23.016  27.626  1.00  0.00    -0.245 OA
BRANCH   6   8
ATOM      8  C   UNL A   1      31.602  24.381  25.870  1.00  0.00     0.148 C 
ATOM      9  N   UNL A   1      31.450  26.339  25.060  1.00  0.00    -0.254 N 
ATOM     10  N   UNL A   1      30.746  25.339  25.672  1.00  0.00    -0.169 NA
ATOM     11  C   UNL A   1      32.763  25.865  24.571  1.00  0.00     0.180 C 
ATOM     12  C   UNL A   1      33.022  24.679  25.516  1.00  0.00     0.101 C 
BRANCH   9  13
ATOM     13  C   UNL A   1      30.725  27.350  24.437  1.00  0.00     0.060 A 
ATOM     14  C   UNL A   1      29.256  29.365  23.135  1.00  0.00     0.082 A 
ATOM     15  C   UNL A   1      28.768  28.056  23.165  1.00  0.00     0.024 A 
ATOM     16  C   UNL A   1      30.475  29.675  23.735  1.00  0.00     0.024 A 
ATOM     17  C   UNL A   1      29.503  27.058  23.817  1.00  0.00     0.029 A 
ATOM     18  C   UNL A   1      31.208  28.664  24.364  1.00  0.00     0.029 A 
BRANCH  14  19
ATOM     19  S   UNL A   1      28.286  30.602  22.327  1.00  0.00     0.238 S 
ATOM     20  O   UNL A   1      27.252  31.032  23.238  1.00  0.00    -0.207 OA
ATOM     21  O   UNL A   1      28.015  30.161  20.978  1.00  0.00    -0.207 OA
BRANCH  19  22
ATOM     22  N   UNL A   1      29.312  31.926  22.169  1.00  0.00    -0.225 NA
ATOM     23  H   UNL A   1      29.886  32.013  23.009  1.00  0.00     0.137 HD
ATOM     24  H   UNL A   1      28.758  32.773  22.047  1.00  0.00     0.137 HD
ENDBRANCH  19  22
ENDBRANCH  14  19
ENDBRANCH   9  13
BRANCH  11  25
ATOM     25  C   UNL A   1      32.862  25.446  23.128  1.00  0.00     0.128 A 
ATOM     26  C   UNL A   1      32.757  26.139  21.937  1.00  0.00     0.048 A 
ATOM     27  O   UNL A   1      33.108  24.126  22.867  1.00  0.00    -0.467 OA
ATOM     28  C   UNL A   1      32.944  25.190  20.902  1.00  0.00     0.042 A 
ATOM     29  C   UNL A   1      33.166  23.984  21.521  1.00  0.00     0.195 A 
ENDBRANCH  11  25
ENDBRANCH   6   8
ENDBRANCH   5   6
ENDBRANCH   4   5
ENDBRANCH   3   4
ENDBRANCH   2   3
ENDBRANCH   1   2
BRANCH   1  30
ATOM     30  C   UNL A   1      36.993  21.939  24.938  1.00  0.00     0.188 C 
BRANCH  30  31
ATOM     31  O   UNL A   1      38.251  21.485  25.402  1.00  0.00    -0.376 OA
BRANCH  31  32
ATOM     32  C   UNL A   1      38.554  20.117  25.152  1.00  0.00     0.202 C 
BRANCH  32  33
ATOM     33  C   UNL A   1      39.578  19.472  26.098  1.00  0.00     0.261 C 
BRANCH  33  34
ATOM     34  O   UNL A   1      40.813  19.061  25.484  1.00  0.00    -0.460 OA
BRANCH  34  35
ATOM     35  C   UNL A   1      41.927  19.110  26.250  1.00  0.00     0.338 C 
ATOM     36  O   UNL A   1      42.667  18.187  26.530  1.00  0.00    -0.246 OA
BRANCH  35  37
ATOM     37  C   UNL A   1      42.217  20.533  26.532  1.00  0.00     0.060 A 
ATOM     38  C   UNL A   1      42.351  21.419  25.456  1.00  0.00     0.016 A 
ATOM     39  C   UNL A   1      42.347  20.993  27.846  1.00  0.00     0.016 A 
ATOM     40  C   UNL A   1      42.636  22.765  25.693  1.00  0.00     0.010 A 
ATOM     41  C   UNL A   1      42.648  22.339  28.080  1.00  0.00     0.010 A 
ATOM     42  C   UNL A   1      42.820  23.227  27.004  1.00  0.00    -0.014 A 
BRANCH  42  43
ATOM     43  C   UNL A   1      43.322  24.607  27.228  1.00  0.00     0.031 A 
ATOM     44  C   UNL A   1      42.380  25.650  27.760  1.00  0.00     0.074 A 
ATOM     45  C   UNL A   1      44.609  24.921  27.002  1.00  0.00     0.049 A 
ATOM     46  N   UNL A   1      42.608  26.902  28.070  1.00  0.00    -0.248 NA
ATOM     47  C   UNL A   1      40.989  25.221  27.974  1.00  0.00     0.031 C 
ATOM     48  C   UNL A   1      45.628  24.002  26.503  1.00  0.00     0.029 A 
ATOM     49  N   UNL A   1      45.276  26.110  27.167  1.00  0.00    -0.354 N 
ATOM     50  C   UNL A   1      41.398  27.403  28.530  1.00  0.00     0.074 A 
ATOM     51  C   UNL A   1      40.427  26.337  28.412  1.00  0.00     0.031 C 
ATOM     52  C   UNL A   1      46.793  24.664  26.392  1.00  0.00     0.029 A 
ATOM     53  C   UNL A   1      46.597  26.055  26.797  1.00  0.00     0.049 A 
ATOM     54  H   UNL A   1      44.848  26.925  27.516  1.00  0.00     0.167 HD
ATOM     55  C   UNL A   1      41.125  28.635  29.024  1.00  0.00     0.037 A 
ATOM     56  C   UNL A   1      47.536  27.020  26.778  1.00  0.00     0.037 A 
ATOM     57  C   UNL A   1      42.083  29.707  29.119  1.00  0.00     0.049 A 
ATOM     58  C   UNL A   1      47.194  28.402  27.273  1.00  0.00     0.074 A 
ATOM     59  C   UNL A   1      41.900  30.989  29.607  1.00  0.00     0.029 A 
ATOM     60  N   UNL A   1      43.404  29.623  28.705  1.00  0.00    -0.354 N 
ATOM     61  N   UNL A   1      46.056  28.862  27.733  1.00  0.00    -0.248 NA
ATOM     62  C   UNL A   1      48.275  29.398  27.254  1.00  0.00     0.031 C 
ATOM     63  C   UNL A   1      43.096  31.697  29.440  1.00  0.00     0.029 A 
ATOM     64  C   UNL A   1      44.041  30.839  28.900  1.00  0.00     0.049 A 
ATOM     65  H   UNL A   1      43.827  28.818  28.327  1.00  0.00     0.167 HD
ATOM     66  C   UNL A   1      46.288  30.186  28.078  1.00  0.00     0.074 A 
ATOM     67  C   UNL A   1      47.682  30.453  27.792  1.00  0.00     0.031 C 
ATOM     68  C   UNL A   1      45.425  31.100  28.590  1.00  0.00     0.037 A 
BRANCH  55  69
ATOM     69  C   UNL A   1      39.716  28.890  29.479  1.00  0.00     0.064 A 
ATOM     70  C   UNL A   1      39.326  28.685  30.812  1.00  0.00     0.173 A 
ATOM     71  C   UNL A   1      38.746  29.344  28.575  1.00  0.00     0.173 A 
ATOM     72  F   UNL A   1      40.212  28.235  31.713  1.00  0.00    -0.203 F 
ATOM     73  C   UNL A   1      38.010  28.894  31.214  1.00  0.00     0.198 A 
ATOM     74  C   UNL A   1      37.436  29.582  28.987  1.00  0.00     0.198 A 
ATOM     75  F   UNL A   1      39.065  29.559  27.289  1.00  0.00    -0.203 F 
ATOM     76  F   UNL A   1      37.648  28.636  32.479  1.00  0.00    -0.200 F 
ATOM     77  C   UNL A   1      37.067  29.346  30.303  1.00  0.00     0.200 A 
ATOM     78  F   UNL A   1      36.529  30.028  28.108  1.00  0.00    -0.200 F 
ATOM     79  F   UNL A   1      35.800  29.545  30.691  1.00  0.00    -0.200 F 
ENDBRANCH  55  69
BRANCH  56  80
ATOM     80  C   UNL A   1      48.895  26.711  26.260  1.00  0.00     0.064 A 
ATOM     81  C   UNL A   1      49.874  26.132  27.077  1.00  0.00     0.173 A 
ATOM     82  C   UNL A   1      49.239  26.999  24.931  1.00  0.00     0.173 A 
ATOM     83  F   UNL A   1      49.609  25.877  28.366  1.00  0.00    -0.203 F 
ATOM     84  C   UNL A   1      51.151  25.859  26.587  1.00  0.00     0.198 A 
ATOM     85  C   UNL A   1      50.507  26.703  24.435  1.00  0.00     0.198 A 
ATOM     86  F   UNL A   1      48.343  27.567  24.111  1.00  0.00    -0.203 F 
ATOM     87  F   UNL A   1      52.084  25.345  27.400  1.00  0.00    -0.200 F 
ATOM     88  C   UNL A   1      51.463  26.137  25.264  1.00  0.00     0.200 A 
ATOM     89  F   UNL A   1      50.804  26.971  23.156  1.00  0.00    -0.200 F 
ATOM     90  F   UNL A   1      52.690  25.872  24.793  1.00  0.00    -0.200 F 
ENDBRANCH  56  80
BRANCH  68  91
ATOM     91  C   UNL A   1      45.970  32.471  28.879  1.00  0.00     0.064 A 
ATOM     92  C   UNL A   1      46.545  32.789  30.120  1.00  0.00     0.173 A 
ATOM     93  C   UNL A   1      45.925  33.478  27.902  1.00  0.00     0.173 A 
ATOM     94  F   UNL A   1      46.603  31.868  31.093  1.00  0.00    -0.203 F 
ATOM     95  C   UNL A   1      47.017  34.072  30.384  1.00  0.00     0.198 A 
ATOM     96  C   UNL A   1      46.427  34.751  28.159  1.00  0.00     0.198 A 
ATOM     97  F   UNL A   1      45.396  33.228  26.695  1.00  0.00    -0.203 F 
ATOM     98  F   UNL A   1      47.506  34.369  31.596  1.00  0.00    -0.200 F 
ATOM     99  C   UNL A   1      46.961  35.052  29.403  1.00  0.00     0.200 A 
ATOM    100  F   UNL A   1      46.385  35.692  27.205  1.00  0.00    -0.200 F 
ATOM    101  F   UNL A   1      47.414  36.287  29.660  1.00  0.00    -0.200 F 
ENDBRANCH  68  91
ENDBRANCH  42  43
ENDBRANCH  35  37
ENDBRANCH  34  35
ENDBRANCH  33  34
ENDBRANCH  32  33
ENDBRANCH  31  32
ENDBRANCH  30  31
ENDBRANCH   1  30
TORSDOF 21
ENDMDL
