MODEL 1
REMARK VINA RESULT:     -11.9      0.000      0.000
REMARK SMILES C[C@H]1CC[C@@](NC(=O)N[C@H]2CCOC2)(C(=O)OCCOCCOCCOC(=O)c2ccc(-c3c4nc(c(-c5c(F)c(F)c(F)c(F)c5F)c5ccc([nH]5)c(-c5c(F)c(F)c(F)c(F)c5F)c5nc(c(-c6c(F)c(F)c(F)c(F)c6F)c6ccc3[nH]6)C=C5)C=C4)cc2)CC1
REMARK SMILES IDX 21 1 20 2 19 3 18 4 17 5 15 6 16 7 5 8 1 9 2 10 93 11 3 12
REMARK SMILES IDX 92 13 4 14 6 15 7 16 8 18 9 19 10 21 11 22 14 23 12 24 13 25
REMARK SMILES IDX 22 26 23 27 24 28 25 29 26 30 27 31 28 32 29 33 30 34 91 35
REMARK SMILES IDX 31 36 90 37 32 38 33 39 34 40 84 41 35 42 89 43 83 44 85 45
REMARK SMILES IDX 36 46 88 47 82 48 81 49 37 51 69 52 49 53 68 54 50 55 53 56
REMARK SMILES IDX 67 57 86 58 51 59 52 60 66 62 87 63 54 64 38 65 39 66 47 67
REMARK SMILES IDX 40 68 41 69 45 70 48 71 42 72 43 73 46 74 44 75 70 76 71 77
REMARK SMILES IDX 79 78 72 79 73 80 77 81 80 82 74 83 75 84 78 85 76 86 55 87
REMARK SMILES IDX 56 88 64 89 57 90 58 91 62 92 65 93 59 94 60 95 63 96 61 97
REMARK H PARENT 6 17 9 20 85 50 53 61
REMARK Flexibility Score: inf
ROOT
ATOM      1  C   UNL A   1      39.989  21.527  26.928  1.00  0.00     0.188 C 
ENDROOT
BRANCH   1   2
ATOM      2  O   UNL A   1      38.917  22.289  26.381  1.00  0.00    -0.376 OA
BRANCH   2   3
ATOM      3  C   UNL A   1      38.159  21.611  25.383  1.00  0.00     0.202 C 
BRANCH   3   4
ATOM      4  C   UNL A   1      37.045  22.475  24.786  1.00  0.00     0.261 C 
BRANCH   4   5
ATOM      5  O   UNL A   1      35.655  22.097  24.964  1.00  0.00    -0.461 OA
BRANCH   5   6
ATOM      6  C   UNL A   1      34.635  22.313  24.093  1.00  0.00     0.331 C 
ATOM      7  O   UNL A   1      34.750  22.647  22.920  1.00  0.00    -0.249 OA
BRANCH   6   8
ATOM      8  C   UNL A   1      33.280  22.101  24.773  1.00  0.00     0.139 C 
ATOM      9  C   UNL A   1      32.791  18.127  22.893  1.00  0.00     0.007 C 
ATOM     10  C   UNL A   1      32.466  19.332  23.782  1.00  0.00    -0.014 C 
ATOM     11  C   UNL A   1      32.241  20.596  22.943  1.00  0.00     0.006 C 
ATOM     12  C   UNL A   1      33.575  19.526  24.821  1.00  0.00     0.006 C 
ATOM     13  C   UNL A   1      32.114  21.877  23.789  1.00  0.00     0.041 C 
ATOM     14  C   UNL A   1      33.405  20.808  25.638  1.00  0.00     0.041 C 
BRANCH   8  15
ATOM     15  N   UNL A   1      33.016  23.244  25.691  1.00  0.00    -0.322 N 
ATOM     16  C   UNL A   1      32.570  24.499  25.638  1.00  0.00     0.316 C 
ATOM     17  H   UNL A   1      33.239  22.998  26.617  1.00  0.00     0.166 HD
ATOM     18  O   UNL A   1      32.215  24.992  26.715  1.00  0.00    -0.249 OA
ATOM     19  N   UNL A   1      32.497  25.301  24.576  1.00  0.00    -0.333 N 
ATOM     20  H   UNL A   1      32.006  26.128  24.783  1.00  0.00     0.165 HD
BRANCH  19  21
ATOM     21  C   UNL A   1      32.946  25.283  23.200  1.00  0.00     0.112 C 
ATOM     22  C   UNL A   1      31.846  25.216  22.170  1.00  0.00     0.056 C 
ATOM     23  C   UNL A   1      33.714  26.519  22.728  1.00  0.00     0.185 C 
ATOM     24  C   UNL A   1      32.588  25.601  20.907  1.00  0.00     0.162 C 
ATOM     25  O   UNL A   1      33.584  26.559  21.295  1.00  0.00    -0.379 OA
ENDBRANCH  19  21
ENDBRANCH   8  15
ENDBRANCH   6   8
ENDBRANCH   5   6
ENDBRANCH   4   5
ENDBRANCH   3   4
ENDBRANCH   2   3
ENDBRANCH   1   2
BRANCH   1  26
ATOM     26  C   UNL A   1      40.283  20.260  26.106  1.00  0.00     0.188 C 
BRANCH  26  27
ATOM     27  O   UNL A   1      41.623  20.067  25.664  1.00  0.00    -0.376 OA
BRANCH  27  28
ATOM     28  C   UNL A   1      42.612  20.811  26.363  1.00  0.00     0.202 C 
BRANCH  28  29
ATOM     29  C   UNL A   1      43.419  21.798  25.506  1.00  0.00     0.261 C 
BRANCH  29  30
ATOM     30  O   UNL A   1      42.625  22.881  24.962  1.00  0.00    -0.460 OA
BRANCH  30  31
ATOM     31  C   UNL A   1      43.188  24.110  25.019  1.00  0.00     0.338 C 
ATOM     32  O   UNL A   1      44.265  24.449  24.557  1.00  0.00    -0.246 OA
BRANCH  31  33
ATOM     33  C   UNL A   1      42.311  25.091  25.697  1.00  0.00     0.060 A 
ATOM     34  C   UNL A   1      42.589  26.457  25.584  1.00  0.00     0.016 A 
ATOM     35  C   UNL A   1      41.415  24.652  26.671  1.00  0.00     0.016 A 
ATOM     36  C   UNL A   1      42.056  27.372  26.495  1.00  0.00     0.010 A 
ATOM     37  C   UNL A   1      40.854  25.574  27.567  1.00  0.00     0.010 A 
ATOM     38  C   UNL A   1      41.223  26.934  27.530  1.00  0.00    -0.014 A 
BRANCH  38  39
ATOM     39  C   UNL A   1      40.928  27.841  28.677  1.00  0.00     0.031 A 
ATOM     40  C   UNL A   1      41.837  27.811  29.881  1.00  0.00     0.074 A 
ATOM     41  C   UNL A   1      39.939  28.754  28.636  1.00  0.00     0.049 A 
ATOM     42  N   UNL A   1      41.680  28.359  31.060  1.00  0.00    -0.248 NA
ATOM     43  C   UNL A   1      43.094  27.061  29.732  1.00  0.00     0.031 C 
ATOM     44  C   UNL A   1      39.057  29.002  27.497  1.00  0.00     0.029 A 
ATOM     45  N   UNL A   1      39.519  29.656  29.586  1.00  0.00    -0.354 N 
ATOM     46  C   UNL A   1      42.782  27.965  31.810  1.00  0.00     0.074 A 
ATOM     47  C   UNL A   1      43.606  27.142  30.950  1.00  0.00     0.031 C 
ATOM     48  C   UNL A   1      38.212  29.999  27.808  1.00  0.00     0.029 A 
ATOM     49  C   UNL A   1      38.437  30.404  29.194  1.00  0.00     0.049 A 
ATOM     50  H   UNL A   1      39.954  29.754  30.463  1.00  0.00     0.167 HD
ATOM     51  C   UNL A   1      43.078  28.256  33.099  1.00  0.00     0.037 A 
ATOM     52  C   UNL A   1      37.680  31.280  29.887  1.00  0.00     0.037 A 
ATOM     53  C   UNL A   1      42.299  29.130  33.937  1.00  0.00     0.049 A 
ATOM     54  C   UNL A   1      37.989  31.543  31.338  1.00  0.00     0.074 A 
ATOM     55  C   UNL A   1      42.509  29.476  35.260  1.00  0.00     0.029 A 
ATOM     56  N   UNL A   1      41.170  29.817  33.520  1.00  0.00    -0.354 N 
ATOM     57  N   UNL A   1      38.965  31.076  32.079  1.00  0.00    -0.248 NA
ATOM     58  C   UNL A   1      37.072  32.441  32.056  1.00  0.00     0.031 C 
ATOM     59  C   UNL A   1      41.488  30.348  35.655  1.00  0.00     0.029 A 
ATOM     60  C   UNL A   1      40.666  30.579  34.563  1.00  0.00     0.049 A 
ATOM     61  H   UNL A   1      40.782  29.772  32.616  1.00  0.00     0.167 HD
ATOM     62  C   UNL A   1      38.783  31.625  33.341  1.00  0.00     0.074 A 
ATOM     63  C   UNL A   1      37.621  32.485  33.261  1.00  0.00     0.031 C 
ATOM     64  C   UNL A   1      39.508  31.427  34.471  1.00  0.00     0.037 A 
BRANCH  51  65
ATOM     65  C   UNL A   1      44.271  27.578  33.705  1.00  0.00     0.064 A 
ATOM     66  C   UNL A   1      45.546  28.161  33.703  1.00  0.00     0.173 A 
ATOM     67  C   UNL A   1      44.124  26.324  34.321  1.00  0.00     0.173 A 
ATOM     68  F   UNL A   1      45.744  29.348  33.111  1.00  0.00    -0.203 F 
ATOM     69  C   UNL A   1      46.633  27.504  34.273  1.00  0.00     0.198 A 
ATOM     70  C   UNL A   1      45.206  25.684  34.916  1.00  0.00     0.198 A 
ATOM     71  F   UNL A   1      42.923  25.725  34.353  1.00  0.00    -0.203 F 
ATOM     72  F   UNL A   1      47.853  28.057  34.220  1.00  0.00    -0.200 F 
ATOM     73  C   UNL A   1      46.462  26.270  34.885  1.00  0.00     0.200 A 
ATOM     74  F   UNL A   1      45.034  24.497  35.516  1.00  0.00    -0.200 F 
ATOM     75  F   UNL A   1      47.509  25.642  35.439  1.00  0.00    -0.200 F 
ENDBRANCH  51  65
BRANCH  52  76
ATOM     76  C   UNL A   1      36.508  31.925  29.239  1.00  0.00     0.064 A 
ATOM     77  C   UNL A   1      36.482  33.307  28.997  1.00  0.00     0.173 A 
ATOM     78  C   UNL A   1      35.377  31.179  28.878  1.00  0.00     0.173 A 
ATOM     79  F   UNL A   1      37.524  34.070  29.357  1.00  0.00    -0.203 F 
ATOM     80  C   UNL A   1      35.365  33.916  28.429  1.00  0.00     0.198 A 
ATOM     81  C   UNL A   1      34.274  31.784  28.279  1.00  0.00     0.198 A 
ATOM     82  F   UNL A   1      35.346  29.856  29.097  1.00  0.00    -0.203 F 
ATOM     83  F   UNL A   1      35.345  35.244  28.253  1.00  0.00    -0.200 F 
ATOM     84  C   UNL A   1      34.265  33.153  28.063  1.00  0.00     0.200 A 
ATOM     85  F   UNL A   1      33.220  31.041  27.918  1.00  0.00    -0.200 F 
ATOM     86  F   UNL A   1      33.193  33.739  27.512  1.00  0.00    -0.200 F 
ENDBRANCH  52  76
BRANCH  64  87
ATOM     87  C   UNL A   1      39.075  32.170  35.702  1.00  0.00     0.064 A 
ATOM     88  C   UNL A   1      39.458  33.500  35.928  1.00  0.00     0.173 A 
ATOM     89  C   UNL A   1      38.259  31.549  36.659  1.00  0.00     0.173 A 
ATOM     90  F   UNL A   1      40.251  34.133  35.050  1.00  0.00    -0.203 F 
ATOM     91  C   UNL A   1      39.066  34.172  37.083  1.00  0.00     0.198 A 
ATOM     92  C   UNL A   1      37.845  32.232  37.800  1.00  0.00     0.198 A 
ATOM     93  F   UNL A   1      37.860  30.280  36.488  1.00  0.00    -0.203 F 
ATOM     94  F   UNL A   1      39.488  35.425  37.304  1.00  0.00    -0.200 F 
ATOM     95  C   UNL A   1      38.257  33.539  38.015  1.00  0.00     0.200 A 
ATOM     96  F   UNL A   1      37.056  31.624  38.695  1.00  0.00    -0.200 F 
ATOM     97  F   UNL A   1      37.883  34.186  39.128  1.00  0.00    -0.200 F 
ENDBRANCH  64  87
ENDBRANCH  38  39
ENDBRANCH  31  33
ENDBRANCH  30  31
ENDBRANCH  29  30
ENDBRANCH  28  29
ENDBRANCH  27  28
ENDBRANCH  26  27
ENDBRANCH   1  26
TORSDOF 19
ENDMDL
MODEL 2
REMARK VINA RESULT:     -11.7      1.097      2.681
REMARK SMILES C[C@H]1CC[C@@](NC(=O)N[C@H]2CCOC2)(C(=O)OCCOCCOCCOC(=O)c2ccc(-c3c4nc(c(-c5c(F)c(F)c(F)c(F)c5F)c5ccc([nH]5)c(-c5c(F)c(F)c(F)c(F)c5F)c5nc(c(-c6c(F)c(F)c(F)c(F)c6F)c6ccc3[nH]6)C=C5)C=C4)cc2)CC1
REMARK SMILES IDX 21 1 20 2 19 3 18 4 17 5 15 6 16 7 5 8 1 9 2 10 93 11 3 12
REMARK SMILES IDX 92 13 4 14 6 15 7 16 8 18 9 19 10 21 11 22 14 23 12 24 13 25
REMARK SMILES IDX 22 26 23 27 24 28 25 29 26 30 27 31 28 32 29 33 30 34 91 35
REMARK SMILES IDX 31 36 90 37 32 38 33 39 34 40 84 41 35 42 89 43 83 44 85 45
REMARK SMILES IDX 36 46 88 47 82 48 81 49 37 51 69 52 49 53 68 54 50 55 53 56
REMARK SMILES IDX 67 57 86 58 51 59 52 60 66 62 87 63 54 64 38 65 39 66 47 67
REMARK SMILES IDX 40 68 41 69 45 70 48 71 42 72 43 73 46 74 44 75 70 76 71 77
REMARK SMILES IDX 79 78 72 79 73 80 77 81 80 82 74 83 75 84 78 85 76 86 55 87
REMARK SMILES IDX 56 88 64 89 57 90 58 91 62 92 65 93 59 94 60 95 63 96 61 97
REMARK H PARENT 6 17 9 20 85 50 53 61
REMARK Flexibility Score: inf
ROOT
ATOM      1  C   UNL A   1      38.467  21.836  25.807  1.00  0.00     0.188 C 
ENDROOT
BRANCH   1   2
ATOM      2  O   UNL A   1      37.747  21.503  24.624  1.00  0.00    -0.376 OA
BRANCH   2   3
ATOM      3  C   UNL A   1      36.497  22.172  24.484  1.00  0.00     0.202 C 
BRANCH   3   4
ATOM      4  C   UNL A   1      36.431  23.068  23.244  1.00  0.00     0.261 C 
BRANCH   4   5
ATOM      5  O   UNL A   1      35.148  23.528  22.745  1.00  0.00    -0.461 OA
BRANCH   5   6
ATOM      6  C   UNL A   1      34.246  24.297  23.407  1.00  0.00     0.331 C 
ATOM      7  O   UNL A   1      34.461  24.940  24.428  1.00  0.00    -0.249 OA
BRANCH   6   8
ATOM      8  C   UNL A   1      32.880  24.255  22.718  1.00  0.00     0.139 C 
ATOM      9  C   UNL A   1      32.430  28.646  23.009  1.00  0.00     0.007 C 
ATOM     10  C   UNL A   1      32.088  27.201  22.632  1.00  0.00    -0.014 C 
ATOM     11  C   UNL A   1      31.875  26.336  23.882  1.00  0.00     0.006 C 
ATOM     12  C   UNL A   1      33.178  26.630  21.721  1.00  0.00     0.006 C 
ATOM     13  C   UNL A   1      31.731  24.835  23.568  1.00  0.00     0.041 C 
ATOM     14  C   UNL A   1      32.991  25.137  21.436  1.00  0.00     0.041 C 
BRANCH   8  15
ATOM     15  N   UNL A   1      32.598  22.857  22.290  1.00  0.00    -0.322 N 
ATOM     16  C   UNL A   1      32.259  21.685  22.828  1.00  0.00     0.316 C 
ATOM     17  H   UNL A   1      32.690  22.772  21.314  1.00  0.00     0.166 HD
ATOM     18  O   UNL A   1      31.819  20.837  22.043  1.00  0.00    -0.249 OA
ATOM     19  N   UNL A   1      32.375  21.301  24.099  1.00  0.00    -0.333 N 
ATOM     20  H   UNL A   1      31.928  20.438  24.256  1.00  0.00     0.165 HD
BRANCH  19  21
ATOM     21  C   UNL A   1      32.980  21.810  25.310  1.00  0.00     0.112 C 
ATOM     22  C   UNL A   1      32.035  22.518  26.249  1.00  0.00     0.056 C 
ATOM     23  C   UNL A   1      33.592  20.765  26.246  1.00  0.00     0.185 C 
ATOM     24  C   UNL A   1      32.851  22.566  27.524  1.00  0.00     0.162 C 
ATOM     25  O   UNL A   1      33.629  21.360  27.557  1.00  0.00    -0.379 OA
ENDBRANCH  19  21
ENDBRANCH   8  15
ENDBRANCH   6   8
ENDBRANCH   5   6
ENDBRANCH   4   5
ENDBRANCH   3   4
ENDBRANCH   2   3
ENDBRANCH   1   2
BRANCH   1  26
ATOM     26  C   UNL A   1      39.712  20.951  26.000  1.00  0.00     0.188 C 
BRANCH  26  27
ATOM     27  O   UNL A   1      40.310  20.942  27.292  1.00  0.00    -0.376 OA
BRANCH  27  28
ATOM     28  C   UNL A   1      41.692  20.615  27.325  1.00  0.00     0.202 C 
BRANCH  28  29
ATOM     29  C   UNL A   1      42.516  21.118  26.129  1.00  0.00     0.261 C 
BRANCH  29  30
ATOM     30  O   UNL A   1      43.165  22.392  26.364  1.00  0.00    -0.460 OA
BRANCH  30  31
ATOM     31  C   UNL A   1      42.943  23.346  25.432  1.00  0.00     0.338 C 
ATOM     32  O   UNL A   1      43.247  23.306  24.250  1.00  0.00    -0.246 OA
BRANCH  31  33
ATOM     33  C   UNL A   1      42.211  24.506  25.988  1.00  0.00     0.060 A 
ATOM     34  C   UNL A   1      42.805  25.772  25.965  1.00  0.00     0.016 A 
ATOM     35  C   UNL A   1      41.091  24.289  26.789  1.00  0.00     0.016 A 
ATOM     36  C   UNL A   1      42.350  26.790  26.805  1.00  0.00     0.010 A 
ATOM     37  C   UNL A   1      40.613  25.321  27.611  1.00  0.00     0.010 A 
ATOM     38  C   UNL A   1      41.281  26.560  27.677  1.00  0.00    -0.014 A 
BRANCH  38  39
ATOM     39  C   UNL A   1      41.013  27.519  28.789  1.00  0.00     0.031 A 
ATOM     40  C   UNL A   1      41.932  27.521  29.984  1.00  0.00     0.074 A 
ATOM     41  C   UNL A   1      40.039  28.447  28.719  1.00  0.00     0.049 A 
ATOM     42  N   UNL A   1      41.797  28.119  31.142  1.00  0.00    -0.248 NA
ATOM     43  C   UNL A   1      43.175  26.744  29.855  1.00  0.00     0.031 C 
ATOM     44  C   UNL A   1      39.151  28.664  27.579  1.00  0.00     0.029 A 
ATOM     45  N   UNL A   1      39.644  29.393  29.636  1.00  0.00    -0.354 N 
ATOM     46  C   UNL A   1      42.899  27.736  31.897  1.00  0.00     0.074 A 
ATOM     47  C   UNL A   1      43.700  26.865  31.064  1.00  0.00     0.031 C 
ATOM     48  C   UNL A   1      38.326  29.688  27.857  1.00  0.00     0.029 A 
ATOM     49  C   UNL A   1      38.572  30.145  29.224  1.00  0.00     0.049 A 
ATOM     50  H   UNL A   1      40.090  29.520  30.505  1.00  0.00     0.167 HD
ATOM     51  C   UNL A   1      43.213  28.074  33.170  1.00  0.00     0.037 A 
ATOM     52  C   UNL A   1      37.838  31.061  29.887  1.00  0.00     0.037 A 
ATOM     53  C   UNL A   1      42.457  28.995  33.979  1.00  0.00     0.049 A 
ATOM     54  C   UNL A   1      38.165  31.378  31.324  1.00  0.00     0.074 A 
ATOM     55  C   UNL A   1      42.687  29.391  35.285  1.00  0.00     0.029 A 
ATOM     56  N   UNL A   1      41.337  29.685  33.544  1.00  0.00    -0.354 N 
ATOM     57  N   UNL A   1      39.140  30.923  32.074  1.00  0.00    -0.248 NA
ATOM     58  C   UNL A   1      37.271  32.320  32.013  1.00  0.00     0.031 C 
ATOM     59  C   UNL A   1      41.685  30.296  35.653  1.00  0.00     0.029 A 
ATOM     60  C   UNL A   1      40.857  30.497  34.561  1.00  0.00     0.049 A 
ATOM     61  H   UNL A   1      40.939  29.610  32.647  1.00  0.00     0.167 HD
ATOM     62  C   UNL A   1      38.980  31.526  33.314  1.00  0.00     0.074 A 
ATOM     63  C   UNL A   1      37.833  32.403  33.210  1.00  0.00     0.031 C 
ATOM     64  C   UNL A   1      39.712  31.361  34.444  1.00  0.00     0.037 A 
BRANCH  51  65
ATOM     65  C   UNL A   1      44.400  27.400  33.793  1.00  0.00     0.064 A 
ATOM     66  C   UNL A   1      45.677  27.978  33.790  1.00  0.00     0.173 A 
ATOM     67  C   UNL A   1      44.244  26.156  34.425  1.00  0.00     0.173 A 
ATOM     68  F   UNL A   1      45.883  29.157  33.183  1.00  0.00    -0.203 F 
ATOM     69  C   UNL A   1      46.759  27.325  34.376  1.00  0.00     0.198 A 
ATOM     70  C   UNL A   1      45.320  25.519  35.035  1.00  0.00     0.198 A 
ATOM     71  F   UNL A   1      43.041  25.561  34.459  1.00  0.00    -0.203 F 
ATOM     72  F   UNL A   1      47.980  27.873  34.322  1.00  0.00    -0.200 F 
ATOM     73  C   UNL A   1      46.579  26.100  35.003  1.00  0.00     0.200 A 
ATOM     74  F   UNL A   1      45.141  24.342  35.650  1.00  0.00    -0.200 F 
ATOM     75  F   UNL A   1      47.620  25.476  35.571  1.00  0.00    -0.200 F 
ENDBRANCH  51  65
BRANCH  52  76
ATOM     76  C   UNL A   1      36.671  31.701  29.224  1.00  0.00     0.064 A 
ATOM     77  C   UNL A   1      36.666  33.071  28.926  1.00  0.00     0.173 A 
ATOM     78  C   UNL A   1      35.522  30.961  28.905  1.00  0.00     0.173 A 
ATOM     79  F   UNL A   1      37.726  33.829  29.244  1.00  0.00    -0.203 F 
ATOM     80  C   UNL A   1      35.555  33.676  28.343  1.00  0.00     0.198 A 
ATOM     81  C   UNL A   1      34.425  31.561  28.292  1.00  0.00     0.198 A 
ATOM     82  F   UNL A   1      35.470  29.649  29.179  1.00  0.00    -0.203 F 
ATOM     83  F   UNL A   1      35.557  34.997  28.113  1.00  0.00    -0.200 F 
ATOM     84  C   UNL A   1      34.438  32.920  28.020  1.00  0.00     0.200 A 
ATOM     85  F   UNL A   1      33.354  30.822  27.972  1.00  0.00    -0.200 F 
ATOM     86  F   UNL A   1      33.371  33.502  27.455  1.00  0.00    -0.200 F 
ENDBRANCH  52  76
BRANCH  64  87
ATOM     87  C   UNL A   1      39.305  32.161  35.648  1.00  0.00     0.064 A 
ATOM     88  C   UNL A   1      39.761  33.473  35.846  1.00  0.00     0.173 A 
ATOM     89  C   UNL A   1      38.440  31.615  36.607  1.00  0.00     0.173 A 
ATOM     90  F   UNL A   1      40.603  34.035  34.965  1.00  0.00    -0.203 F 
ATOM     91  C   UNL A   1      39.391  34.197  36.976  1.00  0.00     0.198 A 
ATOM     92  C   UNL A   1      38.049  32.351  37.723  1.00  0.00     0.198 A 
ATOM     93  F   UNL A   1      37.970  30.367  36.463  1.00  0.00    -0.203 F 
ATOM     94  F   UNL A   1      39.881  35.430  37.171  1.00  0.00    -0.200 F 
ATOM     95  C   UNL A   1      38.532  33.638  37.911  1.00  0.00     0.200 A 
ATOM     96  F   UNL A   1      37.212  31.814  38.620  1.00  0.00    -0.200 F 
ATOM     97  F   UNL A   1      38.180  34.335  39.000  1.00  0.00    -0.200 F 
ENDBRANCH  64  87
ENDBRANCH  38  39
ENDBRANCH  31  33
ENDBRANCH  30  31
ENDBRANCH  29  30
ENDBRANCH  28  29
ENDBRANCH  27  28
ENDBRANCH  26  27
ENDBRANCH   1  26
TORSDOF 19
ENDMDL
MODEL 3
REMARK VINA RESULT:     -11.4      1.200      2.538
REMARK SMILES C[C@H]1CC[C@@](NC(=O)N[C@H]2CCOC2)(C(=O)OCCOCCOCCOC(=O)c2ccc(-c3c4nc(c(-c5c(F)c(F)c(F)c(F)c5F)c5ccc([nH]5)c(-c5c(F)c(F)c(F)c(F)c5F)c5nc(c(-c6c(F)c(F)c(F)c(F)c6F)c6ccc3[nH]6)C=C5)C=C4)cc2)CC1
REMARK SMILES IDX 21 1 20 2 19 3 18 4 17 5 15 6 16 7 5 8 1 9 2 10 93 11 3 12
REMARK SMILES IDX 92 13 4 14 6 15 7 16 8 18 9 19 10 21 11 22 14 23 12 24 13 25
REMARK SMILES IDX 22 26 23 27 24 28 25 29 26 30 27 31 28 32 29 33 30 34 91 35
REMARK SMILES IDX 31 36 90 37 32 38 33 39 34 40 84 41 35 42 89 43 83 44 85 45
REMARK SMILES IDX 36 46 88 47 82 48 81 49 37 51 69 52 49 53 68 54 50 55 53 56
REMARK SMILES IDX 67 57 86 58 51 59 52 60 66 62 87 63 54 64 38 65 39 66 47 67
REMARK SMILES IDX 40 68 41 69 45 70 48 71 42 72 43 73 46 74 44 75 70 76 71 77
REMARK SMILES IDX 79 78 72 79 73 80 77 81 80 82 74 83 75 84 78 85 76 86 55 87
REMARK SMILES IDX 56 88 64 89 57 90 58 91 62 92 65 93 59 94 60 95 63 96 61 97
REMARK H PARENT 6 17 9 20 85 50 53 61
REMARK Flexibility Score: inf
ROOT
ATOM      1  C   UNL A   1      37.748  21.703  25.131  1.00  0.00     0.188 C 
ENDROOT
BRANCH   1   2
ATOM      2  O   UNL A   1      37.452  22.773  26.023  1.00  0.00    -0.376 OA
BRANCH   2   3
ATOM      3  C   UNL A   1      36.559  23.751  25.498  1.00  0.00     0.202 C 
BRANCH   3   4
ATOM      4  C   UNL A   1      35.565  23.175  24.486  1.00  0.00     0.261 C 
BRANCH   4   5
ATOM      5  O   UNL A   1      34.727  24.064  23.700  1.00  0.00    -0.461 OA
BRANCH   5   6
ATOM      6  C   UNL A   1      33.592  24.686  24.111  1.00  0.00     0.331 C 
ATOM      7  O   UNL A   1      33.517  25.541  24.985  1.00  0.00    -0.249 OA
BRANCH   6   8
ATOM      8  C   UNL A   1      32.375  24.169  23.341  1.00  0.00     0.139 C 
ATOM      9  C   UNL A   1      30.509  22.613  27.038  1.00  0.00     0.007 C 
ATOM     10  C   UNL A   1      30.655  22.958  25.552  1.00  0.00    -0.014 C 
ATOM     11  C   UNL A   1      31.822  22.192  24.916  1.00  0.00     0.006 C 
ATOM     12  C   UNL A   1      30.806  24.472  25.382  1.00  0.00     0.006 C 
ATOM     13  C   UNL A   1      32.145  22.650  23.481  1.00  0.00     0.041 C 
ATOM     14  C   UNL A   1      31.123  24.879  23.941  1.00  0.00     0.041 C 
BRANCH   8  15
ATOM     15  N   UNL A   1      32.497  24.579  21.914  1.00  0.00    -0.322 N 
ATOM     16  C   UNL A   1      32.628  25.690  21.190  1.00  0.00     0.316 C 
ATOM     17  H   UNL A   1      32.473  23.789  21.327  1.00  0.00     0.166 HD
ATOM     18  O   UNL A   1      33.011  25.534  20.025  1.00  0.00    -0.249 OA
ATOM     19  N   UNL A   1      32.359  26.944  21.554  1.00  0.00    -0.333 N 
ATOM     20  H   UNL A   1      32.670  27.589  20.880  1.00  0.00     0.165 HD
BRANCH  19  21
ATOM     21  C   UNL A   1      31.733  27.612  22.675  1.00  0.00     0.112 C 
ATOM     22  C   UNL A   1      32.610  28.601  23.401  1.00  0.00     0.056 C 
ATOM     23  C   UNL A   1      30.520  28.485  22.344  1.00  0.00     0.185 C 
ATOM     24  C   UNL A   1      31.591  29.374  24.213  1.00  0.00     0.162 C 
ATOM     25  O   UNL A   1      30.399  29.441  23.414  1.00  0.00    -0.379 OA
ENDBRANCH  19  21
ENDBRANCH   8  15
ENDBRANCH   6   8
ENDBRANCH   5   6
ENDBRANCH   4   5
ENDBRANCH   3   4
ENDBRANCH   2   3
ENDBRANCH   1   2
BRANCH   1  26
ATOM     26  C   UNL A   1      38.942  20.858  25.610  1.00  0.00     0.188 C 
BRANCH  26  27
ATOM     27  O   UNL A   1      40.060  21.557  26.147  1.00  0.00    -0.376 OA
BRANCH  27  28
ATOM     28  C   UNL A   1      41.253  20.796  26.280  1.00  0.00     0.202 C 
BRANCH  28  29
ATOM     29  C   UNL A   1      42.544  21.521  25.868  1.00  0.00     0.261 C 
BRANCH  29  30
ATOM     30  O   UNL A   1      42.319  22.670  25.015  1.00  0.00    -0.460 OA
BRANCH  30  31
ATOM     31  C   UNL A   1      43.067  23.764  25.292  1.00  0.00     0.338 C 
ATOM     32  O   UNL A   1      44.255  23.920  25.063  1.00  0.00    -0.246 OA
BRANCH  31  33
ATOM     33  C   UNL A   1      42.261  24.848  25.897  1.00  0.00     0.060 A 
ATOM     34  C   UNL A   1      42.737  26.162  25.861  1.00  0.00     0.016 A 
ATOM     35  C   UNL A   1      41.206  24.524  26.749  1.00  0.00     0.016 A 
ATOM     36  C   UNL A   1      42.234  27.129  26.734  1.00  0.00     0.010 A 
ATOM     37  C   UNL A   1      40.677  25.502  27.605  1.00  0.00     0.010 A 
ATOM     38  C   UNL A   1      41.233  26.796  27.653  1.00  0.00    -0.014 A 
BRANCH  38  39
ATOM     39  C   UNL A   1      40.935  27.718  28.788  1.00  0.00     0.031 A 
ATOM     40  C   UNL A   1      41.830  27.691  30.002  1.00  0.00     0.074 A 
ATOM     41  C   UNL A   1      39.955  28.640  28.728  1.00  0.00     0.049 A 
ATOM     42  N   UNL A   1      41.667  28.253  31.174  1.00  0.00    -0.248 NA
ATOM     43  C   UNL A   1      43.081  26.928  29.874  1.00  0.00     0.031 C 
ATOM     44  C   UNL A   1      39.087  28.885  27.577  1.00  0.00     0.029 A 
ATOM     45  N   UNL A   1      39.533  29.555  29.664  1.00  0.00    -0.354 N 
ATOM     46  C   UNL A   1      42.757  27.855  31.939  1.00  0.00     0.074 A 
ATOM     47  C   UNL A   1      43.581  27.016  31.096  1.00  0.00     0.031 C 
ATOM     48  C   UNL A   1      38.248  29.893  27.869  1.00  0.00     0.029 A 
ATOM     49  C   UNL A   1      38.463  30.310  29.254  1.00  0.00     0.049 A 
ATOM     50  H   UNL A   1      39.960  29.658  30.545  1.00  0.00     0.167 HD
ATOM     51  C   UNL A   1      43.042  28.157  33.228  1.00  0.00     0.037 A 
ATOM     52  C   UNL A   1      37.708  31.199  29.930  1.00  0.00     0.037 A 
ATOM     53  C   UNL A   1      42.262  29.047  34.049  1.00  0.00     0.049 A 
ATOM     54  C   UNL A   1      38.004  31.475  31.382  1.00  0.00     0.074 A 
ATOM     55  C   UNL A   1      42.462  29.404  35.372  1.00  0.00     0.029 A 
ATOM     56  N   UNL A   1      41.145  29.741  33.613  1.00  0.00    -0.354 N 
ATOM     57  N   UNL A   1      38.967  31.005  32.137  1.00  0.00    -0.248 NA
ATOM     58  C   UNL A   1      37.087  32.389  32.081  1.00  0.00     0.031 C 
ATOM     59  C   UNL A   1      41.446  30.289  35.746  1.00  0.00     0.029 A 
ATOM     60  C   UNL A   1      40.637  30.517  34.644  1.00  0.00     0.049 A 
ATOM     61  H   UNL A   1      40.766  29.690  32.706  1.00  0.00     0.167 HD
ATOM     62  C   UNL A   1      38.777  31.569  33.392  1.00  0.00     0.074 A 
ATOM     63  C   UNL A   1      37.625  32.439  33.291  1.00  0.00     0.031 C 
ATOM     64  C   UNL A   1      39.488  31.375  34.531  1.00  0.00     0.037 A 
BRANCH  51  65
ATOM     65  C   UNL A   1      44.222  27.473  33.854  1.00  0.00     0.064 A 
ATOM     66  C   UNL A   1      44.123  26.214  34.462  1.00  0.00     0.173 A 
ATOM     67  C   UNL A   1      45.484  28.089  33.820  1.00  0.00     0.173 A 
ATOM     68  F   UNL A   1      42.937  25.592  34.537  1.00  0.00    -0.203 F 
ATOM     69  C   UNL A   1      45.238  25.607  35.034  1.00  0.00     0.198 A 
ATOM     70  C   UNL A   1      46.602  27.467  34.368  1.00  0.00     0.198 A 
ATOM     71  F   UNL A   1      45.633  29.293  33.247  1.00  0.00    -0.203 F 
ATOM     72  F   UNL A   1      45.113  24.424  35.651  1.00  0.00    -0.200 F 
ATOM     73  C   UNL A   1      46.477  26.230  34.981  1.00  0.00     0.200 A 
ATOM     74  F   UNL A   1      47.799  28.066  34.304  1.00  0.00    -0.200 F 
ATOM     75  F   UNL A   1      47.550  25.641  35.527  1.00  0.00    -0.200 F 
ENDBRANCH  51  65
BRANCH  52  76
ATOM     76  C   UNL A   1      36.549  31.850  29.263  1.00  0.00     0.064 A 
ATOM     77  C   UNL A   1      36.544  33.226  28.993  1.00  0.00     0.173 A 
ATOM     78  C   UNL A   1      35.408  31.114  28.911  1.00  0.00     0.173 A 
ATOM     79  F   UNL A   1      37.597  33.980  29.343  1.00  0.00    -0.203 F 
ATOM     80  C   UNL A   1      35.440  33.841  28.407  1.00  0.00     0.198 A 
ATOM     81  C   UNL A   1      34.317  31.724  28.295  1.00  0.00     0.198 A 
ATOM     82  F   UNL A   1      35.355  29.796  29.156  1.00  0.00    -0.203 F 
ATOM     83  F   UNL A   1      35.441  35.165  28.205  1.00  0.00    -0.200 F 
ATOM     84  C   UNL A   1      34.330  33.088  28.051  1.00  0.00     0.200 A 
ATOM     85  F   UNL A   1      33.253  30.989  27.943  1.00  0.00    -0.200 F 
ATOM     86  F   UNL A   1      33.270  33.678  27.483  1.00  0.00    -0.200 F 
ENDBRANCH  52  76
BRANCH  64  87
ATOM     87  C   UNL A   1      39.050  32.135  35.750  1.00  0.00     0.064 A 
ATOM     88  C   UNL A   1      38.249  31.539  36.736  1.00  0.00     0.173 A 
ATOM     89  C   UNL A   1      39.445  33.466  35.941  1.00  0.00     0.173 A 
ATOM     90  F   UNL A   1      37.832  30.272  36.592  1.00  0.00    -0.203 F 
ATOM     91  C   UNL A   1      37.834  32.259  37.853  1.00  0.00     0.198 A 
ATOM     92  C   UNL A   1      39.051  34.176  37.072  1.00  0.00     0.198 A 
ATOM     93  F   UNL A   1      40.215  34.081  35.031  1.00  0.00    -0.203 F 
ATOM     94  F   UNL A   1      37.025  31.686  38.756  1.00  0.00    -0.200 F 
ATOM     95  C   UNL A   1      38.238  33.575  38.022  1.00  0.00     0.200 A 
ATOM     96  F   UNL A   1      39.450  35.444  37.240  1.00  0.00    -0.200 F 
ATOM     97  F   UNL A   1      37.835  34.268  39.096  1.00  0.00    -0.200 F 
ENDBRANCH  64  87
ENDBRANCH  38  39
ENDBRANCH  31  33
ENDBRANCH  30  31
ENDBRANCH  29  30
ENDBRANCH  28  29
ENDBRANCH  27  28
ENDBRANCH  26  27
ENDBRANCH   1  26
TORSDOF 19
ENDMDL
