MODEL 1
REMARK VINA RESULT:      -9.9      0.000      0.000
REMARK SMILES NS(=O)(=O)c1ccc(-c2coc(=O)n2-c2ccc(C(=O)OCCOCCOCCOC(=O)c3ccc(-c4c5nc(c(-c6c(F)c(F)c(F)c(F)c6F)c6ccc([nH]6)c(-c6c(F)c(F)c(F)c(F)c6F)c6nc(c(-c7c(F)c(F)c(F)c(F)c7F)c7ccc4[nH]7)C=C6)C=C5)cc3)cc2)cc1
REMARK SMILES IDX 25 1 24 2 23 3 22 4 21 5 19 6 20 7 18 8 15 9 16 10 97 11
REMARK SMILES IDX 17 12 96 13 14 14 9 15 10 16 11 17 12 18 13 19 8 20 5 21
REMARK SMILES IDX 6 22 99 23 7 24 98 25 2 26 3 27 4 28 1 29 26 32 27 33 28 34
REMARK SMILES IDX 29 35 30 36 31 37 32 38 33 39 34 40 95 41 35 42 94 43 36 44
REMARK SMILES IDX 37 45 38 46 88 47 39 48 93 49 87 50 89 51 40 52 92 53 86 54
REMARK SMILES IDX 85 55 41 57 73 58 53 59 72 60 54 61 57 62 71 63 90 64 55 65
REMARK SMILES IDX 56 66 70 68 91 69 58 70 42 71 43 72 51 73 44 74 45 75 49 76
REMARK SMILES IDX 52 77 46 78 47 79 50 80 48 81 74 82 75 83 83 84 76 85 77 86
REMARK SMILES IDX 81 87 84 88 78 89 79 90 82 91 80 92 59 93 60 94 68 95 61 96
REMARK SMILES IDX 62 97 66 98 69 99 63 100 64 101 67 102 65 103
REMARK H PARENT 1 30 1 31 89 56 57 67
REMARK Flexibility Score: inf
ROOT
ATOM      1  C   UNL A   1      33.338  37.226  29.843  1.00  0.00     0.188 C 
ENDROOT
BRANCH   1   2
ATOM      2  O   UNL A   1      32.814  37.265  31.147  1.00  0.00    -0.376 OA
BRANCH   2   3
ATOM      3  C   UNL A   1      33.387  36.492  32.186  1.00  0.00     0.202 C 
BRANCH   3   4
ATOM      4  C   UNL A   1      33.071  35.011  32.503  1.00  0.00     0.261 C 
BRANCH   4   5
ATOM      5  O   UNL A   1      34.043  34.255  33.228  1.00  0.00    -0.460 OA
BRANCH   5   6
ATOM      6  C   UNL A   1      34.631  33.242  32.550  1.00  0.00     0.338 C 
ATOM      7  O   UNL A   1      34.208  32.686  31.550  1.00  0.00    -0.246 OA
BRANCH   6   8
ATOM      8  C   UNL A   1      35.999  33.025  33.070  1.00  0.00     0.060 A 
ATOM      9  C   UNL A   1      38.507  32.473  34.168  1.00  0.00     0.053 A 
ATOM     10  C   UNL A   1      37.815  31.467  33.488  1.00  0.00     0.028 A 
ATOM     11  C   UNL A   1      37.985  33.779  34.197  1.00  0.00     0.028 A 
ATOM     12  C   UNL A   1      36.544  31.736  32.976  1.00  0.00     0.018 A 
ATOM     13  C   UNL A   1      36.744  34.064  33.626  1.00  0.00     0.018 A 
BRANCH   9  14
ATOM     14  N   UNL A   1      39.620  32.142  34.967  1.00  0.00    -0.242 N 
ATOM     15  C   UNL A   1      40.938  32.350  34.668  1.00  0.00     0.095 A 
ATOM     16  C   UNL A   1      41.627  31.913  35.716  1.00  0.00     0.228 A 
ATOM     17  O   UNL A   1      40.839  31.413  36.750  1.00  0.00    -0.415 OA
ATOM     18  C   UNL A   1      39.546  31.616  36.257  1.00  0.00     0.424 A 
ATOM     19  O   UNL A   1      38.548  31.342  36.897  1.00  0.00    -0.223 OA
BRANCH  15  20
ATOM     20  C   UNL A   1      41.439  33.117  33.529  1.00  0.00     0.002 A 
ATOM     21  C   UNL A   1      42.435  34.493  31.299  1.00  0.00     0.082 A 
ATOM     22  C   UNL A   1      41.498  33.479  31.114  1.00  0.00     0.022 A 
ATOM     23  C   UNL A   1      42.868  34.835  32.586  1.00  0.00     0.022 A 
ATOM     24  C   UNL A   1      40.998  32.803  32.229  1.00  0.00     0.012 A 
ATOM     25  C   UNL A   1      42.367  34.151  33.698  1.00  0.00     0.012 A 
BRANCH  21  26
ATOM     26  S   UNL A   1      43.137  35.356  29.925  1.00  0.00     0.238 S 
ATOM     27  O   UNL A   1      44.140  34.509  29.327  1.00  0.00    -0.207 OA
ATOM     28  O   UNL A   1      43.399  36.716  30.335  1.00  0.00    -0.207 OA
BRANCH  26  29
ATOM     29  N   UNL A   1      41.900  35.450  28.792  1.00  0.00    -0.225 NA
ATOM     30  H   UNL A   1      41.563  36.412  28.735  1.00  0.00     0.137 HD
ATOM     31  H   UNL A   1      41.133  34.839  29.073  1.00  0.00     0.137 HD
ENDBRANCH  26  29
ENDBRANCH  21  26
ENDBRANCH  15  20
ENDBRANCH   9  14
ENDBRANCH   6   8
ENDBRANCH   5   6
ENDBRANCH   4   5
ENDBRANCH   3   4
ENDBRANCH   2   3
ENDBRANCH   1   2
BRANCH   1  32
ATOM     32  C   UNL A   1      32.903  36.080  28.903  1.00  0.00     0.188 C 
BRANCH  32  33
ATOM     33  O   UNL A   1      33.529  34.812  28.906  1.00  0.00    -0.376 OA
BRANCH  33  34
ATOM     34  C   UNL A   1      33.251  33.767  27.986  1.00  0.00     0.202 C 
BRANCH  34  35
ATOM     35  C   UNL A   1      33.867  32.370  28.022  1.00  0.00     0.261 C 
BRANCH  35  36
ATOM     36  O   UNL A   1      35.264  32.363  28.183  1.00  0.00    -0.460 OA
BRANCH  36  37
ATOM     37  C   UNL A   1      35.794  31.126  28.159  1.00  0.00     0.338 C 
ATOM     38  O   UNL A   1      35.635  30.266  27.309  1.00  0.00    -0.246 OA
BRANCH  37  39
ATOM     39  C   UNL A   1      36.588  30.937  29.377  1.00  0.00     0.060 A 
ATOM     40  C   UNL A   1      37.696  31.778  29.478  1.00  0.00     0.016 A 
ATOM     41  C   UNL A   1      36.521  29.682  29.991  1.00  0.00     0.016 A 
ATOM     42  C   UNL A   1      38.884  31.188  29.810  1.00  0.00     0.010 A 
ATOM     43  C   UNL A   1      37.708  29.085  30.299  1.00  0.00     0.010 A 
ATOM     44  C   UNL A   1      38.872  29.814  30.064  1.00  0.00    -0.014 A 
BRANCH  44  45
ATOM     45  C   UNL A   1      40.131  29.120  30.058  1.00  0.00     0.031 A 
ATOM     46  C   UNL A   1      40.722  29.026  31.403  1.00  0.00     0.074 A 
ATOM     47  C   UNL A   1      40.601  28.558  28.928  1.00  0.00     0.049 A 
ATOM     48  N   UNL A   1      41.810  29.571  31.830  1.00  0.00    -0.248 NA
ATOM     49  C   UNL A   1      39.889  28.419  32.454  1.00  0.00     0.031 C 
ATOM     50  C   UNL A   1      39.940  28.412  27.626  1.00  0.00     0.029 A 
ATOM     51  N   UNL A   1      41.774  27.902  28.748  1.00  0.00    -0.354 N 
ATOM     52  C   UNL A   1      41.889  29.209  33.168  1.00  0.00     0.074 A 
ATOM     53  C   UNL A   1      40.598  28.703  33.542  1.00  0.00     0.031 C 
ATOM     54  C   UNL A   1      40.627  27.522  26.874  1.00  0.00     0.029 A 
ATOM     55  C   UNL A   1      41.832  27.140  27.588  1.00  0.00     0.049 A 
ATOM     56  H   UNL A   1      42.522  27.961  29.385  1.00  0.00     0.167 HD
ATOM     57  C   UNL A   1      43.091  29.080  33.787  1.00  0.00     0.037 A 
ATOM     58  C   UNL A   1      42.766  26.188  27.337  1.00  0.00     0.037 A 
ATOM     59  C   UNL A   1      44.122  29.800  33.085  1.00  0.00     0.049 A 
ATOM     60  C   UNL A   1      43.919  26.470  28.240  1.00  0.00     0.074 A 
ATOM     61  C   UNL A   1      44.340  31.134  32.801  1.00  0.00     0.029 A 
ATOM     62  N   UNL A   1      44.926  29.097  32.221  1.00  0.00    -0.354 N 
ATOM     63  N   UNL A   1      44.671  27.533  28.138  1.00  0.00    -0.248 NA
ATOM     64  C   UNL A   1      43.916  25.832  29.551  1.00  0.00     0.031 C 
ATOM     65  C   UNL A   1      44.894  31.150  31.487  1.00  0.00     0.029 A 
ATOM     66  C   UNL A   1      45.033  29.828  31.064  1.00  0.00     0.049 A 
ATOM     67  H   UNL A   1      45.349  28.226  32.400  1.00  0.00     0.167 HD
ATOM     68  C   UNL A   1      44.910  27.933  29.447  1.00  0.00     0.074 A 
ATOM     69  C   UNL A   1      44.466  26.814  30.274  1.00  0.00     0.031 C 
ATOM     70  C   UNL A   1      45.168  29.238  29.751  1.00  0.00     0.037 A 
BRANCH  57  71
ATOM     71  C   UNL A   1      43.377  27.999  34.794  1.00  0.00     0.064 A 
ATOM     72  C   UNL A   1      43.790  28.365  36.087  1.00  0.00     0.173 A 
ATOM     73  C   UNL A   1      43.531  26.631  34.469  1.00  0.00     0.173 A 
ATOM     74  F   UNL A   1      43.713  29.641  36.492  1.00  0.00    -0.203 F 
ATOM     75  C   UNL A   1      44.372  27.442  36.959  1.00  0.00     0.198 A 
ATOM     76  C   UNL A   1      44.053  25.703  35.364  1.00  0.00     0.198 A 
ATOM     77  F   UNL A   1      43.293  26.150  33.243  1.00  0.00    -0.203 F 
ATOM     78  F   UNL A   1      44.863  27.860  38.133  1.00  0.00    -0.200 F 
ATOM     79  C   UNL A   1      44.506  26.114  36.598  1.00  0.00     0.200 A 
ATOM     80  F   UNL A   1      44.189  24.425  34.982  1.00  0.00    -0.200 F 
ATOM     81  F   UNL A   1      45.113  25.242  37.410  1.00  0.00    -0.200 F 
ENDBRANCH  57  71
BRANCH  58  82
ATOM     82  C   UNL A   1      42.544  24.865  26.703  1.00  0.00     0.064 A 
ATOM     83  C   UNL A   1      43.242  24.486  25.546  1.00  0.00     0.173 A 
ATOM     84  C   UNL A   1      41.841  23.841  27.371  1.00  0.00     0.173 A 
ATOM     85  F   UNL A   1      43.983  25.385  24.882  1.00  0.00    -0.203 F 
ATOM     86  C   UNL A   1      43.244  23.162  25.090  1.00  0.00     0.198 A 
ATOM     87  C   UNL A   1      41.838  22.523  26.912  1.00  0.00     0.198 A 
ATOM     88  F   UNL A   1      41.219  24.077  28.535  1.00  0.00    -0.203 F 
ATOM     89  F   UNL A   1      43.965  22.825  24.011  1.00  0.00    -0.200 F 
ATOM     90  C   UNL A   1      42.548  22.180  25.778  1.00  0.00     0.200 A 
ATOM     91  F   UNL A   1      41.193  21.579  27.612  1.00  0.00    -0.200 F 
ATOM     92  F   UNL A   1      42.594  20.904  25.374  1.00  0.00    -0.200 F 
ENDBRANCH  58  82
BRANCH  70  93
ATOM     93  C   UNL A   1      45.376  30.190  28.603  1.00  0.00     0.064 A 
ATOM     94  C   UNL A   1      44.340  30.950  28.028  1.00  0.00     0.173 A 
ATOM     95  C   UNL A   1      46.682  30.469  28.186  1.00  0.00     0.173 A 
ATOM     96  F   UNL A   1      43.076  30.813  28.448  1.00  0.00    -0.203 F 
ATOM     97  C   UNL A   1      44.598  31.914  27.055  1.00  0.00     0.198 A 
ATOM     98  C   UNL A   1      46.941  31.457  27.238  1.00  0.00     0.198 A 
ATOM     99  F   UNL A   1      47.715  29.820  28.742  1.00  0.00    -0.203 F 
ATOM    100  F   UNL A   1      43.590  32.620  26.521  1.00  0.00    -0.200 F 
ATOM    101  C   UNL A   1      45.901  32.173  26.667  1.00  0.00     0.200 A 
ATOM    102  F   UNL A   1      48.209  31.740  26.904  1.00  0.00    -0.200 F 
ATOM    103  F   UNL A   1      46.158  33.131  25.767  1.00  0.00    -0.200 F 
ENDBRANCH  70  93
ENDBRANCH  44  45
ENDBRANCH  37  39
ENDBRANCH  36  37
ENDBRANCH  35  36
ENDBRANCH  34  35
ENDBRANCH  33  34
ENDBRANCH  32  33
ENDBRANCH   1  32
TORSDOF 21
ENDMDL
MODEL 2
REMARK VINA RESULT:      -9.9      4.585      9.751
REMARK SMILES NS(=O)(=O)c1ccc(-c2coc(=O)n2-c2ccc(C(=O)OCCOCCOCCOC(=O)c3ccc(-c4c5nc(c(-c6c(F)c(F)c(F)c(F)c6F)c6ccc([nH]6)c(-c6c(F)c(F)c(F)c(F)c6F)c6nc(c(-c7c(F)c(F)c(F)c(F)c7F)c7ccc4[nH]7)C=C6)C=C5)cc3)cc2)cc1
REMARK SMILES IDX 25 1 24 2 23 3 22 4 21 5 19 6 20 7 18 8 15 9 16 10 97 11
REMARK SMILES IDX 17 12 96 13 14 14 9 15 10 16 11 17 12 18 13 19 8 20 5 21
REMARK SMILES IDX 6 22 99 23 7 24 98 25 2 26 3 27 4 28 1 29 26 32 27 33 28 34
REMARK SMILES IDX 29 35 30 36 31 37 32 38 33 39 34 40 95 41 35 42 94 43 36 44
REMARK SMILES IDX 37 45 38 46 88 47 39 48 93 49 87 50 89 51 40 52 92 53 86 54
REMARK SMILES IDX 85 55 41 57 73 58 53 59 72 60 54 61 57 62 71 63 90 64 55 65
REMARK SMILES IDX 56 66 70 68 91 69 58 70 42 71 43 72 51 73 44 74 45 75 49 76
REMARK SMILES IDX 52 77 46 78 47 79 50 80 48 81 74 82 75 83 83 84 76 85 77 86
REMARK SMILES IDX 81 87 84 88 78 89 79 90 82 91 80 92 59 93 60 94 68 95 61 96
REMARK SMILES IDX 62 97 66 98 69 99 63 100 64 101 67 102 65 103
REMARK H PARENT 1 30 1 31 89 56 57 67
REMARK Flexibility Score: inf
ROOT
ATOM      1  C   UNL A   1      33.323  35.199  29.052  1.00  0.00     0.188 C 
ENDROOT
BRANCH   1   2
ATOM      2  O   UNL A   1      32.480  34.292  28.385  1.00  0.00    -0.376 OA
BRANCH   2   3
ATOM      3  C   UNL A   1      33.009  33.324  27.496  1.00  0.00     0.202 C 
BRANCH   3   4
ATOM      4  C   UNL A   1      32.259  32.093  26.936  1.00  0.00     0.261 C 
BRANCH   4   5
ATOM      5  O   UNL A   1      32.437  30.839  27.598  1.00  0.00    -0.460 OA
BRANCH   5   6
ATOM      6  C   UNL A   1      33.533  30.129  27.238  1.00  0.00     0.338 C 
ATOM      7  O   UNL A   1      34.699  30.439  27.419  1.00  0.00    -0.246 OA
BRANCH   6   8
ATOM      8  C   UNL A   1      33.123  28.788  26.769  1.00  0.00     0.060 A 
ATOM      9  C   UNL A   1      32.359  26.325  25.695  1.00  0.00     0.053 A 
ATOM     10  C   UNL A   1      33.590  26.881  25.339  1.00  0.00     0.028 A 
ATOM     11  C   UNL A   1      31.568  26.956  26.673  1.00  0.00     0.028 A 
ATOM     12  C   UNL A   1      33.951  28.131  25.845  1.00  0.00     0.018 A 
ATOM     13  C   UNL A   1      31.959  28.174  27.231  1.00  0.00     0.018 A 
BRANCH   9  14
ATOM     14  N   UNL A   1      31.835  25.247  24.954  1.00  0.00    -0.242 N 
ATOM     15  C   UNL A   1      30.813  25.292  24.046  1.00  0.00     0.095 A 
ATOM     16  C   UNL A   1      30.683  24.056  23.577  1.00  0.00     0.228 A 
ATOM     17  O   UNL A   1      31.586  23.141  24.114  1.00  0.00    -0.415 OA
ATOM     18  C   UNL A   1      32.347  23.949  24.966  1.00  0.00     0.424 A 
ATOM     19  O   UNL A   1      33.290  23.523  25.607  1.00  0.00    -0.223 OA
BRANCH  15  20
ATOM     20  C   UNL A   1      30.179  26.508  23.542  1.00  0.00     0.002 A 
ATOM     21  C   UNL A   1      29.040  28.901  22.627  1.00  0.00     0.082 A 
ATOM     22  C   UNL A   1      30.379  28.631  22.352  1.00  0.00     0.022 A 
ATOM     23  C   UNL A   1      28.262  27.980  23.340  1.00  0.00     0.022 A 
ATOM     24  C   UNL A   1      30.939  27.434  22.802  1.00  0.00     0.012 A 
ATOM     25  C   UNL A   1      28.831  26.785  23.792  1.00  0.00     0.012 A 
BRANCH  21  26
ATOM     26  S   UNL A   1      28.286  30.417  22.122  1.00  0.00     0.238 S 
ATOM     27  O   UNL A   1      27.345  30.813  23.141  1.00  0.00    -0.207 OA
ATOM     28  O   UNL A   1      27.929  30.298  20.727  1.00  0.00    -0.207 OA
BRANCH  26  29
ATOM     29  N   UNL A   1      29.517  31.558  22.184  1.00  0.00    -0.225 NA
ATOM     30  H   UNL A   1      30.411  31.086  22.323  1.00  0.00     0.137 HD
ATOM     31  H   UNL A   1      29.348  32.200  22.958  1.00  0.00     0.137 HD
ENDBRANCH  26  29
ENDBRANCH  21  26
ENDBRANCH  15  20
ENDBRANCH   9  14
ENDBRANCH   6   8
ENDBRANCH   5   6
ENDBRANCH   4   5
ENDBRANCH   3   4
ENDBRANCH   2   3
ENDBRANCH   1   2
BRANCH   1  32
ATOM     32  C   UNL A   1      33.437  35.111  30.591  1.00  0.00     0.188 C 
BRANCH  32  33
ATOM     33  O   UNL A   1      33.887  33.948  31.258  1.00  0.00    -0.376 OA
BRANCH  33  34
ATOM     34  C   UNL A   1      34.761  32.979  30.700  1.00  0.00     0.202 C 
BRANCH  34  35
ATOM     35  C   UNL A   1      35.757  32.130  31.486  1.00  0.00     0.261 C 
BRANCH  35  36
ATOM     36  O   UNL A   1      36.147  30.949  30.829  1.00  0.00    -0.460 OA
BRANCH  36  37
ATOM     37  C   UNL A   1      36.866  30.121  31.610  1.00  0.00     0.338 C 
ATOM     38  O   UNL A   1      37.146  30.268  32.788  1.00  0.00    -0.246 OA
BRANCH  37  39
ATOM     39  C   UNL A   1      37.321  28.991  30.795  1.00  0.00     0.060 A 
ATOM     40  C   UNL A   1      37.991  27.999  31.509  1.00  0.00     0.016 A 
ATOM     41  C   UNL A   1      37.540  29.236  29.434  1.00  0.00     0.016 A 
ATOM     42  C   UNL A   1      39.177  27.562  30.986  1.00  0.00     0.010 A 
ATOM     43  C   UNL A   1      38.733  28.821  28.921  1.00  0.00     0.010 A 
ATOM     44  C   UNL A   1      39.583  28.111  29.766  1.00  0.00    -0.014 A 
BRANCH  44  45
ATOM     45  C   UNL A   1      40.959  27.947  29.382  1.00  0.00     0.031 A 
ATOM     46  C   UNL A   1      41.226  26.613  28.821  1.00  0.00     0.074 A 
ATOM     47  C   UNL A   1      41.822  28.978  29.463  1.00  0.00     0.049 A 
ATOM     48  N   UNL A   1      41.971  25.681  29.311  1.00  0.00    -0.248 NA
ATOM     49  C   UNL A   1      40.397  26.195  27.678  1.00  0.00     0.031 C 
ATOM     50  C   UNL A   1      41.553  30.384  29.782  1.00  0.00     0.029 A 
ATOM     51  N   UNL A   1      43.147  28.980  29.174  1.00  0.00    -0.354 N 
ATOM     52  C   UNL A   1      41.847  24.621  28.424  1.00  0.00     0.074 A 
ATOM     53  C   UNL A   1      40.718  24.908  27.583  1.00  0.00     0.031 C 
ATOM     54  C   UNL A   1      42.630  31.132  29.448  1.00  0.00     0.029 A 
ATOM     55  C   UNL A   1      43.696  30.247  29.017  1.00  0.00     0.049 A 
ATOM     56  H   UNL A   1      43.676  28.155  29.082  1.00  0.00     0.167 HD
ATOM     57  C   UNL A   1      42.856  23.728  28.256  1.00  0.00     0.037 A 
ATOM     58  C   UNL A   1      44.906  30.497  28.454  1.00  0.00     0.037 A 
ATOM     59  C   UNL A   1      43.754  23.735  29.382  1.00  0.00     0.049 A 
ATOM     60  C   UNL A   1      45.680  29.225  28.516  1.00  0.00     0.074 A 
ATOM     61  C   UNL A   1      43.618  23.427  30.722  1.00  0.00     0.029 A 
ATOM     62  N   UNL A   1      44.908  24.473  29.283  1.00  0.00    -0.354 N 
ATOM     63  N   UNL A   1      46.079  28.679  29.634  1.00  0.00    -0.248 NA
ATOM     64  C   UNL A   1      45.569  28.315  27.383  1.00  0.00     0.031 C 
ATOM     65  C   UNL A   1      44.428  24.380  31.408  1.00  0.00     0.029 A 
ATOM     66  C   UNL A   1      45.052  25.181  30.450  1.00  0.00     0.049 A 
ATOM     67  H   UNL A   1      45.521  24.492  28.513  1.00  0.00     0.167 HD
ATOM     68  C   UNL A   1      45.880  27.315  29.460  1.00  0.00     0.074 A 
ATOM     69  C   UNL A   1      45.617  27.148  28.033  1.00  0.00     0.031 C 
ATOM     70  C   UNL A   1      45.655  26.492  30.525  1.00  0.00     0.037 A 
BRANCH  57  71
ATOM     71  C   UNL A   1      43.216  23.146  26.916  1.00  0.00     0.064 A 
ATOM     72  C   UNL A   1      42.999  21.776  26.688  1.00  0.00     0.173 A 
ATOM     73  C   UNL A   1      44.013  23.807  25.952  1.00  0.00     0.173 A 
ATOM     74  F   UNL A   1      42.279  21.046  27.553  1.00  0.00    -0.203 F 
ATOM     75  C   UNL A   1      43.590  21.110  25.612  1.00  0.00     0.198 A 
ATOM     76  C   UNL A   1      44.548  23.152  24.847  1.00  0.00     0.198 A 
ATOM     77  F   UNL A   1      44.404  25.080  26.089  1.00  0.00    -0.203 F 
ATOM     78  F   UNL A   1      43.457  19.782  25.503  1.00  0.00    -0.200 F 
ATOM     79  C   UNL A   1      44.365  21.796  24.695  1.00  0.00     0.200 A 
ATOM     80  F   UNL A   1      45.310  23.836  23.983  1.00  0.00    -0.200 F 
ATOM     81  F   UNL A   1      44.977  21.148  23.697  1.00  0.00    -0.200 F 
ENDBRANCH  57  71
BRANCH  58  82
ATOM     82  C   UNL A   1      45.244  31.602  27.522  1.00  0.00     0.064 A 
ATOM     83  C   UNL A   1      44.403  31.934  26.449  1.00  0.00     0.173 A 
ATOM     84  C   UNL A   1      46.266  32.527  27.823  1.00  0.00     0.173 A 
ATOM     85  F   UNL A   1      43.371  31.138  26.133  1.00  0.00    -0.203 F 
ATOM     86  C   UNL A   1      44.567  33.123  25.727  1.00  0.00     0.198 A 
ATOM     87  C   UNL A   1      46.433  33.708  27.099  1.00  0.00     0.198 A 
ATOM     88  F   UNL A   1      47.066  32.350  28.884  1.00  0.00    -0.203 F 
ATOM     89  F   UNL A   1      43.710  33.433  24.744  1.00  0.00    -0.200 F 
ATOM     90  C   UNL A   1      45.577  34.012  26.058  1.00  0.00     0.200 A 
ATOM     91  F   UNL A   1      47.389  34.576  27.457  1.00  0.00    -0.200 F 
ATOM     92  F   UNL A   1      45.700  35.175  25.404  1.00  0.00    -0.200 F 
ENDBRANCH  58  82
BRANCH  70  93
ATOM     93  C   UNL A   1      45.823  27.078  31.902  1.00  0.00     0.064 A 
ATOM     94  C   UNL A   1      44.776  27.684  32.621  1.00  0.00     0.173 A 
ATOM     95  C   UNL A   1      47.030  26.872  32.581  1.00  0.00     0.173 A 
ATOM     96  F   UNL A   1      43.562  27.823  32.075  1.00  0.00    -0.203 F 
ATOM     97  C   UNL A   1      44.943  28.096  33.942  1.00  0.00     0.198 A 
ATOM     98  C   UNL A   1      47.184  27.253  33.912  1.00  0.00     0.198 A 
ATOM     99  F   UNL A   1      48.044  26.245  31.966  1.00  0.00    -0.203 F 
ATOM    100  F   UNL A   1      43.928  28.674  34.601  1.00  0.00    -0.200 F 
ATOM    101  C   UNL A   1      46.145  27.872  34.589  1.00  0.00     0.200 A 
ATOM    102  F   UNL A   1      48.333  26.987  34.550  1.00  0.00    -0.200 F 
ATOM    103  F   UNL A   1      46.295  28.224  35.874  1.00  0.00    -0.200 F 
ENDBRANCH  70  93
ENDBRANCH  44  45
ENDBRANCH  37  39
ENDBRANCH  36  37
ENDBRANCH  35  36
ENDBRANCH  34  35
ENDBRANCH  33  34
ENDBRANCH  32  33
ENDBRANCH   1  32
TORSDOF 21
ENDMDL
MODEL 3
REMARK VINA RESULT:      -9.7      4.191      7.334
REMARK SMILES NS(=O)(=O)c1ccc(-c2coc(=O)n2-c2ccc(C(=O)OCCOCCOCCOC(=O)c3ccc(-c4c5nc(c(-c6c(F)c(F)c(F)c(F)c6F)c6ccc([nH]6)c(-c6c(F)c(F)c(F)c(F)c6F)c6nc(c(-c7c(F)c(F)c(F)c(F)c7F)c7ccc4[nH]7)C=C6)C=C5)cc3)cc2)cc1
REMARK SMILES IDX 25 1 24 2 23 3 22 4 21 5 19 6 20 7 18 8 15 9 16 10 97 11
REMARK SMILES IDX 17 12 96 13 14 14 9 15 10 16 11 17 12 18 13 19 8 20 5 21
REMARK SMILES IDX 6 22 99 23 7 24 98 25 2 26 3 27 4 28 1 29 26 32 27 33 28 34
REMARK SMILES IDX 29 35 30 36 31 37 32 38 33 39 34 40 95 41 35 42 94 43 36 44
REMARK SMILES IDX 37 45 38 46 88 47 39 48 93 49 87 50 89 51 40 52 92 53 86 54
REMARK SMILES IDX 85 55 41 57 73 58 53 59 72 60 54 61 57 62 71 63 90 64 55 65
REMARK SMILES IDX 56 66 70 68 91 69 58 70 42 71 43 72 51 73 44 74 45 75 49 76
REMARK SMILES IDX 52 77 46 78 47 79 50 80 48 81 74 82 75 83 83 84 76 85 77 86
REMARK SMILES IDX 81 87 84 88 78 89 79 90 82 91 80 92 59 93 60 94 68 95 61 96
REMARK SMILES IDX 62 97 66 98 69 99 63 100 64 101 67 102 65 103
REMARK H PARENT 1 30 1 31 89 56 57 67
REMARK Flexibility Score: inf
ROOT
ATOM      1  C   UNL A   1      33.147  35.844  29.416  1.00  0.00     0.188 C 
ENDROOT
BRANCH   1   2
ATOM      2  O   UNL A   1      32.496  34.990  28.508  1.00  0.00    -0.376 OA
BRANCH   2   3
ATOM      3  C   UNL A   1      33.150  33.847  27.987  1.00  0.00     0.202 C 
BRANCH   3   4
ATOM      4  C   UNL A   1      32.511  32.757  27.095  1.00  0.00     0.261 C 
BRANCH   4   5
ATOM      5  O   UNL A   1      32.507  31.411  27.575  1.00  0.00    -0.460 OA
BRANCH   5   6
ATOM      6  C   UNL A   1      33.604  30.673  27.279  1.00  0.00     0.338 C 
ATOM      7  O   UNL A   1      34.770  31.005  27.417  1.00  0.00    -0.246 OA
BRANCH   6   8
ATOM      8  C   UNL A   1      33.197  29.290  26.949  1.00  0.00     0.060 A 
ATOM      9  C   UNL A   1      32.447  26.726  26.135  1.00  0.00     0.053 A 
ATOM     10  C   UNL A   1      33.697  27.228  25.766  1.00  0.00     0.028 A 
ATOM     11  C   UNL A   1      31.626  27.470  27.002  1.00  0.00     0.028 A 
ATOM     12  C   UNL A   1      34.052  28.526  26.140  1.00  0.00     0.018 A 
ATOM     13  C   UNL A   1      32.010  28.741  27.433  1.00  0.00     0.018 A 
BRANCH   9  14
ATOM     14  N   UNL A   1      31.939  25.573  25.502  1.00  0.00    -0.242 N 
ATOM     15  C   UNL A   1      30.924  25.517  24.587  1.00  0.00     0.095 A 
ATOM     16  C   UNL A   1      30.809  24.239  24.243  1.00  0.00     0.228 A 
ATOM     17  O   UNL A   1      31.717  23.392  24.875  1.00  0.00    -0.415 OA
ATOM     18  C   UNL A   1      32.464  24.289  25.647  1.00  0.00     0.424 A 
ATOM     19  O   UNL A   1      33.406  23.938  26.334  1.00  0.00    -0.223 OA
BRANCH  15  20
ATOM     20  C   UNL A   1      30.282  26.670  23.959  1.00  0.00     0.002 A 
ATOM     21  C   UNL A   1      29.104  28.947  22.827  1.00  0.00     0.082 A 
ATOM     22  C   UNL A   1      30.492  28.857  22.895  1.00  0.00     0.022 A 
ATOM     23  C   UNL A   1      28.300  27.905  23.305  1.00  0.00     0.022 A 
ATOM     24  C   UNL A   1      31.074  27.717  23.451  1.00  0.00     0.012 A 
ATOM     25  C   UNL A   1      28.889  26.768  23.866  1.00  0.00     0.012 A 
BRANCH  21  26
ATOM     26  S   UNL A   1      28.307  30.383  22.172  1.00  0.00     0.238 S 
ATOM     27  O   UNL A   1      27.371  30.867  23.158  1.00  0.00    -0.207 OA
ATOM     28  O   UNL A   1      27.935  30.106  20.805  1.00  0.00    -0.207 OA
BRANCH  26  29
ATOM     29  N   UNL A   1      29.512  31.551  22.091  1.00  0.00    -0.225 NA
ATOM     30  H   UNL A   1      29.955  31.647  23.006  1.00  0.00     0.137 HD
ATOM     31  H   UNL A   1      29.103  32.444  21.816  1.00  0.00     0.137 HD
ENDBRANCH  26  29
ENDBRANCH  21  26
ENDBRANCH  15  20
ENDBRANCH   9  14
ENDBRANCH   6   8
ENDBRANCH   5   6
ENDBRANCH   4   5
ENDBRANCH   3   4
ENDBRANCH   2   3
ENDBRANCH   1   2
BRANCH   1  32
ATOM     32  C   UNL A   1      32.853  35.688  30.924  1.00  0.00     0.188 C 
BRANCH  32  33
ATOM     33  O   UNL A   1      33.377  34.626  31.698  1.00  0.00    -0.376 OA
BRANCH  33  34
ATOM     34  C   UNL A   1      34.548  33.891  31.379  1.00  0.00     0.202 C 
BRANCH  34  35
ATOM     35  C   UNL A   1      35.224  32.866  32.286  1.00  0.00     0.261 C 
BRANCH  35  36
ATOM     36  O   UNL A   1      36.435  32.361  31.780  1.00  0.00    -0.460 OA
BRANCH  36  37
ATOM     37  C   UNL A   1      36.397  31.038  31.535  1.00  0.00     0.338 C 
ATOM     38  O   UNL A   1      35.877  30.171  32.217  1.00  0.00    -0.246 OA
BRANCH  37  39
ATOM     39  C   UNL A   1      37.139  30.773  30.298  1.00  0.00     0.060 A 
ATOM     40  C   UNL A   1      37.116  29.441  29.888  1.00  0.00     0.016 A 
ATOM     41  C   UNL A   1      38.177  31.655  29.979  1.00  0.00     0.016 A 
ATOM     42  C   UNL A   1      38.319  28.883  29.549  1.00  0.00     0.010 A 
ATOM     43  C   UNL A   1      39.381  31.097  29.664  1.00  0.00     0.010 A 
ATOM     44  C   UNL A   1      39.446  29.708  29.597  1.00  0.00    -0.014 A 
BRANCH  44  45
ATOM     45  C   UNL A   1      40.738  29.077  29.600  1.00  0.00     0.031 A 
ATOM     46  C   UNL A   1      41.282  28.928  30.959  1.00  0.00     0.074 A 
ATOM     47  C   UNL A   1      41.278  28.610  28.458  1.00  0.00     0.049 A 
ATOM     48  N   UNL A   1      42.324  29.496  31.463  1.00  0.00    -0.248 NA
ATOM     49  C   UNL A   1      40.441  28.217  31.937  1.00  0.00     0.031 C 
ATOM     50  C   UNL A   1      40.675  28.513  27.124  1.00  0.00     0.029 A 
ATOM     51  N   UNL A   1      42.489  28.024  28.287  1.00  0.00    -0.354 N 
ATOM     52  C   UNL A   1      42.371  29.056  32.779  1.00  0.00     0.074 A 
ATOM     53  C   UNL A   1      41.093  28.467  33.069  1.00  0.00     0.031 C 
ATOM     54  C   UNL A   1      41.435  27.706  26.348  1.00  0.00     0.029 A 
ATOM     55  C   UNL A   1      42.629  27.339  27.086  1.00  0.00     0.049 A 
ATOM     56  H   UNL A   1      43.208  28.078  28.956  1.00  0.00     0.167 HD
ATOM     57  C   UNL A   1      43.554  28.946  33.437  1.00  0.00     0.037 A 
ATOM     58  C   UNL A   1      43.619  26.450  26.817  1.00  0.00     0.037 A 
ATOM     59  C   UNL A   1      44.572  29.758  32.823  1.00  0.00     0.049 A 
ATOM     60  C   UNL A   1      44.721  26.730  27.782  1.00  0.00     0.074 A 
ATOM     61  C   UNL A   1      44.733  31.116  32.629  1.00  0.00     0.029 A 
ATOM     62  N   UNL A   1      45.443  29.149  31.952  1.00  0.00    -0.354 N 
ATOM     63  N   UNL A   1      45.421  27.833  27.774  1.00  0.00    -0.248 NA
ATOM     64  C   UNL A   1      44.700  26.013  29.051  1.00  0.00     0.031 C 
ATOM     65  C   UNL A   1      45.336  31.240  31.342  1.00  0.00     0.029 A 
ATOM     66  C   UNL A   1      45.557  29.955  30.846  1.00  0.00     0.049 A 
ATOM     67  H   UNL A   1      45.902  28.290  32.094  1.00  0.00     0.167 HD
ATOM     68  C   UNL A   1      45.591  28.161  29.114  1.00  0.00     0.074 A 
ATOM     69  C   UNL A   1      45.172  26.972  29.853  1.00  0.00     0.031 C 
ATOM     70  C   UNL A   1      45.771  29.455  29.507  1.00  0.00     0.037 A 
BRANCH  57  71
ATOM     71  C   UNL A   1      43.855  27.820  34.388  1.00  0.00     0.064 A 
ATOM     72  C   UNL A   1      43.794  26.497  33.920  1.00  0.00     0.173 A 
ATOM     73  C   UNL A   1      43.929  27.968  35.794  1.00  0.00     0.173 A 
ATOM     74  F   UNL A   1      43.696  26.242  32.607  1.00  0.00    -0.203 F 
ATOM     75  C   UNL A   1      43.744  25.411  34.796  1.00  0.00     0.198 A 
ATOM     76  C   UNL A   1      43.942  26.880  36.661  1.00  0.00     0.198 A 
ATOM     77  F   UNL A   1      43.877  29.161  36.398  1.00  0.00    -0.203 F 
ATOM     78  F   UNL A   1      43.561  24.176  34.310  1.00  0.00    -0.200 F 
ATOM     79  C   UNL A   1      43.815  25.601  36.164  1.00  0.00     0.200 A 
ATOM     80  F   UNL A   1      43.994  27.092  37.983  1.00  0.00    -0.200 F 
ATOM     81  F   UNL A   1      43.711  24.566  37.005  1.00  0.00    -0.200 F 
ENDBRANCH  57  71
BRANCH  58  82
ATOM     82  C   UNL A   1      43.488  25.160  26.096  1.00  0.00     0.064 A 
ATOM     83  C   UNL A   1      44.419  24.774  25.119  1.00  0.00     0.173 A 
ATOM     84  C   UNL A   1      42.598  24.159  26.538  1.00  0.00     0.173 A 
ATOM     85  F   UNL A   1      45.338  25.648  24.684  1.00  0.00    -0.203 F 
ATOM     86  C   UNL A   1      44.463  23.465  24.622  1.00  0.00     0.198 A 
ATOM     87  C   UNL A   1      42.639  22.857  26.039  1.00  0.00     0.198 A 
ATOM     88  F   UNL A   1      41.732  24.398  27.533  1.00  0.00    -0.203 F 
ATOM     89  F   UNL A   1      45.401  23.118  23.730  1.00  0.00    -0.200 F 
ATOM     90  C   UNL A   1      43.578  22.506  25.089  1.00  0.00     0.200 A 
ATOM     91  F   UNL A   1      41.802  21.932  26.530  1.00  0.00    -0.200 F 
ATOM     92  F   UNL A   1      43.655  21.241  24.655  1.00  0.00    -0.200 F 
ENDBRANCH  58  82
BRANCH  70  93
ATOM     93  C   UNL A   1      45.973  30.486  28.428  1.00  0.00     0.064 A 
ATOM     94  C   UNL A   1      44.918  31.194  27.823  1.00  0.00     0.173 A 
ATOM     95  C   UNL A   1      47.277  30.891  28.117  1.00  0.00     0.173 A 
ATOM     96  F   UNL A   1      43.646  30.934  28.146  1.00  0.00    -0.203 F 
ATOM     97  C   UNL A   1      45.159  32.230  26.922  1.00  0.00     0.198 A 
ATOM     98  C   UNL A   1      47.515  31.949  27.243  1.00  0.00     0.198 A 
ATOM     99  F   UNL A   1      48.321  30.293  28.709  1.00  0.00    -0.203 F 
ATOM    100  F   UNL A   1      44.133  32.885  26.358  1.00  0.00    -0.200 F 
ATOM    101  C   UNL A   1      46.458  32.613  26.640  1.00  0.00     0.200 A 
ATOM    102  F   UNL A   1      48.774  32.349  27.014  1.00  0.00    -0.200 F 
ATOM    103  F   UNL A   1      46.694  33.640  25.811  1.00  0.00    -0.200 F 
ENDBRANCH  70  93
ENDBRANCH  44  45
ENDBRANCH  37  39
ENDBRANCH  36  37
ENDBRANCH  35  36
ENDBRANCH  34  35
ENDBRANCH  33  34
ENDBRANCH  32  33
ENDBRANCH   1  32
TORSDOF 21
ENDMDL
