MODEL 1
REMARK VINA RESULT:     -10.9      0.000      0.000
REMARK SMILES Cc1cc(C(=O)N2CC[NH2+]C[C@H]2C(=O)OCCOCCOCCOC(=O)c2ccc(-c3c4nc(c(-c5c(F)c(F)c(F)c(F)c5F)c5ccc([nH]5)c(-c5c(F)c(F)c(F)c(F)c5F)c5nc(c(-c6c(F)c(F)c(F)c(F)c6F)c6ccc3[nH]6)C=C5)C=C4)cc2)sc1Br
REMARK SMILES IDX 19 1 18 2 17 3 16 4 15 5 13 6 14 7 12 8 7 9 8 10 9 11 11 12
REMARK SMILES IDX 10 13 5 16 6 17 4 18 1 19 2 20 3 21 91 22 90 23 92 24 20 25
REMARK SMILES IDX 21 26 22 27 23 28 24 29 25 30 26 31 27 32 28 33 89 34 29 35
REMARK SMILES IDX 88 36 30 37 31 38 32 39 82 40 33 41 87 42 81 43 83 44 34 45
REMARK SMILES IDX 86 46 80 47 79 48 35 50 67 51 47 52 66 53 48 54 51 55 65 56
REMARK SMILES IDX 84 57 49 58 50 59 64 61 85 62 52 63 36 64 37 65 45 66 38 67
REMARK SMILES IDX 39 68 43 69 46 70 40 71 41 72 44 73 42 74 68 75 69 76 77 77
REMARK SMILES IDX 70 78 71 79 75 80 78 81 72 82 73 83 76 84 74 85 53 86 54 87
REMARK SMILES IDX 62 88 55 89 56 90 60 91 63 92 57 93 58 94 61 95 59 96
REMARK H PARENT 10 14 10 15 83 49 51 60
REMARK Flexibility Score: inf
ROOT
ATOM      1  C   UNL A   1      38.915  22.856  26.453  1.00  0.00     0.188 C 
ENDROOT
BRANCH   1   2
ATOM      2  O   UNL A   1      38.098  23.836  25.829  1.00  0.00    -0.376 OA
BRANCH   2   3
ATOM      3  C   UNL A   1      36.972  23.356  25.086  1.00  0.00     0.202 C 
BRANCH   3   4
ATOM      4  C   UNL A   1      35.659  24.109  25.282  1.00  0.00     0.261 C 
BRANCH   4   5
ATOM      5  O   UNL A   1      34.963  23.664  26.473  1.00  0.00    -0.462 OA
BRANCH   5   6
ATOM      6  C   UNL A   1      33.618  23.628  26.375  1.00  0.00     0.334 C 
ATOM      7  O   UNL A   1      32.906  24.563  26.741  1.00  0.00    -0.250 OA
BRANCH   6   8
ATOM      8  C   UNL A   1      33.010  22.404  25.647  1.00  0.00     0.251 C 
ATOM      9  N   UNL A   1      32.785  22.072  24.205  1.00  0.00    -0.314 N 
ATOM     10  C   UNL A   1      32.087  20.789  24.038  1.00  0.00     0.182 C 
ATOM     11  C   UNL A   1      32.925  19.652  24.623  1.00  0.00     0.282 C 
ATOM     12  C   UNL A   1      33.811  21.196  26.257  1.00  0.00     0.298 C 
ATOM     13  N   UNL A   1      33.220  19.858  26.046  1.00  0.00    -0.343 N 
ATOM     14  H   UNL A   1      33.878  19.146  26.362  1.00  0.00     0.346 HD
ATOM     15  H   UNL A   1      32.353  19.789  26.579  1.00  0.00     0.346 HD
BRANCH   9  16
ATOM     16  C   UNL A   1      32.625  22.934  23.120  1.00  0.00     0.265 C 
ATOM     17  O   UNL A   1      33.232  22.684  22.075  1.00  0.00    -0.268 OA
BRANCH  16  18
ATOM     18  C   UNL A   1      31.942  24.199  23.350  1.00  0.00     0.093 A 
ATOM     19  C   UNL A   1      28.937  26.393  23.861  1.00  0.00     0.046 C 
ATOM     20  C   UNL A   1      30.320  25.873  23.667  1.00  0.00    -0.025 A 
ATOM     21  C   UNL A   1      30.681  24.490  23.836  1.00  0.00     0.030 A 
ATOM     22  C   UNL A   1      31.422  26.596  23.268  1.00  0.00     0.074 A 
ATOM     23  S   UNL A   1      32.822  25.662  23.121  1.00  0.00    -0.123 S 
ATOM     24  Br  UNL A   1      31.423  28.439  22.906  1.00  0.00    -0.039 Br
ENDBRANCH  16  18
ENDBRANCH   9  16
ENDBRANCH   6   8
ENDBRANCH   5   6
ENDBRANCH   4   5
ENDBRANCH   3   4
ENDBRANCH   2   3
ENDBRANCH   1   2
BRANCH   1  25
ATOM     25  C   UNL A   1      38.896  21.463  25.824  1.00  0.00     0.188 C 
BRANCH  25  26
ATOM     26  O   UNL A   1      39.871  20.536  26.280  1.00  0.00    -0.376 OA
BRANCH  26  27
ATOM     27  C   UNL A   1      41.234  20.984  26.242  1.00  0.00     0.202 C 
BRANCH  27  28
ATOM     28  C   UNL A   1      42.253  19.856  26.119  1.00  0.00     0.261 C 
BRANCH  28  29
ATOM     29  O   UNL A   1      43.549  20.422  26.131  1.00  0.00    -0.460 OA
BRANCH  29  30
ATOM     30  C   UNL A   1      44.185  20.494  24.935  1.00  0.00     0.338 C 
ATOM     31  O   UNL A   1      44.367  19.631  24.117  1.00  0.00    -0.246 OA
BRANCH  30  32
ATOM     32  C   UNL A   1      44.700  21.872  24.890  1.00  0.00     0.060 A 
ATOM     33  C   UNL A   1      45.640  22.181  25.861  1.00  0.00     0.016 A 
ATOM     34  C   UNL A   1      43.927  22.846  24.226  1.00  0.00     0.016 A 
ATOM     35  C   UNL A   1      45.523  23.418  26.438  1.00  0.00     0.010 A 
ATOM     36  C   UNL A   1      43.780  24.057  24.827  1.00  0.00     0.010 A 
ATOM     37  C   UNL A   1      44.497  24.265  25.995  1.00  0.00    -0.014 A 
BRANCH  37  38
ATOM     38  C   UNL A   1      44.217  25.432  26.780  1.00  0.00     0.031 A 
ATOM     39  C   UNL A   1      45.244  26.461  26.588  1.00  0.00     0.074 A 
ATOM     40  C   UNL A   1      43.116  25.539  27.539  1.00  0.00     0.049 A 
ATOM     41  N   UNL A   1      46.192  26.777  27.402  1.00  0.00    -0.248 NA
ATOM     42  C   UNL A   1      45.374  27.034  25.239  1.00  0.00     0.031 C 
ATOM     43  C   UNL A   1      41.914  24.701  27.529  1.00  0.00     0.029 A 
ATOM     44  N   UNL A   1      42.815  26.506  28.442  1.00  0.00    -0.354 N 
ATOM     45  C   UNL A   1      46.912  27.757  26.738  1.00  0.00     0.074 A 
ATOM     46  C   UNL A   1      46.530  27.687  25.355  1.00  0.00     0.031 C 
ATOM     47  C   UNL A   1      40.936  25.326  28.228  1.00  0.00     0.029 A 
ATOM     48  C   UNL A   1      41.487  26.528  28.833  1.00  0.00     0.049 A 
ATOM     49  H   UNL A   1      43.484  27.140  28.788  1.00  0.00     0.167 HD
ATOM     50  C   UNL A   1      47.495  28.760  27.442  1.00  0.00     0.037 A 
ATOM     51  C   UNL A   1      40.895  27.533  29.522  1.00  0.00     0.037 A 
ATOM     52  C   UNL A   1      47.661  28.386  28.827  1.00  0.00     0.049 A 
ATOM     53  C   UNL A   1      41.975  28.335  30.158  1.00  0.00     0.074 A 
ATOM     54  C   UNL A   1      48.351  27.391  29.492  1.00  0.00     0.029 A 
ATOM     55  N   UNL A   1      46.738  28.869  29.720  1.00  0.00    -0.354 N 
ATOM     56  N   UNL A   1      42.734  27.900  31.126  1.00  0.00    -0.248 NA
ATOM     57  C   UNL A   1      42.503  29.477  29.425  1.00  0.00     0.031 C 
ATOM     58  C   UNL A   1      47.542  27.052  30.618  1.00  0.00     0.029 A 
ATOM     59  C   UNL A   1      46.417  27.878  30.610  1.00  0.00     0.049 A 
ATOM     60  H   UNL A   1      46.365  29.780  29.721  1.00  0.00     0.167 HD
ATOM     61  C   UNL A   1      43.992  28.425  30.859  1.00  0.00     0.074 A 
ATOM     62  C   UNL A   1      43.759  29.479  29.878  1.00  0.00     0.031 C 
ATOM     63  C   UNL A   1      45.120  27.757  31.241  1.00  0.00     0.037 A 
BRANCH  50  64
ATOM     64  C   UNL A   1      47.469  30.201  26.985  1.00  0.00     0.064 A 
ATOM     65  C   UNL A   1      48.670  30.933  27.029  1.00  0.00     0.173 A 
ATOM     66  C   UNL A   1      46.297  30.973  26.807  1.00  0.00     0.173 A 
ATOM     67  F   UNL A   1      49.844  30.308  27.204  1.00  0.00    -0.203 F 
ATOM     68  C   UNL A   1      48.683  32.329  26.997  1.00  0.00     0.198 A 
ATOM     69  C   UNL A   1      46.320  32.361  26.720  1.00  0.00     0.198 A 
ATOM     70  F   UNL A   1      45.068  30.448  26.820  1.00  0.00    -0.203 F 
ATOM     71  F   UNL A   1      49.837  32.984  27.182  1.00  0.00    -0.200 F 
ATOM     72  C   UNL A   1      47.508  33.042  26.853  1.00  0.00     0.200 A 
ATOM     73  F   UNL A   1      45.165  33.031  26.595  1.00  0.00    -0.200 F 
ATOM     74  F   UNL A   1      47.511  34.380  26.892  1.00  0.00    -0.200 F 
ENDBRANCH  50  64
BRANCH  51  75
ATOM     75  C   UNL A   1      39.512  28.037  29.370  1.00  0.00     0.064 A 
ATOM     76  C   UNL A   1      38.661  28.163  30.479  1.00  0.00     0.173 A 
ATOM     77  C   UNL A   1      39.087  28.659  28.179  1.00  0.00     0.173 A 
ATOM     78  F   UNL A   1      39.018  27.647  31.663  1.00  0.00    -0.203 F 
ATOM     79  C   UNL A   1      37.462  28.881  30.404  1.00  0.00     0.198 A 
ATOM     80  C   UNL A   1      37.887  29.367  28.102  1.00  0.00     0.198 A 
ATOM     81  F   UNL A   1      39.872  28.674  27.092  1.00  0.00    -0.203 F 
ATOM     82  F   UNL A   1      36.703  29.031  31.498  1.00  0.00    -0.200 F 
ATOM     83  C   UNL A   1      37.081  29.488  29.217  1.00  0.00     0.200 A 
ATOM     84  F   UNL A   1      37.551  29.983  26.960  1.00  0.00    -0.200 F 
ATOM     85  F   UNL A   1      35.961  30.223  29.160  1.00  0.00    -0.200 F 
ENDBRANCH  51  75
BRANCH  63  86
ATOM     86  C   UNL A   1      44.958  26.654  32.250  1.00  0.00     0.064 A 
ATOM     87  C   UNL A   1      44.912  26.857  33.641  1.00  0.00     0.173 A 
ATOM     88  C   UNL A   1      44.726  25.355  31.779  1.00  0.00     0.173 A 
ATOM     89  F   UNL A   1      45.025  28.084  34.164  1.00  0.00    -0.203 F 
ATOM     90  C   UNL A   1      44.693  25.793  34.517  1.00  0.00     0.198 A 
ATOM     91  C   UNL A   1      44.468  24.304  32.654  1.00  0.00     0.198 A 
ATOM     92  F   UNL A   1      44.706  25.114  30.459  1.00  0.00    -0.203 F 
ATOM     93  F   UNL A   1      44.674  26.006  35.841  1.00  0.00    -0.200 F 
ATOM     94  C   UNL A   1      44.464  24.519  34.022  1.00  0.00     0.200 A 
ATOM     95  F   UNL A   1      44.199  23.084  32.167  1.00  0.00    -0.200 F 
ATOM     96  F   UNL A   1      44.216  23.504  34.862  1.00  0.00    -0.200 F 
ENDBRANCH  63  86
ENDBRANCH  37  38
ENDBRANCH  30  32
ENDBRANCH  29  30
ENDBRANCH  28  29
ENDBRANCH  27  28
ENDBRANCH  26  27
ENDBRANCH  25  26
ENDBRANCH   1  25
TORSDOF 19
ENDMDL
MODEL 2
REMARK VINA RESULT:     -10.9      1.640      2.819
REMARK SMILES Cc1cc(C(=O)N2CC[NH2+]C[C@H]2C(=O)OCCOCCOCCOC(=O)c2ccc(-c3c4nc(c(-c5c(F)c(F)c(F)c(F)c5F)c5ccc([nH]5)c(-c5c(F)c(F)c(F)c(F)c5F)c5nc(c(-c6c(F)c(F)c(F)c(F)c6F)c6ccc3[nH]6)C=C5)C=C4)cc2)sc1Br
REMARK SMILES IDX 19 1 18 2 17 3 16 4 15 5 13 6 14 7 12 8 7 9 8 10 9 11 11 12
REMARK SMILES IDX 10 13 5 16 6 17 4 18 1 19 2 20 3 21 91 22 90 23 92 24 20 25
REMARK SMILES IDX 21 26 22 27 23 28 24 29 25 30 26 31 27 32 28 33 89 34 29 35
REMARK SMILES IDX 88 36 30 37 31 38 32 39 82 40 33 41 87 42 81 43 83 44 34 45
REMARK SMILES IDX 86 46 80 47 79 48 35 50 67 51 47 52 66 53 48 54 51 55 65 56
REMARK SMILES IDX 84 57 49 58 50 59 64 61 85 62 52 63 36 64 37 65 45 66 38 67
REMARK SMILES IDX 39 68 43 69 46 70 40 71 41 72 44 73 42 74 68 75 69 76 77 77
REMARK SMILES IDX 70 78 71 79 75 80 78 81 72 82 73 83 76 84 74 85 53 86 54 87
REMARK SMILES IDX 62 88 55 89 56 90 60 91 63 92 57 93 58 94 61 95 59 96
REMARK H PARENT 10 14 10 15 83 49 51 60
REMARK Flexibility Score: inf
ROOT
ATOM      1  C   UNL A   1      37.725  22.389  25.339  1.00  0.00     0.188 C 
ENDROOT
BRANCH   1   2
ATOM      2  O   UNL A   1      36.553  21.748  24.857  1.00  0.00    -0.376 OA
BRANCH   2   3
ATOM      3  C   UNL A   1      35.589  22.579  24.202  1.00  0.00     0.202 C 
BRANCH   3   4
ATOM      4  C   UNL A   1      35.525  24.034  24.658  1.00  0.00     0.261 C 
BRANCH   4   5
ATOM      5  O   UNL A   1      34.579  24.798  23.868  1.00  0.00    -0.462 OA
BRANCH   5   6
ATOM      6  C   UNL A   1      33.829  25.679  24.561  1.00  0.00     0.334 C 
ATOM      7  O   UNL A   1      34.280  26.329  25.505  1.00  0.00    -0.250 OA
BRANCH   6   8
ATOM      8  C   UNL A   1      32.401  25.945  24.025  1.00  0.00     0.251 C 
ATOM      9  N   UNL A   1      31.040  25.866  24.642  1.00  0.00    -0.314 N 
ATOM     10  C   UNL A   1      29.976  26.149  23.667  1.00  0.00     0.182 C 
ATOM     11  C   UNL A   1      30.126  27.568  23.120  1.00  0.00     0.282 C 
ATOM     12  C   UNL A   1      32.519  27.384  23.403  1.00  0.00     0.298 C 
ATOM     13  N   UNL A   1      31.432  27.780  22.483  1.00  0.00    -0.343 N 
ATOM     14  H   UNL A   1      31.535  28.766  22.244  1.00  0.00     0.346 HD
ATOM     15  H   UNL A   1      31.486  27.211  21.638  1.00  0.00     0.346 HD
BRANCH   9  16
ATOM     16  C   UNL A   1      30.609  25.096  25.723  1.00  0.00     0.265 C 
ATOM     17  O   UNL A   1      29.777  25.579  26.496  1.00  0.00    -0.268 OA
BRANCH  16  18
ATOM     18  C   UNL A   1      31.330  23.865  26.013  1.00  0.00     0.093 A 
ATOM     19  C   UNL A   1      34.028  21.809  27.624  1.00  0.00     0.046 C 
ATOM     20  C   UNL A   1      32.873  22.277  26.808  1.00  0.00    -0.025 A 
ATOM     21  C   UNL A   1      32.184  23.519  27.044  1.00  0.00     0.030 A 
ATOM     22  C   UNL A   1      32.326  21.642  25.715  1.00  0.00     0.074 A 
ATOM     23  S   UNL A   1      31.041  22.489  25.018  1.00  0.00    -0.123 S 
ATOM     24  Br  UNL A   1      32.916  19.999  25.023  1.00  0.00    -0.039 Br
ENDBRANCH  16  18
ENDBRANCH   9  16
ENDBRANCH   6   8
ENDBRANCH   5   6
ENDBRANCH   4   5
ENDBRANCH   3   4
ENDBRANCH   2   3
ENDBRANCH   1   2
BRANCH   1  25
ATOM     25  C   UNL A   1      38.832  21.471  25.855  1.00  0.00     0.188 C 
BRANCH  25  26
ATOM     26  O   UNL A   1      39.686  21.993  26.863  1.00  0.00    -0.376 OA
BRANCH  26  27
ATOM     27  C   UNL A   1      40.749  21.133  27.296  1.00  0.00     0.202 C 
BRANCH  27  28
ATOM     28  C   UNL A   1      41.489  20.440  26.156  1.00  0.00     0.261 C 
BRANCH  28  29
ATOM     29  O   UNL A   1      42.879  20.549  26.394  1.00  0.00    -0.460 OA
BRANCH  29  30
ATOM     30  C   UNL A   1      43.681  20.510  25.300  1.00  0.00     0.338 C 
ATOM     31  O   UNL A   1      43.958  19.577  24.593  1.00  0.00    -0.246 OA
BRANCH  30  32
ATOM     32  C   UNL A   1      44.226  21.874  25.213  1.00  0.00     0.060 A 
ATOM     33  C   UNL A   1      45.146  22.204  26.196  1.00  0.00     0.016 A 
ATOM     34  C   UNL A   1      43.494  22.835  24.487  1.00  0.00     0.016 A 
ATOM     35  C   UNL A   1      45.041  23.467  26.718  1.00  0.00     0.010 A 
ATOM     36  C   UNL A   1      43.357  24.074  25.033  1.00  0.00     0.010 A 
ATOM     37  C   UNL A   1      44.046  24.315  26.211  1.00  0.00    -0.014 A 
BRANCH  37  38
ATOM     38  C   UNL A   1      43.771  25.520  26.939  1.00  0.00     0.031 A 
ATOM     39  C   UNL A   1      44.802  26.534  26.699  1.00  0.00     0.074 A 
ATOM     40  C   UNL A   1      42.669  25.668  27.691  1.00  0.00     0.049 A 
ATOM     41  N   UNL A   1      45.751  26.884  27.498  1.00  0.00    -0.248 NA
ATOM     42  C   UNL A   1      44.937  27.041  25.325  1.00  0.00     0.031 C 
ATOM     43  C   UNL A   1      41.463  24.836  27.720  1.00  0.00     0.029 A 
ATOM     44  N   UNL A   1      42.372  26.679  28.546  1.00  0.00    -0.354 N 
ATOM     45  C   UNL A   1      46.476  27.829  26.790  1.00  0.00     0.074 A 
ATOM     46  C   UNL A   1      46.095  27.694  25.411  1.00  0.00     0.031 C 
ATOM     47  C   UNL A   1      40.488  25.498  28.386  1.00  0.00     0.029 A 
ATOM     48  C   UNL A   1      41.043  26.725  28.934  1.00  0.00     0.049 A 
ATOM     49  H   UNL A   1      43.043  27.325  28.862  1.00  0.00     0.167 HD
ATOM     50  C   UNL A   1      47.063  28.861  27.446  1.00  0.00     0.037 A 
ATOM     51  C   UNL A   1      40.455  27.764  29.573  1.00  0.00     0.037 A 
ATOM     52  C   UNL A   1      47.226  28.553  28.847  1.00  0.00     0.049 A 
ATOM     53  C   UNL A   1      41.538  28.591  30.171  1.00  0.00     0.074 A 
ATOM     54  C   UNL A   1      47.910  27.588  29.559  1.00  0.00     0.029 A 
ATOM     55  N   UNL A   1      46.303  29.082  29.715  1.00  0.00    -0.354 N 
ATOM     56  N   UNL A   1      42.294  28.200  31.161  1.00  0.00    -0.248 NA
ATOM     57  C   UNL A   1      42.071  29.694  29.386  1.00  0.00     0.031 C 
ATOM     58  C   UNL A   1      47.099  27.307  30.699  1.00  0.00     0.029 A 
ATOM     59  C   UNL A   1      45.977  28.137  30.650  1.00  0.00     0.049 A 
ATOM     60  H   UNL A   1      45.935  29.995  29.671  1.00  0.00     0.167 HD
ATOM     61  C   UNL A   1      43.554  28.706  30.870  1.00  0.00     0.074 A 
ATOM     62  C   UNL A   1      43.327  29.713  29.840  1.00  0.00     0.031 C 
ATOM     63  C   UNL A   1      44.679  28.052  31.285  1.00  0.00     0.037 A 
BRANCH  50  64
ATOM     64  C   UNL A   1      47.044  30.279  26.920  1.00  0.00     0.064 A 
ATOM     65  C   UNL A   1      48.237  31.023  26.975  1.00  0.00     0.173 A 
ATOM     66  C   UNL A   1      45.873  31.031  26.660  1.00  0.00     0.173 A 
ATOM     67  F   UNL A   1      49.407  30.418  27.225  1.00  0.00    -0.203 F 
ATOM     68  C   UNL A   1      48.240  32.417  26.878  1.00  0.00     0.198 A 
ATOM     69  C   UNL A   1      45.890  32.413  26.509  1.00  0.00     0.198 A 
ATOM     70  F   UNL A   1      44.649  30.496  26.651  1.00  0.00    -0.203 F 
ATOM     71  F   UNL A   1      49.381  33.090  27.076  1.00  0.00    -0.200 F 
ATOM     72  C   UNL A   1      47.066  33.111  26.654  1.00  0.00     0.200 A 
ATOM     73  F   UNL A   1      44.735  33.066  26.308  1.00  0.00    -0.200 F 
ATOM     74  F   UNL A   1      47.057  34.449  26.631  1.00  0.00    -0.200 F 
ENDBRANCH  50  64
BRANCH  51  75
ATOM     75  C   UNL A   1      39.074  28.267  29.395  1.00  0.00     0.064 A 
ATOM     76  C   UNL A   1      38.227  28.462  30.497  1.00  0.00     0.173 A 
ATOM     77  C   UNL A   1      38.650  28.821  28.171  1.00  0.00     0.173 A 
ATOM     78  F   UNL A   1      38.584  28.013  31.708  1.00  0.00    -0.203 F 
ATOM     79  C   UNL A   1      37.032  29.180  30.383  1.00  0.00     0.198 A 
ATOM     80  C   UNL A   1      37.453  29.530  28.056  1.00  0.00     0.198 A 
ATOM     81  F   UNL A   1      39.432  28.769  27.084  1.00  0.00    -0.203 F 
ATOM     82  F   UNL A   1      36.277  29.398  31.468  1.00  0.00    -0.200 F 
ATOM     83  C   UNL A   1      36.651  29.720  29.164  1.00  0.00     0.200 A 
ATOM     84  F   UNL A   1      37.118  30.080  26.881  1.00  0.00    -0.200 F 
ATOM     85  F   UNL A   1      35.535  30.457  29.067  1.00  0.00    -0.200 F 
ENDBRANCH  51  75
BRANCH  63  86
ATOM     86  C   UNL A   1      44.510  27.000  32.346  1.00  0.00     0.064 A 
ATOM     87  C   UNL A   1      44.322  25.632  32.079  1.00  0.00     0.173 A 
ATOM     88  C   UNL A   1      44.659  27.381  33.687  1.00  0.00     0.173 A 
ATOM     89  F   UNL A   1      44.269  25.175  30.821  1.00  0.00    -0.203 F 
ATOM     90  C   UNL A   1      44.237  24.701  33.114  1.00  0.00     0.198 A 
ATOM     91  C   UNL A   1      44.615  26.444  34.714  1.00  0.00     0.198 A 
ATOM     92  F   UNL A   1      44.895  28.666  33.996  1.00  0.00    -0.203 F 
ATOM     93  F   UNL A   1      44.037  23.404  32.838  1.00  0.00    -0.200 F 
ATOM     94  C   UNL A   1      44.392  25.107  34.430  1.00  0.00     0.200 A 
ATOM     95  F   UNL A   1      44.815  26.836  35.980  1.00  0.00    -0.200 F 
ATOM     96  F   UNL A   1      44.349  24.207  35.423  1.00  0.00    -0.200 F 
ENDBRANCH  63  86
ENDBRANCH  37  38
ENDBRANCH  30  32
ENDBRANCH  29  30
ENDBRANCH  28  29
ENDBRANCH  27  28
ENDBRANCH  26  27
ENDBRANCH  25  26
ENDBRANCH   1  25
TORSDOF 19
ENDMDL
MODEL 3
REMARK VINA RESULT:     -10.8      4.848     10.083
REMARK SMILES Cc1cc(C(=O)N2CC[NH2+]C[C@H]2C(=O)OCCOCCOCCOC(=O)c2ccc(-c3c4nc(c(-c5c(F)c(F)c(F)c(F)c5F)c5ccc([nH]5)c(-c5c(F)c(F)c(F)c(F)c5F)c5nc(c(-c6c(F)c(F)c(F)c(F)c6F)c6ccc3[nH]6)C=C5)C=C4)cc2)sc1Br
REMARK SMILES IDX 19 1 18 2 17 3 16 4 15 5 13 6 14 7 12 8 7 9 8 10 9 11 11 12
REMARK SMILES IDX 10 13 5 16 6 17 4 18 1 19 2 20 3 21 91 22 90 23 92 24 20 25
REMARK SMILES IDX 21 26 22 27 23 28 24 29 25 30 26 31 27 32 28 33 89 34 29 35
REMARK SMILES IDX 88 36 30 37 31 38 32 39 82 40 33 41 87 42 81 43 83 44 34 45
REMARK SMILES IDX 86 46 80 47 79 48 35 50 67 51 47 52 66 53 48 54 51 55 65 56
REMARK SMILES IDX 84 57 49 58 50 59 64 61 85 62 52 63 36 64 37 65 45 66 38 67
REMARK SMILES IDX 39 68 43 69 46 70 40 71 41 72 44 73 42 74 68 75 69 76 77 77
REMARK SMILES IDX 70 78 71 79 75 80 78 81 72 82 73 83 76 84 74 85 53 86 54 87
REMARK SMILES IDX 62 88 55 89 56 90 60 91 63 92 57 93 58 94 61 95 59 96
REMARK H PARENT 10 14 10 15 83 49 51 60
REMARK Flexibility Score: inf
ROOT
ATOM      1  C   UNL A   1      34.541  32.485  28.443  1.00  0.00     0.188 C 
ENDROOT
BRANCH   1   2
ATOM      2  O   UNL A   1      33.819  31.382  27.916  1.00  0.00    -0.376 OA
BRANCH   2   3
ATOM      3  C   UNL A   1      34.586  30.235  27.534  1.00  0.00     0.202 C 
BRANCH   3   4
ATOM      4  C   UNL A   1      33.800  29.034  27.015  1.00  0.00     0.261 C 
BRANCH   4   5
ATOM      5  O   UNL A   1      32.369  29.261  27.093  1.00  0.00    -0.462 OA
BRANCH   5   6
ATOM      6  C   UNL A   1      31.783  29.642  25.939  1.00  0.00     0.334 C 
ATOM      7  O   UNL A   1      31.383  30.791  25.753  1.00  0.00    -0.250 OA
BRANCH   6   8
ATOM      8  C   UNL A   1      31.759  28.597  24.797  1.00  0.00     0.251 C 
ATOM      9  N   UNL A   1      31.407  27.144  24.740  1.00  0.00    -0.314 N 
ATOM     10  C   UNL A   1      31.628  26.576  23.401  1.00  0.00     0.182 C 
ATOM     11  C   UNL A   1      30.741  27.282  22.376  1.00  0.00     0.282 C 
ATOM     12  C   UNL A   1      30.894  29.304  23.690  1.00  0.00     0.298 C 
ATOM     13  N   UNL A   1      30.988  28.728  22.332  1.00  0.00    -0.343 N 
ATOM     14  H   UNL A   1      30.296  29.171  21.730  1.00  0.00     0.346 HD
ATOM     15  H   UNL A   1      31.925  28.894  21.965  1.00  0.00     0.346 HD
BRANCH   9  16
ATOM     16  C   UNL A   1      31.444  26.190  25.758  1.00  0.00     0.265 C 
ATOM     17  O   UNL A   1      30.737  26.365  26.754  1.00  0.00    -0.268 OA
BRANCH  16  18
ATOM     18  C   UNL A   1      32.480  25.169  25.697  1.00  0.00     0.093 A 
ATOM     19  C   UNL A   1      36.006  23.926  25.343  1.00  0.00     0.046 C 
ATOM     20  C   UNL A   1      34.526  24.028  25.487  1.00  0.00    -0.025 A 
ATOM     21  C   UNL A   1      33.848  25.232  25.888  1.00  0.00     0.030 A 
ATOM     22  C   UNL A   1      33.604  23.038  25.229  1.00  0.00     0.074 A 
ATOM     23  S   UNL A   1      32.006  23.529  25.473  1.00  0.00    -0.123 S 
ATOM     24  Br  UNL A   1      34.027  21.300  24.657  1.00  0.00    -0.039 Br
ENDBRANCH  16  18
ENDBRANCH   9  16
ENDBRANCH   6   8
ENDBRANCH   5   6
ENDBRANCH   4   5
ENDBRANCH   3   4
ENDBRANCH   2   3
ENDBRANCH   1   2
BRANCH   1  25
ATOM     25  C   UNL A   1      33.885  33.857  28.289  1.00  0.00     0.188 C 
BRANCH  25  26
ATOM     26  O   UNL A   1      34.082  34.789  29.342  1.00  0.00    -0.376 OA
BRANCH  26  27
ATOM     27  C   UNL A   1      33.010  35.714  29.575  1.00  0.00     0.202 C 
BRANCH  27  28
ATOM     28  C   UNL A   1      32.728  35.975  31.051  1.00  0.00     0.261 C 
BRANCH  28  29
ATOM     29  O   UNL A   1      33.353  34.960  31.812  1.00  0.00    -0.460 OA
BRANCH  29  30
ATOM     30  C   UNL A   1      34.227  35.374  32.763  1.00  0.00     0.338 C 
ATOM     31  O   UNL A   1      34.502  36.493  33.108  1.00  0.00    -0.246 OA
BRANCH  30  32
ATOM     32  C   UNL A   1      34.850  34.128  33.237  1.00  0.00     0.060 A 
ATOM     33  C   UNL A   1      35.914  34.298  34.110  1.00  0.00     0.016 A 
ATOM     34  C   UNL A   1      34.656  32.959  32.475  1.00  0.00     0.016 A 
ATOM     35  C   UNL A   1      36.984  33.463  33.922  1.00  0.00     0.010 A 
ATOM     36  C   UNL A   1      35.734  32.157  32.257  1.00  0.00     0.010 A 
ATOM     37  C   UNL A   1      36.911  32.507  32.899  1.00  0.00    -0.014 A 
BRANCH  37  38
ATOM     38  C   UNL A   1      38.123  31.830  32.539  1.00  0.00     0.031 A 
ATOM     39  C   UNL A   1      38.986  31.627  33.707  1.00  0.00     0.074 A 
ATOM     40  C   UNL A   1      38.366  31.411  31.287  1.00  0.00     0.049 A 
ATOM     41  N   UNL A   1      40.055  32.282  34.009  1.00  0.00    -0.248 NA
ATOM     42  C   UNL A   1      38.469  30.764  34.780  1.00  0.00     0.031 C 
ATOM     43  C   UNL A   1      37.432  31.295  30.164  1.00  0.00     0.029 A 
ATOM     44  N   UNL A   1      39.522  30.909  30.785  1.00  0.00    -0.354 N 
ATOM     45  C   UNL A   1      40.463  31.748  35.220  1.00  0.00     0.074 A 
ATOM     46  C   UNL A   1      39.342  31.025  35.752  1.00  0.00     0.031 C 
ATOM     47  C   UNL A   1      38.010  30.558  29.186  1.00  0.00     0.029 A 
ATOM     48  C   UNL A   1      39.384  30.271  29.564  1.00  0.00     0.049 A 
ATOM     49  H   UNL A   1      40.386  30.990  31.250  1.00  0.00     0.167 HD
ATOM     50  C   UNL A   1      41.787  31.659  35.507  1.00  0.00     0.037 A 
ATOM     51  C   UNL A   1      40.324  29.487  28.984  1.00  0.00     0.037 A 
ATOM     52  C   UNL A   1      42.552  32.571  34.687  1.00  0.00     0.049 A 
ATOM     53  C   UNL A   1      41.628  29.805  29.627  1.00  0.00     0.074 A 
ATOM     54  C   UNL A   1      42.582  33.941  34.523  1.00  0.00     0.029 A 
ATOM     55  N   UNL A   1      43.188  32.042  33.592  1.00  0.00    -0.354 N 
ATOM     56  N   UNL A   1      42.255  30.941  29.486  1.00  0.00    -0.248 NA
ATOM     57  C   UNL A   1      42.034  29.016  30.782  1.00  0.00     0.031 C 
ATOM     58  C   UNL A   1      42.881  34.154  33.144  1.00  0.00     0.029 A 
ATOM     59  C   UNL A   1      43.055  32.908  32.539  1.00  0.00     0.049 A 
ATOM     60  H   UNL A   1      43.663  31.180  33.567  1.00  0.00     0.167 HD
ATOM     61  C   UNL A   1      42.812  31.200  30.732  1.00  0.00     0.074 A 
ATOM     62  C   UNL A   1      42.747  29.929  31.445  1.00  0.00     0.031 C 
ATOM     63  C   UNL A   1      43.000  32.484  31.156  1.00  0.00     0.037 A 
BRANCH  50  64
ATOM     64  C   UNL A   1      42.400  30.444  36.164  1.00  0.00     0.064 A 
ATOM     65  C   UNL A   1      43.391  30.648  37.143  1.00  0.00     0.173 A 
ATOM     66  C   UNL A   1      42.295  29.120  35.677  1.00  0.00     0.173 A 
ATOM     67  F   UNL A   1      43.587  31.865  37.670  1.00  0.00    -0.203 F 
ATOM     68  C   UNL A   1      44.268  29.631  37.525  1.00  0.00     0.198 A 
ATOM     69  C   UNL A   1      43.137  28.096  36.102  1.00  0.00     0.198 A 
ATOM     70  F   UNL A   1      41.463  28.767  34.692  1.00  0.00    -0.203 F 
ATOM     71  F   UNL A   1      45.281  29.910  38.356  1.00  0.00    -0.200 F 
ATOM     72  C   UNL A   1      44.146  28.359  36.998  1.00  0.00     0.200 A 
ATOM     73  F   UNL A   1      43.008  26.874  35.564  1.00  0.00    -0.200 F 
ATOM     74  F   UNL A   1      45.028  27.403  37.310  1.00  0.00    -0.200 F 
ENDBRANCH  50  64
BRANCH  51  75
ATOM     75  C   UNL A   1      40.108  28.260  28.185  1.00  0.00     0.064 A 
ATOM     76  C   UNL A   1      40.756  28.074  26.954  1.00  0.00     0.173 A 
ATOM     77  C   UNL A   1      39.473  27.130  28.738  1.00  0.00     0.173 A 
ATOM     78  F   UNL A   1      41.428  29.085  26.388  1.00  0.00    -0.203 F 
ATOM     79  C   UNL A   1      40.778  26.827  26.320  1.00  0.00     0.198 A 
ATOM     80  C   UNL A   1      39.489  25.888  28.101  1.00  0.00     0.198 A 
ATOM     81  F   UNL A   1      38.908  27.183  29.952  1.00  0.00    -0.203 F 
ATOM     82  F   UNL A   1      41.457  26.671  25.175  1.00  0.00    -0.200 F 
ATOM     83  C   UNL A   1      40.151  25.734  26.899  1.00  0.00     0.200 A 
ATOM     84  F   UNL A   1      38.913  24.832  28.692  1.00  0.00    -0.200 F 
ATOM     85  F   UNL A   1      40.222  24.527  26.321  1.00  0.00    -0.200 F 
ENDBRANCH  51  75
BRANCH  63  86
ATOM     86  C   UNL A   1      42.927  33.569  30.117  1.00  0.00     0.064 A 
ATOM     87  C   UNL A   1      41.759  34.287  29.804  1.00  0.00     0.173 A 
ATOM     88  C   UNL A   1      44.118  33.971  29.495  1.00  0.00     0.173 A 
ATOM     89  F   UNL A   1      40.603  34.029  30.428  1.00  0.00    -0.203 F 
ATOM     90  C   UNL A   1      41.779  35.326  28.874  1.00  0.00     0.198 A 
ATOM     91  C   UNL A   1      44.141  35.035  28.598  1.00  0.00     0.198 A 
ATOM     92  F   UNL A   1      45.272  33.356  29.796  1.00  0.00    -0.203 F 
ATOM     93  F   UNL A   1      40.649  35.984  28.576  1.00  0.00    -0.200 F 
ATOM     94  C   UNL A   1      42.972  35.704  28.278  1.00  0.00     0.200 A 
ATOM     95  F   UNL A   1      45.306  35.427  28.063  1.00  0.00    -0.200 F 
ATOM     96  F   UNL A   1      42.998  36.727  27.413  1.00  0.00    -0.200 F 
ENDBRANCH  63  86
ENDBRANCH  37  38
ENDBRANCH  30  32
ENDBRANCH  29  30
ENDBRANCH  28  29
ENDBRANCH  27  28
ENDBRANCH  26  27
ENDBRANCH  25  26
ENDBRANCH   1  25
TORSDOF 19
ENDMDL
