MODEL 1
REMARK VINA RESULT:     -11.8      0.000      0.000
REMARK SMILES Cc1cc(F)cc(N[C@H](C(=O)OCCOCCOCCOC(=O)c2ccc(-c3c4nc(c(-c5c(F)c(F)c(F)c(F)c5F)c5ccc([nH]5)c(-c5c(F)c(F)c(F)c(F)c5F)c5nc(c(-c6c(F)c(F)c(F)c(F)c6F)c6ccc3[nH]6)C=C5)C=C4)cc2)c2cc(Br)cs2)c1
REMARK SMILES IDX 16 1 15 2 14 3 13 4 12 5 10 6 11 7 9 8 8 9 7 11 1 12 2 13
REMARK SMILES IDX 3 14 93 15 4 16 5 17 6 18 87 19 88 20 92 21 89 22 91 23
REMARK SMILES IDX 90 24 17 25 18 26 19 27 20 28 21 29 22 30 23 31 24 32 25 33
REMARK SMILES IDX 86 34 26 35 85 36 27 37 28 38 29 39 79 40 30 41 84 42 78 43
REMARK SMILES IDX 80 44 31 45 83 46 77 47 76 48 32 50 64 51 44 52 63 53 45 54
REMARK SMILES IDX 48 55 62 56 81 57 46 58 47 59 61 61 82 62 49 63 33 64 34 65
REMARK SMILES IDX 42 66 35 67 36 68 40 69 43 70 37 71 38 72 41 73 39 74 65 75
REMARK SMILES IDX 66 76 74 77 67 78 68 79 72 80 75 81 69 82 70 83 73 84 71 85
REMARK SMILES IDX 50 86 51 87 59 88 52 89 53 90 57 91 60 92 54 93 55 94 58 95
REMARK SMILES IDX 56 96
REMARK H PARENT 8 10 80 49 48 60
REMARK Flexibility Score: inf
ROOT
ATOM      1  C   UNL A   1      38.538  21.297  25.714  1.00  0.00     0.188 C 
ENDROOT
BRANCH   1   2
ATOM      2  O   UNL A   1      38.143  22.645  25.915  1.00  0.00    -0.376 OA
BRANCH   2   3
ATOM      3  C   UNL A   1      36.789  23.013  25.676  1.00  0.00     0.202 C 
BRANCH   3   4
ATOM      4  C   UNL A   1      35.701  21.926  25.589  1.00  0.00     0.261 C 
BRANCH   4   5
ATOM      5  O   UNL A   1      35.108  21.554  26.842  1.00  0.00    -0.461 OA
BRANCH   5   6
ATOM      6  C   UNL A   1      33.764  21.790  26.948  1.00  0.00     0.334 C 
ATOM      7  O   UNL A   1      33.213  22.080  28.006  1.00  0.00    -0.249 OA
BRANCH   6   8
ATOM      8  C   UNL A   1      33.079  21.777  25.535  1.00  0.00     0.231 C 
BRANCH   8   9
ATOM      9  N   UNL A   1      32.205  20.607  25.376  1.00  0.00    -0.368 N 
ATOM     10  H   UNL A   1      31.337  20.613  25.841  1.00  0.00     0.161 HD
BRANCH   9  11
ATOM     11  C   UNL A   1      32.527  19.497  24.615  1.00  0.00     0.038 A 
ATOM     12  C   UNL A   1      34.693  16.377  25.031  1.00  0.00     0.044 C 
ATOM     13  C   UNL A   1      33.781  17.402  24.431  1.00  0.00    -0.046 A 
ATOM     14  C   UNL A   1      33.385  17.284  23.097  1.00  0.00     0.042 A 
ATOM     15  C   UNL A   1      33.354  18.513  25.176  1.00  0.00     0.029 A 
ATOM     16  C   UNL A   1      32.577  18.255  22.534  1.00  0.00     0.125 A 
ATOM     17  F   UNL A   1      32.206  18.154  21.252  1.00  0.00    -0.207 F 
ATOM     18  C   UNL A   1      32.157  19.350  23.274  1.00  0.00     0.065 A 
ENDBRANCH   9  11
ENDBRANCH   8   9
BRANCH   8  19
ATOM     19  C   UNL A   1      32.516  23.159  25.228  1.00  0.00     0.039 A 
ATOM     20  C   UNL A   1      32.836  24.355  25.858  1.00  0.00     0.033 A 
ATOM     21  S   UNL A   1      31.358  23.434  23.985  1.00  0.00    -0.145 S 
ATOM     22  C   UNL A   1      31.918  25.377  25.529  1.00  0.00     0.029 A 
ATOM     23  C   UNL A   1      31.029  25.011  24.554  1.00  0.00     0.080 A 
ATOM     24  Br  UNL A   1      31.916  27.034  26.426  1.00  0.00    -0.050 Br
ENDBRANCH   8  19
ENDBRANCH   6   8
ENDBRANCH   5   6
ENDBRANCH   4   5
ENDBRANCH   3   4
ENDBRANCH   2   3
ENDBRANCH   1   2
BRANCH   1  25
ATOM     25  C   UNL A   1      40.024  20.864  25.841  1.00  0.00     0.188 C 
BRANCH  25  26
ATOM     26  O   UNL A   1      40.414  20.516  27.161  1.00  0.00    -0.376 OA
BRANCH  26  27
ATOM     27  C   UNL A   1      41.640  21.053  27.646  1.00  0.00     0.202 C 
BRANCH  27  28
ATOM     28  C   UNL A   1      41.915  22.549  27.420  1.00  0.00     0.261 C 
BRANCH  28  29
ATOM     29  O   UNL A   1      40.922  23.400  27.978  1.00  0.00    -0.460 OA
BRANCH  29  30
ATOM     30  C   UNL A   1      41.277  24.680  28.002  1.00  0.00     0.338 C 
ATOM     31  O   UNL A   1      42.420  25.153  28.121  1.00  0.00    -0.246 OA
BRANCH  30  32
ATOM     32  C   UNL A   1      40.111  25.529  27.797  1.00  0.00     0.060 A 
ATOM     33  C   UNL A   1      40.289  26.514  26.802  1.00  0.00     0.016 A 
ATOM     34  C   UNL A   1      39.383  25.735  28.961  1.00  0.00     0.016 A 
ATOM     35  C   UNL A   1      40.130  27.819  27.163  1.00  0.00     0.010 A 
ATOM     36  C   UNL A   1      39.277  27.037  29.345  1.00  0.00     0.010 A 
ATOM     37  C   UNL A   1      39.791  28.027  28.488  1.00  0.00    -0.014 A 
BRANCH  37  38
ATOM     38  C   UNL A   1      40.171  29.239  29.153  1.00  0.00     0.031 A 
ATOM     39  C   UNL A   1      39.152  30.262  29.284  1.00  0.00     0.074 A 
ATOM     40  C   UNL A   1      41.393  29.267  29.723  1.00  0.00     0.049 A 
ATOM     41  N   UNL A   1      39.403  31.491  29.533  1.00  0.00    -0.248 NA
ATOM     42  C   UNL A   1      37.741  29.985  29.040  1.00  0.00     0.031 C 
ATOM     43  C   UNL A   1      41.873  30.158  30.766  1.00  0.00     0.029 A 
ATOM     44  N   UNL A   1      42.531  28.557  29.307  1.00  0.00    -0.354 N 
ATOM     45  C   UNL A   1      38.204  32.067  29.870  1.00  0.00     0.074 A 
ATOM     46  C   UNL A   1      37.201  31.154  29.383  1.00  0.00     0.031 C 
ATOM     47  C   UNL A   1      43.216  30.140  30.763  1.00  0.00     0.029 A 
ATOM     48  C   UNL A   1      43.634  29.383  29.594  1.00  0.00     0.049 A 
ATOM     49  H   UNL A   1      42.553  27.662  28.897  1.00  0.00     0.167 HD
ATOM     50  C   UNL A   1      38.245  33.136  30.714  1.00  0.00     0.037 A 
ATOM     51  C   UNL A   1      44.368  29.911  28.572  1.00  0.00     0.037 A 
ATOM     52  C   UNL A   1      39.641  33.524  30.966  1.00  0.00     0.049 A 
ATOM     53  C   UNL A   1      44.293  31.422  28.500  1.00  0.00     0.074 A 
ATOM     54  C   UNL A   1      40.510  33.318  32.027  1.00  0.00     0.029 A 
ATOM     55  N   UNL A   1      40.445  33.889  29.887  1.00  0.00    -0.354 N 
ATOM     56  N   UNL A   1      43.332  32.152  29.000  1.00  0.00    -0.248 NA
ATOM     57  C   UNL A   1      45.328  32.225  27.869  1.00  0.00     0.031 C 
ATOM     58  C   UNL A   1      41.833  33.600  31.586  1.00  0.00     0.029 A 
ATOM     59  C   UNL A   1      41.773  33.979  30.257  1.00  0.00     0.049 A 
ATOM     60  H   UNL A   1      40.109  34.061  28.978  1.00  0.00     0.167 HD
ATOM     61  C   UNL A   1      43.610  33.491  28.822  1.00  0.00     0.074 A 
ATOM     62  C   UNL A   1      44.868  33.468  28.093  1.00  0.00     0.031 C 
ATOM     63  C   UNL A   1      42.772  34.469  29.307  1.00  0.00     0.037 A 
BRANCH  50  64
ATOM     64  C   UNL A   1      37.068  33.577  31.559  1.00  0.00     0.064 A 
ATOM     65  C   UNL A   1      35.936  34.162  30.954  1.00  0.00     0.173 A 
ATOM     66  C   UNL A   1      37.010  33.521  32.966  1.00  0.00     0.173 A 
ATOM     67  F   UNL A   1      35.785  34.186  29.625  1.00  0.00    -0.203 F 
ATOM     68  C   UNL A   1      34.903  34.745  31.695  1.00  0.00     0.198 A 
ATOM     69  C   UNL A   1      36.004  34.148  33.708  1.00  0.00     0.198 A 
ATOM     70  F   UNL A   1      37.881  32.803  33.681  1.00  0.00    -0.203 F 
ATOM     71  F   UNL A   1      33.860  35.296  31.056  1.00  0.00    -0.200 F 
ATOM     72  C   UNL A   1      34.953  34.770  33.072  1.00  0.00     0.200 A 
ATOM     73  F   UNL A   1      36.060  34.132  35.048  1.00  0.00    -0.200 F 
ATOM     74  F   UNL A   1      33.981  35.357  33.780  1.00  0.00    -0.200 F 
ENDBRANCH  50  64
BRANCH  51  75
ATOM     75  C   UNL A   1      44.523  28.986  27.413  1.00  0.00     0.064 A 
ATOM     76  C   UNL A   1      45.428  27.909  27.531  1.00  0.00     0.173 A 
ATOM     77  C   UNL A   1      43.572  28.913  26.389  1.00  0.00     0.173 A 
ATOM     78  F   UNL A   1      46.369  27.929  28.489  1.00  0.00    -0.203 F 
ATOM     79  C   UNL A   1      45.322  26.772  26.730  1.00  0.00     0.198 A 
ATOM     80  C   UNL A   1      43.468  27.770  25.589  1.00  0.00     0.198 A 
ATOM     81  F   UNL A   1      42.680  29.899  26.218  1.00  0.00    -0.203 F 
ATOM     82  F   UNL A   1      46.150  25.734  26.920  1.00  0.00    -0.200 F 
ATOM     83  C   UNL A   1      44.320  26.691  25.779  1.00  0.00     0.200 A 
ATOM     84  F   UNL A   1      42.487  27.680  24.678  1.00  0.00    -0.200 F 
ATOM     85  F   UNL A   1      44.152  25.566  25.064  1.00  0.00    -0.200 F 
ENDBRANCH  51  75
BRANCH  63  86
ATOM     86  C   UNL A   1      42.775  35.986  29.052  1.00  0.00     0.064 A 
ATOM     87  C   UNL A   1      43.405  36.960  29.839  1.00  0.00     0.173 A 
ATOM     88  C   UNL A   1      42.124  36.525  27.899  1.00  0.00     0.173 A 
ATOM     89  F   UNL A   1      44.064  36.660  30.955  1.00  0.00    -0.203 F 
ATOM     90  C   UNL A   1      43.396  38.325  29.511  1.00  0.00     0.198 A 
ATOM     91  C   UNL A   1      42.138  37.879  27.561  1.00  0.00     0.198 A 
ATOM     92  F   UNL A   1      41.446  35.768  27.028  1.00  0.00    -0.203 F 
ATOM     93  F   UNL A   1      44.012  39.197  30.321  1.00  0.00    -0.200 F 
ATOM     94  C   UNL A   1      42.772  38.784  28.371  1.00  0.00     0.200 A 
ATOM     95  F   UNL A   1      41.537  38.286  26.433  1.00  0.00    -0.200 F 
ATOM     96  F   UNL A   1      42.787  40.084  28.056  1.00  0.00    -0.200 F 
ENDBRANCH  63  86
ENDBRANCH  37  38
ENDBRANCH  30  32
ENDBRANCH  29  30
ENDBRANCH  28  29
ENDBRANCH  27  28
ENDBRANCH  26  27
ENDBRANCH  25  26
ENDBRANCH   1  25
TORSDOF 20
ENDMDL
MODEL 2
REMARK VINA RESULT:     -11.7      2.479      4.172
REMARK SMILES Cc1cc(F)cc(N[C@H](C(=O)OCCOCCOCCOC(=O)c2ccc(-c3c4nc(c(-c5c(F)c(F)c(F)c(F)c5F)c5ccc([nH]5)c(-c5c(F)c(F)c(F)c(F)c5F)c5nc(c(-c6c(F)c(F)c(F)c(F)c6F)c6ccc3[nH]6)C=C5)C=C4)cc2)c2cc(Br)cs2)c1
REMARK SMILES IDX 16 1 15 2 14 3 13 4 12 5 10 6 11 7 9 8 8 9 7 11 1 12 2 13
REMARK SMILES IDX 3 14 93 15 4 16 5 17 6 18 87 19 88 20 92 21 89 22 91 23
REMARK SMILES IDX 90 24 17 25 18 26 19 27 20 28 21 29 22 30 23 31 24 32 25 33
REMARK SMILES IDX 86 34 26 35 85 36 27 37 28 38 29 39 79 40 30 41 84 42 78 43
REMARK SMILES IDX 80 44 31 45 83 46 77 47 76 48 32 50 64 51 44 52 63 53 45 54
REMARK SMILES IDX 48 55 62 56 81 57 46 58 47 59 61 61 82 62 49 63 33 64 34 65
REMARK SMILES IDX 42 66 35 67 36 68 40 69 43 70 37 71 38 72 41 73 39 74 65 75
REMARK SMILES IDX 66 76 74 77 67 78 68 79 72 80 75 81 69 82 70 83 73 84 71 85
REMARK SMILES IDX 50 86 51 87 59 88 52 89 53 90 57 91 60 92 54 93 55 94 58 95
REMARK SMILES IDX 56 96
REMARK H PARENT 8 10 80 49 48 60
REMARK Flexibility Score: inf
ROOT
ATOM      1  C   UNL A   1      36.581  21.624  24.657  1.00  0.00     0.188 C 
ENDROOT
BRANCH   1   2
ATOM      2  O   UNL A   1      35.914  22.410  23.682  1.00  0.00    -0.376 OA
BRANCH   2   3
ATOM      3  C   UNL A   1      35.285  23.623  24.082  1.00  0.00     0.202 C 
BRANCH   3   4
ATOM      4  C   UNL A   1      34.003  24.095  23.369  1.00  0.00     0.261 C 
BRANCH   4   5
ATOM      5  O   UNL A   1      34.159  25.251  22.533  1.00  0.00    -0.461 OA
BRANCH   5   6
ATOM      6  C   UNL A   1      33.002  25.918  22.231  1.00  0.00     0.334 C 
ATOM      7  O   UNL A   1      32.428  25.814  21.152  1.00  0.00    -0.249 OA
BRANCH   6   8
ATOM      8  C   UNL A   1      32.463  26.697  23.484  1.00  0.00     0.231 C 
BRANCH   8   9
ATOM      9  N   UNL A   1      33.260  27.903  23.745  1.00  0.00    -0.368 N 
ATOM     10  H   UNL A   1      33.845  28.235  23.026  1.00  0.00     0.161 HD
BRANCH   9  11
ATOM     11  C   UNL A   1      33.237  28.602  24.939  1.00  0.00     0.038 A 
ATOM     12  C   UNL A   1      31.329  31.583  26.377  1.00  0.00     0.044 C 
ATOM     13  C   UNL A   1      32.293  30.446  26.245  1.00  0.00    -0.046 A 
ATOM     14  C   UNL A   1      33.220  30.199  27.260  1.00  0.00     0.042 A 
ATOM     15  C   UNL A   1      32.316  29.648  25.089  1.00  0.00     0.029 A 
ATOM     16  C   UNL A   1      34.137  29.174  27.115  1.00  0.00     0.125 A 
ATOM     17  F   UNL A   1      35.036  28.942  28.080  1.00  0.00    -0.207 F 
ATOM     18  C   UNL A   1      34.154  28.389  25.973  1.00  0.00     0.065 A 
ENDBRANCH   9  11
ENDBRANCH   8   9
BRANCH   8  19
ATOM     19  C   UNL A   1      30.948  26.826  23.390  1.00  0.00     0.039 A 
ATOM     20  C   UNL A   1      30.228  27.857  22.801  1.00  0.00     0.033 A 
ATOM     21  S   UNL A   1      29.875  25.640  24.026  1.00  0.00    -0.145 S 
ATOM     22  C   UNL A   1      28.861  27.805  23.156  1.00  0.00     0.029 A 
ATOM     23  C   UNL A   1      28.528  26.677  23.857  1.00  0.00     0.080 A 
ATOM     24  Br  UNL A   1      27.676  29.210  22.743  1.00  0.00    -0.050 Br
ENDBRANCH   8  19
ENDBRANCH   6   8
ENDBRANCH   5   6
ENDBRANCH   4   5
ENDBRANCH   3   4
ENDBRANCH   2   3
ENDBRANCH   1   2
BRANCH   1  25
ATOM     25  C   UNL A   1      37.812  22.171  25.431  1.00  0.00     0.188 C 
BRANCH  25  26
ATOM     26  O   UNL A   1      38.799  21.191  25.715  1.00  0.00    -0.376 OA
BRANCH  26  27
ATOM     27  C   UNL A   1      39.933  21.602  26.473  1.00  0.00     0.202 C 
BRANCH  27  28
ATOM     28  C   UNL A   1      40.182  23.109  26.643  1.00  0.00     0.261 C 
BRANCH  28  29
ATOM     29  O   UNL A   1      40.858  23.441  27.849  1.00  0.00    -0.460 OA
BRANCH  29  30
ATOM     30  C   UNL A   1      41.216  24.719  27.919  1.00  0.00     0.338 C 
ATOM     31  O   UNL A   1      42.352  25.184  28.116  1.00  0.00    -0.246 OA
BRANCH  30  32
ATOM     32  C   UNL A   1      40.068  25.577  27.658  1.00  0.00     0.060 A 
ATOM     33  C   UNL A   1      40.305  26.569  26.684  1.00  0.00     0.016 A 
ATOM     34  C   UNL A   1      39.279  25.777  28.784  1.00  0.00     0.016 A 
ATOM     35  C   UNL A   1      40.135  27.872  27.048  1.00  0.00     0.010 A 
ATOM     36  C   UNL A   1      39.161  27.076  29.173  1.00  0.00     0.010 A 
ATOM     37  C   UNL A   1      39.726  28.071  28.354  1.00  0.00    -0.014 A 
BRANCH  37  38
ATOM     38  C   UNL A   1      40.077  29.274  29.050  1.00  0.00     0.031 A 
ATOM     39  C   UNL A   1      39.062  30.307  29.125  1.00  0.00     0.074 A 
ATOM     40  C   UNL A   1      41.261  29.286  29.694  1.00  0.00     0.049 A 
ATOM     41  N   UNL A   1      39.309  31.532  29.398  1.00  0.00    -0.248 NA
ATOM     42  C   UNL A   1      37.666  30.046  28.793  1.00  0.00     0.031 C 
ATOM     43  C   UNL A   1      41.685  30.164  30.771  1.00  0.00     0.029 A 
ATOM     44  N   UNL A   1      42.415  28.566  29.344  1.00  0.00    -0.354 N 
ATOM     45  C   UNL A   1      38.098  32.118  29.664  1.00  0.00     0.074 A 
ATOM     46  C   UNL A   1      37.117  31.219  29.110  1.00  0.00     0.031 C 
ATOM     47  C   UNL A   1      43.026  30.133  30.850  1.00  0.00     0.029 A 
ATOM     48  C   UNL A   1      43.506  29.379  29.704  1.00  0.00     0.049 A 
ATOM     49  H   UNL A   1      42.454  27.674  28.930  1.00  0.00     0.167 HD
ATOM     50  C   UNL A   1      38.098  33.181  30.516  1.00  0.00     0.037 A 
ATOM     51  C   UNL A   1      44.308  29.906  28.732  1.00  0.00     0.037 A 
ATOM     52  C   UNL A   1      39.479  33.553  30.856  1.00  0.00     0.049 A 
ATOM     53  C   UNL A   1      44.253  31.418  28.667  1.00  0.00     0.074 A 
ATOM     54  C   UNL A   1      40.279  33.331  31.967  1.00  0.00     0.029 A 
ATOM     55  N   UNL A   1      40.352  33.916  29.832  1.00  0.00    -0.354 N 
ATOM     56  N   UNL A   1      43.270  32.155  29.112  1.00  0.00    -0.248 NA
ATOM     57  C   UNL A   1      45.332  32.214  28.106  1.00  0.00     0.031 C 
ATOM     58  C   UNL A   1      41.629  33.602  31.611  1.00  0.00     0.029 A 
ATOM     59  C   UNL A   1      41.655  33.990  30.283  1.00  0.00     0.049 A 
ATOM     60  H   UNL A   1      40.074  34.097  28.905  1.00  0.00     0.167 HD
ATOM     61  C   UNL A   1      43.572  33.492  28.960  1.00  0.00     0.074 A 
ATOM     62  C   UNL A   1      44.872  33.460  28.310  1.00  0.00     0.031 C 
ATOM     63  C   UNL A   1      42.715  34.476  29.400  1.00  0.00     0.037 A 
BRANCH  50  64
ATOM     64  C   UNL A   1      36.876  33.629  31.290  1.00  0.00     0.064 A 
ATOM     65  C   UNL A   1      35.728  34.088  30.609  1.00  0.00     0.173 A 
ATOM     66  C   UNL A   1      36.782  33.701  32.696  1.00  0.00     0.173 A 
ATOM     67  F   UNL A   1      35.612  33.980  29.280  1.00  0.00    -0.203 F 
ATOM     68  C   UNL A   1      34.645  34.676  31.269  1.00  0.00     0.198 A 
ATOM     69  C   UNL A   1      35.723  34.334  33.353  1.00  0.00     0.198 A 
ATOM     70  F   UNL A   1      37.673  33.105  33.493  1.00  0.00    -0.203 F 
ATOM     71  F   UNL A   1      33.590  35.103  30.559  1.00  0.00    -0.200 F 
ATOM     72  C   UNL A   1      34.657  34.832  32.638  1.00  0.00     0.200 A 
ATOM     73  F   UNL A   1      35.744  34.446  34.690  1.00  0.00    -0.200 F 
ATOM     74  F   UNL A   1      33.634  35.424  33.267  1.00  0.00    -0.200 F 
ENDBRANCH  50  64
BRANCH  51  75
ATOM     75  C   UNL A   1      44.524  28.986  27.579  1.00  0.00     0.064 A 
ATOM     76  C   UNL A   1      45.403  27.894  27.747  1.00  0.00     0.173 A 
ATOM     77  C   UNL A   1      43.642  28.936  26.494  1.00  0.00     0.173 A 
ATOM     78  F   UNL A   1      46.279  27.893  28.765  1.00  0.00    -0.203 F 
ATOM     79  C   UNL A   1      45.332  26.765  26.932  1.00  0.00     0.198 A 
ATOM     80  C   UNL A   1      43.573  27.800  25.679  1.00  0.00     0.198 A 
ATOM     81  F   UNL A   1      42.779  29.937  26.273  1.00  0.00    -0.203 F 
ATOM     82  F   UNL A   1      46.130  25.712  27.168  1.00  0.00    -0.200 F 
ATOM     83  C   UNL A   1      44.394  26.706  25.916  1.00  0.00     0.200 A 
ATOM     84  F   UNL A   1      42.653  27.732  24.705  1.00  0.00    -0.200 F 
ATOM     85  F   UNL A   1      44.256  25.590  25.183  1.00  0.00    -0.200 F 
ENDBRANCH  51  75
BRANCH  63  86
ATOM     86  C   UNL A   1      42.749  35.994  29.156  1.00  0.00     0.064 A 
ATOM     87  C   UNL A   1      43.400  36.949  29.949  1.00  0.00     0.173 A 
ATOM     88  C   UNL A   1      42.108  36.555  28.008  1.00  0.00     0.173 A 
ATOM     89  F   UNL A   1      44.054  36.627  31.063  1.00  0.00    -0.203 F 
ATOM     90  C   UNL A   1      43.419  38.317  29.632  1.00  0.00     0.198 A 
ATOM     91  C   UNL A   1      42.150  37.910  27.680  1.00  0.00     0.198 A 
ATOM     92  F   UNL A   1      41.415  35.818  27.132  1.00  0.00    -0.203 F 
ATOM     93  F   UNL A   1      44.053  39.169  30.448  1.00  0.00    -0.200 F 
ATOM     94  C   UNL A   1      42.804  38.796  28.496  1.00  0.00     0.200 A 
ATOM     95  F   UNL A   1      41.557  38.339  26.556  1.00  0.00    -0.200 F 
ATOM     96  F   UNL A   1      42.845  40.098  28.190  1.00  0.00    -0.200 F 
ENDBRANCH  63  86
ENDBRANCH  37  38
ENDBRANCH  30  32
ENDBRANCH  29  30
ENDBRANCH  28  29
ENDBRANCH  27  28
ENDBRANCH  26  27
ENDBRANCH  25  26
ENDBRANCH   1  25
TORSDOF 20
ENDMDL
MODEL 3
REMARK VINA RESULT:     -11.1      4.684     10.316
REMARK SMILES Cc1cc(F)cc(N[C@H](C(=O)OCCOCCOCCOC(=O)c2ccc(-c3c4nc(c(-c5c(F)c(F)c(F)c(F)c5F)c5ccc([nH]5)c(-c5c(F)c(F)c(F)c(F)c5F)c5nc(c(-c6c(F)c(F)c(F)c(F)c6F)c6ccc3[nH]6)C=C5)C=C4)cc2)c2cc(Br)cs2)c1
REMARK SMILES IDX 16 1 15 2 14 3 13 4 12 5 10 6 11 7 9 8 8 9 7 11 1 12 2 13
REMARK SMILES IDX 3 14 93 15 4 16 5 17 6 18 87 19 88 20 92 21 89 22 91 23
REMARK SMILES IDX 90 24 17 25 18 26 19 27 20 28 21 29 22 30 23 31 24 32 25 33
REMARK SMILES IDX 86 34 26 35 85 36 27 37 28 38 29 39 79 40 30 41 84 42 78 43
REMARK SMILES IDX 80 44 31 45 83 46 77 47 76 48 32 50 64 51 44 52 63 53 45 54
REMARK SMILES IDX 48 55 62 56 81 57 46 58 47 59 61 61 82 62 49 63 33 64 34 65
REMARK SMILES IDX 42 66 35 67 36 68 40 69 43 70 37 71 38 72 41 73 39 74 65 75
REMARK SMILES IDX 66 76 74 77 67 78 68 79 72 80 75 81 69 82 70 83 73 84 71 85
REMARK SMILES IDX 50 86 51 87 59 88 52 89 53 90 57 91 60 92 54 93 55 94 58 95
REMARK SMILES IDX 56 96
REMARK H PARENT 8 10 80 49 48 60
REMARK Flexibility Score: inf
ROOT
ATOM      1  C   UNL A   1      33.298  33.955  28.254  1.00  0.00     0.188 C 
ENDROOT
BRANCH   1   2
ATOM      2  O   UNL A   1      34.306  33.073  27.785  1.00  0.00    -0.376 OA
BRANCH   2   3
ATOM      3  C   UNL A   1      34.220  31.689  28.105  1.00  0.00     0.202 C 
BRANCH   3   4
ATOM      4  C   UNL A   1      33.292  30.769  27.290  1.00  0.00     0.261 C 
BRANCH   4   5
ATOM      5  O   UNL A   1      33.876  29.528  26.870  1.00  0.00    -0.461 OA
BRANCH   5   6
ATOM      6  C   UNL A   1      33.043  28.442  26.911  1.00  0.00     0.334 C 
ATOM      7  O   UNL A   1      32.219  28.260  27.803  1.00  0.00    -0.249 OA
BRANCH   6   8
ATOM      8  C   UNL A   1      33.196  27.569  25.615  1.00  0.00     0.231 C 
BRANCH   8   9
ATOM      9  N   UNL A   1      33.026  26.140  25.911  1.00  0.00    -0.368 N 
ATOM     10  H   UNL A   1      32.425  25.890  26.649  1.00  0.00     0.161 HD
BRANCH   9  11
ATOM     11  C   UNL A   1      33.660  25.126  25.216  1.00  0.00     0.038 A 
ATOM     12  C   UNL A   1      32.609  22.237  22.946  1.00  0.00     0.044 C 
ATOM     13  C   UNL A   1      33.454  23.170  23.757  1.00  0.00    -0.046 A 
ATOM     14  C   UNL A   1      34.822  22.924  23.896  1.00  0.00     0.042 A 
ATOM     15  C   UNL A   1      32.884  24.265  24.425  1.00  0.00     0.029 A 
ATOM     16  C   UNL A   1      35.592  23.764  24.681  1.00  0.00     0.125 A 
ATOM     17  F   UNL A   1      36.901  23.525  24.829  1.00  0.00    -0.207 F 
ATOM     18  C   UNL A   1      35.024  24.845  25.338  1.00  0.00     0.065 A 
ENDBRANCH   9  11
ENDBRANCH   8   9
BRANCH   8  19
ATOM     19  C   UNL A   1      32.379  28.186  24.486  1.00  0.00     0.039 A 
ATOM     20  C   UNL A   1      31.329  29.087  24.605  1.00  0.00     0.033 A 
ATOM     21  S   UNL A   1      32.677  27.837  22.828  1.00  0.00    -0.145 S 
ATOM     22  C   UNL A   1      30.614  29.215  23.393  1.00  0.00     0.029 A 
ATOM     23  C   UNL A   1      31.205  28.558  22.346  1.00  0.00     0.080 A 
ATOM     24  Br  UNL A   1      28.979  30.147  23.299  1.00  0.00    -0.050 Br
ENDBRANCH   8  19
ENDBRANCH   6   8
ENDBRANCH   5   6
ENDBRANCH   4   5
ENDBRANCH   3   4
ENDBRANCH   2   3
ENDBRANCH   1   2
BRANCH   1  25
ATOM     25  C   UNL A   1      33.595  35.003  29.363  1.00  0.00     0.188 C 
BRANCH  25  26
ATOM     26  O   UNL A   1      32.563  35.127  30.331  1.00  0.00    -0.376 OA
BRANCH  26  27
ATOM     27  C   UNL A   1      32.825  35.946  31.466  1.00  0.00     0.202 C 
BRANCH  27  28
ATOM     28  C   UNL A   1      33.675  35.357  32.604  1.00  0.00     0.261 C 
BRANCH  28  29
ATOM     29  O   UNL A   1      35.052  35.703  32.521  1.00  0.00    -0.460 OA
BRANCH  29  30
ATOM     30  C   UNL A   1      35.862  34.757  32.984  1.00  0.00     0.338 C 
ATOM     31  O   UNL A   1      36.640  34.824  33.952  1.00  0.00    -0.246 OA
BRANCH  30  32
ATOM     32  C   UNL A   1      35.685  33.528  32.223  1.00  0.00     0.060 A 
ATOM     33  C   UNL A   1      35.689  32.360  33.014  1.00  0.00     0.016 A 
ATOM     34  C   UNL A   1      36.239  33.597  30.951  1.00  0.00     0.016 A 
ATOM     35  C   UNL A   1      36.622  31.406  32.737  1.00  0.00     0.010 A 
ATOM     36  C   UNL A   1      37.211  32.676  30.702  1.00  0.00     0.010 A 
ATOM     37  C   UNL A   1      37.465  31.696  31.679  1.00  0.00    -0.014 A 
BRANCH  37  38
ATOM     38  C   UNL A   1      38.795  31.162  31.641  1.00  0.00     0.031 A 
ATOM     39  C   UNL A   1      38.983  29.923  30.912  1.00  0.00     0.074 A 
ATOM     40  C   UNL A   1      39.776  31.926  32.162  1.00  0.00     0.049 A 
ATOM     41  N   UNL A   1      39.996  29.155  31.060  1.00  0.00    -0.248 NA
ATOM     42  C   UNL A   1      37.968  29.394  30.008  1.00  0.00     0.031 C 
ATOM     43  C   UNL A   1      41.205  31.841  31.912  1.00  0.00     0.029 A 
ATOM     44  N   UNL A   1      39.650  32.861  33.203  1.00  0.00    -0.354 N 
ATOM     45  C   UNL A   1      39.961  28.268  30.014  1.00  0.00     0.074 A 
ATOM     46  C   UNL A   1      38.614  28.343  29.504  1.00  0.00     0.031 C 
ATOM     47  C   UNL A   1      41.854  32.478  32.900  1.00  0.00     0.029 A 
ATOM     48  C   UNL A   1      40.867  32.825  33.909  1.00  0.00     0.049 A 
ATOM     49  H   UNL A   1      38.869  33.427  33.398  1.00  0.00     0.167 HD
ATOM     50  C   UNL A   1      41.152  27.759  29.593  1.00  0.00     0.037 A 
ATOM     51  C   UNL A   1      40.892  32.352  35.189  1.00  0.00     0.037 A 
ATOM     52  C   UNL A   1      42.231  28.195  30.492  1.00  0.00     0.049 A 
ATOM     53  C   UNL A   1      41.707  31.085  35.342  1.00  0.00     0.074 A 
ATOM     54  C   UNL A   1      43.212  29.171  30.400  1.00  0.00     0.029 A 
ATOM     55  N   UNL A   1      42.158  27.863  31.844  1.00  0.00    -0.354 N 
ATOM     56  N   UNL A   1      41.985  30.248  34.378  1.00  0.00    -0.248 NA
ATOM     57  C   UNL A   1      42.293  30.682  36.610  1.00  0.00     0.031 C 
ATOM     58  C   UNL A   1      43.751  29.392  31.698  1.00  0.00     0.029 A 
ATOM     59  C   UNL A   1      43.101  28.550  32.583  1.00  0.00     0.049 A 
ATOM     60  H   UNL A   1      41.517  27.220  32.223  1.00  0.00     0.167 HD
ATOM     61  C   UNL A   1      42.804  29.240  34.843  1.00  0.00     0.074 A 
ATOM     62  C   UNL A   1      42.947  29.563  36.254  1.00  0.00     0.031 C 
ATOM     63  C   UNL A   1      43.280  28.258  34.005  1.00  0.00     0.037 A 
BRANCH  50  64
ATOM     64  C   UNL A   1      41.372  27.186  28.208  1.00  0.00     0.064 A 
ATOM     65  C   UNL A   1      41.554  25.798  28.031  1.00  0.00     0.173 A 
ATOM     66  C   UNL A   1      41.484  27.941  27.022  1.00  0.00     0.173 A 
ATOM     67  F   UNL A   1      41.367  24.933  29.036  1.00  0.00    -0.203 F 
ATOM     68  C   UNL A   1      41.935  25.238  26.809  1.00  0.00     0.198 A 
ATOM     69  C   UNL A   1      41.913  27.389  25.811  1.00  0.00     0.198 A 
ATOM     70  F   UNL A   1      41.120  29.224  26.966  1.00  0.00    -0.203 F 
ATOM     71  F   UNL A   1      42.104  23.911  26.712  1.00  0.00    -0.200 F 
ATOM     72  C   UNL A   1      42.149  26.037  25.706  1.00  0.00     0.200 A 
ATOM     73  F   UNL A   1      42.085  28.184  24.745  1.00  0.00    -0.200 F 
ATOM     74  F   UNL A   1      42.544  25.504  24.543  1.00  0.00    -0.200 F 
ENDBRANCH  50  64
BRANCH  51  75
ATOM     75  C   UNL A   1      39.682  32.716  35.980  1.00  0.00     0.064 A 
ATOM     76  C   UNL A   1      38.806  31.684  36.380  1.00  0.00     0.173 A 
ATOM     77  C   UNL A   1      39.571  33.943  36.644  1.00  0.00     0.173 A 
ATOM     78  F   UNL A   1      38.860  30.489  35.771  1.00  0.00    -0.203 F 
ATOM     79  C   UNL A   1      37.935  31.840  37.458  1.00  0.00     0.198 A 
ATOM     80  C   UNL A   1      38.697  34.095  37.726  1.00  0.00     0.198 A 
ATOM     81  F   UNL A   1      40.371  34.967  36.317  1.00  0.00    -0.203 F 
ATOM     82  F   UNL A   1      37.172  30.814  37.862  1.00  0.00    -0.200 F 
ATOM     83  C   UNL A   1      37.904  33.038  38.151  1.00  0.00     0.200 A 
ATOM     84  F   UNL A   1      38.677  35.248  38.411  1.00  0.00    -0.200 F 
ATOM     85  F   UNL A   1      37.135  33.170  39.244  1.00  0.00    -0.200 F 
ENDBRANCH  51  75
BRANCH  63  86
ATOM     86  C   UNL A   1      44.021  26.951  34.338  1.00  0.00     0.064 A 
ATOM     87  C   UNL A   1      43.487  25.840  35.004  1.00  0.00     0.173 A 
ATOM     88  C   UNL A   1      45.376  26.766  33.925  1.00  0.00     0.173 A 
ATOM     89  F   UNL A   1      42.241  25.816  35.470  1.00  0.00    -0.203 F 
ATOM     90  C   UNL A   1      44.221  24.664  35.232  1.00  0.00     0.198 A 
ATOM     91  C   UNL A   1      46.096  25.587  34.127  1.00  0.00     0.198 A 
ATOM     92  F   UNL A   1      46.077  27.713  33.290  1.00  0.00    -0.203 F 
ATOM     93  F   UNL A   1      43.644  23.649  35.888  1.00  0.00    -0.200 F 
ATOM     94  C   UNL A   1      45.519  24.534  34.787  1.00  0.00     0.200 A 
ATOM     95  F   UNL A   1      47.350  25.489  33.663  1.00  0.00    -0.200 F 
ATOM     96  F   UNL A   1      46.204  23.401  34.988  1.00  0.00    -0.200 F 
ENDBRANCH  63  86
ENDBRANCH  37  38
ENDBRANCH  30  32
ENDBRANCH  29  30
ENDBRANCH  28  29
ENDBRANCH  27  28
ENDBRANCH  26  27
ENDBRANCH  25  26
ENDBRANCH   1  25
TORSDOF 20
ENDMDL
