MODEL 1
REMARK VINA RESULT:     -11.3      0.000      0.000
REMARK SMILES NS(=O)(=O)c1ccc(/N=N/c2ccc(O)c(C(=O)OCCOCCOCCOC(=O)c3ccc(-c4c5nc(c(-c6c(F)c(F)c(F)c(F)c6F)c6ccc([nH]6)c(-c6c(F)c(F)c(F)c(F)c6F)c6nc(c(-c7c(F)c(F)c(F)c(F)c7F)c7ccc4[nH]7)C=C6)C=C5)cc3)c2)cc1
REMARK SMILES IDX 23 1 22 2 21 3 20 4 19 5 17 6 18 7 16 8 11 9 12 10 94 11
REMARK SMILES IDX 13 12 14 13 10 14 9 15 8 16 5 17 6 18 96 19 7 20 95 21 2 22
REMARK SMILES IDX 3 23 4 24 1 25 15 28 24 30 25 31 26 32 27 33 28 34 29 35
REMARK SMILES IDX 30 36 31 37 32 38 93 39 33 40 92 41 34 42 35 43 36 44 86 45
REMARK SMILES IDX 37 46 91 47 85 48 87 49 38 50 90 51 84 52 83 53 39 55 71 56
REMARK SMILES IDX 51 57 70 58 52 59 55 60 69 61 88 62 53 63 54 64 68 66 89 67
REMARK SMILES IDX 56 68 40 69 41 70 49 71 42 72 43 73 47 74 50 75 44 76 45 77
REMARK SMILES IDX 48 78 46 79 72 80 73 81 81 82 74 83 75 84 79 85 82 86 76 87
REMARK SMILES IDX 77 88 80 89 78 90 57 91 58 92 66 93 59 94 60 95 64 96 67 97
REMARK SMILES IDX 61 98 62 99 65 100 63 101
REMARK H PARENT 1 26 1 27 15 29 87 54 55 65
REMARK Flexibility Score: inf
ROOT
ATOM      1  C   UNL A   1      33.137  29.192  25.710  1.00  0.00     0.188 C 
ENDROOT
BRANCH   1   2
ATOM      2  O   UNL A   1      32.855  29.113  24.325  1.00  0.00    -0.376 OA
BRANCH   2   3
ATOM      3  C   UNL A   1      31.798  28.297  23.846  1.00  0.00     0.202 C 
BRANCH   3   4
ATOM      4  C   UNL A   1      31.841  27.592  22.477  1.00  0.00     0.261 C 
BRANCH   4   5
ATOM      5  O   UNL A   1      31.564  26.186  22.472  1.00  0.00    -0.460 OA
BRANCH   5   6
ATOM      6  C   UNL A   1      32.474  25.410  21.835  1.00  0.00     0.342 C 
ATOM      7  O   UNL A   1      33.127  25.701  20.844  1.00  0.00    -0.246 OA
BRANCH   6   8
ATOM      8  C   UNL A   1      32.803  24.229  22.657  1.00  0.00     0.104 A 
ATOM      9  C   UNL A   1      34.422  22.661  23.564  1.00  0.00     0.087 A 
ATOM     10  C   UNL A   1      33.369  21.895  24.081  1.00  0.00     0.034 A 
ATOM     11  C   UNL A   1      34.127  23.822  22.832  1.00  0.00     0.049 A 
ATOM     12  C   UNL A   1      32.042  22.288  23.892  1.00  0.00     0.049 A 
ATOM     13  C   UNL A   1      31.762  23.457  23.192  1.00  0.00     0.130 A 
BRANCH   9  14
ATOM     14  N   UNL A   1      35.751  22.228  23.736  1.00  0.00    -0.151 NA
ATOM     15  N   UNL A   1      35.805  21.399  24.669  1.00  0.00    -0.151 NA
BRANCH  15  16
ATOM     16  C   UNL A   1      37.116  21.035  25.025  1.00  0.00     0.086 A 
ATOM     17  C   UNL A   1      39.721  20.464  25.892  1.00  0.00     0.082 A 
ATOM     18  C   UNL A   1      39.228  21.765  25.999  1.00  0.00     0.024 A 
ATOM     19  C   UNL A   1      38.938  19.449  25.335  1.00  0.00     0.024 A 
ATOM     20  C   UNL A   1      37.930  22.039  25.570  1.00  0.00     0.031 A 
ATOM     21  C   UNL A   1      37.638  19.736  24.910  1.00  0.00     0.031 A 
BRANCH  17  22
ATOM     22  S   UNL A   1      41.351  20.091  26.465  1.00  0.00     0.238 S 
ATOM     23  O   UNL A   1      41.335  19.967  27.907  1.00  0.00    -0.207 OA
ATOM     24  O   UNL A   1      42.296  20.926  25.768  1.00  0.00    -0.207 OA
BRANCH  22  25
ATOM     25  N   UNL A   1      41.571  18.532  25.884  1.00  0.00    -0.225 NA
ATOM     26  H   UNL A   1      40.726  17.984  26.052  1.00  0.00     0.137 HD
ATOM     27  H   UNL A   1      42.358  18.097  26.365  1.00  0.00     0.137 HD
ENDBRANCH  22  25
ENDBRANCH  17  22
ENDBRANCH  15  16
ENDBRANCH   9  14
BRANCH  13  28
ATOM     28  O   UNL A   1      30.438  23.763  23.017  1.00  0.00    -0.507 OA
ATOM     29  H   UNL A   1      30.193  24.529  22.538  1.00  0.00     0.293 HD
ENDBRANCH  13  28
ENDBRANCH   6   8
ENDBRANCH   5   6
ENDBRANCH   4   5
ENDBRANCH   3   4
ENDBRANCH   2   3
ENDBRANCH   1   2
BRANCH   1  30
ATOM     30  C   UNL A   1      32.292  30.092  26.634  1.00  0.00     0.188 C 
BRANCH  30  31
ATOM     31  O   UNL A   1      31.404  30.973  25.995  1.00  0.00    -0.376 OA
BRANCH  31  32
ATOM     32  C   UNL A   1      31.128  32.240  26.568  1.00  0.00     0.202 C 
BRANCH  32  33
ATOM     33  C   UNL A   1      32.148  33.374  26.813  1.00  0.00     0.261 C 
BRANCH  33  34
ATOM     34  O   UNL A   1      32.687  33.551  28.126  1.00  0.00    -0.460 OA
BRANCH  34  35
ATOM     35  C   UNL A   1      33.809  34.307  28.215  1.00  0.00     0.338 C 
ATOM     36  O   UNL A   1      33.894  35.520  28.135  1.00  0.00    -0.246 OA
BRANCH  35  37
ATOM     37  C   UNL A   1      34.939  33.439  28.602  1.00  0.00     0.060 A 
ATOM     38  C   UNL A   1      34.672  32.136  29.045  1.00  0.00     0.016 A 
ATOM     39  C   UNL A   1      36.248  33.921  28.563  1.00  0.00     0.016 A 
ATOM     40  C   UNL A   1      35.717  31.315  29.473  1.00  0.00     0.010 A 
ATOM     41  C   UNL A   1      37.290  33.105  29.013  1.00  0.00     0.010 A 
ATOM     42  C   UNL A   1      37.027  31.810  29.499  1.00  0.00    -0.014 A 
BRANCH  42  43
ATOM     43  C   UNL A   1      38.096  31.046  30.192  1.00  0.00     0.031 A 
ATOM     44  C   UNL A   1      38.341  31.317  31.652  1.00  0.00     0.074 A 
ATOM     45  C   UNL A   1      38.833  30.126  29.547  1.00  0.00     0.049 A 
ATOM     46  N   UNL A   1      39.263  30.836  32.447  1.00  0.00    -0.248 NA
ATOM     47  C   UNL A   1      37.422  32.264  32.300  1.00  0.00     0.031 C 
ATOM     48  C   UNL A   1      38.665  29.736  28.150  1.00  0.00     0.029 A 
ATOM     49  N   UNL A   1      39.885  29.359  29.987  1.00  0.00    -0.354 N 
ATOM     50  C   UNL A   1      39.041  31.429  33.683  1.00  0.00     0.074 A 
ATOM     51  C   UNL A   1      37.920  32.331  33.525  1.00  0.00     0.031 C 
ATOM     52  C   UNL A   1      39.594  28.814  27.840  1.00  0.00     0.029 A 
ATOM     53  C   UNL A   1      40.445  28.578  29.007  1.00  0.00     0.049 A 
ATOM     54  H   UNL A   1      40.207  29.370  30.918  1.00  0.00     0.167 HD
ATOM     55  C   UNL A   1      39.706  31.234  34.847  1.00  0.00     0.037 A 
ATOM     56  C   UNL A   1      41.534  27.786  29.042  1.00  0.00     0.037 A 
ATOM     57  C   UNL A   1      40.822  30.338  35.000  1.00  0.00     0.049 A 
ATOM     58  C   UNL A   1      42.312  27.650  30.329  1.00  0.00     0.074 A 
ATOM     59  C   UNL A   1      41.552  30.058  36.143  1.00  0.00     0.029 A 
ATOM     60  N   UNL A   1      41.381  29.588  33.977  1.00  0.00    -0.354 N 
ATOM     61  N   UNL A   1      42.083  28.193  31.501  1.00  0.00    -0.248 NA
ATOM     62  C   UNL A   1      43.501  26.786  30.296  1.00  0.00     0.031 C 
ATOM     63  C   UNL A   1      42.592  29.190  35.795  1.00  0.00     0.029 A 
ATOM     64  C   UNL A   1      42.466  28.869  34.454  1.00  0.00     0.049 A 
ATOM     65  H   UNL A   1      41.054  29.568  33.047  1.00  0.00     0.167 HD
ATOM     66  C   UNL A   1      43.071  27.709  32.349  1.00  0.00     0.074 A 
ATOM     67  C   UNL A   1      43.896  26.818  31.562  1.00  0.00     0.031 C 
ATOM     68  C   UNL A   1      43.275  27.975  33.664  1.00  0.00     0.037 A 
BRANCH  55  69
ATOM     69  C   UNL A   1      39.264  32.031  36.041  1.00  0.00     0.064 A 
ATOM     70  C   UNL A   1      38.317  31.539  36.952  1.00  0.00     0.173 A 
ATOM     71  C   UNL A   1      39.821  33.295  36.295  1.00  0.00     0.173 A 
ATOM     72  F   UNL A   1      37.744  30.343  36.751  1.00  0.00    -0.203 F 
ATOM     73  C   UNL A   1      37.921  32.294  38.053  1.00  0.00     0.198 A 
ATOM     74  C   UNL A   1      39.449  34.031  37.416  1.00  0.00     0.198 A 
ATOM     75  F   UNL A   1      40.735  33.811  35.459  1.00  0.00    -0.203 F 
ATOM     76  F   UNL A   1      36.975  31.828  38.880  1.00  0.00    -0.200 F 
ATOM     77  C   UNL A   1      38.493  33.536  38.289  1.00  0.00     0.200 A 
ATOM     78  F   UNL A   1      40.016  35.223  37.650  1.00  0.00    -0.200 F 
ATOM     79  F   UNL A   1      38.119  34.258  39.354  1.00  0.00    -0.200 F 
ENDBRANCH  55  69
BRANCH  56  80
ATOM     80  C   UNL A   1      41.973  27.064  27.816  1.00  0.00     0.064 A 
ATOM     81  C   UNL A   1      41.497  25.778  27.523  1.00  0.00     0.173 A 
ATOM     82  C   UNL A   1      42.902  27.630  26.931  1.00  0.00     0.173 A 
ATOM     83  F   UNL A   1      40.629  25.180  28.354  1.00  0.00    -0.203 F 
ATOM     84  C   UNL A   1      41.951  25.079  26.407  1.00  0.00     0.198 A 
ATOM     85  C   UNL A   1      43.330  26.943  25.798  1.00  0.00     0.198 A 
ATOM     86  F   UNL A   1      43.397  28.855  27.167  1.00  0.00    -0.203 F 
ATOM     87  F   UNL A   1      41.524  23.827  26.185  1.00  0.00    -0.200 F 
ATOM     88  C   UNL A   1      42.862  25.663  25.541  1.00  0.00     0.200 A 
ATOM     89  F   UNL A   1      44.203  27.517  24.958  1.00  0.00    -0.200 F 
ATOM     90  F   UNL A   1      43.300  24.990  24.469  1.00  0.00    -0.200 F 
ENDBRANCH  56  80
BRANCH  68  91
ATOM     91  C   UNL A   1      44.403  27.258  34.355  1.00  0.00     0.064 A 
ATOM     92  C   UNL A   1      44.244  25.978  34.905  1.00  0.00     0.173 A 
ATOM     93  C   UNL A   1      45.676  27.846  34.427  1.00  0.00     0.173 A 
ATOM     94  F   UNL A   1      43.046  25.373  34.875  1.00  0.00    -0.203 F 
ATOM     95  C   UNL A   1      45.306  25.327  35.528  1.00  0.00     0.198 A 
ATOM     96  C   UNL A   1      46.745  27.178  35.016  1.00  0.00     0.198 A 
ATOM     97  F   UNL A   1      45.889  29.065  33.908  1.00  0.00    -0.203 F 
ATOM     98  F   UNL A   1      45.116  24.128  36.096  1.00  0.00    -0.200 F 
ATOM     99  C   UNL A   1      46.558  25.924  35.576  1.00  0.00     0.200 A 
ATOM    100  F   UNL A   1      47.958  27.748  35.043  1.00  0.00    -0.200 F 
ATOM    101  F   UNL A   1      47.582  25.292  36.166  1.00  0.00    -0.200 F 
ENDBRANCH  68  91
ENDBRANCH  42  43
ENDBRANCH  35  37
ENDBRANCH  34  35
ENDBRANCH  33  34
ENDBRANCH  32  33
ENDBRANCH  31  32
ENDBRANCH  30  31
ENDBRANCH   1  30
TORSDOF 22
ENDMDL
MODEL 2
REMARK VINA RESULT:     -11.1      1.371      2.045
REMARK SMILES NS(=O)(=O)c1ccc(/N=N/c2ccc(O)c(C(=O)OCCOCCOCCOC(=O)c3ccc(-c4c5nc(c(-c6c(F)c(F)c(F)c(F)c6F)c6ccc([nH]6)c(-c6c(F)c(F)c(F)c(F)c6F)c6nc(c(-c7c(F)c(F)c(F)c(F)c7F)c7ccc4[nH]7)C=C6)C=C5)cc3)c2)cc1
REMARK SMILES IDX 23 1 22 2 21 3 20 4 19 5 17 6 18 7 16 8 11 9 12 10 94 11
REMARK SMILES IDX 13 12 14 13 10 14 9 15 8 16 5 17 6 18 96 19 7 20 95 21 2 22
REMARK SMILES IDX 3 23 4 24 1 25 15 28 24 30 25 31 26 32 27 33 28 34 29 35
REMARK SMILES IDX 30 36 31 37 32 38 93 39 33 40 92 41 34 42 35 43 36 44 86 45
REMARK SMILES IDX 37 46 91 47 85 48 87 49 38 50 90 51 84 52 83 53 39 55 71 56
REMARK SMILES IDX 51 57 70 58 52 59 55 60 69 61 88 62 53 63 54 64 68 66 89 67
REMARK SMILES IDX 56 68 40 69 41 70 49 71 42 72 43 73 47 74 50 75 44 76 45 77
REMARK SMILES IDX 48 78 46 79 72 80 73 81 81 82 74 83 75 84 79 85 82 86 76 87
REMARK SMILES IDX 77 88 80 89 78 90 57 91 58 92 66 93 59 94 60 95 64 96 67 97
REMARK SMILES IDX 61 98 62 99 65 100 63 101
REMARK H PARENT 1 26 1 27 15 29 87 54 55 65
REMARK Flexibility Score: inf
ROOT
ATOM      1  C   UNL A   1      33.681  28.391  26.361  1.00  0.00     0.188 C 
ENDROOT
BRANCH   1   2
ATOM      2  O   UNL A   1      33.245  27.994  25.074  1.00  0.00    -0.376 OA
BRANCH   2   3
ATOM      3  C   UNL A   1      33.919  28.444  23.910  1.00  0.00     0.202 C 
BRANCH   3   4
ATOM      4  C   UNL A   1      33.517  28.003  22.490  1.00  0.00     0.261 C 
BRANCH   4   5
ATOM      5  O   UNL A   1      33.806  26.645  22.136  1.00  0.00    -0.460 OA
BRANCH   5   6
ATOM      6  C   UNL A   1      32.732  25.829  22.007  1.00  0.00     0.342 C 
ATOM      7  O   UNL A   1      31.779  25.978  21.256  1.00  0.00    -0.246 OA
BRANCH   6   8
ATOM      8  C   UNL A   1      32.974  24.551  22.703  1.00  0.00     0.104 A 
ATOM      9  C   UNL A   1      34.485  22.819  23.492  1.00  0.00     0.087 A 
ATOM     10  C   UNL A   1      33.379  22.050  23.877  1.00  0.00     0.034 A 
ATOM     11  C   UNL A   1      34.271  24.066  22.884  1.00  0.00     0.049 A 
ATOM     12  C   UNL A   1      32.079  22.523  23.682  1.00  0.00     0.049 A 
ATOM     13  C   UNL A   1      31.879  23.775  23.107  1.00  0.00     0.130 A 
BRANCH   9  14
ATOM     14  N   UNL A   1      35.785  22.307  23.666  1.00  0.00    -0.151 NA
ATOM     15  N   UNL A   1      35.825  21.605  24.697  1.00  0.00    -0.151 NA
BRANCH  15  16
ATOM     16  C   UNL A   1      37.122  21.186  25.046  1.00  0.00     0.086 A 
ATOM     17  C   UNL A   1      39.702  20.501  25.904  1.00  0.00     0.082 A 
ATOM     18  C   UNL A   1      39.245  21.808  26.072  1.00  0.00     0.024 A 
ATOM     19  C   UNL A   1      38.897  19.537  25.291  1.00  0.00     0.024 A 
ATOM     20  C   UNL A   1      37.958  22.139  25.645  1.00  0.00     0.031 A 
ATOM     21  C   UNL A   1      37.609  19.881  24.871  1.00  0.00     0.031 A 
BRANCH  17  22
ATOM     22  S   UNL A   1      41.316  20.055  26.471  1.00  0.00     0.238 S 
ATOM     23  O   UNL A   1      42.140  21.242  26.551  1.00  0.00    -0.207 OA
ATOM     24  O   UNL A   1      41.740  18.859  25.788  1.00  0.00    -0.207 OA
BRANCH  22  25
ATOM     25  N   UNL A   1      41.011  19.614  28.062  1.00  0.00    -0.225 NA
ATOM     26  H   UNL A   1      40.217  20.149  28.417  1.00  0.00     0.137 HD
ATOM     27  H   UNL A   1      41.833  19.809  28.633  1.00  0.00     0.137 HD
ENDBRANCH  22  25
ENDBRANCH  17  22
ENDBRANCH  15  16
ENDBRANCH   9  14
BRANCH  13  28
ATOM     28  O   UNL A   1      30.579  24.159  22.916  1.00  0.00    -0.507 OA
ATOM     29  H   UNL A   1      30.239  24.905  23.370  1.00  0.00     0.293 HD
ENDBRANCH  13  28
ENDBRANCH   6   8
ENDBRANCH   5   6
ENDBRANCH   4   5
ENDBRANCH   3   4
ENDBRANCH   2   3
ENDBRANCH   1   2
BRANCH   1  30
ATOM     30  C   UNL A   1      32.818  29.331  27.227  1.00  0.00     0.188 C 
BRANCH  30  31
ATOM     31  O   UNL A   1      32.668  30.645  26.753  1.00  0.00    -0.376 OA
BRANCH  31  32
ATOM     32  C   UNL A   1      33.196  31.732  27.495  1.00  0.00     0.202 C 
BRANCH  32  33
ATOM     33  C   UNL A   1      32.951  33.232  27.217  1.00  0.00     0.261 C 
BRANCH  33  34
ATOM     34  O   UNL A   1      32.254  34.014  28.191  1.00  0.00    -0.460 OA
BRANCH  34  35
ATOM     35  C   UNL A   1      32.947  35.043  28.737  1.00  0.00     0.338 C 
ATOM     36  O   UNL A   1      32.631  36.220  28.758  1.00  0.00    -0.246 OA
BRANCH  35  37
ATOM     37  C   UNL A   1      34.101  34.500  29.479  1.00  0.00     0.060 A 
ATOM     38  C   UNL A   1      35.378  34.594  28.910  1.00  0.00     0.016 A 
ATOM     39  C   UNL A   1      33.918  33.868  30.709  1.00  0.00     0.016 A 
ATOM     40  C   UNL A   1      36.479  34.035  29.563  1.00  0.00     0.010 A 
ATOM     41  C   UNL A   1      35.017  33.290  31.351  1.00  0.00     0.010 A 
ATOM     42  C   UNL A   1      36.297  33.343  30.767  1.00  0.00    -0.014 A 
BRANCH  42  43
ATOM     43  C   UNL A   1      37.404  32.527  31.329  1.00  0.00     0.031 A 
ATOM     44  C   UNL A   1      37.930  32.875  32.695  1.00  0.00     0.074 A 
ATOM     45  C   UNL A   1      37.931  31.495  30.649  1.00  0.00     0.049 A 
ATOM     46  N   UNL A   1      38.935  32.361  33.358  1.00  0.00    -0.248 NA
ATOM     47  C   UNL A   1      37.228  33.953  33.408  1.00  0.00     0.031 C 
ATOM     48  C   UNL A   1      37.481  31.026  29.342  1.00  0.00     0.029 A 
ATOM     49  N   UNL A   1      38.975  30.660  30.966  1.00  0.00    -0.354 N 
ATOM     50  C   UNL A   1      38.992  33.060  34.558  1.00  0.00     0.074 A 
ATOM     51  C   UNL A   1      37.942  34.056  34.518  1.00  0.00     0.031 C 
ATOM     52  C   UNL A   1      38.256  29.997  28.958  1.00  0.00     0.029 A 
ATOM     53  C   UNL A   1      39.280  29.760  29.976  1.00  0.00     0.049 A 
ATOM     54  H   UNL A   1      39.460  30.705  31.823  1.00  0.00     0.167 HD
ATOM     55  C   UNL A   1      39.837  32.882  35.601  1.00  0.00     0.037 A 
ATOM     56  C   UNL A   1      40.286  28.867  29.891  1.00  0.00     0.037 A 
ATOM     57  C   UNL A   1      40.881  31.893  35.637  1.00  0.00     0.049 A 
ATOM     58  C   UNL A   1      41.269  28.746  31.031  1.00  0.00     0.074 A 
ATOM     59  C   UNL A   1      41.778  31.623  36.657  1.00  0.00     0.029 A 
ATOM     60  N   UNL A   1      41.179  31.020  34.602  1.00  0.00    -0.354 N 
ATOM     61  N   UNL A   1      41.302  29.390  32.173  1.00  0.00    -0.248 NA
ATOM     62  C   UNL A   1      42.354  27.767  30.869  1.00  0.00     0.031 C 
ATOM     63  C   UNL A   1      42.660  30.633  36.212  1.00  0.00     0.029 A 
ATOM     64  C   UNL A   1      42.267  30.232  34.945  1.00  0.00     0.049 A 
ATOM     65  H   UNL A   1      40.690  30.967  33.748  1.00  0.00     0.167 HD
ATOM     66  C   UNL A   1      42.382  28.871  32.877  1.00  0.00     0.074 A 
ATOM     67  C   UNL A   1      42.972  27.849  32.039  1.00  0.00     0.031 C 
ATOM     68  C   UNL A   1      42.841  29.208  34.108  1.00  0.00     0.037 A 
BRANCH  55  69
ATOM     69  C   UNL A   1      39.687  33.802  36.780  1.00  0.00     0.064 A 
ATOM     70  C   UNL A   1      40.294  35.067  36.816  1.00  0.00     0.173 A 
ATOM     71  C   UNL A   1      38.897  33.424  37.877  1.00  0.00     0.173 A 
ATOM     72  F   UNL A   1      41.070  35.473  35.799  1.00  0.00    -0.203 F 
ATOM     73  C   UNL A   1      40.142  35.904  37.918  1.00  0.00     0.198 A 
ATOM     74  C   UNL A   1      38.718  34.278  38.961  1.00  0.00     0.198 A 
ATOM     75  F   UNL A   1      38.289  32.228  37.893  1.00  0.00    -0.203 F 
ATOM     76  F   UNL A   1      40.776  37.084  37.954  1.00  0.00    -0.200 F 
ATOM     77  C   UNL A   1      39.348  35.513  38.986  1.00  0.00     0.200 A 
ATOM     78  F   UNL A   1      37.937  33.905  39.985  1.00  0.00    -0.200 F 
ATOM     79  F   UNL A   1      39.194  36.323  40.042  1.00  0.00    -0.200 F 
ENDBRANCH  55  69
BRANCH  56  80
ATOM     80  C   UNL A   1      40.433  28.020  28.675  1.00  0.00     0.064 A 
ATOM     81  C   UNL A   1      39.813  26.766  28.587  1.00  0.00     0.173 A 
ATOM     82  C   UNL A   1      41.224  28.432  27.593  1.00  0.00     0.173 A 
ATOM     83  F   UNL A   1      39.070  26.313  29.609  1.00  0.00    -0.203 F 
ATOM     84  C   UNL A   1      39.997  25.948  27.474  1.00  0.00     0.198 A 
ATOM     85  C   UNL A   1      41.380  27.627  26.467  1.00  0.00     0.198 A 
ATOM     86  F   UNL A   1      41.847  29.619  27.628  1.00  0.00    -0.203 F 
ATOM     87  F   UNL A   1      39.441  24.729  27.444  1.00  0.00    -0.200 F 
ATOM     88  C   UNL A   1      40.775  26.381  26.412  1.00  0.00     0.200 A 
ATOM     89  F   UNL A   1      42.125  28.055  25.438  1.00  0.00    -0.200 F 
ATOM     90  F   UNL A   1      40.953  25.594  25.343  1.00  0.00    -0.200 F 
ENDBRANCH  56  80
BRANCH  68  91
ATOM     91  C   UNL A   1      44.009  28.433  34.654  1.00  0.00     0.064 A 
ATOM     92  C   UNL A   1      43.841  27.235  35.363  1.00  0.00     0.173 A 
ATOM     93  C   UNL A   1      45.322  28.876  34.423  1.00  0.00     0.173 A 
ATOM     94  F   UNL A   1      42.609  26.771  35.623  1.00  0.00    -0.203 F 
ATOM     95  C   UNL A   1      44.938  26.526  35.847  1.00  0.00     0.198 A 
ATOM     96  C   UNL A   1      46.418  28.146  34.875  1.00  0.00     0.198 A 
ATOM     97  F   UNL A   1      45.544  30.009  33.742  1.00  0.00    -0.203 F 
ATOM     98  F   UNL A   1      44.751  25.413  36.570  1.00  0.00    -0.200 F 
ATOM     99  C   UNL A   1      46.226  26.977  35.595  1.00  0.00     0.200 A 
ATOM    100  F   UNL A   1      47.661  28.574  34.613  1.00  0.00    -0.200 F 
ATOM    101  F   UNL A   1      47.281  26.289  36.052  1.00  0.00    -0.200 F 
ENDBRANCH  68  91
ENDBRANCH  42  43
ENDBRANCH  35  37
ENDBRANCH  34  35
ENDBRANCH  33  34
ENDBRANCH  32  33
ENDBRANCH  31  32
ENDBRANCH  30  31
ENDBRANCH   1  30
TORSDOF 22
ENDMDL
MODEL 3
REMARK VINA RESULT:     -11.0      1.546      7.238
REMARK SMILES NS(=O)(=O)c1ccc(/N=N/c2ccc(O)c(C(=O)OCCOCCOCCOC(=O)c3ccc(-c4c5nc(c(-c6c(F)c(F)c(F)c(F)c6F)c6ccc([nH]6)c(-c6c(F)c(F)c(F)c(F)c6F)c6nc(c(-c7c(F)c(F)c(F)c(F)c7F)c7ccc4[nH]7)C=C6)C=C5)cc3)c2)cc1
REMARK SMILES IDX 23 1 22 2 21 3 20 4 19 5 17 6 18 7 16 8 11 9 12 10 94 11
REMARK SMILES IDX 13 12 14 13 10 14 9 15 8 16 5 17 6 18 96 19 7 20 95 21 2 22
REMARK SMILES IDX 3 23 4 24 1 25 15 28 24 30 25 31 26 32 27 33 28 34 29 35
REMARK SMILES IDX 30 36 31 37 32 38 93 39 33 40 92 41 34 42 35 43 36 44 86 45
REMARK SMILES IDX 37 46 91 47 85 48 87 49 38 50 90 51 84 52 83 53 39 55 71 56
REMARK SMILES IDX 51 57 70 58 52 59 55 60 69 61 88 62 53 63 54 64 68 66 89 67
REMARK SMILES IDX 56 68 40 69 41 70 49 71 42 72 43 73 47 74 50 75 44 76 45 77
REMARK SMILES IDX 48 78 46 79 72 80 73 81 81 82 74 83 75 84 79 85 82 86 76 87
REMARK SMILES IDX 77 88 80 89 78 90 57 91 58 92 66 93 59 94 60 95 64 96 67 97
REMARK SMILES IDX 61 98 62 99 65 100 63 101
REMARK H PARENT 1 26 1 27 15 29 87 54 55 65
REMARK Flexibility Score: inf
ROOT
ATOM      1  C   UNL A   1      34.303  28.531  26.003  1.00  0.00     0.188 C 
ENDROOT
BRANCH   1   2
ATOM      2  O   UNL A   1      33.548  28.365  24.817  1.00  0.00    -0.376 OA
BRANCH   2   3
ATOM      3  C   UNL A   1      34.176  28.408  23.546  1.00  0.00     0.202 C 
BRANCH   3   4
ATOM      4  C   UNL A   1      33.505  27.882  22.264  1.00  0.00     0.261 C 
BRANCH   4   5
ATOM      5  O   UNL A   1      33.812  26.534  21.886  1.00  0.00    -0.460 OA
BRANCH   5   6
ATOM      6  C   UNL A   1      32.755  25.692  21.795  1.00  0.00     0.342 C 
ATOM      7  O   UNL A   1      31.812  25.774  21.021  1.00  0.00    -0.246 OA
BRANCH   6   8
ATOM      8  C   UNL A   1      33.007  24.466  22.576  1.00  0.00     0.104 A 
ATOM      9  C   UNL A   1      34.530  22.794  23.465  1.00  0.00     0.087 A 
ATOM     10  C   UNL A   1      33.430  22.055  23.919  1.00  0.00     0.034 A 
ATOM     11  C   UNL A   1      34.307  23.995  22.774  1.00  0.00     0.049 A 
ATOM     12  C   UNL A   1      32.127  22.513  23.708  1.00  0.00     0.049 A 
ATOM     13  C   UNL A   1      31.919  23.721  23.048  1.00  0.00     0.130 A 
BRANCH   9  14
ATOM     14  N   UNL A   1      35.833  22.297  23.658  1.00  0.00    -0.151 NA
ATOM     15  N   UNL A   1      35.880  21.644  24.722  1.00  0.00    -0.151 NA
BRANCH  15  16
ATOM     16  C   UNL A   1      37.180  21.247  25.084  1.00  0.00     0.086 A 
ATOM     17  C   UNL A   1      39.760  20.602  25.973  1.00  0.00     0.082 A 
ATOM     18  C   UNL A   1      39.272  21.897  26.153  1.00  0.00     0.024 A 
ATOM     19  C   UNL A   1      38.985  19.631  25.332  1.00  0.00     0.024 A 
ATOM     20  C   UNL A   1      37.986  22.208  25.711  1.00  0.00     0.031 A 
ATOM     21  C   UNL A   1      37.697  19.955  24.897  1.00  0.00     0.031 A 
BRANCH  17  22
ATOM     22  S   UNL A   1      41.374  20.182  26.558  1.00  0.00     0.238 S 
ATOM     23  O   UNL A   1      42.134  21.394  26.780  1.00  0.00    -0.207 OA
ATOM     24  O   UNL A   1      41.881  19.077  25.784  1.00  0.00    -0.207 OA
BRANCH  22  25
ATOM     25  N   UNL A   1      41.037  19.579  28.088  1.00  0.00    -0.225 NA
ATOM     26  H   UNL A   1      40.035  19.653  28.270  1.00  0.00     0.137 HD
ATOM     27  H   UNL A   1      41.550  20.117  28.787  1.00  0.00     0.137 HD
ENDBRANCH  22  25
ENDBRANCH  17  22
ENDBRANCH  15  16
ENDBRANCH   9  14
BRANCH  13  28
ATOM     28  O   UNL A   1      30.615  24.091  22.848  1.00  0.00    -0.507 OA
ATOM     29  H   UNL A   1      30.013  24.094  23.565  1.00  0.00     0.293 HD
ENDBRANCH  13  28
ENDBRANCH   6   8
ENDBRANCH   5   6
ENDBRANCH   4   5
ENDBRANCH   3   4
ENDBRANCH   2   3
ENDBRANCH   1   2
BRANCH   1  30
ATOM     30  C   UNL A   1      33.611  28.917  27.326  1.00  0.00     0.188 C 
BRANCH  30  31
ATOM     31  O   UNL A   1      32.877  30.114  27.314  1.00  0.00    -0.376 OA
BRANCH  31  32
ATOM     32  C   UNL A   1      33.522  31.344  27.601  1.00  0.00     0.202 C 
BRANCH  32  33
ATOM     33  C   UNL A   1      32.954  32.757  27.339  1.00  0.00     0.261 C 
BRANCH  33  34
ATOM     34  O   UNL A   1      32.455  33.520  28.441  1.00  0.00    -0.460 OA
BRANCH  34  35
ATOM     35  C   UNL A   1      33.140  34.651  28.743  1.00  0.00     0.338 C 
ATOM     36  O   UNL A   1      32.795  35.802  28.544  1.00  0.00    -0.246 OA
BRANCH  35  37
ATOM     37  C   UNL A   1      34.336  34.287  29.529  1.00  0.00     0.060 A 
ATOM     38  C   UNL A   1      35.602  34.448  28.951  1.00  0.00     0.016 A 
ATOM     39  C   UNL A   1      34.205  33.755  30.812  1.00  0.00     0.016 A 
ATOM     40  C   UNL A   1      36.746  34.056  29.650  1.00  0.00     0.010 A 
ATOM     41  C   UNL A   1      35.349  33.342  31.501  1.00  0.00     0.010 A 
ATOM     42  C   UNL A   1      36.622  33.462  30.912  1.00  0.00    -0.014 A 
BRANCH  42  43
ATOM     43  C   UNL A   1      37.797  32.808  31.544  1.00  0.00     0.031 A 
ATOM     44  C   UNL A   1      38.413  31.620  30.858  1.00  0.00     0.074 A 
ATOM     45  C   UNL A   1      38.315  33.260  32.699  1.00  0.00     0.049 A 
ATOM     46  N   UNL A   1      39.388  30.841  31.251  1.00  0.00    -0.248 NA
ATOM     47  C   UNL A   1      37.846  31.259  29.549  1.00  0.00     0.031 C 
ATOM     48  C   UNL A   1      37.844  34.427  33.438  1.00  0.00     0.029 A 
ATOM     49  N   UNL A   1      39.351  32.774  33.460  1.00  0.00    -0.354 N 
ATOM     50  C   UNL A   1      39.543  29.894  30.247  1.00  0.00     0.074 A 
ATOM     51  C   UNL A   1      38.540  30.175  29.242  1.00  0.00     0.031 C 
ATOM     52  C   UNL A   1      38.577  34.559  34.558  1.00  0.00     0.029 A 
ATOM     53  C   UNL A   1      39.543  33.463  34.632  1.00  0.00     0.049 A 
ATOM     54  H   UNL A   1      39.902  32.003  33.191  1.00  0.00     0.167 HD
ATOM     55  C   UNL A   1      40.445  28.887  30.165  1.00  0.00     0.037 A 
ATOM     56  C   UNL A   1      40.384  33.219  35.656  1.00  0.00     0.037 A 
ATOM     57  C   UNL A   1      41.440  28.608  31.168  1.00  0.00     0.049 A 
ATOM     58  C   UNL A   1      41.323  32.039  35.582  1.00  0.00     0.074 A 
ATOM     59  C   UNL A   1      42.410  27.621  31.168  1.00  0.00     0.029 A 
ATOM     60  N   UNL A   1      41.583  29.310  32.355  1.00  0.00    -0.354 N 
ATOM     61  N   UNL A   1      41.483  31.163  34.619  1.00  0.00    -0.248 NA
ATOM     62  C   UNL A   1      42.201  31.817  36.740  1.00  0.00     0.031 C 
ATOM     63  C   UNL A   1      43.096  27.683  32.385  1.00  0.00     0.029 A 
ATOM     64  C   UNL A   1      42.605  28.756  33.111  1.00  0.00     0.049 A 
ATOM     65  H   UNL A   1      41.039  30.086  32.623  1.00  0.00     0.167 HD
ATOM     66  C   UNL A   1      42.500  30.314  35.037  1.00  0.00     0.074 A 
ATOM     67  C   UNL A   1      42.930  30.786  36.336  1.00  0.00     0.031 C 
ATOM     68  C   UNL A   1      43.033  29.241  34.400  1.00  0.00     0.037 A 
BRANCH  55  69
ATOM     69  C   UNL A   1      40.375  27.988  28.963  1.00  0.00     0.064 A 
ATOM     70  C   UNL A   1      41.080  28.271  27.783  1.00  0.00     0.173 A 
ATOM     71  C   UNL A   1      39.616  26.808  29.004  1.00  0.00     0.173 A 
ATOM     72  F   UNL A   1      41.811  29.391  27.685  1.00  0.00    -0.203 F 
ATOM     73  C   UNL A   1      41.002  27.424  26.681  1.00  0.00     0.198 A 
ATOM     74  C   UNL A   1      39.569  25.946  27.913  1.00  0.00     0.198 A 
ATOM     75  F   UNL A   1      38.926  26.485  30.110  1.00  0.00    -0.203 F 
ATOM     76  F   UNL A   1      41.639  27.742  25.546  1.00  0.00    -0.200 F 
ATOM     77  C   UNL A   1      40.253  26.258  26.749  1.00  0.00     0.200 A 
ATOM     78  F   UNL A   1      38.858  24.812  27.988  1.00  0.00    -0.200 F 
ATOM     79  F   UNL A   1      40.186  25.439  25.691  1.00  0.00    -0.200 F 
ENDBRANCH  55  69
BRANCH  56  80
ATOM     80  C   UNL A   1      40.374  34.101  36.856  1.00  0.00     0.064 A 
ATOM     81  C   UNL A   1      41.232  35.205  36.951  1.00  0.00     0.173 A 
ATOM     82  C   UNL A   1      39.532  33.836  37.946  1.00  0.00     0.173 A 
ATOM     83  F   UNL A   1      42.080  35.483  35.948  1.00  0.00    -0.203 F 
ATOM     84  C   UNL A   1      41.265  35.996  38.098  1.00  0.00     0.198 A 
ATOM     85  C   UNL A   1      39.541  34.648  39.078  1.00  0.00     0.198 A 
ATOM     86  F   UNL A   1      38.696  32.788  37.912  1.00  0.00    -0.203 F 
ATOM     87  F   UNL A   1      42.139  37.009  38.185  1.00  0.00    -0.200 F 
ATOM     88  C   UNL A   1      40.416  35.721  39.158  1.00  0.00     0.200 A 
ATOM     89  F   UNL A   1      38.710  34.384  40.097  1.00  0.00    -0.200 F 
ATOM     90  F   UNL A   1      40.448  36.481  40.261  1.00  0.00    -0.200 F 
ENDBRANCH  56  80
BRANCH  68  91
ATOM     91  C   UNL A   1      44.178  28.530  35.069  1.00  0.00     0.064 A 
ATOM     92  C   UNL A   1      43.972  27.487  35.984  1.00  0.00     0.173 A 
ATOM     93  C   UNL A   1      45.503  28.871  34.754  1.00  0.00     0.173 A 
ATOM     94  F   UNL A   1      42.728  27.127  36.331  1.00  0.00    -0.203 F 
ATOM     95  C   UNL A   1      45.048  26.833  36.581  1.00  0.00     0.198 A 
ATOM     96  C   UNL A   1      46.576  28.191  35.323  1.00  0.00     0.198 A 
ATOM     97  F   UNL A   1      45.759  29.853  33.878  1.00  0.00    -0.203 F 
ATOM     98  F   UNL A   1      44.828  25.877  37.494  1.00  0.00    -0.200 F 
ATOM     99  C   UNL A   1      46.349  27.180  36.244  1.00  0.00     0.200 A 
ATOM    100  F   UNL A   1      47.831  28.514  34.981  1.00  0.00    -0.200 F 
ATOM    101  F   UNL A   1      47.382  26.543  36.811  1.00  0.00    -0.200 F 
ENDBRANCH  68  91
ENDBRANCH  42  43
ENDBRANCH  35  37
ENDBRANCH  34  35
ENDBRANCH  33  34
ENDBRANCH  32  33
ENDBRANCH  31  32
ENDBRANCH  30  31
ENDBRANCH   1  30
TORSDOF 22
ENDMDL
