MODEL 1
REMARK VINA RESULT:     -11.6      0.000      0.000
REMARK SMILES O=C(OCCOCCOCCOC(=O)c1cc(F)c(F)cc1NS(=O)(=O)c1ccc2c(c1)CCC2)c1ccc(-c2c3nc(c(-c4c(F)c(F)c(F)c(F)c4F)c4ccc([nH]4)c(-c4c(F)c(F)c(F)c(F)c4F)c4nc(c(-c5c(F)c(F)c(F)c(F)c5F)c5ccc2[nH]5)C=C4)C=C3)cc1
REMARK SMILES IDX 8 1 7 2 6 3 5 4 4 5 3 6 2 7 1 8 36 9 37 10 98 11 38 12 97 13
REMARK SMILES IDX 39 14 40 15 41 16 91 17 42 18 96 19 90 20 92 21 43 22 95 23
REMARK SMILES IDX 89 24 88 25 44 27 76 28 56 29 75 30 57 31 60 32 74 33 93 34
REMARK SMILES IDX 58 35 59 36 73 38 94 39 61 40 45 41 46 42 54 43 47 44 48 45
REMARK SMILES IDX 52 46 55 47 49 48 50 49 53 50 51 51 77 52 78 53 86 54 79 55
REMARK SMILES IDX 80 56 84 57 87 58 81 59 82 60 85 61 83 62 62 63 63 64 71 65
REMARK SMILES IDX 64 66 65 67 69 68 72 69 66 70 67 71 70 72 68 73 9 74 10 75
REMARK SMILES IDX 11 76 12 77 13 78 14 79 15 80 16 81 22 82 17 83 21 84 18 85
REMARK SMILES IDX 19 86 20 87 23 88 24 90 25 91 26 92 27 93 28 94 32 95 29 96
REMARK SMILES IDX 31 97 30 98 33 99 35 100 34 101
REMARK H PARENT 92 26 60 37 23 89
REMARK Flexibility Score: inf
ROOT
ATOM      1  C   UNL A   1      35.250  32.343  28.305  1.00  0.00     0.188 C 
ENDROOT
BRANCH   1   2
ATOM      2  C   UNL A   1      33.951  33.141  28.420  1.00  0.00     0.188 C 
BRANCH   2   3
ATOM      3  O   UNL A   1      33.752  33.618  29.758  1.00  0.00    -0.376 OA
BRANCH   3   4
ATOM      4  C   UNL A   1      34.937  33.567  30.558  1.00  0.00     0.202 C 
BRANCH   4   5
ATOM      5  C   UNL A   1      34.690  33.232  32.035  1.00  0.00     0.261 C 
BRANCH   5   6
ATOM      6  O   UNL A   1      35.245  31.961  32.406  1.00  0.00    -0.460 OA
BRANCH   6   7
ATOM      7  C   UNL A   1      36.464  31.706  32.948  1.00  0.00     0.338 C 
ATOM      8  O   UNL A   1      36.641  31.996  34.130  1.00  0.00    -0.246 OA
BRANCH   7   9
ATOM      9  C   UNL A   1      37.583  31.041  32.203  1.00  0.00     0.060 A 
ATOM     10  C   UNL A   1      38.728  30.488  32.780  1.00  0.00     0.016 A 
ATOM     11  C   UNL A   1      37.443  30.925  30.808  1.00  0.00     0.016 A 
ATOM     12  C   UNL A   1      39.763  29.979  32.002  1.00  0.00     0.010 A 
ATOM     13  C   UNL A   1      38.438  30.332  30.024  1.00  0.00     0.010 A 
ATOM     14  C   UNL A   1      39.635  29.912  30.616  1.00  0.00    -0.014 A 
BRANCH  14  15
ATOM     15  C   UNL A   1      40.818  29.564  29.798  1.00  0.00     0.031 A 
ATOM     16  C   UNL A   1      40.878  28.198  29.186  1.00  0.00     0.074 A 
ATOM     17  C   UNL A   1      41.751  30.483  29.492  1.00  0.00     0.049 A 
ATOM     18  N   UNL A   1      41.827  27.652  28.474  1.00  0.00    -0.248 NA
ATOM     19  C   UNL A   1      39.694  27.342  29.373  1.00  0.00     0.031 C 
ATOM     20  C   UNL A   1      41.703  31.887  29.888  1.00  0.00     0.029 A 
ATOM     21  N   UNL A   1      42.906  30.387  28.757  1.00  0.00    -0.354 N 
ATOM     22  C   UNL A   1      41.355  26.393  28.132  1.00  0.00     0.074 A 
ATOM     23  C   UNL A   1      40.055  26.236  28.743  1.00  0.00     0.031 C 
ATOM     24  C   UNL A   1      42.778  32.519  29.394  1.00  0.00     0.029 A 
ATOM     25  C   UNL A   1      43.625  31.555  28.713  1.00  0.00     0.049 A 
ATOM     26  H   UNL A   1      43.192  29.559  28.307  1.00  0.00     0.167 HD
ATOM     27  C   UNL A   1      41.950  25.461  27.356  1.00  0.00     0.037 A 
ATOM     28  C   UNL A   1      44.844  31.821  28.208  1.00  0.00     0.037 A 
ATOM     29  C   UNL A   1      43.238  25.636  26.745  1.00  0.00     0.049 A 
ATOM     30  C   UNL A   1      45.561  30.721  27.486  1.00  0.00     0.074 A 
ATOM     31  C   UNL A   1      43.964  24.737  25.990  1.00  0.00     0.029 A 
ATOM     32  N   UNL A   1      43.989  26.802  26.822  1.00  0.00    -0.354 N 
ATOM     33  N   UNL A   1      45.144  29.506  27.228  1.00  0.00    -0.248 NA
ATOM     34  C   UNL A   1      46.904  31.021  26.976  1.00  0.00     0.031 C 
ATOM     35  C   UNL A   1      45.173  25.346  25.638  1.00  0.00     0.029 A 
ATOM     36  C   UNL A   1      45.182  26.638  26.142  1.00  0.00     0.049 A 
ATOM     37  H   UNL A   1      43.713  27.622  27.290  1.00  0.00     0.167 HD
ATOM     38  C   UNL A   1      46.158  28.899  26.508  1.00  0.00     0.074 A 
ATOM     39  C   UNL A   1      47.212  29.886  26.361  1.00  0.00     0.031 C 
ATOM     40  C   UNL A   1      46.210  27.640  26.012  1.00  0.00     0.037 A 
BRANCH  27  41
ATOM     41  C   UNL A   1      41.219  24.168  27.163  1.00  0.00     0.064 A 
ATOM     42  C   UNL A   1      40.075  24.117  26.356  1.00  0.00     0.173 A 
ATOM     43  C   UNL A   1      41.658  22.979  27.763  1.00  0.00     0.173 A 
ATOM     44  F   UNL A   1      39.624  25.227  25.750  1.00  0.00    -0.203 F 
ATOM     45  C   UNL A   1      39.391  22.921  26.159  1.00  0.00     0.198 A 
ATOM     46  C   UNL A   1      40.985  21.779  27.546  1.00  0.00     0.198 A 
ATOM     47  F   UNL A   1      42.766  22.972  28.518  1.00  0.00    -0.203 F 
ATOM     48  F   UNL A   1      38.293  22.897  25.389  1.00  0.00    -0.200 F 
ATOM     49  C   UNL A   1      39.849  21.752  26.748  1.00  0.00     0.200 A 
ATOM     50  F   UNL A   1      41.448  20.645  28.088  1.00  0.00    -0.200 F 
ATOM     51  F   UNL A   1      39.204  20.598  26.539  1.00  0.00    -0.200 F 
ENDBRANCH  27  41
BRANCH  28  52
ATOM     52  C   UNL A   1      45.453  33.165  28.395  1.00  0.00     0.064 A 
ATOM     53  C   UNL A   1      46.225  33.459  29.532  1.00  0.00     0.173 A 
ATOM     54  C   UNL A   1      45.259  34.191  27.461  1.00  0.00     0.173 A 
ATOM     55  F   UNL A   1      46.454  32.508  30.449  1.00  0.00    -0.203 F 
ATOM     56  C   UNL A   1      46.760  34.730  29.735  1.00  0.00     0.198 A 
ATOM     57  C   UNL A   1      45.815  35.455  27.654  1.00  0.00     0.198 A 
ATOM     58  F   UNL A   1      44.549  33.957  26.348  1.00  0.00    -0.203 F 
ATOM     59  F   UNL A   1      47.474  34.987  30.840  1.00  0.00    -0.200 F 
ATOM     60  C   UNL A   1      46.557  35.727  28.794  1.00  0.00     0.200 A 
ATOM     61  F   UNL A   1      45.641  36.410  26.728  1.00  0.00    -0.200 F 
ATOM     62  F   UNL A   1      47.086  36.944  28.978  1.00  0.00    -0.200 F 
ENDBRANCH  28  52
BRANCH  40  63
ATOM     63  C   UNL A   1      47.441  27.258  25.251  1.00  0.00     0.064 A 
ATOM     64  C   UNL A   1      48.504  26.617  25.902  1.00  0.00     0.173 A 
ATOM     65  C   UNL A   1      47.597  27.604  23.903  1.00  0.00     0.173 A 
ATOM     66  F   UNL A   1      48.398  26.273  27.194  1.00  0.00    -0.203 F 
ATOM     67  C   UNL A   1      49.693  26.354  25.231  1.00  0.00     0.198 A 
ATOM     68  C   UNL A   1      48.778  27.316  23.228  1.00  0.00     0.198 A 
ATOM     69  F   UNL A   1      46.597  28.204  23.239  1.00  0.00    -0.203 F 
ATOM     70  F   UNL A   1      50.712  25.773  25.880  1.00  0.00    -0.200 F 
ATOM     71  C   UNL A   1      49.829  26.702  23.896  1.00  0.00     0.200 A 
ATOM     72  F   UNL A   1      48.900  27.632  21.932  1.00  0.00    -0.200 F 
ATOM     73  F   UNL A   1      50.973  26.444  23.249  1.00  0.00    -0.200 F 
ENDBRANCH  40  63
ENDBRANCH  14  15
ENDBRANCH   7   9
ENDBRANCH   6   7
ENDBRANCH   5   6
ENDBRANCH   4   5
ENDBRANCH   3   4
ENDBRANCH   2   3
ENDBRANCH   1   2
BRANCH   1  74
ATOM     74  O   UNL A   1      35.140  31.093  27.625  1.00  0.00    -0.376 OA
BRANCH  74  75
ATOM     75  C   UNL A   1      33.844  30.701  27.187  1.00  0.00     0.202 C 
BRANCH  75  76
ATOM     76  C   UNL A   1      33.781  29.495  26.244  1.00  0.00     0.261 C 
BRANCH  76  77
ATOM     77  O   UNL A   1      32.918  29.630  25.100  1.00  0.00    -0.460 OA
BRANCH  77  78
ATOM     78  C   UNL A   1      31.713  29.013  25.197  1.00  0.00     0.340 C 
ATOM     79  O   UNL A   1      31.366  28.143  25.973  1.00  0.00    -0.246 OA
BRANCH  78  80
ATOM     80  C   UNL A   1      30.866  29.462  24.088  1.00  0.00     0.087 A 
ATOM     81  C   UNL A   1      29.921  30.447  24.418  1.00  0.00     0.060 A 
ATOM     82  C   UNL A   1      31.037  29.015  22.763  1.00  0.00     0.066 A 
ATOM     83  C   UNL A   1      29.143  30.997  23.417  1.00  0.00     0.159 A 
ATOM     84  C   UNL A   1      30.122  29.481  21.816  1.00  0.00     0.070 A 
ATOM     85  F   UNL A   1      28.278  31.977  23.709  1.00  0.00    -0.204 F 
ATOM     86  C   UNL A   1      29.230  30.503  22.127  1.00  0.00     0.160 A 
ATOM     87  F   UNL A   1      28.447  31.003  21.162  1.00  0.00    -0.204 F 
BRANCH  82  88
ATOM     88  N   UNL A   1      32.235  28.328  22.376  1.00  0.00    -0.279 N 
ATOM     89  H   UNL A   1      33.044  28.880  22.282  1.00  0.00     0.180 HD
BRANCH  88  90
ATOM     90  S   UNL A   1      32.413  26.687  22.065  1.00  0.00     0.261 S 
ATOM     91  O   UNL A   1      31.149  26.237  21.524  1.00  0.00    -0.201 OA
ATOM     92  O   UNL A   1      33.648  26.543  21.331  1.00  0.00    -0.201 OA
BRANCH  90  93
ATOM     93  C   UNL A   1      32.623  25.887  23.645  1.00  0.00     0.088 A 
ATOM     94  C   UNL A   1      31.526  25.170  24.173  1.00  0.00     0.022 A 
ATOM     95  C   UNL A   1      33.908  25.752  24.184  1.00  0.00     0.026 A 
ATOM     96  C   UNL A   1      31.721  24.231  25.188  1.00  0.00     0.005 A 
ATOM     97  C   UNL A   1      34.089  24.779  25.154  1.00  0.00    -0.043 A 
ATOM     98  C   UNL A   1      33.014  24.013  25.631  1.00  0.00    -0.045 A 
ATOM     99  C   UNL A   1      35.372  24.326  25.780  1.00  0.00     0.036 C 
ATOM    100  C   UNL A   1      33.488  22.972  26.599  1.00  0.00     0.036 C 
ATOM    101  C   UNL A   1      34.984  22.917  26.254  1.00  0.00     0.010 C 
ENDBRANCH  90  93
ENDBRANCH  88  90
ENDBRANCH  82  88
ENDBRANCH  78  80
ENDBRANCH  77  78
ENDBRANCH  76  77
ENDBRANCH  75  76
ENDBRANCH  74  75
ENDBRANCH   1  74
TORSDOF 20
ENDMDL
MODEL 2
REMARK VINA RESULT:     -11.5      1.905      3.044
REMARK SMILES O=C(OCCOCCOCCOC(=O)c1cc(F)c(F)cc1NS(=O)(=O)c1ccc2c(c1)CCC2)c1ccc(-c2c3nc(c(-c4c(F)c(F)c(F)c(F)c4F)c4ccc([nH]4)c(-c4c(F)c(F)c(F)c(F)c4F)c4nc(c(-c5c(F)c(F)c(F)c(F)c5F)c5ccc2[nH]5)C=C4)C=C3)cc1
REMARK SMILES IDX 8 1 7 2 6 3 5 4 4 5 3 6 2 7 1 8 36 9 37 10 98 11 38 12 97 13
REMARK SMILES IDX 39 14 40 15 41 16 91 17 42 18 96 19 90 20 92 21 43 22 95 23
REMARK SMILES IDX 89 24 88 25 44 27 76 28 56 29 75 30 57 31 60 32 74 33 93 34
REMARK SMILES IDX 58 35 59 36 73 38 94 39 61 40 45 41 46 42 54 43 47 44 48 45
REMARK SMILES IDX 52 46 55 47 49 48 50 49 53 50 51 51 77 52 78 53 86 54 79 55
REMARK SMILES IDX 80 56 84 57 87 58 81 59 82 60 85 61 83 62 62 63 63 64 71 65
REMARK SMILES IDX 64 66 65 67 69 68 72 69 66 70 67 71 70 72 68 73 9 74 10 75
REMARK SMILES IDX 11 76 12 77 13 78 14 79 15 80 16 81 22 82 17 83 21 84 18 85
REMARK SMILES IDX 19 86 20 87 23 88 24 90 25 91 26 92 27 93 28 94 32 95 29 96
REMARK SMILES IDX 31 97 30 98 33 99 35 100 34 101
REMARK H PARENT 92 26 60 37 23 89
REMARK Flexibility Score: inf
ROOT
ATOM      1  C   UNL A   1      35.526  33.293  28.673  1.00  0.00     0.188 C 
ENDROOT
BRANCH   1   2
ATOM      2  C   UNL A   1      34.413  34.301  28.960  1.00  0.00     0.188 C 
BRANCH   2   3
ATOM      3  O   UNL A   1      33.880  34.125  30.280  1.00  0.00    -0.376 OA
BRANCH   3   4
ATOM      4  C   UNL A   1      34.889  34.077  31.293  1.00  0.00     0.202 C 
BRANCH   4   5
ATOM      5  C   UNL A   1      34.477  33.317  32.560  1.00  0.00     0.261 C 
BRANCH   5   6
ATOM      6  O   UNL A   1      35.207  32.090  32.723  1.00  0.00    -0.460 OA
BRANCH   6   7
ATOM      7  C   UNL A   1      36.464  31.924  33.209  1.00  0.00     0.338 C 
ATOM      8  O   UNL A   1      36.685  32.272  34.368  1.00  0.00    -0.246 OA
BRANCH   7   9
ATOM      9  C   UNL A   1      37.578  31.287  32.432  1.00  0.00     0.060 A 
ATOM     10  C   UNL A   1      38.696  30.657  32.983  1.00  0.00     0.016 A 
ATOM     11  C   UNL A   1      37.462  31.286  31.030  1.00  0.00     0.016 A 
ATOM     12  C   UNL A   1      39.731  30.181  32.184  1.00  0.00     0.010 A 
ATOM     13  C   UNL A   1      38.455  30.728  30.218  1.00  0.00     0.010 A 
ATOM     14  C   UNL A   1      39.628  30.228  30.795  1.00  0.00    -0.014 A 
BRANCH  14  15
ATOM     15  C   UNL A   1      40.816  29.911  29.973  1.00  0.00     0.031 A 
ATOM     16  C   UNL A   1      40.908  28.549  29.356  1.00  0.00     0.074 A 
ATOM     17  C   UNL A   1      41.726  30.853  29.666  1.00  0.00     0.049 A 
ATOM     18  N   UNL A   1      41.867  28.028  28.639  1.00  0.00    -0.248 NA
ATOM     19  C   UNL A   1      39.746  27.664  29.544  1.00  0.00     0.031 C 
ATOM     20  C   UNL A   1      41.645  32.255  30.066  1.00  0.00     0.029 A 
ATOM     21  N   UNL A   1      42.881  30.787  28.927  1.00  0.00    -0.354 N 
ATOM     22  C   UNL A   1      41.425  26.759  28.295  1.00  0.00     0.074 A 
ATOM     23  C   UNL A   1      40.132  26.568  28.910  1.00  0.00     0.031 C 
ATOM     24  C   UNL A   1      42.702  32.914  29.571  1.00  0.00     0.029 A 
ATOM     25  C   UNL A   1      43.571  31.973  28.884  1.00  0.00     0.049 A 
ATOM     26  H   UNL A   1      43.185  29.968  28.473  1.00  0.00     0.167 HD
ATOM     27  C   UNL A   1      42.040  25.844  27.514  1.00  0.00     0.037 A 
ATOM     28  C   UNL A   1      44.781  32.270  28.376  1.00  0.00     0.037 A 
ATOM     29  C   UNL A   1      43.322  26.053  26.900  1.00  0.00     0.049 A 
ATOM     30  C   UNL A   1      45.522  31.191  27.648  1.00  0.00     0.074 A 
ATOM     31  C   UNL A   1      44.067  25.174  26.139  1.00  0.00     0.029 A 
ATOM     32  N   UNL A   1      44.044  27.236  26.977  1.00  0.00    -0.354 N 
ATOM     33  N   UNL A   1      45.134  29.966  27.388  1.00  0.00    -0.248 NA
ATOM     34  C   UNL A   1      46.856  31.524  27.135  1.00  0.00     0.031 C 
ATOM     35  C   UNL A   1      45.260  25.813  25.785  1.00  0.00     0.029 A 
ATOM     36  C   UNL A   1      45.239  27.103  26.293  1.00  0.00     0.049 A 
ATOM     37  H   UNL A   1      43.750  28.048  27.449  1.00  0.00     0.167 HD
ATOM     38  C   UNL A   1      46.161  29.387  26.663  1.00  0.00     0.074 A 
ATOM     39  C   UNL A   1      47.189  30.399  26.515  1.00  0.00     0.031 C 
ATOM     40  C   UNL A   1      46.241  28.130  26.163  1.00  0.00     0.037 A 
BRANCH  27  41
ATOM     41  C   UNL A   1      41.341  24.535  27.320  1.00  0.00     0.064 A 
ATOM     42  C   UNL A   1      41.823  23.377  27.944  1.00  0.00     0.173 A 
ATOM     43  C   UNL A   1      40.186  24.427  26.530  1.00  0.00     0.173 A 
ATOM     44  F   UNL A   1      42.917  23.432  28.719  1.00  0.00    -0.203 F 
ATOM     45  C   UNL A   1      41.178  22.154  27.781  1.00  0.00     0.198 A 
ATOM     46  C   UNL A   1      39.530  23.208  26.388  1.00  0.00     0.198 A 
ATOM     47  F   UNL A   1      39.669  25.514  25.938  1.00  0.00    -0.203 F 
ATOM     48  F   UNL A   1      41.662  21.057  28.381  1.00  0.00    -0.200 F 
ATOM     49  C   UNL A   1      40.029  22.071  27.009  1.00  0.00     0.200 A 
ATOM     50  F   UNL A   1      38.401  23.135  25.669  1.00  0.00    -0.200 F 
ATOM     51  F   UNL A   1      39.396  20.899  26.872  1.00  0.00    -0.200 F 
ENDBRANCH  27  41
BRANCH  28  52
ATOM     52  C   UNL A   1      45.357  33.629  28.565  1.00  0.00     0.064 A 
ATOM     53  C   UNL A   1      45.122  34.652  27.632  1.00  0.00     0.173 A 
ATOM     54  C   UNL A   1      46.171  33.929  29.666  1.00  0.00     0.173 A 
ATOM     55  F   UNL A   1      44.338  34.422  26.570  1.00  0.00    -0.203 F 
ATOM     56  C   UNL A   1      45.698  35.914  27.781  1.00  0.00     0.198 A 
ATOM     57  C   UNL A   1      46.725  35.199  29.826  1.00  0.00     0.198 A 
ATOM     58  F   UNL A   1      46.408  32.994  30.598  1.00  0.00    -0.203 F 
ATOM     59  F   UNL A   1      45.474  36.864  26.862  1.00  0.00    -0.200 F 
ATOM     60  C   UNL A   1      46.496  36.187  28.880  1.00  0.00     0.200 A 
ATOM     61  F   UNL A   1      47.475  35.468  30.904  1.00  0.00    -0.200 F 
ATOM     62  F   UNL A   1      47.034  37.404  29.035  1.00  0.00    -0.200 F 
ENDBRANCH  28  52
BRANCH  40  63
ATOM     63  C   UNL A   1      47.478  27.781  25.397  1.00  0.00     0.064 A 
ATOM     64  C   UNL A   1      47.481  27.829  23.996  1.00  0.00     0.173 A 
ATOM     65  C   UNL A   1      48.629  27.320  26.050  1.00  0.00     0.173 A 
ATOM     66  F   UNL A   1      46.397  28.259  23.332  1.00  0.00    -0.203 F 
ATOM     67  C   UNL A   1      48.589  27.405  23.272  1.00  0.00     0.198 A 
ATOM     68  C   UNL A   1      49.746  26.921  25.322  1.00  0.00     0.198 A 
ATOM     69  F   UNL A   1      48.674  27.275  27.390  1.00  0.00    -0.203 F 
ATOM     70  F   UNL A   1      48.559  27.423  21.933  1.00  0.00    -0.200 F 
ATOM     71  C   UNL A   1      49.720  26.953  23.935  1.00  0.00     0.200 A 
ATOM     72  F   UNL A   1      50.846  26.507  25.964  1.00  0.00    -0.200 F 
ATOM     73  F   UNL A   1      50.790  26.549  23.236  1.00  0.00    -0.200 F 
ENDBRANCH  40  63
ENDBRANCH  14  15
ENDBRANCH   7   9
ENDBRANCH   6   7
ENDBRANCH   5   6
ENDBRANCH   4   5
ENDBRANCH   3   4
ENDBRANCH   2   3
ENDBRANCH   1   2
BRANCH   1  74
ATOM     74  O   UNL A   1      35.278  32.402  27.586  1.00  0.00    -0.376 OA
BRANCH  74  75
ATOM     75  C   UNL A   1      34.219  31.464  27.741  1.00  0.00     0.202 C 
BRANCH  75  76
ATOM     76  C   UNL A   1      34.596  29.985  27.608  1.00  0.00     0.261 C 
BRANCH  76  77
ATOM     77  O   UNL A   1      34.251  29.353  26.363  1.00  0.00    -0.460 OA
BRANCH  77  78
ATOM     78  C   UNL A   1      33.348  28.343  26.447  1.00  0.00     0.340 C 
ATOM     79  O   UNL A   1      32.758  27.931  27.428  1.00  0.00    -0.246 OA
BRANCH  78  80
ATOM     80  C   UNL A   1      33.265  27.679  25.144  1.00  0.00     0.087 A 
ATOM     81  C   UNL A   1      33.751  28.426  24.058  1.00  0.00     0.060 A 
ATOM     82  C   UNL A   1      32.817  26.352  24.987  1.00  0.00     0.066 A 
ATOM     83  C   UNL A   1      33.800  27.843  22.806  1.00  0.00     0.159 A 
ATOM     84  C   UNL A   1      32.734  25.863  23.680  1.00  0.00     0.070 A 
ATOM     85  F   UNL A   1      34.314  28.525  21.774  1.00  0.00    -0.204 F 
ATOM     86  C   UNL A   1      33.276  26.576  22.615  1.00  0.00     0.160 A 
ATOM     87  F   UNL A   1      33.281  26.024  21.395  1.00  0.00    -0.204 F 
BRANCH  82  88
ATOM     88  N   UNL A   1      32.703  25.484  26.122  1.00  0.00    -0.279 N 
ATOM     89  H   UNL A   1      33.178  25.766  26.937  1.00  0.00     0.180 HD
BRANCH  88  90
ATOM     90  S   UNL A   1      31.849  24.041  26.220  1.00  0.00     0.261 S 
ATOM     91  O   UNL A   1      31.780  23.706  27.626  1.00  0.00    -0.201 OA
ATOM     92  O   UNL A   1      30.661  24.214  25.420  1.00  0.00    -0.201 OA
BRANCH  90  93
ATOM     93  C   UNL A   1      32.857  22.797  25.434  1.00  0.00     0.088 A 
ATOM     94  C   UNL A   1      34.228  22.746  25.773  1.00  0.00     0.022 A 
ATOM     95  C   UNL A   1      32.241  21.753  24.733  1.00  0.00     0.026 A 
ATOM     96  C   UNL A   1      34.979  21.601  25.500  1.00  0.00     0.005 A 
ATOM     97  C   UNL A   1      32.990  20.607  24.518  1.00  0.00    -0.043 A 
ATOM     98  C   UNL A   1      34.332  20.524  24.918  1.00  0.00    -0.045 A 
ATOM     99  C   UNL A   1      32.536  19.302  23.939  1.00  0.00     0.036 C 
ATOM    100  C   UNL A   1      34.883  19.155  24.658  1.00  0.00     0.036 C 
ATOM    101  C   UNL A   1      33.587  18.343  24.519  1.00  0.00     0.010 C 
ENDBRANCH  90  93
ENDBRANCH  88  90
ENDBRANCH  82  88
ENDBRANCH  78  80
ENDBRANCH  77  78
ENDBRANCH  76  77
ENDBRANCH  75  76
ENDBRANCH  74  75
ENDBRANCH   1  74
TORSDOF 20
ENDMDL
MODEL 3
REMARK VINA RESULT:     -11.4      3.399      8.648
REMARK SMILES O=C(OCCOCCOCCOC(=O)c1cc(F)c(F)cc1NS(=O)(=O)c1ccc2c(c1)CCC2)c1ccc(-c2c3nc(c(-c4c(F)c(F)c(F)c(F)c4F)c4ccc([nH]4)c(-c4c(F)c(F)c(F)c(F)c4F)c4nc(c(-c5c(F)c(F)c(F)c(F)c5F)c5ccc2[nH]5)C=C4)C=C3)cc1
REMARK SMILES IDX 8 1 7 2 6 3 5 4 4 5 3 6 2 7 1 8 36 9 37 10 98 11 38 12 97 13
REMARK SMILES IDX 39 14 40 15 41 16 91 17 42 18 96 19 90 20 92 21 43 22 95 23
REMARK SMILES IDX 89 24 88 25 44 27 76 28 56 29 75 30 57 31 60 32 74 33 93 34
REMARK SMILES IDX 58 35 59 36 73 38 94 39 61 40 45 41 46 42 54 43 47 44 48 45
REMARK SMILES IDX 52 46 55 47 49 48 50 49 53 50 51 51 77 52 78 53 86 54 79 55
REMARK SMILES IDX 80 56 84 57 87 58 81 59 82 60 85 61 83 62 62 63 63 64 71 65
REMARK SMILES IDX 64 66 65 67 69 68 72 69 66 70 67 71 70 72 68 73 9 74 10 75
REMARK SMILES IDX 11 76 12 77 13 78 14 79 15 80 16 81 22 82 17 83 21 84 18 85
REMARK SMILES IDX 19 86 20 87 23 88 24 90 25 91 26 92 27 93 28 94 32 95 29 96
REMARK SMILES IDX 31 97 30 98 33 99 35 100 34 101
REMARK H PARENT 92 26 60 37 23 89
REMARK Flexibility Score: inf
ROOT
ATOM      1  C   UNL A   1      37.018  22.215  25.784  1.00  0.00     0.188 C 
ENDROOT
BRANCH   1   2
ATOM      2  C   UNL A   1      37.697  21.400  24.684  1.00  0.00     0.188 C 
BRANCH   2   3
ATOM      3  O   UNL A   1      37.286  20.026  24.726  1.00  0.00    -0.376 OA
BRANCH   3   4
ATOM      4  C   UNL A   1      38.220  19.179  25.402  1.00  0.00     0.202 C 
BRANCH   4   5
ATOM      5  C   UNL A   1      39.639  19.753  25.502  1.00  0.00     0.261 C 
BRANCH   5   6
ATOM      6  O   UNL A   1      40.124  19.778  26.853  1.00  0.00    -0.460 OA
BRANCH   6   7
ATOM      7  C   UNL A   1      41.254  20.364  27.325  1.00  0.00     0.338 C 
ATOM      8  O   UNL A   1      42.240  19.652  27.509  1.00  0.00    -0.246 OA
BRANCH   7   9
ATOM      9  C   UNL A   1      41.383  21.837  27.580  1.00  0.00     0.060 A 
ATOM     10  C   UNL A   1      40.742  22.845  26.857  1.00  0.00     0.016 A 
ATOM     11  C   UNL A   1      42.182  22.231  28.668  1.00  0.00     0.016 A 
ATOM     12  C   UNL A   1      40.999  24.191  27.099  1.00  0.00     0.010 A 
ATOM     13  C   UNL A   1      42.374  23.582  28.977  1.00  0.00     0.010 A 
ATOM     14  C   UNL A   1      41.830  24.571  28.150  1.00  0.00    -0.014 A 
BRANCH  14  15
ATOM     15  C   UNL A   1      42.252  25.985  28.261  1.00  0.00     0.031 A 
ATOM     16  C   UNL A   1      43.560  26.384  27.647  1.00  0.00     0.074 A 
ATOM     17  C   UNL A   1      41.434  26.921  28.773  1.00  0.00     0.049 A 
ATOM     18  N   UNL A   1      44.159  27.544  27.656  1.00  0.00    -0.248 NA
ATOM     19  C   UNL A   1      44.276  25.341  26.892  1.00  0.00     0.031 C 
ATOM     20  C   UNL A   1      40.073  26.676  29.238  1.00  0.00     0.029 A 
ATOM     21  N   UNL A   1      41.611  28.269  28.964  1.00  0.00    -0.354 N 
ATOM     22  C   UNL A   1      45.316  27.369  26.913  1.00  0.00     0.074 A 
ATOM     23  C   UNL A   1      45.362  25.986  26.499  1.00  0.00     0.031 C 
ATOM     24  C   UNL A   1      39.540  27.832  29.661  1.00  0.00     0.029 A 
ATOM     25  C   UNL A   1      40.541  28.881  29.567  1.00  0.00     0.049 A 
ATOM     26  H   UNL A   1      42.427  28.750  28.695  1.00  0.00     0.167 HD
ATOM     27  C   UNL A   1      46.247  28.293  26.587  1.00  0.00     0.037 A 
ATOM     28  C   UNL A   1      40.386  30.138  30.022  1.00  0.00     0.037 A 
ATOM     29  C   UNL A   1      46.182  29.668  26.997  1.00  0.00     0.049 A 
ATOM     30  C   UNL A   1      41.502  31.111  29.793  1.00  0.00     0.074 A 
ATOM     31  C   UNL A   1      47.098  30.678  26.776  1.00  0.00     0.029 A 
ATOM     32  N   UNL A   1      45.128  30.224  27.710  1.00  0.00    -0.354 N 
ATOM     33  N   UNL A   1      42.631  30.923  29.154  1.00  0.00    -0.248 NA
ATOM     34  C   UNL A   1      41.330  32.465  30.331  1.00  0.00     0.031 C 
ATOM     35  C   UNL A   1      46.617  31.839  27.389  1.00  0.00     0.029 A 
ATOM     36  C   UNL A   1      45.382  31.562  27.957  1.00  0.00     0.049 A 
ATOM     37  H   UNL A   1      44.322  29.739  27.998  1.00  0.00     0.167 HD
ATOM     38  C   UNL A   1      43.297  32.136  29.191  1.00  0.00     0.074 A 
ATOM     39  C   UNL A   1      42.439  33.060  29.909  1.00  0.00     0.031 C 
ATOM     40  C   UNL A   1      44.507  32.455  28.673  1.00  0.00     0.037 A 
BRANCH  27  41
ATOM     41  C   UNL A   1      47.419  27.824  25.781  1.00  0.00     0.064 A 
ATOM     42  C   UNL A   1      47.344  27.786  24.383  1.00  0.00     0.173 A 
ATOM     43  C   UNL A   1      48.619  27.428  26.390  1.00  0.00     0.173 A 
ATOM     44  F   UNL A   1      46.222  28.167  23.754  1.00  0.00    -0.203 F 
ATOM     45  C   UNL A   1      48.429  27.362  23.620  1.00  0.00     0.198 A 
ATOM     46  C   UNL A   1      49.710  27.027  25.623  1.00  0.00     0.198 A 
ATOM     47  F   UNL A   1      48.748  27.478  27.724  1.00  0.00    -0.203 F 
ATOM     48  F   UNL A   1      48.332  27.325  22.283  1.00  0.00    -0.200 F 
ATOM     49  C   UNL A   1      49.612  26.989  24.240  1.00  0.00     0.200 A 
ATOM     50  F   UNL A   1      50.863  26.699  26.222  1.00  0.00    -0.200 F 
ATOM     51  F   UNL A   1      50.663  26.604  23.503  1.00  0.00    -0.200 F 
ENDBRANCH  27  41
BRANCH  28  52
ATOM     52  C   UNL A   1      39.148  30.521  30.752  1.00  0.00     0.064 A 
ATOM     53  C   UNL A   1      38.031  31.028  30.067  1.00  0.00     0.173 A 
ATOM     54  C   UNL A   1      39.059  30.411  32.146  1.00  0.00     0.173 A 
ATOM     55  F   UNL A   1      38.058  31.137  28.731  1.00  0.00    -0.203 F 
ATOM     56  C   UNL A   1      36.884  31.431  30.751  1.00  0.00     0.198 A 
ATOM     57  C   UNL A   1      37.902  30.792  32.826  1.00  0.00     0.198 A 
ATOM     58  F   UNL A   1      40.089  29.912  32.845  1.00  0.00    -0.203 F 
ATOM     59  F   UNL A   1      35.842  31.932  30.073  1.00  0.00    -0.200 F 
ATOM     60  C   UNL A   1      36.819  31.310  32.130  1.00  0.00     0.200 A 
ATOM     61  F   UNL A   1      37.832  30.647  34.157  1.00  0.00    -0.200 F 
ATOM     62  F   UNL A   1      35.712  31.678  32.787  1.00  0.00    -0.200 F 
ENDBRANCH  28  52
BRANCH  40  63
ATOM     63  C   UNL A   1      44.973  33.865  28.853  1.00  0.00     0.064 A 
ATOM     64  C   UNL A   1      45.701  34.230  29.995  1.00  0.00     0.173 A 
ATOM     65  C   UNL A   1      44.626  34.867  27.937  1.00  0.00     0.173 A 
ATOM     66  F   UNL A   1      46.049  33.303  30.900  1.00  0.00    -0.203 F 
ATOM     67  C   UNL A   1      46.047  35.557  30.223  1.00  0.00     0.198 A 
ATOM     68  C   UNL A   1      44.997  36.189  28.156  1.00  0.00     0.198 A 
ATOM     69  F   UNL A   1      43.945  34.556  26.823  1.00  0.00    -0.203 F 
ATOM     70  F   UNL A   1      46.710  35.892  31.338  1.00  0.00    -0.200 F 
ATOM     71  C   UNL A   1      45.695  36.535  29.305  1.00  0.00     0.200 A 
ATOM     72  F   UNL A   1      44.677  37.129  27.257  1.00  0.00    -0.200 F 
ATOM     73  F   UNL A   1      46.033  37.813  29.524  1.00  0.00    -0.200 F 
ENDBRANCH  40  63
ENDBRANCH  14  15
ENDBRANCH   7   9
ENDBRANCH   6   7
ENDBRANCH   5   6
ENDBRANCH   4   5
ENDBRANCH   3   4
ENDBRANCH   2   3
ENDBRANCH   1   2
BRANCH   1  74
ATOM     74  O   UNL A   1      35.695  22.660  25.486  1.00  0.00    -0.376 OA
BRANCH  74  75
ATOM     75  C   UNL A   1      35.166  23.713  26.285  1.00  0.00     0.202 C 
BRANCH  75  76
ATOM     76  C   UNL A   1      34.020  24.522  25.670  1.00  0.00     0.261 C 
BRANCH  76  77
ATOM     77  O   UNL A   1      32.744  24.413  26.326  1.00  0.00    -0.460 OA
BRANCH  77  78
ATOM     78  C   UNL A   1      31.673  24.265  25.506  1.00  0.00     0.340 C 
ATOM     79  O   UNL A   1      30.626  24.886  25.505  1.00  0.00    -0.246 OA
BRANCH  78  80
ATOM     80  C   UNL A   1      31.893  23.096  24.651  1.00  0.00     0.087 A 
ATOM     81  C   UNL A   1      31.993  21.869  25.328  1.00  0.00     0.060 A 
ATOM     82  C   UNL A   1      31.915  23.167  23.244  1.00  0.00     0.066 A 
ATOM     83  C   UNL A   1      32.106  20.702  24.597  1.00  0.00     0.159 A 
ATOM     84  C   UNL A   1      32.193  21.984  22.555  1.00  0.00     0.070 A 
ATOM     85  F   UNL A   1      32.145  19.522  25.229  1.00  0.00    -0.204 F 
ATOM     86  C   UNL A   1      32.225  20.761  23.219  1.00  0.00     0.160 A 
ATOM     87  F   UNL A   1      32.379  19.636  22.509  1.00  0.00    -0.204 F 
BRANCH  82  88
ATOM     88  N   UNL A   1      31.426  24.334  22.568  1.00  0.00    -0.279 N 
ATOM     89  H   UNL A   1      30.448  24.408  22.479  1.00  0.00     0.180 HD
BRANCH  88  90
ATOM     90  S   UNL A   1      32.332  25.586  21.912  1.00  0.00     0.261 S 
ATOM     91  O   UNL A   1      33.706  25.134  21.909  1.00  0.00    -0.201 OA
ATOM     92  O   UNL A   1      31.660  25.983  20.697  1.00  0.00    -0.201 OA
BRANCH  90  93
ATOM     93  C   UNL A   1      32.229  26.947  23.059  1.00  0.00     0.088 A 
ATOM     94  C   UNL A   1      30.952  27.486  23.332  1.00  0.00     0.022 A 
ATOM     95  C   UNL A   1      33.338  27.265  23.853  1.00  0.00     0.026 A 
ATOM     96  C   UNL A   1      30.747  28.274  24.467  1.00  0.00     0.005 A 
ATOM     97  C   UNL A   1      33.103  28.005  25.001  1.00  0.00    -0.043 A 
ATOM     98  C   UNL A   1      31.822  28.482  25.315  1.00  0.00    -0.045 A 
ATOM     99  C   UNL A   1      34.071  28.350  26.092  1.00  0.00     0.036 C 
ATOM    100  C   UNL A   1      31.818  29.167  26.648  1.00  0.00     0.036 C 
ATOM    101  C   UNL A   1      33.111  28.608  27.263  1.00  0.00     0.010 C 
ENDBRANCH  90  93
ENDBRANCH  88  90
ENDBRANCH  82  88
ENDBRANCH  78  80
ENDBRANCH  77  78
ENDBRANCH  76  77
ENDBRANCH  75  76
ENDBRANCH  74  75
ENDBRANCH   1  74
TORSDOF 20
ENDMDL
