MODEL 1
REMARK VINA RESULT:     -11.8      0.000      0.000
REMARK SMILES O=C(OCCOCCOCCOC(=O)c1ccccc1Nc1cccc(S(F)(F)(F)(F)F)c1)c1ccc(-c2c3nc(c(-c4c(F)c(F)c(F)c(F)c4F)c4ccc([nH]4)c(-c4c(F)c(F)c(F)c(F)c4F)c4nc(c(-c5c(F)c(F)c(F)c(F)c5F)c5ccc2[nH]5)C=C4)C=C3)cc1
REMARK SMILES IDX 8 1 7 2 6 3 5 4 4 5 3 6 2 7 1 8 34 9 35 10 96 11 36 12 95 13
REMARK SMILES IDX 37 14 38 15 39 16 89 17 40 18 94 19 88 20 90 21 41 22 93 23
REMARK SMILES IDX 87 24 86 25 42 27 74 28 54 29 73 30 55 31 58 32 72 33 91 34
REMARK SMILES IDX 56 35 57 36 71 38 92 39 59 40 43 41 44 42 52 43 45 44 46 45
REMARK SMILES IDX 50 46 53 47 47 48 48 49 51 50 49 51 75 52 76 53 84 54 77 55
REMARK SMILES IDX 78 56 82 57 85 58 79 59 80 60 83 61 81 62 60 63 61 64 69 65
REMARK SMILES IDX 62 66 63 67 67 68 70 69 64 70 65 71 68 72 66 73 9 74 10 75
REMARK SMILES IDX 11 76 12 77 13 78 14 79 15 80 16 81 20 82 17 83 19 84 18 85
REMARK SMILES IDX 21 86 22 88 23 89 33 90 24 91 26 92 25 93 27 94 28 95 29 96
REMARK SMILES IDX 30 97 31 98 32 99
REMARK H PARENT 90 26 58 37 21 87
REMARK Flexibility Score: inf
ROOT
ATOM      1  C   UNL A   1      35.782  22.851  25.739  1.00  0.00     0.188 C 
ENDROOT
BRANCH   1   2
ATOM      2  C   UNL A   1      36.003  21.355  25.588  1.00  0.00     0.188 C 
BRANCH   2   3
ATOM      3  O   UNL A   1      37.030  21.121  24.635  1.00  0.00    -0.376 OA
BRANCH   3   4
ATOM      4  C   UNL A   1      37.742  19.944  24.986  1.00  0.00     0.202 C 
BRANCH   4   5
ATOM      5  C   UNL A   1      39.000  20.322  25.752  1.00  0.00     0.261 C 
BRANCH   5   6
ATOM      6  O   UNL A   1      39.916  19.237  25.721  1.00  0.00    -0.460 OA
BRANCH   6   7
ATOM      7  C   UNL A   1      41.271  19.442  26.094  1.00  0.00     0.338 C 
ATOM      8  O   UNL A   1      42.091  18.472  26.067  1.00  0.00    -0.246 OA
BRANCH   7   9
ATOM      9  C   UNL A   1      41.740  20.821  26.528  1.00  0.00     0.060 A 
ATOM     10  C   UNL A   1      42.045  21.722  25.521  1.00  0.00     0.016 A 
ATOM     11  C   UNL A   1      41.931  21.127  27.807  1.00  0.00     0.016 A 
ATOM     12  C   UNL A   1      42.823  22.823  25.953  1.00  0.00     0.010 A 
ATOM     13  C   UNL A   1      42.579  22.285  28.160  1.00  0.00     0.010 A 
ATOM     14  C   UNL A   1      42.961  23.194  27.213  1.00  0.00    -0.014 A 
BRANCH  14  15
ATOM     15  C   UNL A   1      43.517  24.558  27.589  1.00  0.00     0.031 A 
ATOM     16  C   UNL A   1      44.887  24.815  27.536  1.00  0.00     0.074 A 
ATOM     17  C   UNL A   1      42.564  25.504  27.923  1.00  0.00     0.049 A 
ATOM     18  N   UNL A   1      45.506  25.978  27.752  1.00  0.00    -0.248 NA
ATOM     19  C   UNL A   1      45.906  23.803  27.215  1.00  0.00     0.031 C 
ATOM     20  C   UNL A   1      41.178  25.254  27.971  1.00  0.00     0.029 A 
ATOM     21  N   UNL A   1      42.765  26.824  28.262  1.00  0.00    -0.354 N 
ATOM     22  C   UNL A   1      46.824  25.836  27.590  1.00  0.00     0.074 A 
ATOM     23  C   UNL A   1      47.100  24.435  27.248  1.00  0.00     0.031 C 
ATOM     24  C   UNL A   1      40.555  26.402  28.345  1.00  0.00     0.029 A 
ATOM     25  C   UNL A   1      41.540  27.390  28.534  1.00  0.00     0.049 A 
ATOM     26  H   UNL A   1      43.635  27.284  28.301  1.00  0.00     0.167 HD
ATOM     27  C   UNL A   1      47.804  26.822  27.712  1.00  0.00     0.037 A 
ATOM     28  C   UNL A   1      41.275  28.692  28.932  1.00  0.00     0.037 A 
ATOM     29  C   UNL A   1      47.536  28.134  28.066  1.00  0.00     0.049 A 
ATOM     30  C   UNL A   1      42.263  29.663  29.111  1.00  0.00     0.074 A 
ATOM     31  C   UNL A   1      48.512  29.142  28.186  1.00  0.00     0.029 A 
ATOM     32  N   UNL A   1      46.313  28.695  28.364  1.00  0.00    -0.354 N 
ATOM     33  N   UNL A   1      43.576  29.531  28.910  1.00  0.00    -0.248 NA
ATOM     34  C   UNL A   1      41.999  31.035  29.562  1.00  0.00     0.031 C 
ATOM     35  C   UNL A   1      47.888  30.291  28.560  1.00  0.00     0.029 A 
ATOM     36  C   UNL A   1      46.512  30.020  28.681  1.00  0.00     0.049 A 
ATOM     37  H   UNL A   1      45.446  28.227  28.352  1.00  0.00     0.167 HD
ATOM     38  C   UNL A   1      44.198  30.684  29.167  1.00  0.00     0.074 A 
ATOM     39  C   UNL A   1      43.194  31.666  29.597  1.00  0.00     0.031 C 
ATOM     40  C   UNL A   1      45.562  30.957  29.056  1.00  0.00     0.037 A 
BRANCH  27  41
ATOM     41  C   UNL A   1      49.249  26.433  27.441  1.00  0.00     0.064 A 
ATOM     42  C   UNL A   1      50.021  26.099  28.541  1.00  0.00     0.173 A 
ATOM     43  C   UNL A   1      49.718  26.306  26.205  1.00  0.00     0.173 A 
ATOM     44  F   UNL A   1      49.522  25.969  29.767  1.00  0.00    -0.203 F 
ATOM     45  C   UNL A   1      51.393  25.911  28.243  1.00  0.00     0.198 A 
ATOM     46  C   UNL A   1      51.036  25.987  25.988  1.00  0.00     0.198 A 
ATOM     47  F   UNL A   1      48.904  26.489  25.170  1.00  0.00    -0.203 F 
ATOM     48  F   UNL A   1      52.256  25.948  29.253  1.00  0.00    -0.200 F 
ATOM     49  C   UNL A   1      51.873  25.703  27.031  1.00  0.00     0.200 A 
ATOM     50  F   UNL A   1      51.506  25.953  24.743  1.00  0.00    -0.200 F 
ATOM     51  F   UNL A   1      53.105  25.241  26.836  1.00  0.00    -0.200 F 
ENDBRANCH  27  41
BRANCH  28  52
ATOM     52  C   UNL A   1      39.830  29.084  29.187  1.00  0.00     0.064 A 
ATOM     53  C   UNL A   1      39.312  29.025  30.469  1.00  0.00     0.173 A 
ATOM     54  C   UNL A   1      39.055  29.359  28.143  1.00  0.00     0.173 A 
ATOM     55  F   UNL A   1      40.074  29.005  31.559  1.00  0.00    -0.203 F 
ATOM     56  C   UNL A   1      37.898  28.988  30.516  1.00  0.00     0.198 A 
ATOM     57  C   UNL A   1      37.692  29.442  28.288  1.00  0.00     0.198 A 
ATOM     58  F   UNL A   1      39.605  29.557  26.949  1.00  0.00    -0.203 F 
ATOM     59  F   UNL A   1      37.327  28.574  31.644  1.00  0.00    -0.200 F 
ATOM     60  C   UNL A   1      37.106  29.334  29.518  1.00  0.00     0.200 A 
ATOM     61  F   UNL A   1      36.929  29.630  27.213  1.00  0.00    -0.200 F 
ATOM     62  F   UNL A   1      35.810  29.567  29.701  1.00  0.00    -0.200 F 
ENDBRANCH  28  52
BRANCH  40  63
ATOM     63  C   UNL A   1      46.035  32.367  29.368  1.00  0.00     0.064 A 
ATOM     64  C   UNL A   1      46.350  32.647  30.687  1.00  0.00     0.173 A 
ATOM     65  C   UNL A   1      46.081  33.310  28.433  1.00  0.00     0.173 A 
ATOM     66  F   UNL A   1      46.564  31.703  31.598  1.00  0.00    -0.203 F 
ATOM     67  C   UNL A   1      46.425  34.030  30.978  1.00  0.00     0.198 A 
ATOM     68  C   UNL A   1      46.294  34.624  28.775  1.00  0.00     0.198 A 
ATOM     69  F   UNL A   1      45.920  32.979  27.155  1.00  0.00    -0.203 F 
ATOM     70  F   UNL A   1      46.363  34.399  32.254  1.00  0.00    -0.200 F 
ATOM     71  C   UNL A   1      46.554  34.980  30.069  1.00  0.00     0.200 A 
ATOM     72  F   UNL A   1      46.247  35.561  27.833  1.00  0.00    -0.200 F 
ATOM     73  F   UNL A   1      46.914  36.218  30.396  1.00  0.00    -0.200 F 
ENDBRANCH  40  63
ENDBRANCH  14  15
ENDBRANCH   7   9
ENDBRANCH   6   7
ENDBRANCH   5   6
ENDBRANCH   4   5
ENDBRANCH   3   4
ENDBRANCH   2   3
ENDBRANCH   1   2
BRANCH   1  74
ATOM     74  O   UNL A   1      34.974  23.097  26.882  1.00  0.00    -0.376 OA
BRANCH  74  75
ATOM     75  C   UNL A   1      34.367  21.884  27.301  1.00  0.00     0.202 C 
BRANCH  75  76
ATOM     76  C   UNL A   1      33.162  22.197  28.175  1.00  0.00     0.261 C 
BRANCH  76  77
ATOM     77  O   UNL A   1      32.430  23.272  27.607  1.00  0.00    -0.460 OA
BRANCH  77  78
ATOM     78  C   UNL A   1      31.250  23.012  26.861  1.00  0.00     0.340 C 
ATOM     79  O   UNL A   1      30.129  22.929  27.455  1.00  0.00    -0.246 OA
BRANCH  78  80
ATOM     80  C   UNL A   1      31.327  22.831  25.354  1.00  0.00     0.083 A 
ATOM     81  C   UNL A   1      32.018  21.772  24.788  1.00  0.00     0.018 A 
ATOM     82  C   UNL A   1      30.814  23.798  24.603  1.00  0.00     0.053 A 
ATOM     83  C   UNL A   1      32.366  21.974  23.432  1.00  0.00     0.001 A 
ATOM     84  C   UNL A   1      31.085  23.857  23.257  1.00  0.00     0.027 A 
ATOM     85  C   UNL A   1      31.812  22.875  22.643  1.00  0.00     0.002 A 
BRANCH  82  86
ATOM     86  N   UNL A   1      29.947  24.814  25.217  1.00  0.00    -0.355 N 
ATOM     87  H   UNL A   1      29.165  24.539  25.748  1.00  0.00     0.167 HD
BRANCH  86  88
ATOM     88  C   UNL A   1      30.247  26.242  25.037  1.00  0.00     0.040 A 
ATOM     89  C   UNL A   1      29.623  26.931  24.010  1.00  0.00     0.026 A 
ATOM     90  C   UNL A   1      31.152  26.830  25.810  1.00  0.00     0.050 A 
ATOM     91  C   UNL A   1      30.240  28.163  23.690  1.00  0.00     0.004 A 
ATOM     92  C   UNL A   1      31.610  28.091  25.516  1.00  0.00     0.109 A 
ATOM     93  C   UNL A   1      31.082  28.807  24.478  1.00  0.00     0.024 A 
BRANCH  92  94
ATOM     94  S   UNL A   1      32.933  28.816  26.517  1.00  0.00     0.310 S 
ATOM     95  F   UNL A   1      33.400  27.394  27.039  1.00  0.00    -0.094 F 
ATOM     96  F   UNL A   1      31.950  28.868  27.749  1.00  0.00    -0.094 F 
ATOM     97  F   UNL A   1      34.076  29.436  27.368  1.00  0.00    -0.094 F 
ATOM     98  F   UNL A   1      33.940  28.626  25.316  1.00  0.00    -0.094 F 
ATOM     99  F   UNL A   1      31.813  28.083  25.676  1.00  0.00    -0.094 F 
ENDBRANCH  92  94
ENDBRANCH  86  88
ENDBRANCH  82  86
ENDBRANCH  78  80
ENDBRANCH  77  78
ENDBRANCH  76  77
ENDBRANCH  75  76
ENDBRANCH  74  75
ENDBRANCH   1  74
TORSDOF 20
ENDMDL
MODEL 2
REMARK VINA RESULT:     -11.6      3.414      8.369
REMARK SMILES O=C(OCCOCCOCCOC(=O)c1ccccc1Nc1cccc(S(F)(F)(F)(F)F)c1)c1ccc(-c2c3nc(c(-c4c(F)c(F)c(F)c(F)c4F)c4ccc([nH]4)c(-c4c(F)c(F)c(F)c(F)c4F)c4nc(c(-c5c(F)c(F)c(F)c(F)c5F)c5ccc2[nH]5)C=C4)C=C3)cc1
REMARK SMILES IDX 8 1 7 2 6 3 5 4 4 5 3 6 2 7 1 8 34 9 35 10 96 11 36 12 95 13
REMARK SMILES IDX 37 14 38 15 39 16 89 17 40 18 94 19 88 20 90 21 41 22 93 23
REMARK SMILES IDX 87 24 86 25 42 27 74 28 54 29 73 30 55 31 58 32 72 33 91 34
REMARK SMILES IDX 56 35 57 36 71 38 92 39 59 40 43 41 44 42 52 43 45 44 46 45
REMARK SMILES IDX 50 46 53 47 47 48 48 49 51 50 49 51 75 52 76 53 84 54 77 55
REMARK SMILES IDX 78 56 82 57 85 58 79 59 80 60 83 61 81 62 60 63 61 64 69 65
REMARK SMILES IDX 62 66 63 67 67 68 70 69 64 70 65 71 68 72 66 73 9 74 10 75
REMARK SMILES IDX 11 76 12 77 13 78 14 79 15 80 16 81 20 82 17 83 19 84 18 85
REMARK SMILES IDX 21 86 22 88 23 89 33 90 24 91 26 92 25 93 27 94 28 95 29 96
REMARK SMILES IDX 30 97 31 98 32 99
REMARK H PARENT 90 26 58 37 21 87
REMARK Flexibility Score: inf
ROOT
ATOM      1  C   UNL A   1      39.575  21.515  26.534  1.00  0.00     0.188 C 
ENDROOT
BRANCH   1   2
ATOM      2  C   UNL A   1      40.412  20.414  25.904  1.00  0.00     0.188 C 
BRANCH   2   3
ATOM      3  O   UNL A   1      41.787  20.660  26.159  1.00  0.00    -0.376 OA
BRANCH   3   4
ATOM      4  C   UNL A   1      42.400  19.469  26.631  1.00  0.00     0.202 C 
BRANCH   4   5
ATOM      5  C   UNL A   1      42.667  18.537  25.460  1.00  0.00     0.261 C 
BRANCH   5   6
ATOM      6  O   UNL A   1      44.067  18.436  25.245  1.00  0.00    -0.460 OA
BRANCH   6   7
ATOM      7  C   UNL A   1      44.705  19.292  24.308  1.00  0.00     0.338 C 
ATOM      8  O   UNL A   1      45.106  18.830  23.195  1.00  0.00    -0.246 OA
BRANCH   7   9
ATOM      9  C   UNL A   1      44.909  20.762  24.638  1.00  0.00     0.060 A 
ATOM     10  C   UNL A   1      45.523  21.052  25.845  1.00  0.00     0.016 A 
ATOM     11  C   UNL A   1      44.448  21.727  23.851  1.00  0.00     0.016 A 
ATOM     12  C   UNL A   1      45.345  22.389  26.273  1.00  0.00     0.010 A 
ATOM     13  C   UNL A   1      44.429  23.032  24.282  1.00  0.00     0.010 A 
ATOM     14  C   UNL A   1      44.966  23.382  25.489  1.00  0.00    -0.014 A 
BRANCH  14  15
ATOM     15  C   UNL A   1      45.117  24.835  25.908  1.00  0.00     0.031 A 
ATOM     16  C   UNL A   1      44.035  25.551  26.423  1.00  0.00     0.074 A 
ATOM     17  C   UNL A   1      46.397  25.347  25.789  1.00  0.00     0.049 A 
ATOM     18  N   UNL A   1      44.038  26.794  26.908  1.00  0.00    -0.248 NA
ATOM     19  C   UNL A   1      42.666  25.021  26.520  1.00  0.00     0.031 C 
ATOM     20  C   UNL A   1      47.495  24.628  25.278  1.00  0.00     0.029 A 
ATOM     21  N   UNL A   1      46.840  26.606  26.129  1.00  0.00    -0.354 N 
ATOM     22  C   UNL A   1      42.816  27.129  27.328  1.00  0.00     0.074 A 
ATOM     23  C   UNL A   1      41.915  25.996  27.078  1.00  0.00     0.031 C 
ATOM     24  C   UNL A   1      48.581  25.446  25.298  1.00  0.00     0.029 A 
ATOM     25  C   UNL A   1      48.180  26.688  25.824  1.00  0.00     0.049 A 
ATOM     26  H   UNL A   1      46.291  27.324  26.523  1.00  0.00     0.167 HD
ATOM     27  C   UNL A   1      42.419  28.333  27.910  1.00  0.00     0.037 A 
ATOM     28  C   UNL A   1      49.022  27.778  25.985  1.00  0.00     0.037 A 
ATOM     29  C   UNL A   1      43.270  29.408  28.111  1.00  0.00     0.049 A 
ATOM     30  C   UNL A   1      48.611  29.004  26.514  1.00  0.00     0.074 A 
ATOM     31  C   UNL A   1      42.888  30.627  28.704  1.00  0.00     0.029 A 
ATOM     32  N   UNL A   1      44.606  29.499  27.783  1.00  0.00    -0.354 N 
ATOM     33  N   UNL A   1      47.398  29.324  26.969  1.00  0.00    -0.248 NA
ATOM     34  C   UNL A   1      49.485  30.175  26.659  1.00  0.00     0.031 C 
ATOM     35  C   UNL A   1      43.975  31.444  28.725  1.00  0.00     0.029 A 
ATOM     36  C   UNL A   1      45.053  30.751  28.144  1.00  0.00     0.049 A 
ATOM     37  H   UNL A   1      45.147  28.791  27.363  1.00  0.00     0.167 HD
ATOM     38  C   UNL A   1      47.393  30.582  27.416  1.00  0.00     0.074 A 
ATOM     39  C   UNL A   1      48.733  31.150  27.216  1.00  0.00     0.031 C 
ATOM     40  C   UNL A   1      46.325  31.278  27.985  1.00  0.00     0.037 A 
BRANCH  27  41
ATOM     41  C   UNL A   1      40.970  28.475  28.348  1.00  0.00     0.064 A 
ATOM     42  C   UNL A   1      40.079  28.962  27.406  1.00  0.00     0.173 A 
ATOM     43  C   UNL A   1      40.553  28.046  29.533  1.00  0.00     0.173 A 
ATOM     44  F   UNL A   1      40.406  29.163  26.132  1.00  0.00    -0.203 F 
ATOM     45  C   UNL A   1      38.788  29.228  27.922  1.00  0.00     0.198 A 
ATOM     46  C   UNL A   1      39.246  28.217  29.918  1.00  0.00     0.198 A 
ATOM     47  F   UNL A   1      41.410  27.446  30.355  1.00  0.00    -0.203 F 
ATOM     48  F   UNL A   1      37.988  30.017  27.211  1.00  0.00    -0.200 F 
ATOM     49  C   UNL A   1      38.323  28.746  29.060  1.00  0.00     0.200 A 
ATOM     50  F   UNL A   1      38.872  27.860  31.144  1.00  0.00    -0.200 F 
ATOM     51  F   UNL A   1      37.026  28.775  29.355  1.00  0.00    -0.200 F 
ENDBRANCH  27  41
BRANCH  28  52
ATOM     52  C   UNL A   1      50.474  27.630  25.562  1.00  0.00     0.064 A 
ATOM     53  C   UNL A   1      50.814  27.687  24.221  1.00  0.00     0.173 A 
ATOM     54  C   UNL A   1      51.375  27.325  26.489  1.00  0.00     0.173 A 
ATOM     55  F   UNL A   1      50.026  28.226  23.295  1.00  0.00    -0.203 F 
ATOM     56  C   UNL A   1      52.076  27.119  23.925  1.00  0.00     0.198 A 
ATOM     57  C   UNL A   1      52.633  26.907  26.129  1.00  0.00     0.198 A 
ATOM     58  F   UNL A   1      51.056  27.426  27.776  1.00  0.00    -0.203 F 
ATOM     59  F   UNL A   1      52.330  26.802  22.658  1.00  0.00    -0.200 F 
ATOM     60  C   UNL A   1      53.019  26.882  24.819  1.00  0.00     0.200 A 
ATOM     61  F   UNL A   1      53.490  26.521  27.072  1.00  0.00    -0.200 F 
ATOM     62  F   UNL A   1      54.275  26.633  24.461  1.00  0.00    -0.200 F 
ENDBRANCH  28  52
BRANCH  40  63
ATOM     63  C   UNL A   1      46.572  32.701  28.459  1.00  0.00     0.064 A 
ATOM     64  C   UNL A   1      46.390  33.712  27.531  1.00  0.00     0.173 A 
ATOM     65  C   UNL A   1      47.008  32.961  29.686  1.00  0.00     0.173 A 
ATOM     66  F   UNL A   1      45.726  33.542  26.392  1.00  0.00    -0.203 F 
ATOM     67  C   UNL A   1      46.975  34.946  27.905  1.00  0.00     0.198 A 
ATOM     68  C   UNL A   1      47.437  34.223  30.023  1.00  0.00     0.198 A 
ATOM     69  F   UNL A   1      47.029  31.993  30.598  1.00  0.00    -0.203 F 
ATOM     70  F   UNL A   1      47.168  35.853  26.952  1.00  0.00    -0.200 F 
ATOM     71  C   UNL A   1      47.341  35.259  29.135  1.00  0.00     0.200 A 
ATOM     72  F   UNL A   1      47.953  34.439  31.229  1.00  0.00    -0.200 F 
ATOM     73  F   UNL A   1      47.604  36.513  29.490  1.00  0.00    -0.200 F 
ENDBRANCH  40  63
ENDBRANCH  14  15
ENDBRANCH   7   9
ENDBRANCH   6   7
ENDBRANCH   5   6
ENDBRANCH   4   5
ENDBRANCH   3   4
ENDBRANCH   2   3
ENDBRANCH   1   2
BRANCH   1  74
ATOM     74  O   UNL A   1      38.542  21.898  25.637  1.00  0.00    -0.376 OA
BRANCH  74  75
ATOM     75  C   UNL A   1      37.892  20.736  25.142  1.00  0.00     0.202 C 
BRANCH  75  76
ATOM     76  C   UNL A   1      36.390  20.878  25.325  1.00  0.00     0.261 C 
BRANCH  76  77
ATOM     77  O   UNL A   1      36.104  22.118  25.955  1.00  0.00    -0.460 OA
BRANCH  77  78
ATOM     78  C   UNL A   1      34.836  22.334  26.556  1.00  0.00     0.340 C 
ATOM     79  O   UNL A   1      34.534  21.733  27.635  1.00  0.00    -0.246 OA
BRANCH  78  80
ATOM     80  C   UNL A   1      33.840  23.282  25.910  1.00  0.00     0.083 A 
ATOM     81  C   UNL A   1      34.192  24.578  25.570  1.00  0.00     0.018 A 
ATOM     82  C   UNL A   1      32.586  22.860  25.802  1.00  0.00     0.053 A 
ATOM     83  C   UNL A   1      33.089  25.446  25.398  1.00  0.00     0.001 A 
ATOM     84  C   UNL A   1      31.574  23.738  25.498  1.00  0.00     0.027 A 
ATOM     85  C   UNL A   1      31.845  25.047  25.209  1.00  0.00     0.002 A 
BRANCH  82  86
ATOM     86  N   UNL A   1      32.277  21.437  26.012  1.00  0.00    -0.355 N 
ATOM     87  H   UNL A   1      31.871  21.141  26.858  1.00  0.00     0.167 HD
BRANCH  86  88
ATOM     88  C   UNL A   1      32.574  20.458  24.957  1.00  0.00     0.040 A 
ATOM     89  C   UNL A   1      32.155  20.721  23.663  1.00  0.00     0.026 A 
ATOM     90  C   UNL A   1      33.174  19.314  25.266  1.00  0.00     0.050 A 
ATOM     91  C   UNL A   1      32.154  19.586  22.819  1.00  0.00     0.004 A 
ATOM     92  C   UNL A   1      33.258  18.297  24.347  1.00  0.00     0.109 A 
ATOM     93  C   UNL A   1      32.808  18.467  23.067  1.00  0.00     0.024 A 
BRANCH  92  94
ATOM     94  S   UNL A   1      33.972  16.707  24.838  1.00  0.00     0.310 S 
ATOM     95  F   UNL A   1      34.029  16.201  23.336  1.00  0.00    -0.094 F 
ATOM     96  F   UNL A   1      32.521  16.098  24.916  1.00  0.00    -0.094 F 
ATOM     97  F   UNL A   1      34.597  15.347  25.256  1.00  0.00    -0.094 F 
ATOM     98  F   UNL A   1      35.421  17.296  24.618  1.00  0.00    -0.094 F 
ATOM     99  F   UNL A   1      33.357  18.062  24.304  1.00  0.00    -0.094 F 
ENDBRANCH  92  94
ENDBRANCH  86  88
ENDBRANCH  82  86
ENDBRANCH  78  80
ENDBRANCH  77  78
ENDBRANCH  76  77
ENDBRANCH  75  76
ENDBRANCH  74  75
ENDBRANCH   1  74
TORSDOF 20
ENDMDL
MODEL 3
REMARK VINA RESULT:     -11.4      4.437      8.144
REMARK SMILES O=C(OCCOCCOCCOC(=O)c1ccccc1Nc1cccc(S(F)(F)(F)(F)F)c1)c1ccc(-c2c3nc(c(-c4c(F)c(F)c(F)c(F)c4F)c4ccc([nH]4)c(-c4c(F)c(F)c(F)c(F)c4F)c4nc(c(-c5c(F)c(F)c(F)c(F)c5F)c5ccc2[nH]5)C=C4)C=C3)cc1
REMARK SMILES IDX 8 1 7 2 6 3 5 4 4 5 3 6 2 7 1 8 34 9 35 10 96 11 36 12 95 13
REMARK SMILES IDX 37 14 38 15 39 16 89 17 40 18 94 19 88 20 90 21 41 22 93 23
REMARK SMILES IDX 87 24 86 25 42 27 74 28 54 29 73 30 55 31 58 32 72 33 91 34
REMARK SMILES IDX 56 35 57 36 71 38 92 39 59 40 43 41 44 42 52 43 45 44 46 45
REMARK SMILES IDX 50 46 53 47 47 48 48 49 51 50 49 51 75 52 76 53 84 54 77 55
REMARK SMILES IDX 78 56 82 57 85 58 79 59 80 60 83 61 81 62 60 63 61 64 69 65
REMARK SMILES IDX 62 66 63 67 67 68 70 69 64 70 65 71 68 72 66 73 9 74 10 75
REMARK SMILES IDX 11 76 12 77 13 78 14 79 15 80 16 81 20 82 17 83 19 84 18 85
REMARK SMILES IDX 21 86 22 88 23 89 33 90 24 91 26 92 25 93 27 94 28 95 29 96
REMARK SMILES IDX 30 97 31 98 32 99
REMARK H PARENT 90 26 58 37 21 87
REMARK Flexibility Score: inf
ROOT
ATOM      1  C   UNL A   1      31.287  28.040  23.095  1.00  0.00     0.188 C 
ENDROOT
BRANCH   1   2
ATOM      2  C   UNL A   1      31.286  27.862  24.604  1.00  0.00     0.188 C 
BRANCH   2   3
ATOM      3  O   UNL A   1      31.494  29.120  25.229  1.00  0.00    -0.376 OA
BRANCH   3   4
ATOM      4  C   UNL A   1      32.843  29.524  25.044  1.00  0.00     0.202 C 
BRANCH   4   5
ATOM      5  C   UNL A   1      33.726  28.824  26.064  1.00  0.00     0.261 C 
BRANCH   5   6
ATOM      6  O   UNL A   1      33.570  29.445  27.331  1.00  0.00    -0.460 OA
BRANCH   6   7
ATOM      7  C   UNL A   1      34.465  30.472  27.734  1.00  0.00     0.338 C 
ATOM      8  O   UNL A   1      34.102  31.688  27.680  1.00  0.00    -0.246 OA
BRANCH   7   9
ATOM      9  C   UNL A   1      35.858  30.116  28.228  1.00  0.00     0.060 A 
ATOM     10  C   UNL A   1      36.904  30.317  27.342  1.00  0.00     0.016 A 
ATOM     11  C   UNL A   1      36.059  29.561  29.417  1.00  0.00     0.016 A 
ATOM     12  C   UNL A   1      38.091  29.629  27.692  1.00  0.00     0.010 A 
ATOM     13  C   UNL A   1      37.283  29.030  29.743  1.00  0.00     0.010 A 
ATOM     14  C   UNL A   1      38.347  29.140  28.891  1.00  0.00    -0.014 A 
BRANCH  14  15
ATOM     15  C   UNL A   1      39.749  28.721  29.302  1.00  0.00     0.031 A 
ATOM     16  C   UNL A   1      40.308  27.530  28.837  1.00  0.00     0.074 A 
ATOM     17  C   UNL A   1      40.417  29.627  30.107  1.00  0.00     0.049 A 
ATOM     18  N   UNL A   1      41.547  27.078  29.042  1.00  0.00    -0.248 NA
ATOM     19  C   UNL A   1      39.590  26.548  28.010  1.00  0.00     0.031 C 
ATOM     20  C   UNL A   1      39.862  30.835  30.573  1.00  0.00     0.029 A 
ATOM     21  N   UNL A   1      41.702  29.538  30.595  1.00  0.00    -0.354 N 
ATOM     22  C   UNL A   1      41.720  25.909  28.420  1.00  0.00     0.074 A 
ATOM     23  C   UNL A   1      40.462  25.548  27.754  1.00  0.00     0.031 C 
ATOM     24  C   UNL A   1      40.795  31.458  31.340  1.00  0.00     0.029 A 
ATOM     25  C   UNL A   1      41.948  30.652  31.365  1.00  0.00     0.049 A 
ATOM     26  H   UNL A   1      42.336  28.804  30.421  1.00  0.00     0.167 HD
ATOM     27  C   UNL A   1      42.879  25.131  28.383  1.00  0.00     0.037 A 
ATOM     28  C   UNL A   1      43.106  30.965  32.061  1.00  0.00     0.037 A 
ATOM     29  C   UNL A   1      44.050  25.464  29.043  1.00  0.00     0.049 A 
ATOM     30  C   UNL A   1      44.246  30.157  32.071  1.00  0.00     0.074 A 
ATOM     31  C   UNL A   1      45.230  24.695  29.009  1.00  0.00     0.029 A 
ATOM     32  N   UNL A   1      44.289  26.567  29.834  1.00  0.00    -0.354 N 
ATOM     33  N   UNL A   1      44.431  29.009  31.418  1.00  0.00    -0.248 NA
ATOM     34  C   UNL A   1      45.466  30.461  32.830  1.00  0.00     0.031 C 
ATOM     35  C   UNL A   1      46.162  25.320  29.776  1.00  0.00     0.029 A 
ATOM     36  C   UNL A   1      45.581  26.489  30.303  1.00  0.00     0.049 A 
ATOM     37  H   UNL A   1      43.645  27.287  30.030  1.00  0.00     0.167 HD
ATOM     38  C   UNL A   1      45.657  28.537  31.657  1.00  0.00     0.074 A 
ATOM     39  C   UNL A   1      46.337  29.461  32.575  1.00  0.00     0.031 C 
ATOM     40  C   UNL A   1      46.236  27.376  31.144  1.00  0.00     0.037 A 
BRANCH  27  41
ATOM     41  C   UNL A   1      42.853  23.845  27.573  1.00  0.00     0.064 A 
ATOM     42  C   UNL A   1      43.320  23.919  26.271  1.00  0.00     0.173 A 
ATOM     43  C   UNL A   1      42.510  22.683  28.117  1.00  0.00     0.173 A 
ATOM     44  F   UNL A   1      43.907  25.002  25.770  1.00  0.00    -0.203 F 
ATOM     45  C   UNL A   1      43.115  22.736  25.520  1.00  0.00     0.198 A 
ATOM     46  C   UNL A   1      42.462  21.542  27.355  1.00  0.00     0.198 A 
ATOM     47  F   UNL A   1      42.211  22.625  29.411  1.00  0.00    -0.203 F 
ATOM     48  F   UNL A   1      43.191  22.823  24.196  1.00  0.00    -0.200 F 
ATOM     49  C   UNL A   1      42.852  21.553  26.045  1.00  0.00     0.200 A 
ATOM     50  F   UNL A   1      42.030  20.407  27.900  1.00  0.00    -0.200 F 
ATOM     51  F   UNL A   1      42.962  20.433  25.336  1.00  0.00    -0.200 F 
ENDBRANCH  27  41
BRANCH  28  52
ATOM     52  C   UNL A   1      43.137  32.259  32.857  1.00  0.00     0.064 A 
ATOM     53  C   UNL A   1      42.716  32.270  34.176  1.00  0.00     0.173 A 
ATOM     54  C   UNL A   1      43.454  33.384  32.225  1.00  0.00     0.173 A 
ATOM     55  F   UNL A   1      42.632  31.172  34.920  1.00  0.00    -0.203 F 
ATOM     56  C   UNL A   1      42.384  33.558  34.661  1.00  0.00     0.198 A 
ATOM     57  C   UNL A   1      43.228  34.603  32.814  1.00  0.00     0.198 A 
ATOM     58  F   UNL A   1      43.997  33.327  31.012  1.00  0.00    -0.203 F 
ATOM     59  F   UNL A   1      41.644  33.631  35.764  1.00  0.00    -0.200 F 
ATOM     60  C   UNL A   1      42.757  34.691  34.094  1.00  0.00     0.200 A 
ATOM     61  F   UNL A   1      43.470  35.717  32.127  1.00  0.00    -0.200 F 
ATOM     62  F   UNL A   1      42.680  35.853  34.736  1.00  0.00    -0.200 F 
ENDBRANCH  28  52
BRANCH  40  63
ATOM     63  C   UNL A   1      47.672  27.063  31.532  1.00  0.00     0.064 A 
ATOM     64  C   UNL A   1      48.669  27.600  30.736  1.00  0.00     0.173 A 
ATOM     65  C   UNL A   1      47.960  26.256  32.547  1.00  0.00     0.173 A 
ATOM     66  F   UNL A   1      48.458  28.597  29.881  1.00  0.00    -0.203 F 
ATOM     67  C   UNL A   1      49.935  26.992  30.914  1.00  0.00     0.198 A 
ATOM     68  C   UNL A   1      49.245  25.809  32.742  1.00  0.00     0.198 A 
ATOM     69  F   UNL A   1      46.997  25.878  33.383  1.00  0.00    -0.203 F 
ATOM     70  F   UNL A   1      50.850  27.179  29.966  1.00  0.00    -0.200 F 
ATOM     71  C   UNL A   1      50.271  26.253  31.956  1.00  0.00     0.200 A 
ATOM     72  F   UNL A   1      49.493  24.932  33.711  1.00  0.00    -0.200 F 
ATOM     73  F   UNL A   1      51.539  25.955  32.224  1.00  0.00    -0.200 F 
ENDBRANCH  40  63
ENDBRANCH  14  15
ENDBRANCH   7   9
ENDBRANCH   6   7
ENDBRANCH   5   6
ENDBRANCH   4   5
ENDBRANCH   3   4
ENDBRANCH   2   3
ENDBRANCH   1   2
BRANCH   1  74
ATOM     74  O   UNL A   1      32.398  27.353  22.537  1.00  0.00    -0.376 OA
BRANCH  74  75
ATOM     75  C   UNL A   1      32.383  26.000  22.968  1.00  0.00     0.202 C 
BRANCH  75  76
ATOM     76  C   UNL A   1      33.698  25.673  23.658  1.00  0.00     0.261 C 
BRANCH  76  77
ATOM     77  O   UNL A   1      33.624  24.374  24.226  1.00  0.00    -0.460 OA
BRANCH  77  78
ATOM     78  C   UNL A   1      34.153  24.135  25.522  1.00  0.00     0.340 C 
ATOM     79  O   UNL A   1      33.564  24.606  26.546  1.00  0.00    -0.246 OA
BRANCH  78  80
ATOM     80  C   UNL A   1      35.424  23.318  25.686  1.00  0.00     0.083 A 
ATOM     81  C   UNL A   1      36.669  23.924  25.749  1.00  0.00     0.018 A 
ATOM     82  C   UNL A   1      35.304  21.997  25.637  1.00  0.00     0.053 A 
ATOM     83  C   UNL A   1      37.746  23.052  25.463  1.00  0.00     0.001 A 
ATOM     84  C   UNL A   1      36.412  21.198  25.493  1.00  0.00     0.027 A 
ATOM     85  C   UNL A   1      37.669  21.735  25.487  1.00  0.00     0.002 A 
BRANCH  82  86
ATOM     86  N   UNL A   1      33.971  21.384  25.739  1.00  0.00    -0.355 N 
ATOM     87  H   UNL A   1      33.384  21.605  26.497  1.00  0.00     0.167 HD
BRANCH  86  88
ATOM     88  C   UNL A   1      33.516  20.439  24.709  1.00  0.00     0.040 A 
ATOM     89  C   UNL A   1      32.882  20.935  23.581  1.00  0.00     0.026 A 
ATOM     90  C   UNL A   1      33.657  19.133  24.901  1.00  0.00     0.050 A 
ATOM     91  C   UNL A   1      32.168  19.958  22.849  1.00  0.00     0.004 A 
ATOM     92  C   UNL A   1      33.042  18.232  24.065  1.00  0.00     0.109 A 
ATOM     93  C   UNL A   1      32.347  18.655  22.966  1.00  0.00     0.024 A 
BRANCH  92  94
ATOM     94  S   UNL A   1      33.151  16.462  24.425  1.00  0.00     0.310 S 
ATOM     95  F   UNL A   1      34.257  16.695  25.538  1.00  0.00    -0.094 F 
ATOM     96  F   UNL A   1      34.325  16.339  23.382  1.00  0.00    -0.094 F 
ATOM     97  F   UNL A   1      33.237  14.943  24.745  1.00  0.00    -0.094 F 
ATOM     98  F   UNL A   1      32.072  16.632  25.566  1.00  0.00    -0.094 F 
ATOM     99  F   UNL A   1      33.129  18.025  24.192  1.00  0.00    -0.094 F 
ENDBRANCH  92  94
ENDBRANCH  86  88
ENDBRANCH  82  86
ENDBRANCH  78  80
ENDBRANCH  77  78
ENDBRANCH  76  77
ENDBRANCH  75  76
ENDBRANCH  74  75
ENDBRANCH   1  74
TORSDOF 20
ENDMDL
