MODEL 1
REMARK VINA RESULT:     -10.3      0.000      0.000
REMARK SMILES COc1ccc([C@@H]([NH3+])CC(=O)OCCOCCOCCOC(=O)c2ccc(-c3c4nc(c(-c5c(F)c(F)c(F)c(F)c5F)c5ccc([nH]5)c(-c5c(F)c(F)c(F)c(F)c5F)c5nc(c(-c6c(F)c(F)c(F)c(F)c6F)c6ccc3[nH]6)C=C5)C=C4)cc2)cc1
REMARK SMILES IDX 16 1 15 2 14 3 13 4 12 5 10 6 11 7 9 8 7 9 6 10 3 11 4 12
REMARK SMILES IDX 88 13 5 14 87 15 2 16 1 17 8 18 17 22 18 23 19 24 20 25
REMARK SMILES IDX 21 26 22 27 23 28 24 29 25 30 86 31 26 32 85 33 27 34 28 35
REMARK SMILES IDX 29 36 79 37 30 38 84 39 78 40 80 41 31 42 83 43 77 44 76 45
REMARK SMILES IDX 32 47 64 48 44 49 63 50 45 51 48 52 62 53 81 54 46 55 47 56
REMARK SMILES IDX 61 58 82 59 49 60 33 61 34 62 42 63 35 64 36 65 40 66 43 67
REMARK SMILES IDX 37 68 38 69 41 70 39 71 65 72 66 73 74 74 67 75 68 76 72 77
REMARK SMILES IDX 75 78 69 79 70 80 73 81 71 82 50 83 51 84 59 85 52 86 53 87
REMARK SMILES IDX 57 88 60 89 54 90 55 91 58 92 56 93
REMARK H PARENT 8 19 8 20 8 21 80 46 48 57
REMARK Flexibility Score: inf
ROOT
ATOM      1  C   UNL A   1      42.279  18.955  25.945  1.00  0.00     0.188 C 
ENDROOT
BRANCH   1   2
ATOM      2  O   UNL A   1      40.979  19.518  25.809  1.00  0.00    -0.376 OA
BRANCH   2   3
ATOM      3  C   UNL A   1      40.620  20.522  26.759  1.00  0.00     0.202 C 
BRANCH   3   4
ATOM      4  C   UNL A   1      40.005  21.814  26.196  1.00  0.00     0.261 C 
BRANCH   4   5
ATOM      5  O   UNL A   1      38.560  21.814  26.147  1.00  0.00    -0.463 OA
BRANCH   5   6
ATOM      6  C   UNL A   1      37.971  22.983  25.786  1.00  0.00     0.312 C 
ATOM      7  O   UNL A   1      38.387  24.093  26.106  1.00  0.00    -0.252 OA
BRANCH   6   8
ATOM      8  C   UNL A   1      36.808  22.844  24.822  1.00  0.00     0.192 C 
BRANCH   8   9
ATOM      9  C   UNL A   1      35.385  22.693  25.375  1.00  0.00     0.223 C 
BRANCH   9  10
ATOM     10  C   UNL A   1      34.621  21.490  24.871  1.00  0.00     0.010 A 
ATOM     11  C   UNL A   1      33.168  19.177  24.251  1.00  0.00     0.118 A 
ATOM     12  C   UNL A   1      32.594  20.432  24.062  1.00  0.00     0.047 A 
ATOM     13  C   UNL A   1      34.501  19.072  24.638  1.00  0.00     0.047 A 
ATOM     14  C   UNL A   1      33.317  21.586  24.367  1.00  0.00     0.014 A 
ATOM     15  C   UNL A   1      35.224  20.225  24.938  1.00  0.00     0.014 A 
BRANCH  11  16
ATOM     16  O   UNL A   1      32.381  18.088  23.992  1.00  0.00    -0.497 OA
ATOM     17  C   UNL A   1      33.149  16.905  23.766  1.00  0.00     0.278 C 
ENDBRANCH  11  16
ENDBRANCH   9  10
BRANCH   9  18
ATOM     18  N   UNL A   1      35.451  22.649  26.845  1.00  0.00    -0.351 N 
ATOM     19  H   UNL A   1      36.346  22.256  27.135  1.00  0.00     0.345 HD
ATOM     20  H   UNL A   1      34.693  22.068  27.202  1.00  0.00     0.345 HD
ATOM     21  H   UNL A   1      35.358  23.595  27.217  1.00  0.00     0.345 HD
ENDBRANCH   9  18
ENDBRANCH   8   9
ENDBRANCH   6   8
ENDBRANCH   5   6
ENDBRANCH   4   5
ENDBRANCH   3   4
ENDBRANCH   2   3
ENDBRANCH   1   2
BRANCH   1  22
ATOM     22  C   UNL A   1      43.450  19.939  25.886  1.00  0.00     0.188 C 
BRANCH  22  23
ATOM     23  O   UNL A   1      44.014  20.150  24.603  1.00  0.00    -0.376 OA
BRANCH  23  24
ATOM     24  C   UNL A   1      44.826  21.309  24.411  1.00  0.00     0.202 C 
BRANCH  24  25
ATOM     25  C   UNL A   1      44.182  22.564  23.790  1.00  0.00     0.261 C 
BRANCH  25  26
ATOM     26  O   UNL A   1      43.661  23.542  24.716  1.00  0.00    -0.460 OA
BRANCH  26  27
ATOM     27  C   UNL A   1      44.466  24.562  25.103  1.00  0.00     0.338 C 
ATOM     28  O   UNL A   1      45.502  24.909  24.578  1.00  0.00    -0.246 OA
BRANCH  27  29
ATOM     29  C   UNL A   1      43.723  25.378  26.110  1.00  0.00     0.060 A 
ATOM     30  C   UNL A   1      43.971  26.758  26.153  1.00  0.00     0.016 A 
ATOM     31  C   UNL A   1      42.735  24.829  26.934  1.00  0.00     0.016 A 
ATOM     32  C   UNL A   1      43.267  27.580  27.040  1.00  0.00     0.010 A 
ATOM     33  C   UNL A   1      42.037  25.649  27.829  1.00  0.00     0.010 A 
ATOM     34  C   UNL A   1      42.322  27.024  27.913  1.00  0.00    -0.014 A 
BRANCH  34  35
ATOM     35  C   UNL A   1      41.796  27.829  29.048  1.00  0.00     0.031 A 
ATOM     36  C   UNL A   1      42.519  27.751  30.367  1.00  0.00     0.074 A 
ATOM     37  C   UNL A   1      40.723  28.633  28.924  1.00  0.00     0.049 A 
ATOM     38  N   UNL A   1      42.233  28.315  31.512  1.00  0.00    -0.248 NA
ATOM     39  C   UNL A   1      43.732  26.919  30.394  1.00  0.00     0.031 C 
ATOM     40  C   UNL A   1      39.957  28.843  27.700  1.00  0.00     0.029 A 
ATOM     41  N   UNL A   1      40.092  29.421  29.858  1.00  0.00    -0.354 N 
ATOM     42  C   UNL A   1      43.223  27.901  32.394  1.00  0.00     0.074 A 
ATOM     43  C   UNL A   1      44.097  27.010  31.662  1.00  0.00     0.031 C 
ATOM     44  C   UNL A   1      38.949  29.696  27.959  1.00  0.00     0.029 A 
ATOM     45  C   UNL A   1      38.978  30.065  29.374  1.00  0.00     0.049 A 
ATOM     46  H   UNL A   1      40.408  29.515  30.785  1.00  0.00     0.167 HD
ATOM     47  C   UNL A   1      43.399  28.238  33.694  1.00  0.00     0.037 A 
ATOM     48  C   UNL A   1      38.075  30.841  30.008  1.00  0.00     0.037 A 
ATOM     49  C   UNL A   1      42.533  29.121  34.429  1.00  0.00     0.049 A 
ATOM     50  C   UNL A   1      38.241  31.132  31.482  1.00  0.00     0.074 A 
ATOM     51  C   UNL A   1      42.639  29.532  35.746  1.00  0.00     0.029 A 
ATOM     52  N   UNL A   1      41.392  29.719  33.915  1.00  0.00    -0.354 N 
ATOM     53  N   UNL A   1      39.193  30.756  32.301  1.00  0.00    -0.248 NA
ATOM     54  C   UNL A   1      37.201  31.956  32.118  1.00  0.00     0.031 C 
ATOM     55  C   UNL A   1      41.528  30.328  36.048  1.00  0.00     0.029 A 
ATOM     56  C   UNL A   1      40.769  30.471  34.898  1.00  0.00     0.049 A 
ATOM     57  H   UNL A   1      41.073  29.624  32.988  1.00  0.00     0.167 HD
ATOM     58  C   UNL A   1      38.888  31.328  33.533  1.00  0.00     0.074 A 
ATOM     59  C   UNL A   1      37.669  32.084  33.351  1.00  0.00     0.031 C 
ATOM     60  C   UNL A   1      39.561  31.233  34.707  1.00  0.00     0.037 A 
BRANCH  47  61
ATOM     61  C   UNL A   1      44.561  27.621  34.417  1.00  0.00     0.064 A 
ATOM     62  C   UNL A   1      45.811  28.255  34.486  1.00  0.00     0.173 A 
ATOM     63  C   UNL A   1      44.413  26.390  35.074  1.00  0.00     0.173 A 
ATOM     64  F   UNL A   1      46.012  29.425  33.860  1.00  0.00    -0.203 F 
ATOM     65  C   UNL A   1      46.877  27.664  35.159  1.00  0.00     0.198 A 
ATOM     66  C   UNL A   1      45.470  25.820  35.776  1.00  0.00     0.198 A 
ATOM     67  F   UNL A   1      43.238  25.743  35.042  1.00  0.00    -0.203 F 
ATOM     68  F   UNL A   1      48.078  28.260  35.164  1.00  0.00    -0.200 F 
ATOM     69  C   UNL A   1      46.704  26.452  35.810  1.00  0.00     0.200 A 
ATOM     70  F   UNL A   1      45.297  24.655  36.416  1.00  0.00    -0.200 F 
ATOM     71  F   UNL A   1      47.729  25.888  36.465  1.00  0.00    -0.200 F 
ENDBRANCH  47  61
BRANCH  48  72
ATOM     72  C   UNL A   1      36.910  31.396  29.264  1.00  0.00     0.064 A 
ATOM     73  C   UNL A   1      36.841  32.757  28.930  1.00  0.00     0.173 A 
ATOM     74  C   UNL A   1      35.820  30.586  28.912  1.00  0.00     0.173 A 
ATOM     75  F   UNL A   1      37.841  33.581  29.275  1.00  0.00    -0.203 F 
ATOM     76  C   UNL A   1      35.720  33.288  28.294  1.00  0.00     0.198 A 
ATOM     77  C   UNL A   1      34.715  31.111  28.246  1.00  0.00     0.198 A 
ATOM     78  F   UNL A   1      35.829  29.280  29.217  1.00  0.00    -0.203 F 
ATOM     79  F   UNL A   1      35.657  34.602  28.041  1.00  0.00    -0.200 F 
ATOM     80  C   UNL A   1      34.661  32.464  27.946  1.00  0.00     0.200 A 
ATOM     81  F   UNL A   1      33.697  30.309  27.906  1.00  0.00    -0.200 F 
ATOM     82  F   UNL A   1      33.583  32.974  27.336  1.00  0.00    -0.200 F 
ENDBRANCH  48  72
BRANCH  60  83
ATOM     83  C   UNL A   1      39.029  32.006  35.883  1.00  0.00     0.064 A 
ATOM     84  C   UNL A   1      38.188  31.419  36.841  1.00  0.00     0.173 A 
ATOM     85  C   UNL A   1      39.408  33.345  36.080  1.00  0.00     0.173 A 
ATOM     86  F   UNL A   1      37.786  30.148  36.696  1.00  0.00    -0.203 F 
ATOM     87  C   UNL A   1      37.725  32.150  37.932  1.00  0.00     0.198 A 
ATOM     88  C   UNL A   1      38.971  34.061  37.192  1.00  0.00     0.198 A 
ATOM     89  F   UNL A   1      40.219  33.954  35.203  1.00  0.00    -0.203 F 
ATOM     90  F   UNL A   1      36.880  31.583  38.806  1.00  0.00    -0.200 F 
ATOM     91  C   UNL A   1      38.122  33.466  38.112  1.00  0.00     0.200 A 
ATOM     92  F   UNL A   1      39.374  35.326  37.372  1.00  0.00    -0.200 F 
ATOM     93  F   UNL A   1      37.683  34.162  39.169  1.00  0.00    -0.200 F 
ENDBRANCH  60  83
ENDBRANCH  34  35
ENDBRANCH  27  29
ENDBRANCH  26  27
ENDBRANCH  25  26
ENDBRANCH  24  25
ENDBRANCH  23  24
ENDBRANCH  22  23
ENDBRANCH   1  22
TORSDOF 21
ENDMDL
MODEL 2
REMARK VINA RESULT:     -10.0      4.320      8.956
REMARK SMILES COc1ccc([C@@H]([NH3+])CC(=O)OCCOCCOCCOC(=O)c2ccc(-c3c4nc(c(-c5c(F)c(F)c(F)c(F)c5F)c5ccc([nH]5)c(-c5c(F)c(F)c(F)c(F)c5F)c5nc(c(-c6c(F)c(F)c(F)c(F)c6F)c6ccc3[nH]6)C=C5)C=C4)cc2)cc1
REMARK SMILES IDX 16 1 15 2 14 3 13 4 12 5 10 6 11 7 9 8 7 9 6 10 3 11 4 12
REMARK SMILES IDX 88 13 5 14 87 15 2 16 1 17 8 18 17 22 18 23 19 24 20 25
REMARK SMILES IDX 21 26 22 27 23 28 24 29 25 30 86 31 26 32 85 33 27 34 28 35
REMARK SMILES IDX 29 36 79 37 30 38 84 39 78 40 80 41 31 42 83 43 77 44 76 45
REMARK SMILES IDX 32 47 64 48 44 49 63 50 45 51 48 52 62 53 81 54 46 55 47 56
REMARK SMILES IDX 61 58 82 59 49 60 33 61 34 62 42 63 35 64 36 65 40 66 43 67
REMARK SMILES IDX 37 68 38 69 41 70 39 71 65 72 66 73 74 74 67 75 68 76 72 77
REMARK SMILES IDX 75 78 69 79 70 80 73 81 71 82 50 83 51 84 59 85 52 86 53 87
REMARK SMILES IDX 57 88 60 89 54 90 55 91 58 92 56 93
REMARK H PARENT 8 19 8 20 8 21 80 46 48 57
REMARK Flexibility Score: inf
ROOT
ATOM      1  C   UNL A   1      33.955  25.078  25.521  1.00  0.00     0.188 C 
ENDROOT
BRANCH   1   2
ATOM      2  O   UNL A   1      34.749  24.891  24.355  1.00  0.00    -0.376 OA
BRANCH   2   3
ATOM      3  C   UNL A   1      34.435  23.755  23.549  1.00  0.00     0.202 C 
BRANCH   3   4
ATOM      4  C   UNL A   1      33.222  23.889  22.613  1.00  0.00     0.261 C 
BRANCH   4   5
ATOM      5  O   UNL A   1      33.405  24.832  21.531  1.00  0.00    -0.463 OA
BRANCH   5   6
ATOM      6  C   UNL A   1      32.955  26.093  21.753  1.00  0.00     0.312 C 
ATOM      7  O   UNL A   1      33.674  27.087  21.790  1.00  0.00    -0.252 OA
BRANCH   6   8
ATOM      8  C   UNL A   1      31.446  26.232  21.821  1.00  0.00     0.192 C 
BRANCH   8   9
ATOM      9  C   UNL A   1      30.799  26.817  23.084  1.00  0.00     0.223 C 
BRANCH   9  10
ATOM     10  C   UNL A   1      29.951  28.049  22.863  1.00  0.00     0.010 A 
ATOM     11  C   UNL A   1      28.391  30.258  22.136  1.00  0.00     0.118 A 
ATOM     12  C   UNL A   1      27.812  29.189  22.815  1.00  0.00     0.047 A 
ATOM     13  C   UNL A   1      29.767  30.282  21.919  1.00  0.00     0.047 A 
ATOM     14  C   UNL A   1      28.588  28.089  23.182  1.00  0.00     0.014 A 
ATOM     15  C   UNL A   1      30.541  29.185  22.290  1.00  0.00     0.014 A 
BRANCH  11  16
ATOM     16  O   UNL A   1      27.560  31.274  21.751  1.00  0.00    -0.497 OA
ATOM     17  C   UNL A   1      27.997  31.908  20.548  1.00  0.00     0.278 C 
ENDBRANCH  11  16
ENDBRANCH   9  10
BRANCH   9  18
ATOM     18  N   UNL A   1      29.984  25.771  23.725  1.00  0.00    -0.351 N 
ATOM     19  H   UNL A   1      30.206  25.728  24.719  1.00  0.00     0.345 HD
ATOM     20  H   UNL A   1      30.187  24.870  23.292  1.00  0.00     0.345 HD
ATOM     21  H   UNL A   1      28.995  25.990  23.605  1.00  0.00     0.345 HD
ENDBRANCH   9  18
ENDBRANCH   8   9
ENDBRANCH   6   8
ENDBRANCH   5   6
ENDBRANCH   4   5
ENDBRANCH   3   4
ENDBRANCH   2   3
ENDBRANCH   1   2
BRANCH   1  22
ATOM     22  C   UNL A   1      33.109  26.354  25.564  1.00  0.00     0.188 C 
BRANCH  22  23
ATOM     23  O   UNL A   1      33.810  27.547  25.874  1.00  0.00    -0.376 OA
BRANCH  23  24
ATOM     24  C   UNL A   1      33.595  28.685  25.039  1.00  0.00     0.202 C 
BRANCH  24  25
ATOM     25  C   UNL A   1      32.610  29.771  25.516  1.00  0.00     0.261 C 
BRANCH  25  26
ATOM     26  O   UNL A   1      32.724  30.176  26.897  1.00  0.00    -0.460 OA
BRANCH  26  27
ATOM     27  C   UNL A   1      33.319  31.362  27.179  1.00  0.00     0.338 C 
ATOM     28  O   UNL A   1      32.807  32.459  27.141  1.00  0.00    -0.246 OA
BRANCH  27  29
ATOM     29  C   UNL A   1      34.635  31.073  27.826  1.00  0.00     0.060 A 
ATOM     30  C   UNL A   1      34.897  29.754  28.227  1.00  0.00     0.016 A 
ATOM     31  C   UNL A   1      35.634  32.044  27.954  1.00  0.00     0.016 A 
ATOM     32  C   UNL A   1      36.132  29.414  28.791  1.00  0.00     0.010 A 
ATOM     33  C   UNL A   1      36.866  31.707  28.528  1.00  0.00     0.010 A 
ATOM     34  C   UNL A   1      37.111  30.398  28.981  1.00  0.00    -0.014 A 
BRANCH  34  35
ATOM     35  C   UNL A   1      38.292  30.115  29.840  1.00  0.00     0.031 A 
ATOM     36  C   UNL A   1      39.360  29.201  29.297  1.00  0.00     0.074 A 
ATOM     37  C   UNL A   1      38.445  30.664  31.059  1.00  0.00     0.049 A 
ATOM     38  N   UNL A   1      40.455  28.764  29.865  1.00  0.00    -0.248 NA
ATOM     39  C   UNL A   1      39.159  28.713  27.924  1.00  0.00     0.031 C 
ATOM     40  C   UNL A   1      37.519  31.600  31.690  1.00  0.00     0.029 A 
ATOM     41  N   UNL A   1      39.446  30.502  31.988  1.00  0.00    -0.354 N 
ATOM     42  C   UNL A   1      41.068  27.947  28.923  1.00  0.00     0.074 A 
ATOM     43  C   UNL A   1      40.205  27.920  27.761  1.00  0.00     0.031 C 
ATOM     44  C   UNL A   1      37.989  31.922  32.910  1.00  0.00     0.029 A 
ATOM     45  C   UNL A   1      39.230  31.188  33.159  1.00  0.00     0.049 A 
ATOM     46  H   UNL A   1      40.242  29.945  31.829  1.00  0.00     0.167 HD
ATOM     47  C   UNL A   1      42.247  27.287  29.009  1.00  0.00     0.037 A 
ATOM     48  C   UNL A   1      39.940  31.201  34.306  1.00  0.00     0.037 A 
ATOM     49  C   UNL A   1      43.108  27.308  30.162  1.00  0.00     0.049 A 
ATOM     50  C   UNL A   1      41.206  30.384  34.412  1.00  0.00     0.074 A 
ATOM     51  C   UNL A   1      44.329  26.680  30.336  1.00  0.00     0.029 A 
ATOM     52  N   UNL A   1      42.832  27.981  31.342  1.00  0.00    -0.354 N 
ATOM     53  N   UNL A   1      41.791  29.634  33.509  1.00  0.00    -0.248 NA
ATOM     54  C   UNL A   1      41.912  30.416  35.703  1.00  0.00     0.031 C 
ATOM     55  C   UNL A   1      44.762  26.921  31.644  1.00  0.00     0.029 A 
ATOM     56  C   UNL A   1      43.846  27.758  32.260  1.00  0.00     0.049 A 
ATOM     57  H   UNL A   1      42.035  28.536  31.504  1.00  0.00     0.167 HD
ATOM     58  C   UNL A   1      42.946  29.141  34.108  1.00  0.00     0.074 A 
ATOM     59  C   UNL A   1      42.986  29.684  35.447  1.00  0.00     0.031 C 
ATOM     60  C   UNL A   1      43.888  28.312  33.590  1.00  0.00     0.037 A 
BRANCH  47  61
ATOM     61  C   UNL A   1      42.661  26.456  27.830  1.00  0.00     0.064 A 
ATOM     62  C   UNL A   1      43.495  26.964  26.822  1.00  0.00     0.173 A 
ATOM     63  C   UNL A   1      42.239  25.122  27.720  1.00  0.00     0.173 A 
ATOM     64  F   UNL A   1      43.913  28.238  26.869  1.00  0.00    -0.203 F 
ATOM     65  C   UNL A   1      43.866  26.176  25.734  1.00  0.00     0.198 A 
ATOM     66  C   UNL A   1      42.641  24.328  26.651  1.00  0.00     0.198 A 
ATOM     67  F   UNL A   1      41.442  24.585  28.657  1.00  0.00    -0.203 F 
ATOM     68  F   UNL A   1      44.617  26.700  24.756  1.00  0.00    -0.200 F 
ATOM     69  C   UNL A   1      43.445  24.858  25.654  1.00  0.00     0.200 A 
ATOM     70  F   UNL A   1      42.244  23.049  26.582  1.00  0.00    -0.200 F 
ATOM     71  F   UNL A   1      43.809  24.099  24.611  1.00  0.00    -0.200 F 
ENDBRANCH  47  61
BRANCH  48  72
ATOM     72  C   UNL A   1      39.468  32.003  35.470  1.00  0.00     0.064 A 
ATOM     73  C   UNL A   1      38.573  31.468  36.407  1.00  0.00     0.173 A 
ATOM     74  C   UNL A   1      39.868  33.337  35.642  1.00  0.00     0.173 A 
ATOM     75  F   UNL A   1      38.133  30.208  36.269  1.00  0.00    -0.203 F 
ATOM     76  C   UNL A   1      38.080  32.241  37.457  1.00  0.00     0.198 A 
ATOM     77  C   UNL A   1      39.400  34.099  36.710  1.00  0.00     0.198 A 
ATOM     78  F   UNL A   1      40.714  33.902  34.768  1.00  0.00    -0.203 F 
ATOM     79  F   UNL A   1      37.180  31.722  38.303  1.00  0.00    -0.200 F 
ATOM     80  C   UNL A   1      38.499  33.553  37.612  1.00  0.00     0.200 A 
ATOM     81  F   UNL A   1      39.814  35.364  36.860  1.00  0.00    -0.200 F 
ATOM     82  F   UNL A   1      38.024  34.297  38.621  1.00  0.00    -0.200 F 
ENDBRANCH  48  72
BRANCH  60  83
ATOM     83  C   UNL A   1      45.074  27.978  34.451  1.00  0.00     0.064 A 
ATOM     84  C   UNL A   1      45.103  26.839  35.270  1.00  0.00     0.173 A 
ATOM     85  C   UNL A   1      46.224  28.785  34.417  1.00  0.00     0.173 A 
ATOM     86  F   UNL A   1      44.029  26.039  35.349  1.00  0.00    -0.203 F 
ATOM     87  C   UNL A   1      46.222  26.539  36.043  1.00  0.00     0.198 A 
ATOM     88  C   UNL A   1      47.354  28.462  35.163  1.00  0.00     0.198 A 
ATOM     89  F   UNL A   1      46.258  29.881  33.643  1.00  0.00    -0.203 F 
ATOM     90  F   UNL A   1      46.205  25.474  36.857  1.00  0.00    -0.200 F 
ATOM     91  C   UNL A   1      47.349  27.344  35.983  1.00  0.00     0.200 A 
ATOM     92  F   UNL A   1      48.448  29.232  35.088  1.00  0.00    -0.200 F 
ATOM     93  F   UNL A   1      48.428  27.047  36.720  1.00  0.00    -0.200 F 
ENDBRANCH  60  83
ENDBRANCH  34  35
ENDBRANCH  27  29
ENDBRANCH  26  27
ENDBRANCH  25  26
ENDBRANCH  24  25
ENDBRANCH  23  24
ENDBRANCH  22  23
ENDBRANCH   1  22
TORSDOF 21
ENDMDL
MODEL 3
REMARK VINA RESULT:      -9.7      1.355      2.026
REMARK SMILES COc1ccc([C@@H]([NH3+])CC(=O)OCCOCCOCCOC(=O)c2ccc(-c3c4nc(c(-c5c(F)c(F)c(F)c(F)c5F)c5ccc([nH]5)c(-c5c(F)c(F)c(F)c(F)c5F)c5nc(c(-c6c(F)c(F)c(F)c(F)c6F)c6ccc3[nH]6)C=C5)C=C4)cc2)cc1
REMARK SMILES IDX 16 1 15 2 14 3 13 4 12 5 10 6 11 7 9 8 7 9 6 10 3 11 4 12
REMARK SMILES IDX 88 13 5 14 87 15 2 16 1 17 8 18 17 22 18 23 19 24 20 25
REMARK SMILES IDX 21 26 22 27 23 28 24 29 25 30 86 31 26 32 85 33 27 34 28 35
REMARK SMILES IDX 29 36 79 37 30 38 84 39 78 40 80 41 31 42 83 43 77 44 76 45
REMARK SMILES IDX 32 47 64 48 44 49 63 50 45 51 48 52 62 53 81 54 46 55 47 56
REMARK SMILES IDX 61 58 82 59 49 60 33 61 34 62 42 63 35 64 36 65 40 66 43 67
REMARK SMILES IDX 37 68 38 69 41 70 39 71 65 72 66 73 74 74 67 75 68 76 72 77
REMARK SMILES IDX 75 78 69 79 70 80 73 81 71 82 50 83 51 84 59 85 52 86 53 87
REMARK SMILES IDX 57 88 60 89 54 90 55 91 58 92 56 93
REMARK H PARENT 8 19 8 20 8 21 80 46 48 57
REMARK Flexibility Score: inf
ROOT
ATOM      1  C   UNL A   1      42.523  18.773  25.934  1.00  0.00     0.188 C 
ENDROOT
BRANCH   1   2
ATOM      2  O   UNL A   1      41.185  19.205  25.714  1.00  0.00    -0.376 OA
BRANCH   2   3
ATOM      3  C   UNL A   1      40.721  20.278  26.533  1.00  0.00     0.202 C 
BRANCH   3   4
ATOM      4  C   UNL A   1      40.211  21.532  25.803  1.00  0.00     0.261 C 
BRANCH   4   5
ATOM      5  O   UNL A   1      38.855  21.905  26.138  1.00  0.00    -0.463 OA
BRANCH   5   6
ATOM      6  C   UNL A   1      38.657  23.205  26.479  1.00  0.00     0.312 C 
ATOM      7  O   UNL A   1      39.517  23.927  26.975  1.00  0.00    -0.252 OA
BRANCH   6   8
ATOM      8  C   UNL A   1      37.310  23.775  26.078  1.00  0.00     0.192 C 
BRANCH   8   9
ATOM      9  C   UNL A   1      36.392  22.961  25.155  1.00  0.00     0.223 C 
BRANCH   9  10
ATOM     10  C   UNL A   1      35.041  23.580  24.880  1.00  0.00     0.010 A 
ATOM     11  C   UNL A   1      32.412  24.497  24.568  1.00  0.00     0.118 A 
ATOM     12  C   UNL A   1      33.330  25.247  25.299  1.00  0.00     0.047 A 
ATOM     13  C   UNL A   1      32.829  23.350  23.896  1.00  0.00     0.047 A 
ATOM     14  C   UNL A   1      34.641  24.794  25.454  1.00  0.00     0.014 A 
ATOM     15  C   UNL A   1      34.140  22.902  24.047  1.00  0.00     0.014 A 
BRANCH  11  16
ATOM     16  O   UNL A   1      31.130  24.967  24.510  1.00  0.00    -0.497 OA
ATOM     17  C   UNL A   1      30.609  24.963  23.180  1.00  0.00     0.278 C 
ENDBRANCH  11  16
ENDBRANCH   9  10
BRANCH   9  18
ATOM     18  N   UNL A   1      37.091  22.725  23.881  1.00  0.00    -0.351 N 
ATOM     19  H   UNL A   1      36.456  22.276  23.222  1.00  0.00     0.345 HD
ATOM     20  H   UNL A   1      37.897  22.121  24.043  1.00  0.00     0.345 HD
ATOM     21  H   UNL A   1      37.406  23.617  23.497  1.00  0.00     0.345 HD
ENDBRANCH   9  18
ENDBRANCH   8   9
ENDBRANCH   6   8
ENDBRANCH   5   6
ENDBRANCH   4   5
ENDBRANCH   3   4
ENDBRANCH   2   3
ENDBRANCH   1   2
BRANCH   1  22
ATOM     22  C   UNL A   1      43.602  19.857  25.860  1.00  0.00     0.188 C 
BRANCH  22  23
ATOM     23  O   UNL A   1      44.092  20.151  24.563  1.00  0.00    -0.376 OA
BRANCH  23  24
ATOM     24  C   UNL A   1      44.954  21.280  24.412  1.00  0.00     0.202 C 
BRANCH  24  25
ATOM     25  C   UNL A   1      44.387  22.554  23.757  1.00  0.00     0.261 C 
BRANCH  25  26
ATOM     26  O   UNL A   1      43.839  23.546  24.651  1.00  0.00    -0.460 OA
BRANCH  26  27
ATOM     27  C   UNL A   1      44.664  24.502  25.144  1.00  0.00     0.338 C 
ATOM     28  O   UNL A   1      45.750  24.819  24.709  1.00  0.00    -0.246 OA
BRANCH  27  29
ATOM     29  C   UNL A   1      43.894  25.306  26.141  1.00  0.00     0.060 A 
ATOM     30  C   UNL A   1      43.990  26.704  26.077  1.00  0.00     0.016 A 
ATOM     31  C   UNL A   1      43.019  24.716  27.061  1.00  0.00     0.016 A 
ATOM     32  C   UNL A   1      43.251  27.509  26.951  1.00  0.00     0.010 A 
ATOM     33  C   UNL A   1      42.287  25.521  27.942  1.00  0.00     0.010 A 
ATOM     34  C   UNL A   1      42.424  26.921  27.917  1.00  0.00    -0.014 A 
BRANCH  34  35
ATOM     35  C   UNL A   1      41.876  27.744  29.028  1.00  0.00     0.031 A 
ATOM     36  C   UNL A   1      42.616  27.745  30.340  1.00  0.00     0.074 A 
ATOM     37  C   UNL A   1      40.771  28.500  28.888  1.00  0.00     0.049 A 
ATOM     38  N   UNL A   1      42.319  28.340  31.468  1.00  0.00    -0.248 NA
ATOM     39  C   UNL A   1      43.862  26.964  30.384  1.00  0.00     0.031 C 
ATOM     40  C   UNL A   1      39.984  28.633  27.665  1.00  0.00     0.029 A 
ATOM     41  N   UNL A   1      40.118  29.296  29.799  1.00  0.00    -0.354 N 
ATOM     42  C   UNL A   1      43.334  27.999  32.353  1.00  0.00     0.074 A 
ATOM     43  C   UNL A   1      44.236  27.117  31.643  1.00  0.00     0.031 C 
ATOM     44  C   UNL A   1      38.945  29.454  27.905  1.00  0.00     0.029 A 
ATOM     45  C   UNL A   1      38.974  29.876  29.305  1.00  0.00     0.049 A 
ATOM     46  H   UNL A   1      40.439  29.437  30.718  1.00  0.00     0.167 HD
ATOM     47  C   UNL A   1      43.510  28.391  33.636  1.00  0.00     0.037 A 
ATOM     48  C   UNL A   1      38.047  30.639  29.921  1.00  0.00     0.037 A 
ATOM     49  C   UNL A   1      42.615  29.265  34.349  1.00  0.00     0.049 A 
ATOM     50  C   UNL A   1      38.215  30.990  31.381  1.00  0.00     0.074 A 
ATOM     51  C   UNL A   1      42.719  29.729  35.649  1.00  0.00     0.029 A 
ATOM     52  N   UNL A   1      41.446  29.797  33.826  1.00  0.00    -0.354 N 
ATOM     53  N   UNL A   1      39.190  30.684  32.202  1.00  0.00    -0.248 NA
ATOM     54  C   UNL A   1      37.150  31.795  31.999  1.00  0.00     0.031 C 
ATOM     55  C   UNL A   1      41.580  30.489  35.934  1.00  0.00     0.029 A 
ATOM     56  C   UNL A   1      40.804  30.559  34.788  1.00  0.00     0.049 A 
ATOM     57  H   UNL A   1      41.122  29.655  32.907  1.00  0.00     0.167 HD
ATOM     58  C   UNL A   1      38.875  31.288  33.415  1.00  0.00     0.074 A 
ATOM     59  C   UNL A   1      37.624  31.987  33.220  1.00  0.00     0.031 C 
ATOM     60  C   UNL A   1      39.563  31.265  34.584  1.00  0.00     0.037 A 
BRANCH  47  61
ATOM     61  C   UNL A   1      44.703  27.849  34.368  1.00  0.00     0.064 A 
ATOM     62  C   UNL A   1      45.885  28.592  34.511  1.00  0.00     0.173 A 
ATOM     63  C   UNL A   1      44.654  26.576  34.959  1.00  0.00     0.173 A 
ATOM     64  F   UNL A   1      45.991  29.807  33.951  1.00  0.00    -0.203 F 
ATOM     65  C   UNL A   1      46.982  28.069  35.191  1.00  0.00     0.198 A 
ATOM     66  C   UNL A   1      45.739  26.073  35.668  1.00  0.00     0.198 A 
ATOM     67  F   UNL A   1      43.547  25.824  34.854  1.00  0.00    -0.203 F 
ATOM     68  F   UNL A   1      48.119  28.774  35.266  1.00  0.00    -0.200 F 
ATOM     69  C   UNL A   1      46.905  26.814  35.776  1.00  0.00     0.200 A 
ATOM     70  F   UNL A   1      45.659  24.864  36.244  1.00  0.00    -0.200 F 
ATOM     71  F   UNL A   1      47.959  26.316  36.436  1.00  0.00    -0.200 F 
ENDBRANCH  47  61
BRANCH  48  72
ATOM     72  C   UNL A   1      36.852  31.118  29.170  1.00  0.00     0.064 A 
ATOM     73  C   UNL A   1      35.814  30.243  28.820  1.00  0.00     0.173 A 
ATOM     74  C   UNL A   1      36.747  32.452  28.748  1.00  0.00     0.173 A 
ATOM     75  F   UNL A   1      35.883  28.949  29.170  1.00  0.00    -0.203 F 
ATOM     76  C   UNL A   1      34.730  30.677  28.060  1.00  0.00     0.198 A 
ATOM     77  C   UNL A   1      35.646  32.893  28.016  1.00  0.00     0.198 A 
ATOM     78  F   UNL A   1      37.717  33.328  29.045  1.00  0.00    -0.203 F 
ATOM     79  F   UNL A   1      33.782  29.805  27.689  1.00  0.00    -0.200 F 
ATOM     80  C   UNL A   1      34.643  32.003  27.664  1.00  0.00     0.200 A 
ATOM     81  F   UNL A   1      35.564  34.177  27.642  1.00  0.00    -0.200 F 
ATOM     82  F   UNL A   1      33.601  32.420  26.932  1.00  0.00    -0.200 F 
ENDBRANCH  48  72
BRANCH  60  83
ATOM     83  C   UNL A   1      39.012  32.059  35.737  1.00  0.00     0.064 A 
ATOM     84  C   UNL A   1      38.169  31.485  36.700  1.00  0.00     0.173 A 
ATOM     85  C   UNL A   1      39.376  33.405  35.907  1.00  0.00     0.173 A 
ATOM     86  F   UNL A   1      37.781  30.206  36.581  1.00  0.00    -0.203 F 
ATOM     87  C   UNL A   1      37.687  32.235  37.770  1.00  0.00     0.198 A 
ATOM     88  C   UNL A   1      38.921  34.142  36.998  1.00  0.00     0.198 A 
ATOM     89  F   UNL A   1      40.189  34.003  35.023  1.00  0.00    -0.203 F 
ATOM     90  F   UNL A   1      36.841  31.680  38.649  1.00  0.00    -0.200 F 
ATOM     91  C   UNL A   1      38.070  33.560  37.924  1.00  0.00     0.200 A 
ATOM     92  F   UNL A   1      39.309  35.415  37.153  1.00  0.00    -0.200 F 
ATOM     93  F   UNL A   1      37.614  34.275  38.960  1.00  0.00    -0.200 F 
ENDBRANCH  60  83
ENDBRANCH  34  35
ENDBRANCH  27  29
ENDBRANCH  26  27
ENDBRANCH  25  26
ENDBRANCH  24  25
ENDBRANCH  23  24
ENDBRANCH  22  23
ENDBRANCH   1  22
TORSDOF 21
ENDMDL
