MODEL 1
REMARK VINA RESULT:     -10.4      0.000      0.000
REMARK SMILES CC(C)Cc1ccc(S(=O)(=O)Nc2cnc(N3CCCC3)c(C(=O)OCCOCCOCCOC(=O)c3ccc(-c4c5nc(c(-c6c(F)c(F)c(F)c(F)c6F)c6ccc([nH]6)c(-c6c(F)c(F)c(F)c(F)c6F)c6nc(c(-c7c(F)c(F)c(F)c(F)c7F)c7ccc4[nH]7)C=C6)C=C5)cc3)c2)cc1
REMARK SMILES IDX 28 1 27 2 26 3 25 4 23 5 24 6 22 7 13 8 14 9 100 10 15 11
REMARK SMILES IDX 16 12 12 13 9 15 10 16 11 17 8 18 5 19 6 20 102 21 7 22
REMARK SMILES IDX 101 23 4 24 2 25 1 26 3 27 17 28 18 29 21 30 19 31 20 32
REMARK SMILES IDX 29 33 30 34 31 35 32 36 33 37 34 38 35 39 36 40 37 41 38 42
REMARK SMILES IDX 99 43 39 44 98 45 40 46 41 47 42 48 92 49 43 50 97 51 91 52
REMARK SMILES IDX 93 53 44 54 96 55 90 56 89 57 45 59 77 60 57 61 76 62 58 63
REMARK SMILES IDX 61 64 75 65 94 66 59 67 60 68 74 70 95 71 62 72 46 73 47 74
REMARK SMILES IDX 55 75 48 76 49 77 53 78 56 79 50 80 51 81 54 82 52 83 78 84
REMARK SMILES IDX 79 85 87 86 80 87 81 88 85 89 88 90 82 91 83 92 86 93 84 94
REMARK SMILES IDX 63 95 64 96 72 97 65 98 66 99 70 100 73 101 67 102 68 103
REMARK SMILES IDX 71 104 69 105
REMARK H PARENT 12 14 93 58 61 69
REMARK Flexibility Score: inf
ROOT
ATOM      1  O   UNL A   1      32.642  31.602  27.314  1.00  0.00    -0.376 OA
ENDROOT
BRANCH   1   2
ATOM      2  C   UNL A   1      33.072  30.359  26.787  1.00  0.00     0.202 C 
BRANCH   2   3
ATOM      3  C   UNL A   1      32.185  29.660  25.744  1.00  0.00     0.261 C 
BRANCH   3   4
ATOM      4  O   UNL A   1      32.867  28.848  24.775  1.00  0.00    -0.460 OA
BRANCH   4   5
ATOM      5  C   UNL A   1      32.377  28.774  23.512  1.00  0.00     0.342 C 
ATOM      6  O   UNL A   1      32.855  29.327  22.538  1.00  0.00    -0.246 OA
BRANCH   5   7
ATOM      7  C   UNL A   1      31.161  27.909  23.514  1.00  0.00     0.104 A 
ATOM      8  C   UNL A   1      30.238  25.722  23.948  1.00  0.00     0.068 A 
ATOM      9  C   UNL A   1      28.992  26.325  23.992  1.00  0.00     0.140 A 
ATOM     10  C   UNL A   1      31.329  26.524  23.658  1.00  0.00     0.048 A 
ATOM     11  N   UNL A   1      28.788  27.639  23.732  1.00  0.00    -0.236 NA
ATOM     12  C   UNL A   1      29.859  28.430  23.470  1.00  0.00     0.143 A 
BRANCH   8  13
ATOM     13  N   UNL A   1      30.451  24.344  24.276  1.00  0.00    -0.278 N 
ATOM     14  H   UNL A   1      30.343  23.645  23.591  1.00  0.00     0.180 HD
BRANCH  13  15
ATOM     15  S   UNL A   1      30.897  23.929  25.878  1.00  0.00     0.261 S 
ATOM     16  O   UNL A   1      30.291  22.636  26.122  1.00  0.00    -0.201 OA
ATOM     17  O   UNL A   1      30.551  25.071  26.695  1.00  0.00    -0.201 OA
BRANCH  15  18
ATOM     18  C   UNL A   1      32.666  23.734  25.960  1.00  0.00     0.087 A 
ATOM     19  C   UNL A   1      35.444  23.374  25.897  1.00  0.00    -0.048 A 
ATOM     20  C   UNL A   1      34.597  22.309  26.232  1.00  0.00     0.005 A 
ATOM     21  C   UNL A   1      34.889  24.638  25.661  1.00  0.00     0.005 A 
ATOM     22  C   UNL A   1      33.211  22.482  26.253  1.00  0.00     0.022 A 
ATOM     23  C   UNL A   1      33.508  24.830  25.740  1.00  0.00     0.022 A 
BRANCH  19  24
ATOM     24  C   UNL A   1      36.940  23.172  25.819  1.00  0.00     0.038 C 
BRANCH  24  25
ATOM     25  C   UNL A   1      37.375  22.244  24.670  1.00  0.00    -0.013 C 
ATOM     26  C   UNL A   1      37.126  20.770  24.994  1.00  0.00     0.008 C 
ATOM     27  C   UNL A   1      36.630  22.621  23.387  1.00  0.00     0.008 C 
ENDBRANCH  24  25
ENDBRANCH  19  24
ENDBRANCH  15  18
ENDBRANCH  13  15
ENDBRANCH   8  13
BRANCH  12  28
ATOM     28  N   UNL A   1      29.553  29.669  23.000  1.00  0.00    -0.356 N 
ATOM     29  C   UNL A   1      29.194  30.767  23.862  1.00  0.00     0.118 C 
ATOM     30  C   UNL A   1      29.285  29.972  21.607  1.00  0.00     0.118 C 
ATOM     31  C   UNL A   1      28.000  31.346  23.122  1.00  0.00     0.023 C 
ATOM     32  C   UNL A   1      28.499  31.299  21.681  1.00  0.00     0.023 C 
ENDBRANCH  12  28
ENDBRANCH   5   7
ENDBRANCH   4   5
ENDBRANCH   3   4
ENDBRANCH   2   3
ENDBRANCH   1   2
BRANCH   1  33
ATOM     33  C   UNL A   1      33.611  32.369  27.999  1.00  0.00     0.188 C 
BRANCH  33  34
ATOM     34  C   UNL A   1      33.322  33.886  27.968  1.00  0.00     0.188 C 
BRANCH  34  35
ATOM     35  O   UNL A   1      32.644  34.514  29.044  1.00  0.00    -0.376 OA
BRANCH  35  36
ATOM     36  C   UNL A   1      33.405  35.169  30.042  1.00  0.00     0.202 C 
BRANCH  36  37
ATOM     37  C   UNL A   1      34.030  34.324  31.164  1.00  0.00     0.261 C 
BRANCH  37  38
ATOM     38  O   UNL A   1      35.423  34.554  31.443  1.00  0.00    -0.460 OA
BRANCH  38  39
ATOM     39  C   UNL A   1      36.304  33.833  30.699  1.00  0.00     0.338 C 
ATOM     40  O   UNL A   1      36.424  33.839  29.492  1.00  0.00    -0.246 OA
BRANCH  39  41
ATOM     41  C   UNL A   1      37.251  33.126  31.602  1.00  0.00     0.060 A 
ATOM     42  C   UNL A   1      36.739  32.350  32.652  1.00  0.00     0.016 A 
ATOM     43  C   UNL A   1      38.632  33.261  31.448  1.00  0.00     0.016 A 
ATOM     44  C   UNL A   1      37.604  31.719  33.556  1.00  0.00     0.010 A 
ATOM     45  C   UNL A   1      39.495  32.653  32.370  1.00  0.00     0.010 A 
ATOM     46  C   UNL A   1      38.989  31.894  33.440  1.00  0.00    -0.014 A 
BRANCH  46  47
ATOM     47  C   UNL A   1      39.913  31.461  34.526  1.00  0.00     0.031 A 
ATOM     48  C   UNL A   1      40.141  32.395  35.674  1.00  0.00     0.074 A 
ATOM     49  C   UNL A   1      40.585  30.297  34.480  1.00  0.00     0.049 A 
ATOM     50  N   UNL A   1      41.018  32.318  36.641  1.00  0.00    -0.248 NA
ATOM     51  C   UNL A   1      39.275  33.581  35.732  1.00  0.00     0.031 C 
ATOM     52  C   UNL A   1      40.416  29.293  33.446  1.00  0.00     0.029 A 
ATOM     53  N   UNL A   1      41.551  29.764  35.300  1.00  0.00    -0.354 N 
ATOM     54  C   UNL A   1      40.823  33.453  37.411  1.00  0.00     0.074 A 
ATOM     55  C   UNL A   1      39.752  34.207  36.797  1.00  0.00     0.031 C 
ATOM     56  C   UNL A   1      41.240  28.259  33.678  1.00  0.00     0.029 A 
ATOM     57  C   UNL A   1      42.054  28.562  34.852  1.00  0.00     0.049 A 
ATOM     58  H   UNL A   1      41.855  30.199  36.130  1.00  0.00     0.167 HD
ATOM     59  C   UNL A   1      41.491  33.837  38.523  1.00  0.00     0.037 A 
ATOM     60  C   UNL A   1      43.084  27.817  35.307  1.00  0.00     0.037 A 
ATOM     61  C   UNL A   1      42.579  33.101  39.106  1.00  0.00     0.049 A 
ATOM     62  C   UNL A   1      43.877  28.318  36.489  1.00  0.00     0.074 A 
ATOM     63  C   UNL A   1      43.335  33.422  40.218  1.00  0.00     0.029 A 
ATOM     64  N   UNL A   1      43.080  31.904  38.614  1.00  0.00    -0.354 N 
ATOM     65  N   UNL A   1      43.690  29.397  37.210  1.00  0.00    -0.248 NA
ATOM     66  C   UNL A   1      45.033  27.514  36.911  1.00  0.00     0.031 C 
ATOM     67  C   UNL A   1      44.332  32.454  40.364  1.00  0.00     0.029 A 
ATOM     68  C   UNL A   1      44.149  31.486  39.388  1.00  0.00     0.049 A 
ATOM     69  H   UNL A   1      42.727  31.423  37.830  1.00  0.00     0.167 HD
ATOM     70  C   UNL A   1      44.674  29.379  38.190  1.00  0.00     0.074 A 
ATOM     71  C   UNL A   1      45.459  28.183  37.974  1.00  0.00     0.031 C 
ATOM     72  C   UNL A   1      44.901  30.274  39.181  1.00  0.00     0.037 A 
BRANCH  59  73
ATOM     73  C   UNL A   1      41.094  35.144  39.139  1.00  0.00     0.064 A 
ATOM     74  C   UNL A   1      41.800  36.328  38.878  1.00  0.00     0.173 A 
ATOM     75  C   UNL A   1      39.988  35.212  40.000  1.00  0.00     0.173 A 
ATOM     76  F   UNL A   1      42.878  36.310  38.079  1.00  0.00    -0.203 F 
ATOM     77  C   UNL A   1      41.430  37.527  39.480  1.00  0.00     0.198 A 
ATOM     78  C   UNL A   1      39.602  36.418  40.573  1.00  0.00     0.198 A 
ATOM     79  F   UNL A   1      39.282  34.108  40.284  1.00  0.00    -0.203 F 
ATOM     80  F   UNL A   1      42.154  38.634  39.264  1.00  0.00    -0.200 F 
ATOM     81  C   UNL A   1      40.328  37.573  40.321  1.00  0.00     0.200 A 
ATOM     82  F   UNL A   1      38.529  36.464  41.375  1.00  0.00    -0.200 F 
ATOM     83  F   UNL A   1      39.971  38.729  40.897  1.00  0.00    -0.200 F 
ENDBRANCH  59  73
BRANCH  60  84
ATOM     84  C   UNL A   1      43.461  26.542  34.633  1.00  0.00     0.064 A 
ATOM     85  C   UNL A   1      42.921  25.317  35.050  1.00  0.00     0.173 A 
ATOM     86  C   UNL A   1      44.400  26.511  33.590  1.00  0.00     0.173 A 
ATOM     87  F   UNL A   1      42.040  25.284  36.062  1.00  0.00    -0.203 F 
ATOM     88  C   UNL A   1      43.322  24.113  34.471  1.00  0.00     0.198 A 
ATOM     89  C   UNL A   1      44.774  25.311  32.987  1.00  0.00     0.198 A 
ATOM     90  F   UNL A   1      44.956  27.649  33.151  1.00  0.00    -0.203 F 
ATOM     91  F   UNL A   1      42.833  22.954  34.933  1.00  0.00    -0.200 F 
ATOM     92  C   UNL A   1      44.243  24.111  33.436  1.00  0.00     0.200 A 
ATOM     93  F   UNL A   1      45.655  25.316  31.978  1.00  0.00    -0.200 F 
ATOM     94  F   UNL A   1      44.629  22.955  32.880  1.00  0.00    -0.200 F 
ENDBRANCH  60  84
BRANCH  72  95
ATOM     95  C   UNL A   1      45.990  29.970  40.169  1.00  0.00     0.064 A 
ATOM     96  C   UNL A   1      45.782  29.131  41.273  1.00  0.00     0.173 A 
ATOM     97  C   UNL A   1      47.290  30.449  39.942  1.00  0.00     0.173 A 
ATOM     98  F   UNL A   1      44.555  28.660  41.542  1.00  0.00    -0.203 F 
ATOM     99  C   UNL A   1      46.836  28.786  42.115  1.00  0.00     0.198 A 
ATOM    100  C   UNL A   1      48.347  30.076  40.767  1.00  0.00     0.198 A 
ATOM    101  F   UNL A   1      47.542  31.251  38.896  1.00  0.00    -0.203 F 
ATOM    102  F   UNL A   1      46.611  28.003  43.180  1.00  0.00    -0.200 F 
ATOM    103  C   UNL A   1      48.118  29.246  41.853  1.00  0.00     0.200 A 
ATOM    104  F   UNL A   1      49.587  30.508  40.501  1.00  0.00    -0.200 F 
ATOM    105  F   UNL A   1      49.136  28.889  42.649  1.00  0.00    -0.200 F 
ENDBRANCH  72  95
ENDBRANCH  46  47
ENDBRANCH  39  41
ENDBRANCH  38  39
ENDBRANCH  37  38
ENDBRANCH  36  37
ENDBRANCH  35  36
ENDBRANCH  34  35
ENDBRANCH  33  34
ENDBRANCH   1  33
TORSDOF 23
ENDMDL
MODEL 2
REMARK VINA RESULT:     -10.1      4.721      7.000
REMARK SMILES CC(C)Cc1ccc(S(=O)(=O)Nc2cnc(N3CCCC3)c(C(=O)OCCOCCOCCOC(=O)c3ccc(-c4c5nc(c(-c6c(F)c(F)c(F)c(F)c6F)c6ccc([nH]6)c(-c6c(F)c(F)c(F)c(F)c6F)c6nc(c(-c7c(F)c(F)c(F)c(F)c7F)c7ccc4[nH]7)C=C6)C=C5)cc3)c2)cc1
REMARK SMILES IDX 28 1 27 2 26 3 25 4 23 5 24 6 22 7 13 8 14 9 100 10 15 11
REMARK SMILES IDX 16 12 12 13 9 15 10 16 11 17 8 18 5 19 6 20 102 21 7 22
REMARK SMILES IDX 101 23 4 24 2 25 1 26 3 27 17 28 18 29 21 30 19 31 20 32
REMARK SMILES IDX 29 33 30 34 31 35 32 36 33 37 34 38 35 39 36 40 37 41 38 42
REMARK SMILES IDX 99 43 39 44 98 45 40 46 41 47 42 48 92 49 43 50 97 51 91 52
REMARK SMILES IDX 93 53 44 54 96 55 90 56 89 57 45 59 77 60 57 61 76 62 58 63
REMARK SMILES IDX 61 64 75 65 94 66 59 67 60 68 74 70 95 71 62 72 46 73 47 74
REMARK SMILES IDX 55 75 48 76 49 77 53 78 56 79 50 80 51 81 54 82 52 83 78 84
REMARK SMILES IDX 79 85 87 86 80 87 81 88 85 89 88 90 82 91 83 92 86 93 84 94
REMARK SMILES IDX 63 95 64 96 72 97 65 98 66 99 70 100 73 101 67 102 68 103
REMARK SMILES IDX 71 104 69 105
REMARK H PARENT 12 14 93 58 61 69
REMARK Flexibility Score: inf
ROOT
ATOM      1  O   UNL A   1      32.494  30.112  26.345  1.00  0.00    -0.376 OA
ENDROOT
BRANCH   1   2
ATOM      2  C   UNL A   1      33.405  29.708  25.337  1.00  0.00     0.202 C 
BRANCH   2   3
ATOM      3  C   UNL A   1      33.604  28.204  25.089  1.00  0.00     0.261 C 
BRANCH   3   4
ATOM      4  O   UNL A   1      33.425  27.756  23.736  1.00  0.00    -0.460 OA
BRANCH   4   5
ATOM      5  C   UNL A   1      32.441  28.309  22.982  1.00  0.00     0.342 C 
ATOM      6  O   UNL A   1      32.573  29.277  22.254  1.00  0.00    -0.246 OA
BRANCH   5   7
ATOM      7  C   UNL A   1      31.179  27.541  23.191  1.00  0.00     0.104 A 
ATOM      8  C   UNL A   1      30.175  25.432  23.799  1.00  0.00     0.068 A 
ATOM      9  C   UNL A   1      29.002  26.130  24.035  1.00  0.00     0.140 A 
ATOM     10  C   UNL A   1      31.263  26.148  23.325  1.00  0.00     0.048 A 
ATOM     11  N   UNL A   1      28.859  27.455  23.793  1.00  0.00    -0.236 NA
ATOM     12  C   UNL A   1      29.931  28.161  23.351  1.00  0.00     0.143 A 
BRANCH   8  13
ATOM     13  N   UNL A   1      30.333  24.042  24.106  1.00  0.00    -0.278 N 
ATOM     14  H   UNL A   1      30.057  23.353  23.460  1.00  0.00     0.180 HD
BRANCH  13  15
ATOM     15  S   UNL A   1      31.010  23.596  25.617  1.00  0.00     0.261 S 
ATOM     16  O   UNL A   1      30.497  22.269  25.890  1.00  0.00    -0.201 OA
ATOM     17  O   UNL A   1      30.730  24.694  26.517  1.00  0.00    -0.201 OA
BRANCH  15  18
ATOM     18  C   UNL A   1      32.779  23.482  25.453  1.00  0.00     0.087 A 
ATOM     19  C   UNL A   1      35.548  23.411  25.029  1.00  0.00    -0.048 A 
ATOM     20  C   UNL A   1      34.719  22.426  24.475  1.00  0.00     0.005 A 
ATOM     21  C   UNL A   1      34.984  24.393  25.853  1.00  0.00     0.005 A 
ATOM     22  C   UNL A   1      33.337  22.464  24.675  1.00  0.00     0.022 A 
ATOM     23  C   UNL A   1      33.610  24.401  26.105  1.00  0.00     0.022 A 
BRANCH  19  24
ATOM     24  C   UNL A   1      37.037  23.401  24.766  1.00  0.00     0.038 C 
BRANCH  24  25
ATOM     25  C   UNL A   1      37.868  22.894  25.959  1.00  0.00    -0.013 C 
ATOM     26  C   UNL A   1      38.688  21.651  25.603  1.00  0.00     0.008 C 
ATOM     27  C   UNL A   1      38.801  24.002  26.452  1.00  0.00     0.008 C 
ENDBRANCH  24  25
ENDBRANCH  19  24
ENDBRANCH  15  18
ENDBRANCH  13  15
ENDBRANCH   8  13
BRANCH  12  28
ATOM     28  N   UNL A   1      29.648  29.419  22.920  1.00  0.00    -0.356 N 
ATOM     29  C   UNL A   1      29.606  30.559  23.802  1.00  0.00     0.118 C 
ATOM     30  C   UNL A   1      29.098  29.732  21.614  1.00  0.00     0.118 C 
ATOM     31  C   UNL A   1      28.337  31.249  23.333  1.00  0.00     0.023 C 
ATOM     32  C   UNL A   1      28.484  31.134  21.818  1.00  0.00     0.023 C 
ENDBRANCH  12  28
ENDBRANCH   5   7
ENDBRANCH   4   5
ENDBRANCH   3   4
ENDBRANCH   2   3
ENDBRANCH   1   2
BRANCH   1  33
ATOM     33  C   UNL A   1      33.046  30.745  27.480  1.00  0.00     0.188 C 
BRANCH  33  34
ATOM     34  C   UNL A   1      34.572  30.544  27.610  1.00  0.00     0.188 C 
BRANCH  34  35
ATOM     35  O   UNL A   1      35.446  31.661  27.659  1.00  0.00    -0.376 OA
BRANCH  35  36
ATOM     36  C   UNL A   1      35.028  32.826  28.346  1.00  0.00     0.202 C 
BRANCH  36  37
ATOM     37  C   UNL A   1      34.592  32.698  29.814  1.00  0.00     0.261 C 
BRANCH  37  38
ATOM     38  O   UNL A   1      35.411  31.868  30.658  1.00  0.00    -0.460 OA
BRANCH  38  39
ATOM     39  C   UNL A   1      36.488  32.478  31.224  1.00  0.00     0.338 C 
ATOM     40  O   UNL A   1      36.489  33.478  31.910  1.00  0.00    -0.246 OA
BRANCH  39  41
ATOM     41  C   UNL A   1      37.696  31.636  31.020  1.00  0.00     0.060 A 
ATOM     42  C   UNL A   1      38.031  30.679  31.990  1.00  0.00     0.016 A 
ATOM     43  C   UNL A   1      38.520  31.814  29.908  1.00  0.00     0.016 A 
ATOM     44  C   UNL A   1      39.194  29.910  31.857  1.00  0.00     0.010 A 
ATOM     45  C   UNL A   1      39.698  31.064  29.790  1.00  0.00     0.010 A 
ATOM     46  C   UNL A   1      40.054  30.121  30.771  1.00  0.00    -0.014 A 
BRANCH  46  47
ATOM     47  C   UNL A   1      41.415  29.515  30.738  1.00  0.00     0.031 A 
ATOM     48  C   UNL A   1      42.541  30.270  31.374  1.00  0.00     0.074 A 
ATOM     49  C   UNL A   1      41.672  28.352  30.112  1.00  0.00     0.049 A 
ATOM     50  N   UNL A   1      43.826  30.034  31.327  1.00  0.00    -0.248 NA
ATOM     51  C   UNL A   1      42.169  31.458  32.157  1.00  0.00     0.031 C 
ATOM     52  C   UNL A   1      40.662  27.509  29.501  1.00  0.00     0.029 A 
ATOM     53  N   UNL A   1      42.849  27.684  29.869  1.00  0.00    -0.354 N 
ATOM     54  C   UNL A   1      44.418  31.054  32.054  1.00  0.00     0.074 A 
ATOM     55  C   UNL A   1      43.355  31.914  32.527  1.00  0.00     0.031 C 
ATOM     56  C   UNL A   1      41.243  26.433  28.949  1.00  0.00     0.029 A 
ATOM     57  C   UNL A   1      42.690  26.545  29.110  1.00  0.00     0.049 A 
ATOM     58  H   UNL A   1      43.722  27.989  30.206  1.00  0.00     0.167 HD
ATOM     59  C   UNL A   1      45.733  31.259  32.293  1.00  0.00     0.037 A 
ATOM     60  C   UNL A   1      43.607  25.717  28.566  1.00  0.00     0.037 A 
ATOM     61  C   UNL A   1      46.787  30.420  31.788  1.00  0.00     0.049 A 
ATOM     62  C   UNL A   1      45.071  26.025  28.763  1.00  0.00     0.074 A 
ATOM     63  C   UNL A   1      48.152  30.561  31.955  1.00  0.00     0.029 A 
ATOM     64  N   UNL A   1      46.593  29.293  31.003  1.00  0.00    -0.354 N 
ATOM     65  N   UNL A   1      45.625  26.995  29.449  1.00  0.00    -0.248 NA
ATOM     66  C   UNL A   1      46.038  25.140  28.098  1.00  0.00     0.031 C 
ATOM     67  C   UNL A   1      48.788  29.557  31.221  1.00  0.00     0.029 A 
ATOM     68  C   UNL A   1      47.817  28.742  30.659  1.00  0.00     0.049 A 
ATOM     69  H   UNL A   1      45.716  28.937  30.730  1.00  0.00     0.167 HD
ATOM     70  C   UNL A   1      46.996  26.813  29.333  1.00  0.00     0.074 A 
ATOM     71  C   UNL A   1      47.196  25.641  28.510  1.00  0.00     0.031 C 
ATOM     72  C   UNL A   1      47.999  27.553  29.866  1.00  0.00     0.037 A 
BRANCH  59  73
ATOM     73  C   UNL A   1      46.101  32.475  33.087  1.00  0.00     0.064 A 
ATOM     74  C   UNL A   1      46.220  32.435  34.485  1.00  0.00     0.173 A 
ATOM     75  C   UNL A   1      46.344  33.695  32.440  1.00  0.00     0.173 A 
ATOM     76  F   UNL A   1      45.977  31.297  35.152  1.00  0.00    -0.203 F 
ATOM     77  C   UNL A   1      46.539  33.582  35.206  1.00  0.00     0.198 A 
ATOM     78  C   UNL A   1      46.695  34.830  33.162  1.00  0.00     0.198 A 
ATOM     79  F   UNL A   1      46.240  33.786  31.106  1.00  0.00    -0.203 F 
ATOM     80  F   UNL A   1      46.589  33.536  36.545  1.00  0.00    -0.200 F 
ATOM     81  C   UNL A   1      46.783  34.776  34.544  1.00  0.00     0.200 A 
ATOM     82  F   UNL A   1      46.944  35.981  32.519  1.00  0.00    -0.200 F 
ATOM     83  F   UNL A   1      47.094  35.878  35.241  1.00  0.00    -0.200 F 
ENDBRANCH  59  73
BRANCH  60  84
ATOM     84  C   UNL A   1      43.187  24.541  27.751  1.00  0.00     0.064 A 
ATOM     85  C   UNL A   1      42.699  23.377  28.362  1.00  0.00     0.173 A 
ATOM     86  C   UNL A   1      43.306  24.536  26.353  1.00  0.00     0.173 A 
ATOM     87  F   UNL A   1      42.592  23.316  29.697  1.00  0.00    -0.203 F 
ATOM     88  C   UNL A   1      42.371  22.248  27.611  1.00  0.00     0.198 A 
ATOM     89  C   UNL A   1      42.944  23.420  25.600  1.00  0.00     0.198 A 
ATOM     90  F   UNL A   1      43.773  25.617  25.713  1.00  0.00    -0.203 F 
ATOM     91  F   UNL A   1      41.965  21.130  28.228  1.00  0.00    -0.200 F 
ATOM     92  C   UNL A   1      42.488  22.272  26.230  1.00  0.00     0.200 A 
ATOM     93  F   UNL A   1      43.047  23.453  24.264  1.00  0.00    -0.200 F 
ATOM     94  F   UNL A   1      42.173  21.188  25.509  1.00  0.00    -0.200 F 
ENDBRANCH  60  84
BRANCH  72  95
ATOM     95  C   UNL A   1      49.410  27.084  29.653  1.00  0.00     0.064 A 
ATOM     96  C   UNL A   1      50.167  27.480  28.542  1.00  0.00     0.173 A 
ATOM     97  C   UNL A   1      50.041  26.307  30.638  1.00  0.00     0.173 A 
ATOM     98  F   UNL A   1      49.605  28.210  27.567  1.00  0.00    -0.203 F 
ATOM     99  C   UNL A   1      51.504  27.112  28.422  1.00  0.00     0.198 A 
ATOM    100  C   UNL A   1      51.387  25.968  30.531  1.00  0.00     0.198 A 
ATOM    101  F   UNL A   1      49.362  25.907  31.723  1.00  0.00    -0.203 F 
ATOM    102  F   UNL A   1      52.204  27.478  27.340  1.00  0.00    -0.200 F 
ATOM    103  C   UNL A   1      52.116  26.369  29.422  1.00  0.00     0.200 A 
ATOM    104  F   UNL A   1      51.979  25.266  31.506  1.00  0.00    -0.200 F 
ATOM    105  F   UNL A   1      53.411  26.041  29.318  1.00  0.00    -0.200 F 
ENDBRANCH  72  95
ENDBRANCH  46  47
ENDBRANCH  39  41
ENDBRANCH  38  39
ENDBRANCH  37  38
ENDBRANCH  36  37
ENDBRANCH  35  36
ENDBRANCH  34  35
ENDBRANCH  33  34
ENDBRANCH   1  33
TORSDOF 23
ENDMDL
MODEL 3
REMARK VINA RESULT:     -10.1      7.957     11.599
REMARK SMILES CC(C)Cc1ccc(S(=O)(=O)Nc2cnc(N3CCCC3)c(C(=O)OCCOCCOCCOC(=O)c3ccc(-c4c5nc(c(-c6c(F)c(F)c(F)c(F)c6F)c6ccc([nH]6)c(-c6c(F)c(F)c(F)c(F)c6F)c6nc(c(-c7c(F)c(F)c(F)c(F)c7F)c7ccc4[nH]7)C=C6)C=C5)cc3)c2)cc1
REMARK SMILES IDX 28 1 27 2 26 3 25 4 23 5 24 6 22 7 13 8 14 9 100 10 15 11
REMARK SMILES IDX 16 12 12 13 9 15 10 16 11 17 8 18 5 19 6 20 102 21 7 22
REMARK SMILES IDX 101 23 4 24 2 25 1 26 3 27 17 28 18 29 21 30 19 31 20 32
REMARK SMILES IDX 29 33 30 34 31 35 32 36 33 37 34 38 35 39 36 40 37 41 38 42
REMARK SMILES IDX 99 43 39 44 98 45 40 46 41 47 42 48 92 49 43 50 97 51 91 52
REMARK SMILES IDX 93 53 44 54 96 55 90 56 89 57 45 59 77 60 57 61 76 62 58 63
REMARK SMILES IDX 61 64 75 65 94 66 59 67 60 68 74 70 95 71 62 72 46 73 47 74
REMARK SMILES IDX 55 75 48 76 49 77 53 78 56 79 50 80 51 81 54 82 52 83 78 84
REMARK SMILES IDX 79 85 87 86 80 87 81 88 85 89 88 90 82 91 83 92 86 93 84 94
REMARK SMILES IDX 63 95 64 96 72 97 65 98 66 99 70 100 73 101 67 102 68 103
REMARK SMILES IDX 71 104 69 105
REMARK H PARENT 12 14 93 58 61 69
REMARK Flexibility Score: inf
ROOT
ATOM      1  O   UNL A   1      34.985  29.782  27.735  1.00  0.00    -0.376 OA
ENDROOT
BRANCH   1   2
ATOM      2  C   UNL A   1      33.795  30.393  27.267  1.00  0.00     0.202 C 
BRANCH   2   3
ATOM      3  C   UNL A   1      32.540  29.520  27.104  1.00  0.00     0.261 C 
BRANCH   3   4
ATOM      4  O   UNL A   1      31.730  29.787  25.948  1.00  0.00    -0.460 OA
BRANCH   4   5
ATOM      5  C   UNL A   1      32.047  29.197  24.768  1.00  0.00     0.342 C 
ATOM      6  O   UNL A   1      33.027  29.456  24.093  1.00  0.00    -0.246 OA
BRANCH   5   7
ATOM      7  C   UNL A   1      31.000  28.187  24.434  1.00  0.00     0.104 A 
ATOM      8  C   UNL A   1      30.145  25.963  24.817  1.00  0.00     0.068 A 
ATOM      9  C   UNL A   1      28.946  26.399  24.276  1.00  0.00     0.140 A 
ATOM     10  C   UNL A   1      31.198  26.862  24.850  1.00  0.00     0.048 A 
ATOM     11  N   UNL A   1      28.769  27.635  23.751  1.00  0.00    -0.236 NA
ATOM     12  C   UNL A   1      29.793  28.524  23.805  1.00  0.00     0.143 A 
BRANCH   8  13
ATOM     13  N   UNL A   1      30.308  24.672  25.417  1.00  0.00    -0.278 N 
ATOM     14  H   UNL A   1      29.917  24.479  26.299  1.00  0.00     0.180 HD
BRANCH  13  15
ATOM     15  S   UNL A   1      31.193  23.470  24.574  1.00  0.00     0.261 S 
ATOM     16  O   UNL A   1      31.016  23.777  23.170  1.00  0.00    -0.201 OA
ATOM     17  O   UNL A   1      30.752  22.202  25.113  1.00  0.00    -0.201 OA
BRANCH  15  18
ATOM     18  C   UNL A   1      32.923  23.638  24.963  1.00  0.00     0.087 A 
ATOM     19  C   UNL A   1      35.666  23.709  25.533  1.00  0.00    -0.048 A 
ATOM     20  C   UNL A   1      34.739  23.399  26.538  1.00  0.00     0.005 A 
ATOM     21  C   UNL A   1      35.199  24.048  24.257  1.00  0.00     0.005 A 
ATOM     22  C   UNL A   1      33.372  23.352  26.255  1.00  0.00     0.022 A 
ATOM     23  C   UNL A   1      33.829  24.061  23.985  1.00  0.00     0.022 A 
BRANCH  19  24
ATOM     24  C   UNL A   1      37.149  23.705  25.826  1.00  0.00     0.038 C 
BRANCH  24  25
ATOM     25  C   UNL A   1      37.868  22.436  25.332  1.00  0.00    -0.013 C 
ATOM     26  C   UNL A   1      39.073  22.080  26.207  1.00  0.00     0.008 C 
ATOM     27  C   UNL A   1      36.889  21.260  25.304  1.00  0.00     0.008 C 
ENDBRANCH  24  25
ENDBRANCH  19  24
ENDBRANCH  15  18
ENDBRANCH  13  15
ENDBRANCH   8  13
BRANCH  12  28
ATOM     28  N   UNL A   1      29.613  29.648  23.062  1.00  0.00    -0.356 N 
ATOM     29  C   UNL A   1      29.063  30.866  23.604  1.00  0.00     0.118 C 
ATOM     30  C   UNL A   1      29.685  29.693  21.613  1.00  0.00     0.118 C 
ATOM     31  C   UNL A   1      28.082  31.259  22.513  1.00  0.00     0.023 C 
ATOM     32  C   UNL A   1      28.910  30.980  21.262  1.00  0.00     0.023 C 
ENDBRANCH  12  28
ENDBRANCH   5   7
ENDBRANCH   4   5
ENDBRANCH   3   4
ENDBRANCH   2   3
ENDBRANCH   1   2
BRANCH   1  33
ATOM     33  C   UNL A   1      36.052  30.647  28.068  1.00  0.00     0.188 C 
BRANCH  33  34
ATOM     34  C   UNL A   1      35.943  31.230  29.494  1.00  0.00     0.188 C 
BRANCH  34  35
ATOM     35  O   UNL A   1      34.897  32.128  29.829  1.00  0.00    -0.376 OA
BRANCH  35  36
ATOM     36  C   UNL A   1      34.925  32.768  31.091  1.00  0.00     0.202 C 
BRANCH  36  37
ATOM     37  C   UNL A   1      36.286  33.015  31.761  1.00  0.00     0.261 C 
BRANCH  37  38
ATOM     38  O   UNL A   1      37.007  34.188  31.342  1.00  0.00    -0.460 OA
BRANCH  38  39
ATOM     39  C   UNL A   1      38.039  34.569  32.143  1.00  0.00     0.338 C 
ATOM     40  O   UNL A   1      38.002  34.783  33.336  1.00  0.00    -0.246 OA
BRANCH  39  41
ATOM     41  C   UNL A   1      39.307  34.531  31.367  1.00  0.00     0.060 A 
ATOM     42  C   UNL A   1      40.523  34.418  32.056  1.00  0.00     0.016 A 
ATOM     43  C   UNL A   1      39.305  34.651  29.976  1.00  0.00     0.016 A 
ATOM     44  C   UNL A   1      41.738  34.438  31.358  1.00  0.00     0.010 A 
ATOM     45  C   UNL A   1      40.522  34.700  29.283  1.00  0.00     0.010 A 
ATOM     46  C   UNL A   1      41.747  34.613  29.968  1.00  0.00    -0.014 A 
BRANCH  46  47
ATOM     47  C   UNL A   1      43.012  34.902  29.237  1.00  0.00     0.031 A 
ATOM     48  C   UNL A   1      43.903  33.752  28.881  1.00  0.00     0.074 A 
ATOM     49  C   UNL A   1      43.403  36.154  28.939  1.00  0.00     0.049 A 
ATOM     50  N   UNL A   1      45.120  33.764  28.403  1.00  0.00    -0.248 NA
ATOM     51  C   UNL A   1      43.353  32.407  29.110  1.00  0.00     0.031 C 
ATOM     52  C   UNL A   1      42.610  37.342  29.190  1.00  0.00     0.029 A 
ATOM     53  N   UNL A   1      44.561  36.644  28.382  1.00  0.00    -0.354 N 
ATOM     54  C   UNL A   1      45.489  32.434  28.292  1.00  0.00     0.074 A 
ATOM     55  C   UNL A   1      44.373  31.640  28.758  1.00  0.00     0.031 C 
ATOM     56  C   UNL A   1      43.286  38.432  28.794  1.00  0.00     0.029 A 
ATOM     57  C   UNL A   1      44.605  38.020  28.320  1.00  0.00     0.049 A 
ATOM     58  H   UNL A   1      45.290  36.067  28.057  1.00  0.00     0.167 HD
ATOM     59  C   UNL A   1      46.662  31.923  27.853  1.00  0.00     0.037 A 
ATOM     60  C   UNL A   1      45.608  38.851  27.968  1.00  0.00     0.037 A 
ATOM     61  C   UNL A   1      47.780  32.720  27.426  1.00  0.00     0.049 A 
ATOM     62  C   UNL A   1      46.939  38.259  27.578  1.00  0.00     0.074 A 
ATOM     63  C   UNL A   1      49.020  32.294  26.987  1.00  0.00     0.029 A 
ATOM     64  N   UNL A   1      47.801  34.107  27.400  1.00  0.00    -0.354 N 
ATOM     65  N   UNL A   1      47.284  36.998  27.480  1.00  0.00    -0.248 NA
ATOM     66  C   UNL A   1      48.027  39.198  27.269  1.00  0.00     0.031 C 
ATOM     67  C   UNL A   1      49.812  33.421  26.756  1.00  0.00     0.029 A 
ATOM     68  C   UNL A   1      49.041  34.553  26.975  1.00  0.00     0.049 A 
ATOM     69  H   UNL A   1      47.045  34.689  27.648  1.00  0.00     0.167 HD
ATOM     70  C   UNL A   1      48.608  36.993  27.060  1.00  0.00     0.074 A 
ATOM     71  C   UNL A   1      49.009  38.376  26.922  1.00  0.00     0.031 C 
ATOM     72  C   UNL A   1      49.415  35.934  26.809  1.00  0.00     0.037 A 
BRANCH  59  73
ATOM     73  C   UNL A   1      46.808  30.432  27.873  1.00  0.00     0.064 A 
ATOM     74  C   UNL A   1      47.172  29.742  29.039  1.00  0.00     0.173 A 
ATOM     75  C   UNL A   1      46.573  29.684  26.710  1.00  0.00     0.173 A 
ATOM     76  F   UNL A   1      47.429  30.415  30.171  1.00  0.00    -0.203 F 
ATOM     77  C   UNL A   1      47.326  28.359  29.030  1.00  0.00     0.198 A 
ATOM     78  C   UNL A   1      46.694  28.299  26.715  1.00  0.00     0.198 A 
ATOM     79  F   UNL A   1      46.224  30.297  25.570  1.00  0.00    -0.203 F 
ATOM     80  F   UNL A   1      47.733  27.725  30.139  1.00  0.00    -0.200 F 
ATOM     81  C   UNL A   1      47.080  27.638  27.871  1.00  0.00     0.200 A 
ATOM     82  F   UNL A   1      46.444  27.602  25.597  1.00  0.00    -0.200 F 
ATOM     83  F   UNL A   1      47.225  26.306  27.866  1.00  0.00    -0.200 F 
ENDBRANCH  59  73
BRANCH  60  84
ATOM     84  C   UNL A   1      45.422  40.330  28.002  1.00  0.00     0.064 A 
ATOM     85  C   UNL A   1      45.737  41.071  29.150  1.00  0.00     0.173 A 
ATOM     86  C   UNL A   1      44.885  41.029  26.909  1.00  0.00     0.173 A 
ATOM     87  F   UNL A   1      46.226  40.450  30.234  1.00  0.00    -0.203 F 
ATOM     88  C   UNL A   1      45.500  42.445  29.214  1.00  0.00     0.198 A 
ATOM     89  C   UNL A   1      44.682  42.407  26.961  1.00  0.00     0.198 A 
ATOM     90  F   UNL A   1      44.559  40.374  25.786  1.00  0.00    -0.203 F 
ATOM     91  F   UNL A   1      45.755  43.114  30.346  1.00  0.00    -0.200 F 
ATOM     92  C   UNL A   1      44.978  43.113  28.117  1.00  0.00     0.200 A 
ATOM     93  F   UNL A   1      44.189  43.051  25.893  1.00  0.00    -0.200 F 
ATOM     94  F   UNL A   1      44.750  44.431  28.179  1.00  0.00    -0.200 F 
ENDBRANCH  60  84
BRANCH  72  95
ATOM     95  C   UNL A   1      50.793  36.209  26.279  1.00  0.00     0.064 A 
ATOM     96  C   UNL A   1      51.915  36.271  27.118  1.00  0.00     0.173 A 
ATOM     97  C   UNL A   1      51.000  36.309  24.894  1.00  0.00     0.173 A 
ATOM     98  F   UNL A   1      51.769  36.196  28.449  1.00  0.00    -0.203 F 
ATOM     99  C   UNL A   1      53.194  36.427  26.588  1.00  0.00     0.198 A 
ATOM    100  C   UNL A   1      52.282  36.433  24.366  1.00  0.00     0.198 A 
ATOM    101  F   UNL A   1      49.960  36.250  24.049  1.00  0.00    -0.203 F 
ATOM    102  F   UNL A   1      54.250  36.510  27.408  1.00  0.00    -0.200 F 
ATOM    103  C   UNL A   1      53.377  36.492  25.214  1.00  0.00     0.200 A 
ATOM    104  F   UNL A   1      52.457  36.478  23.039  1.00  0.00    -0.200 F 
ATOM    105  F   UNL A   1      54.611  36.614  24.706  1.00  0.00    -0.200 F 
ENDBRANCH  72  95
ENDBRANCH  46  47
ENDBRANCH  39  41
ENDBRANCH  38  39
ENDBRANCH  37  38
ENDBRANCH  36  37
ENDBRANCH  35  36
ENDBRANCH  34  35
ENDBRANCH  33  34
ENDBRANCH   1  33
TORSDOF 23
ENDMDL
