MODEL 1
REMARK VINA RESULT:     -10.5      0.000      0.000
REMARK SMILES Cc1cscc1CNC(=O)N[C@@H](C)c1nc(C(=O)OCCOCCOCCOC(=O)c2ccc(-c3c4nc(c(-c5c(F)c(F)c(F)c(F)c5F)c5ccc([nH]5)c(-c5c(F)c(F)c(F)c(F)c5F)c5nc(c(-c6c(F)c(F)c(F)c(F)c6F)c6ccc3[nH]6)C=C5)C=C4)cc2)cs1
REMARK SMILES IDX 23 1 22 2 21 3 20 4 19 5 17 6 18 7 16 8 14 9 15 10 95 11
REMARK SMILES IDX 94 12 12 13 13 14 11 15 8 16 9 17 10 19 7 21 6 22 1 23 2 24
REMARK SMILES IDX 3 25 4 26 5 27 24 28 25 29 26 30 27 31 28 32 29 33 30 34
REMARK SMILES IDX 31 35 32 36 93 37 33 38 92 39 34 40 35 41 36 42 86 43 37 44
REMARK SMILES IDX 91 45 85 46 87 47 38 48 90 49 84 50 83 51 39 53 71 54 51 55
REMARK SMILES IDX 70 56 52 57 55 58 69 59 88 60 53 61 54 62 68 64 89 65 56 66
REMARK SMILES IDX 40 67 41 68 49 69 42 70 43 71 47 72 50 73 44 74 45 75 48 76
REMARK SMILES IDX 46 77 72 78 73 79 81 80 74 81 75 82 79 83 82 84 76 85 77 86
REMARK SMILES IDX 80 87 78 88 57 89 58 90 66 91 59 92 60 93 64 94 67 95 61 96
REMARK SMILES IDX 62 97 65 98 63 99
REMARK H PARENT 8 18 11 20 87 52 55 63
REMARK Flexibility Score: inf
ROOT
ATOM      1  C   UNL A   1      41.073  22.034  26.212  1.00  0.00     0.188 C 
ENDROOT
BRANCH   1   2
ATOM      2  O   UNL A   1      40.003  22.519  27.019  1.00  0.00    -0.376 OA
BRANCH   2   3
ATOM      3  C   UNL A   1      39.087  23.472  26.503  1.00  0.00     0.202 C 
BRANCH   3   4
ATOM      4  C   UNL A   1      37.787  22.919  25.916  1.00  0.00     0.261 C 
BRANCH   4   5
ATOM      5  O   UNL A   1      37.060  23.885  25.142  1.00  0.00    -0.458 OA
BRANCH   5   6
ATOM      6  C   UNL A   1      35.782  23.530  24.820  1.00  0.00     0.357 C 
ATOM      7  O   UNL A   1      35.403  22.376  24.646  1.00  0.00    -0.244 OA
BRANCH   6   8
ATOM      8  C   UNL A   1      34.841  24.656  24.840  1.00  0.00     0.159 A 
ATOM      9  C   UNL A   1      33.621  26.359  24.072  1.00  0.00     0.116 A 
ATOM     10  N   UNL A   1      34.559  25.485  23.745  1.00  0.00    -0.232 NA
ATOM     11  S   UNL A   1      33.159  26.347  25.735  1.00  0.00    -0.124 S 
ATOM     12  C   UNL A   1      34.164  24.999  25.997  1.00  0.00     0.102 A 
BRANCH   9  13
ATOM     13  C   UNL A   1      32.906  27.310  23.133  1.00  0.00     0.140 C 
ATOM     14  C   UNL A   1      31.450  27.502  23.548  1.00  0.00     0.039 C 
BRANCH  13  15
ATOM     15  N   UNL A   1      32.977  26.800  21.775  1.00  0.00    -0.329 N 
ATOM     16  N   UNL A   1      31.904  24.689  21.753  1.00  0.00    -0.334 N 
ATOM     17  C   UNL A   1      32.620  25.660  21.183  1.00  0.00     0.315 C 
ATOM     18  H   UNL A   1      31.777  23.924  21.148  1.00  0.00     0.165 HD
ATOM     19  O   UNL A   1      32.954  25.497  20.007  1.00  0.00    -0.249 OA
ATOM     20  H   UNL A   1      33.381  27.444  21.150  1.00  0.00     0.166 HD
BRANCH  16  21
ATOM     21  C   UNL A   1      31.267  24.473  23.034  1.00  0.00     0.154 C 
BRANCH  21  22
ATOM     22  C   UNL A   1      31.626  23.127  23.612  1.00  0.00    -0.015 A 
ATOM     23  C   UNL A   1      30.727  23.618  26.019  1.00  0.00     0.045 C 
ATOM     24  C   UNL A   1      31.377  22.747  24.993  1.00  0.00    -0.035 A 
ATOM     25  C   UNL A   1      31.827  21.465  25.257  1.00  0.00     0.068 A 
ATOM     26  S   UNL A   1      32.514  20.710  23.894  1.00  0.00    -0.152 S 
ATOM     27  C   UNL A   1      32.239  22.088  22.930  1.00  0.00     0.070 A 
ENDBRANCH  21  22
ENDBRANCH  16  21
ENDBRANCH  13  15
ENDBRANCH   9  13
ENDBRANCH   6   8
ENDBRANCH   5   6
ENDBRANCH   4   5
ENDBRANCH   3   4
ENDBRANCH   2   3
ENDBRANCH   1   2
BRANCH   1  28
ATOM     28  C   UNL A   1      41.569  20.579  26.316  1.00  0.00     0.188 C 
BRANCH  28  29
ATOM     29  O   UNL A   1      42.577  20.241  25.375  1.00  0.00    -0.376 OA
BRANCH  29  30
ATOM     30  C   UNL A   1      43.906  20.601  25.727  1.00  0.00     0.202 C 
BRANCH  30  31
ATOM     31  C   UNL A   1      44.351  21.899  25.050  1.00  0.00     0.261 C 
BRANCH  31  32
ATOM     32  O   UNL A   1      44.769  22.929  25.963  1.00  0.00    -0.460 OA
BRANCH  32  33
ATOM     33  C   UNL A   1      44.829  24.183  25.466  1.00  0.00     0.338 C 
ATOM     34  O   UNL A   1      45.351  24.542  24.427  1.00  0.00    -0.246 OA
BRANCH  33  35
ATOM     35  C   UNL A   1      44.029  25.065  26.338  1.00  0.00     0.060 A 
ATOM     36  C   UNL A   1      44.292  26.440  26.329  1.00  0.00     0.016 A 
ATOM     37  C   UNL A   1      43.051  24.533  27.183  1.00  0.00     0.016 A 
ATOM     38  C   UNL A   1      43.602  27.283  27.202  1.00  0.00     0.010 A 
ATOM     39  C   UNL A   1      42.371  25.377  28.064  1.00  0.00     0.010 A 
ATOM     40  C   UNL A   1      42.668  26.750  28.102  1.00  0.00    -0.014 A 
BRANCH  40  41
ATOM     41  C   UNL A   1      42.142  27.585  29.208  1.00  0.00     0.031 A 
ATOM     42  C   UNL A   1      42.854  27.552  30.533  1.00  0.00     0.074 A 
ATOM     43  C   UNL A   1      41.052  28.357  29.050  1.00  0.00     0.049 A 
ATOM     44  N   UNL A   1      42.565  28.169  31.651  1.00  0.00    -0.248 NA
ATOM     45  C   UNL A   1      44.053  26.703  30.607  1.00  0.00     0.031 C 
ATOM     46  C   UNL A   1      40.281  28.491  27.817  1.00  0.00     0.029 A 
ATOM     47  N   UNL A   1      40.401  29.167  29.947  1.00  0.00    -0.354 N 
ATOM     48  C   UNL A   1      43.547  27.788  32.554  1.00  0.00     0.074 A 
ATOM     49  C   UNL A   1      44.421  26.861  31.869  1.00  0.00     0.031 C 
ATOM     50  C   UNL A   1      39.251  29.328  28.038  1.00  0.00     0.029 A 
ATOM     51  C   UNL A   1      39.279  29.768  29.433  1.00  0.00     0.049 A 
ATOM     52  H   UNL A   1      40.708  29.304  30.872  1.00  0.00     0.167 HD
ATOM     53  C   UNL A   1      43.712  28.179  33.840  1.00  0.00     0.037 A 
ATOM     54  C   UNL A   1      38.374  30.570  30.027  1.00  0.00     0.037 A 
ATOM     55  C   UNL A   1      42.842  29.092  34.531  1.00  0.00     0.049 A 
ATOM     56  C   UNL A   1      38.545  30.944  31.478  1.00  0.00     0.074 A 
ATOM     57  C   UNL A   1      42.939  29.562  35.829  1.00  0.00     0.029 A 
ATOM     58  N   UNL A   1      41.708  29.666  33.980  1.00  0.00    -0.354 N 
ATOM     59  N   UNL A   1      39.499  30.612  32.313  1.00  0.00    -0.248 NA
ATOM     60  C   UNL A   1      37.511  31.809  32.066  1.00  0.00     0.031 C 
ATOM     61  C   UNL A   1      41.840  30.390  36.078  1.00  0.00     0.029 A 
ATOM     62  C   UNL A   1      41.082  30.471  34.920  1.00  0.00     0.049 A 
ATOM     63  H   UNL A   1      41.392  29.526  33.058  1.00  0.00     0.167 HD
ATOM     64  C   UNL A   1      39.197  31.247  33.512  1.00  0.00     0.074 A 
ATOM     65  C   UNL A   1      37.976  31.992  33.294  1.00  0.00     0.031 C 
ATOM     66  C   UNL A   1      39.874  31.218  34.686  1.00  0.00     0.037 A 
BRANCH  53  67
ATOM     67  C   UNL A   1      44.876  27.604  34.588  1.00  0.00     0.064 A 
ATOM     68  C   UNL A   1      46.157  28.168  34.493  1.00  0.00     0.173 A 
ATOM     69  C   UNL A   1      44.703  26.494  35.426  1.00  0.00     0.173 A 
ATOM     70  F   UNL A   1      46.374  29.222  33.691  1.00  0.00    -0.203 F 
ATOM     71  C   UNL A   1      47.230  27.626  35.195  1.00  0.00     0.198 A 
ATOM     72  C   UNL A   1      45.773  25.969  36.145  1.00  0.00     0.198 A 
ATOM     73  F   UNL A   1      43.497  25.921  35.551  1.00  0.00    -0.203 F 
ATOM     74  F   UNL A   1      48.454  28.154  35.059  1.00  0.00    -0.200 F 
ATOM     75  C   UNL A   1      47.036  26.531  36.024  1.00  0.00     0.200 A 
ATOM     76  F   UNL A   1      45.585  24.916  36.952  1.00  0.00    -0.200 F 
ATOM     77  F   UNL A   1      48.069  26.012  36.703  1.00  0.00    -0.200 F 
ENDBRANCH  53  67
BRANCH  54  78
ATOM     78  C   UNL A   1      37.211  31.079  29.254  1.00  0.00     0.064 A 
ATOM     79  C   UNL A   1      37.154  32.412  28.829  1.00  0.00     0.173 A 
ATOM     80  C   UNL A   1      36.119  30.250  28.955  1.00  0.00     0.173 A 
ATOM     81  F   UNL A   1      38.160  33.251  29.119  1.00  0.00    -0.203 F 
ATOM     82  C   UNL A   1      36.042  32.905  28.149  1.00  0.00     0.198 A 
ATOM     83  C   UNL A   1      35.018  30.736  28.255  1.00  0.00     0.198 A 
ATOM     84  F   UNL A   1      36.122  28.968  29.348  1.00  0.00    -0.203 F 
ATOM     85  F   UNL A   1      35.992  34.196  27.796  1.00  0.00    -0.200 F 
ATOM     86  C   UNL A   1      34.977  32.065  27.858  1.00  0.00     0.200 A 
ATOM     87  F   UNL A   1      33.993  29.921  27.971  1.00  0.00    -0.200 F 
ATOM     88  F   UNL A   1      33.906  32.539  27.208  1.00  0.00    -0.200 F 
ENDBRANCH  54  78
BRANCH  66  89
ATOM     89  C   UNL A   1      39.334  32.040  35.818  1.00  0.00     0.064 A 
ATOM     90  C   UNL A   1      39.689  33.386  35.985  1.00  0.00     0.173 A 
ATOM     91  C   UNL A   1      38.409  31.487  36.718  1.00  0.00     0.173 A 
ATOM     92  F   UNL A   1      40.580  33.956  35.160  1.00  0.00    -0.203 F 
ATOM     93  C   UNL A   1      39.152  34.143  37.023  1.00  0.00     0.198 A 
ATOM     94  C   UNL A   1      37.855  32.253  37.739  1.00  0.00     0.198 A 
ATOM     95  F   UNL A   1      38.033  30.205  36.596  1.00  0.00    -0.203 F 
ATOM     96  F   UNL A   1      39.533  35.417  37.187  1.00  0.00    -0.200 F 
ATOM     97  C   UNL A   1      38.230  33.579  37.894  1.00  0.00     0.200 A 
ATOM     98  F   UNL A   1      36.957  31.709  38.572  1.00  0.00    -0.200 F 
ATOM     99  F   UNL A   1      37.709  34.312  38.887  1.00  0.00    -0.200 F 
ENDBRANCH  66  89
ENDBRANCH  40  41
ENDBRANCH  33  35
ENDBRANCH  32  33
ENDBRANCH  31  32
ENDBRANCH  30  31
ENDBRANCH  29  30
ENDBRANCH  28  29
ENDBRANCH   1  28
TORSDOF 21
ENDMDL
MODEL 2
REMARK VINA RESULT:     -10.2      1.192      7.329
REMARK SMILES Cc1cscc1CNC(=O)N[C@@H](C)c1nc(C(=O)OCCOCCOCCOC(=O)c2ccc(-c3c4nc(c(-c5c(F)c(F)c(F)c(F)c5F)c5ccc([nH]5)c(-c5c(F)c(F)c(F)c(F)c5F)c5nc(c(-c6c(F)c(F)c(F)c(F)c6F)c6ccc3[nH]6)C=C5)C=C4)cc2)cs1
REMARK SMILES IDX 23 1 22 2 21 3 20 4 19 5 17 6 18 7 16 8 14 9 15 10 95 11
REMARK SMILES IDX 94 12 12 13 13 14 11 15 8 16 9 17 10 19 7 21 6 22 1 23 2 24
REMARK SMILES IDX 3 25 4 26 5 27 24 28 25 29 26 30 27 31 28 32 29 33 30 34
REMARK SMILES IDX 31 35 32 36 93 37 33 38 92 39 34 40 35 41 36 42 86 43 37 44
REMARK SMILES IDX 91 45 85 46 87 47 38 48 90 49 84 50 83 51 39 53 71 54 51 55
REMARK SMILES IDX 70 56 52 57 55 58 69 59 88 60 53 61 54 62 68 64 89 65 56 66
REMARK SMILES IDX 40 67 41 68 49 69 42 70 43 71 47 72 50 73 44 74 45 75 48 76
REMARK SMILES IDX 46 77 72 78 73 79 81 80 74 81 75 82 79 83 82 84 76 85 77 86
REMARK SMILES IDX 80 87 78 88 57 89 58 90 66 91 59 92 60 93 64 94 67 95 61 96
REMARK SMILES IDX 62 97 65 98 63 99
REMARK H PARENT 8 18 11 20 87 52 55 63
REMARK Flexibility Score: inf
ROOT
ATOM      1  C   UNL A   1      41.476  22.268  26.136  1.00  0.00     0.188 C 
ENDROOT
BRANCH   1   2
ATOM      2  O   UNL A   1      40.341  22.392  26.989  1.00  0.00    -0.376 OA
BRANCH   2   3
ATOM      3  C   UNL A   1      39.098  22.840  26.471  1.00  0.00     0.202 C 
BRANCH   3   4
ATOM      4  C   UNL A   1      38.291  21.821  25.662  1.00  0.00     0.261 C 
BRANCH   4   5
ATOM      5  O   UNL A   1      37.172  22.402  24.978  1.00  0.00    -0.458 OA
BRANCH   5   6
ATOM      6  C   UNL A   1      36.064  21.609  24.897  1.00  0.00     0.357 C 
ATOM      7  O   UNL A   1      36.088  20.383  24.833  1.00  0.00    -0.244 OA
BRANCH   6   8
ATOM      8  C   UNL A   1      34.805  22.348  25.038  1.00  0.00     0.159 A 
ATOM      9  C   UNL A   1      33.046  23.591  24.453  1.00  0.00     0.116 A 
ATOM     10  N   UNL A   1      34.203  23.110  24.026  1.00  0.00    -0.232 NA
ATOM     11  S   UNL A   1      32.707  23.307  26.121  1.00  0.00    -0.124 S 
ATOM     12  C   UNL A   1      34.116  22.361  26.239  1.00  0.00     0.102 A 
BRANCH   9  13
ATOM     13  C   UNL A   1      32.006  24.311  23.618  1.00  0.00     0.140 C 
ATOM     14  C   UNL A   1      30.662  23.588  23.672  1.00  0.00     0.039 C 
BRANCH  13  15
ATOM     15  N   UNL A   1      32.466  24.412  22.245  1.00  0.00    -0.329 N 
ATOM     16  N   UNL A   1      33.644  26.457  22.041  1.00  0.00    -0.334 N 
ATOM     17  C   UNL A   1      33.102  25.346  21.537  1.00  0.00     0.315 C 
ATOM     18  H   UNL A   1      34.041  27.022  21.340  1.00  0.00     0.165 HD
ATOM     19  O   UNL A   1      33.224  25.161  20.324  1.00  0.00    -0.249 OA
ATOM     20  H   UNL A   1      32.261  23.608  21.716  1.00  0.00     0.166 HD
BRANCH  16  21
ATOM     21  C   UNL A   1      33.798  27.043  23.355  1.00  0.00     0.154 C 
BRANCH  21  22
ATOM     22  C   UNL A   1      32.585  27.848  23.748  1.00  0.00    -0.015 A 
ATOM     23  C   UNL A   1      32.625  27.180  26.277  1.00  0.00     0.045 C 
ATOM     24  C   UNL A   1      32.050  27.899  25.099  1.00  0.00    -0.035 A 
ATOM     25  C   UNL A   1      30.921  28.695  25.170  1.00  0.00     0.068 A 
ATOM     26  S   UNL A   1      30.506  29.393  23.673  1.00  0.00    -0.152 S 
ATOM     27  C   UNL A   1      31.818  28.629  22.898  1.00  0.00     0.070 A 
ENDBRANCH  21  22
ENDBRANCH  16  21
ENDBRANCH  13  15
ENDBRANCH   9  13
ENDBRANCH   6   8
ENDBRANCH   5   6
ENDBRANCH   4   5
ENDBRANCH   3   4
ENDBRANCH   2   3
ENDBRANCH   1   2
BRANCH   1  28
ATOM     28  C   UNL A   1      42.320  20.979  26.095  1.00  0.00     0.188 C 
BRANCH  28  29
ATOM     29  O   UNL A   1      43.402  21.022  25.177  1.00  0.00    -0.376 OA
BRANCH  29  30
ATOM     30  C   UNL A   1      44.603  21.612  25.657  1.00  0.00     0.202 C 
BRANCH  30  31
ATOM     31  C   UNL A   1      44.838  23.005  25.068  1.00  0.00     0.261 C 
BRANCH  31  32
ATOM     32  O   UNL A   1      45.327  23.972  26.013  1.00  0.00    -0.460 OA
BRANCH  32  33
ATOM     33  C   UNL A   1      45.272  25.266  25.631  1.00  0.00     0.338 C 
ATOM     34  O   UNL A   1      45.723  25.755  24.611  1.00  0.00    -0.246 OA
BRANCH  33  35
ATOM     35  C   UNL A   1      44.444  26.002  26.605  1.00  0.00     0.060 A 
ATOM     36  C   UNL A   1      44.659  27.374  26.773  1.00  0.00     0.016 A 
ATOM     37  C   UNL A   1      43.485  25.333  27.372  1.00  0.00     0.016 A 
ATOM     38  C   UNL A   1      43.942  28.075  27.745  1.00  0.00     0.010 A 
ATOM     39  C   UNL A   1      42.777  26.034  28.352  1.00  0.00     0.010 A 
ATOM     40  C   UNL A   1      43.028  27.400  28.566  1.00  0.00    -0.014 A 
BRANCH  40  41
ATOM     41  C   UNL A   1      42.474  28.068  29.769  1.00  0.00     0.031 A 
ATOM     42  C   UNL A   1      41.159  28.789  29.647  1.00  0.00     0.074 A 
ATOM     43  C   UNL A   1      43.121  28.043  30.947  1.00  0.00     0.049 A 
ATOM     44  N   UNL A   1      40.495  29.468  30.548  1.00  0.00    -0.248 NA
ATOM     45  C   UNL A   1      40.509  28.739  28.328  1.00  0.00     0.031 C 
ATOM     46  C   UNL A   1      44.391  27.369  31.202  1.00  0.00     0.029 A 
ATOM     47  N   UNL A   1      42.794  28.617  32.151  1.00  0.00    -0.354 N 
ATOM     48  C   UNL A   1      39.350  29.920  29.906  1.00  0.00     0.074 A 
ATOM     49  C   UNL A   1      39.422  29.468  28.534  1.00  0.00     0.031 C 
ATOM     50  C   UNL A   1      44.743  27.576  32.484  1.00  0.00     0.029 A 
ATOM     51  C   UNL A   1      43.734  28.416  33.130  1.00  0.00     0.049 A 
ATOM     52  H   UNL A   1      41.963  29.124  32.298  1.00  0.00     0.167 HD
ATOM     53  C   UNL A   1      38.323  30.641  30.416  1.00  0.00     0.037 A 
ATOM     54  C   UNL A   1      43.779  28.872  34.398  1.00  0.00     0.037 A 
ATOM     55  C   UNL A   1      38.248  31.103  31.775  1.00  0.00     0.049 A 
ATOM     56  C   UNL A   1      42.653  29.725  34.925  1.00  0.00     0.074 A 
ATOM     57  C   UNL A   1      37.239  31.825  32.388  1.00  0.00     0.029 A 
ATOM     58  N   UNL A   1      39.229  30.893  32.732  1.00  0.00    -0.354 N 
ATOM     59  N   UNL A   1      41.554  30.113  34.324  1.00  0.00    -0.248 NA
ATOM     60  C   UNL A   1      42.775  30.202  36.311  1.00  0.00     0.031 C 
ATOM     61  C   UNL A   1      37.628  32.088  33.706  1.00  0.00     0.029 A 
ATOM     62  C   UNL A   1      38.859  31.490  33.926  1.00  0.00     0.049 A 
ATOM     63  H   UNL A   1      40.064  30.392  32.586  1.00  0.00     0.167 HD
ATOM     64  C   UNL A   1      40.844  30.851  35.264  1.00  0.00     0.074 A 
ATOM     65  C   UNL A   1      41.631  30.851  36.478  1.00  0.00     0.031 C 
ATOM     66  C   UNL A   1      39.646  31.471  35.131  1.00  0.00     0.037 A 
BRANCH  53  67
ATOM     67  C   UNL A   1      37.202  30.990  29.485  1.00  0.00     0.064 A 
ATOM     68  C   UNL A   1      36.189  30.067  29.184  1.00  0.00     0.173 A 
ATOM     69  C   UNL A   1      37.126  32.265  28.910  1.00  0.00     0.173 A 
ATOM     70  F   UNL A   1      36.227  28.829  29.698  1.00  0.00    -0.203 F 
ATOM     71  C   UNL A   1      35.150  30.403  28.319  1.00  0.00     0.198 A 
ATOM     72  C   UNL A   1      36.074  32.606  28.065  1.00  0.00     0.198 A 
ATOM     73  F   UNL A   1      38.070  33.182  29.169  1.00  0.00    -0.203 F 
ATOM     74  F   UNL A   1      34.215  29.495  28.012  1.00  0.00    -0.200 F 
ATOM     75  C   UNL A   1      35.091  31.674  27.766  1.00  0.00     0.200 A 
ATOM     76  F   UNL A   1      36.012  33.836  27.536  1.00  0.00    -0.200 F 
ATOM     77  F   UNL A   1      34.088  31.999  26.937  1.00  0.00    -0.200 F 
ENDBRANCH  53  67
BRANCH  54  78
ATOM     78  C   UNL A   1      44.935  28.537  35.267  1.00  0.00     0.064 A 
ATOM     79  C   UNL A   1      46.105  29.308  35.245  1.00  0.00     0.173 A 
ATOM     80  C   UNL A   1      44.907  27.418  36.114  1.00  0.00     0.173 A 
ATOM     81  F   UNL A   1      46.190  30.369  34.428  1.00  0.00    -0.203 F 
ATOM     82  C   UNL A   1      47.209  28.965  36.022  1.00  0.00     0.198 A 
ATOM     83  C   UNL A   1      46.003  27.089  36.908  1.00  0.00     0.198 A 
ATOM     84  F   UNL A   1      43.814  26.642  36.164  1.00  0.00    -0.203 F 
ATOM     85  F   UNL A   1      48.331  29.693  35.945  1.00  0.00    -0.200 F 
ATOM     86  C   UNL A   1      47.156  27.859  36.856  1.00  0.00     0.200 A 
ATOM     87  F   UNL A   1      45.946  26.021  37.716  1.00  0.00    -0.200 F 
ATOM     88  F   UNL A   1      48.219  27.527  37.600  1.00  0.00    -0.200 F 
ENDBRANCH  54  78
BRANCH  66  89
ATOM     89  C   UNL A   1      39.090  32.171  36.336  1.00  0.00     0.064 A 
ATOM     90  C   UNL A   1      39.411  33.505  36.626  1.00  0.00     0.173 A 
ATOM     91  C   UNL A   1      38.184  31.513  37.183  1.00  0.00     0.173 A 
ATOM     92  F   UNL A   1      40.283  34.171  35.855  1.00  0.00    -0.203 F 
ATOM     93  C   UNL A   1      38.860  34.149  37.731  1.00  0.00     0.198 A 
ATOM     94  C   UNL A   1      37.615  32.168  38.271  1.00  0.00     0.198 A 
ATOM     95  F   UNL A   1      37.840  30.238  36.945  1.00  0.00    -0.203 F 
ATOM     96  F   UNL A   1      39.208  35.412  38.010  1.00  0.00    -0.200 F 
ATOM     97  C   UNL A   1      37.956  33.483  38.547  1.00  0.00     0.200 A 
ATOM     98  F   UNL A   1      36.735  31.526  39.053  1.00  0.00    -0.200 F 
ATOM     99  F   UNL A   1      37.421  34.107  39.605  1.00  0.00    -0.200 F 
ENDBRANCH  66  89
ENDBRANCH  40  41
ENDBRANCH  33  35
ENDBRANCH  32  33
ENDBRANCH  31  32
ENDBRANCH  30  31
ENDBRANCH  29  30
ENDBRANCH  28  29
ENDBRANCH   1  28
TORSDOF 21
ENDMDL
MODEL 3
REMARK VINA RESULT:     -10.2      1.812      7.647
REMARK SMILES Cc1cscc1CNC(=O)N[C@@H](C)c1nc(C(=O)OCCOCCOCCOC(=O)c2ccc(-c3c4nc(c(-c5c(F)c(F)c(F)c(F)c5F)c5ccc([nH]5)c(-c5c(F)c(F)c(F)c(F)c5F)c5nc(c(-c6c(F)c(F)c(F)c(F)c6F)c6ccc3[nH]6)C=C5)C=C4)cc2)cs1
REMARK SMILES IDX 23 1 22 2 21 3 20 4 19 5 17 6 18 7 16 8 14 9 15 10 95 11
REMARK SMILES IDX 94 12 12 13 13 14 11 15 8 16 9 17 10 19 7 21 6 22 1 23 2 24
REMARK SMILES IDX 3 25 4 26 5 27 24 28 25 29 26 30 27 31 28 32 29 33 30 34
REMARK SMILES IDX 31 35 32 36 93 37 33 38 92 39 34 40 35 41 36 42 86 43 37 44
REMARK SMILES IDX 91 45 85 46 87 47 38 48 90 49 84 50 83 51 39 53 71 54 51 55
REMARK SMILES IDX 70 56 52 57 55 58 69 59 88 60 53 61 54 62 68 64 89 65 56 66
REMARK SMILES IDX 40 67 41 68 49 69 42 70 43 71 47 72 50 73 44 74 45 75 48 76
REMARK SMILES IDX 46 77 72 78 73 79 81 80 74 81 75 82 79 83 82 84 76 85 77 86
REMARK SMILES IDX 80 87 78 88 57 89 58 90 66 91 59 92 60 93 64 94 67 95 61 96
REMARK SMILES IDX 62 97 65 98 63 99
REMARK H PARENT 8 18 11 20 87 52 55 63
REMARK Flexibility Score: inf
ROOT
ATOM      1  C   UNL A   1      41.779  22.268  25.829  1.00  0.00     0.188 C 
ENDROOT
BRANCH   1   2
ATOM      2  O   UNL A   1      40.919  22.689  26.885  1.00  0.00    -0.376 OA
BRANCH   2   3
ATOM      3  C   UNL A   1      39.511  22.669  26.715  1.00  0.00     0.202 C 
BRANCH   3   4
ATOM      4  C   UNL A   1      38.944  21.544  25.847  1.00  0.00     0.261 C 
BRANCH   4   5
ATOM      5  O   UNL A   1      37.842  21.960  25.029  1.00  0.00    -0.458 OA
BRANCH   5   6
ATOM      6  C   UNL A   1      36.700  21.226  25.172  1.00  0.00     0.357 C 
ATOM      7  O   UNL A   1      36.626  20.014  24.993  1.00  0.00    -0.244 OA
BRANCH   6   8
ATOM      8  C   UNL A   1      35.573  21.997  25.708  1.00  0.00     0.159 A 
ATOM      9  C   UNL A   1      34.061  23.630  25.871  1.00  0.00     0.116 A 
ATOM     10  N   UNL A   1      35.140  23.235  25.214  1.00  0.00    -0.232 NA
ATOM     11  S   UNL A   1      33.619  22.639  27.213  1.00  0.00    -0.124 S 
ATOM     12  C   UNL A   1      34.852  21.541  26.798  1.00  0.00     0.102 A 
BRANCH   9  13
ATOM     13  C   UNL A   1      33.183  24.817  25.532  1.00  0.00     0.140 C 
ATOM     14  C   UNL A   1      33.817  26.123  26.003  1.00  0.00     0.039 C 
BRANCH  13  15
ATOM     15  N   UNL A   1      31.876  24.647  26.141  1.00  0.00    -0.329 N 
ATOM     16  N   UNL A   1      30.404  26.183  25.100  1.00  0.00    -0.334 N 
ATOM     17  C   UNL A   1      30.699  25.264  26.022  1.00  0.00     0.315 C 
ATOM     18  H   UNL A   1      29.489  26.528  25.208  1.00  0.00     0.165 HD
ATOM     19  O   UNL A   1      29.804  24.945  26.807  1.00  0.00    -0.249 OA
ATOM     20  H   UNL A   1      31.853  23.908  26.790  1.00  0.00     0.166 HD
BRANCH  16  21
ATOM     21  C   UNL A   1      31.083  26.801  23.982  1.00  0.00     0.154 C 
BRANCH  21  22
ATOM     22  C   UNL A   1      30.445  28.112  23.601  1.00  0.00    -0.015 A 
ATOM     23  C   UNL A   1      31.656  29.542  25.426  1.00  0.00     0.045 C 
ATOM     24  C   UNL A   1      30.712  29.370  24.279  1.00  0.00    -0.035 A 
ATOM     25  C   UNL A   1      29.975  30.407  23.737  1.00  0.00     0.068 A 
ATOM     26  S   UNL A   1      28.994  29.915  22.435  1.00  0.00    -0.152 S 
ATOM     27  C   UNL A   1      29.525  28.303  22.581  1.00  0.00     0.070 A 
ENDBRANCH  21  22
ENDBRANCH  16  21
ENDBRANCH  13  15
ENDBRANCH   9  13
ENDBRANCH   6   8
ENDBRANCH   5   6
ENDBRANCH   4   5
ENDBRANCH   3   4
ENDBRANCH   2   3
ENDBRANCH   1   2
BRANCH   1  28
ATOM     28  C   UNL A   1      42.704  21.044  25.979  1.00  0.00     0.188 C 
BRANCH  28  29
ATOM     29  O   UNL A   1      44.065  21.303  25.664  1.00  0.00    -0.376 OA
BRANCH  29  30
ATOM     30  C   UNL A   1      44.735  22.229  26.510  1.00  0.00     0.202 C 
BRANCH  30  31
ATOM     31  C   UNL A   1      45.764  23.066  25.747  1.00  0.00     0.261 C 
BRANCH  31  32
ATOM     32  O   UNL A   1      46.093  24.316  26.378  1.00  0.00    -0.460 OA
BRANCH  32  33
ATOM     33  C   UNL A   1      45.649  25.434  25.765  1.00  0.00     0.338 C 
ATOM     34  O   UNL A   1      45.815  25.755  24.603  1.00  0.00    -0.246 OA
BRANCH  33  35
ATOM     35  C   UNL A   1      44.794  26.174  26.714  1.00  0.00     0.060 A 
ATOM     36  C   UNL A   1      45.068  27.525  26.956  1.00  0.00     0.016 A 
ATOM     37  C   UNL A   1      43.752  25.528  27.384  1.00  0.00     0.016 A 
ATOM     38  C   UNL A   1      44.323  28.224  27.907  1.00  0.00     0.010 A 
ATOM     39  C   UNL A   1      43.015  26.226  28.344  1.00  0.00     0.010 A 
ATOM     40  C   UNL A   1      43.320  27.567  28.634  1.00  0.00    -0.014 A 
BRANCH  40  41
ATOM     41  C   UNL A   1      42.720  28.215  29.825  1.00  0.00     0.031 A 
ATOM     42  C   UNL A   1      41.363  28.850  29.688  1.00  0.00     0.074 A 
ATOM     43  C   UNL A   1      43.361  28.247  31.007  1.00  0.00     0.049 A 
ATOM     44  N   UNL A   1      40.653  29.499  30.577  1.00  0.00    -0.248 NA
ATOM     45  C   UNL A   1      40.723  28.742  28.368  1.00  0.00     0.031 C 
ATOM     46  C   UNL A   1      44.669  27.657  31.276  1.00  0.00     0.029 A 
ATOM     47  N   UNL A   1      42.992  28.816  32.201  1.00  0.00    -0.354 N 
ATOM     48  C   UNL A   1      39.485  29.869  29.924  1.00  0.00     0.074 A 
ATOM     49  C   UNL A   1      39.592  29.404  28.559  1.00  0.00     0.031 C 
ATOM     50  C   UNL A   1      45.001  27.904  32.557  1.00  0.00     0.029 A 
ATOM     51  C   UNL A   1      43.939  28.687  33.187  1.00  0.00     0.049 A 
ATOM     52  H   UNL A   1      42.131  29.271  32.338  1.00  0.00     0.167 HD
ATOM     53  C   UNL A   1      38.412  30.531  30.420  1.00  0.00     0.037 A 
ATOM     54  C   UNL A   1      43.948  29.162  34.448  1.00  0.00     0.037 A 
ATOM     55  C   UNL A   1      38.302  31.005  31.773  1.00  0.00     0.049 A 
ATOM     56  C   UNL A   1      42.769  29.950  34.959  1.00  0.00     0.074 A 
ATOM     57  C   UNL A   1      37.246  31.671  32.371  1.00  0.00     0.029 A 
ATOM     58  N   UNL A   1      39.289  30.870  32.736  1.00  0.00    -0.354 N 
ATOM     59  N   UNL A   1      41.651  30.260  34.349  1.00  0.00    -0.248 NA
ATOM     60  C   UNL A   1      42.854  30.452  36.339  1.00  0.00     0.031 C 
ATOM     61  C   UNL A   1      37.611  31.975  33.687  1.00  0.00     0.029 A 
ATOM     62  C   UNL A   1      38.876  31.459  33.921  1.00  0.00     0.049 A 
ATOM     63  H   UNL A   1      40.155  30.421  32.601  1.00  0.00     0.167 HD
ATOM     64  C   UNL A   1      40.891  30.964  35.275  1.00  0.00     0.074 A 
ATOM     65  C   UNL A   1      41.670  31.029  36.492  1.00  0.00     0.031 C 
ATOM     66  C   UNL A   1      39.657  31.505  35.129  1.00  0.00     0.037 A 
BRANCH  53  67
ATOM     67  C   UNL A   1      37.275  30.796  29.481  1.00  0.00     0.064 A 
ATOM     68  C   UNL A   1      36.333  29.803  29.175  1.00  0.00     0.173 A 
ATOM     69  C   UNL A   1      37.114  32.061  28.899  1.00  0.00     0.173 A 
ATOM     70  F   UNL A   1      36.455  28.572  29.696  1.00  0.00    -0.203 F 
ATOM     71  C   UNL A   1      35.279  30.061  28.303  1.00  0.00     0.198 A 
ATOM     72  C   UNL A   1      36.046  32.323  28.046  1.00  0.00     0.198 A 
ATOM     73  F   UNL A   1      37.989  33.043  29.161  1.00  0.00    -0.203 F 
ATOM     74  F   UNL A   1      34.413  29.088  27.992  1.00  0.00    -0.200 F 
ATOM     75  C   UNL A   1      35.134  31.322  27.744  1.00  0.00     0.200 A 
ATOM     76  F   UNL A   1      35.901  33.543  27.511  1.00  0.00    -0.200 F 
ATOM     77  F   UNL A   1      34.117  31.572  26.906  1.00  0.00    -0.200 F 
ENDBRANCH  53  67
BRANCH  54  78
ATOM     78  C   UNL A   1      45.119  28.912  35.327  1.00  0.00     0.064 A 
ATOM     79  C   UNL A   1      45.157  27.803  36.183  1.00  0.00     0.173 A 
ATOM     80  C   UNL A   1      46.210  29.795  35.354  1.00  0.00     0.173 A 
ATOM     81  F   UNL A   1      44.124  26.948  36.215  1.00  0.00    -0.203 F 
ATOM     82  C   UNL A   1      46.231  27.594  37.045  1.00  0.00     0.198 A 
ATOM     83  C   UNL A   1      47.294  29.573  36.199  1.00  0.00     0.198 A 
ATOM     84  F   UNL A   1      46.217  30.876  34.560  1.00  0.00    -0.203 F 
ATOM     85  F   UNL A   1      46.220  26.552  37.886  1.00  0.00    -0.200 F 
ATOM     86  C   UNL A   1      47.301  28.477  37.049  1.00  0.00     0.200 A 
ATOM     87  F   UNL A   1      48.328  30.426  36.197  1.00  0.00    -0.200 F 
ATOM     88  F   UNL A   1      48.333  28.279  37.881  1.00  0.00    -0.200 F 
ENDBRANCH  54  78
BRANCH  66  89
ATOM     89  C   UNL A   1      39.052  32.185  36.322  1.00  0.00     0.064 A 
ATOM     90  C   UNL A   1      38.146  31.526  37.164  1.00  0.00     0.173 A 
ATOM     91  C   UNL A   1      39.426  33.497  36.655  1.00  0.00     0.173 A 
ATOM     92  F   UNL A   1      37.747  30.277  36.880  1.00  0.00    -0.203 F 
ATOM     93  C   UNL A   1      37.620  32.162  38.286  1.00  0.00     0.198 A 
ATOM     94  C   UNL A   1      38.918  34.120  37.791  1.00  0.00     0.198 A 
ATOM     95  F   UNL A   1      40.295  34.168  35.885  1.00  0.00    -0.203 F 
ATOM     96  F   UNL A   1      36.727  31.527  39.057  1.00  0.00    -0.200 F 
ATOM     97  C   UNL A   1      38.013  33.455  38.603  1.00  0.00     0.200 A 
ATOM     98  F   UNL A   1      39.307  35.365  38.102  1.00  0.00    -0.200 F 
ATOM     99  F   UNL A   1      37.512  34.062  39.688  1.00  0.00    -0.200 F 
ENDBRANCH  66  89
ENDBRANCH  40  41
ENDBRANCH  33  35
ENDBRANCH  32  33
ENDBRANCH  31  32
ENDBRANCH  30  31
ENDBRANCH  29  30
ENDBRANCH  28  29
ENDBRANCH   1  28
TORSDOF 21
ENDMDL
