MODEL 1
REMARK VINA RESULT:     -10.5      0.000      0.000
REMARK SMILES C[NH+](C)[C@H]1CCN(C(=O)C(=O)c2ccccc2)C[C@H]1CCC(=O)OCCOCCOCCOC(=O)c1ccc(-c2c3nc(c(-c4c(F)c(F)c(F)c(F)c4F)c4ccc([nH]4)c(-c4c(F)c(F)c(F)c(F)c4F)c4nc(c(-c5c(F)c(F)c(F)c(F)c5F)c5ccc2[nH]5)C=C4)C=C3)cc1
REMARK SMILES IDX 27 1 26 2 25 3 24 4 22 5 23 6 21 7 20 8 19 9 4 10 5 11 6 12
REMARK SMILES IDX 18 13 7 14 2 15 1 16 3 17 8 19 9 20 10 21 11 22 12 23 13 24
REMARK SMILES IDX 17 25 14 26 16 27 15 28 28 29 29 30 30 31 31 32 32 33 33 34
REMARK SMILES IDX 34 35 35 36 36 37 37 38 98 39 38 40 97 41 39 42 40 43 41 44
REMARK SMILES IDX 91 45 42 46 96 47 90 48 92 49 43 50 95 51 89 52 88 53 44 55
REMARK SMILES IDX 76 56 56 57 75 58 57 59 60 60 74 61 93 62 58 63 59 64 73 66
REMARK SMILES IDX 94 67 61 68 45 69 46 70 54 71 47 72 48 73 52 74 55 75 49 76
REMARK SMILES IDX 50 77 53 78 51 79 77 80 78 81 86 82 79 83 80 84 84 85 87 86
REMARK SMILES IDX 81 87 82 88 85 89 83 90 62 91 63 92 71 93 64 94 65 95 69 96
REMARK SMILES IDX 72 97 66 98 67 99 70 100 68 101
REMARK H PARENT 2 18 92 54 60 65
REMARK Flexibility Score: inf
ROOT
ATOM      1  O   UNL A   1      33.966  31.844  28.715  1.00  0.00    -0.376 OA
ENDROOT
BRANCH   1   2
ATOM      2  C   UNL A   1      34.629  31.179  27.645  1.00  0.00     0.202 C 
BRANCH   2   3
ATOM      3  C   UNL A   1      33.855  30.100  26.874  1.00  0.00     0.261 C 
BRANCH   3   4
ATOM      4  O   UNL A   1      32.559  29.770  27.422  1.00  0.00    -0.463 OA
BRANCH   4   5
ATOM      5  C   UNL A   1      32.178  28.472  27.375  1.00  0.00     0.305 C 
ATOM      6  O   UNL A   1      31.315  27.991  28.106  1.00  0.00    -0.252 OA
BRANCH   5   7
ATOM      7  C   UNL A   1      32.838  27.624  26.294  1.00  0.00     0.123 C 
BRANCH   7   8
ATOM      8  C   UNL A   1      32.433  26.195  25.904  1.00  0.00     0.023 C 
BRANCH   8   9
ATOM      9  C   UNL A   1      30.962  25.866  25.546  1.00  0.00     0.067 C 
ATOM     10  C   UNL A   1      30.603  26.021  24.031  1.00  0.00     0.190 C 
ATOM     11  C   UNL A   1      31.277  24.888  23.220  1.00  0.00     0.087 C 
ATOM     12  C   UNL A   1      30.931  23.514  23.771  1.00  0.00     0.126 C 
ATOM     13  C   UNL A   1      30.638  24.423  26.032  1.00  0.00     0.129 C 
ATOM     14  N   UNL A   1      31.249  23.399  25.184  1.00  0.00    -0.335 N 
BRANCH  10  15
ATOM     15  N   UNL A   1      30.916  27.381  23.520  1.00  0.00    -0.337 N 
ATOM     16  C   UNL A   1      29.725  28.052  22.981  1.00  0.00     0.332 C 
ATOM     17  C   UNL A   1      31.945  27.406  22.474  1.00  0.00     0.332 C 
ATOM     18  H   UNL A   1      31.272  27.874  24.340  1.00  0.00     0.347 HD
ENDBRANCH  10  15
BRANCH  14  19
ATOM     19  C   UNL A   1      31.942  22.252  25.597  1.00  0.00     0.294 C 
ATOM     20  O   UNL A   1      31.471  21.123  25.468  1.00  0.00    -0.265 OA
BRANCH  19  21
ATOM     21  C   UNL A   1      33.310  22.363  26.290  1.00  0.00     0.250 C 
ATOM     22  O   UNL A   1      33.397  22.405  27.511  1.00  0.00    -0.283 OA
BRANCH  21  23
ATOM     23  C   UNL A   1      34.551  22.274  25.463  1.00  0.00     0.028 A 
ATOM     24  C   UNL A   1      34.877  23.359  24.637  1.00  0.00     0.012 A 
ATOM     25  C   UNL A   1      35.404  21.164  25.506  1.00  0.00     0.012 A 
ATOM     26  C   UNL A   1      36.063  23.352  23.897  1.00  0.00     0.001 A 
ATOM     27  C   UNL A   1      36.586  21.157  24.757  1.00  0.00     0.001 A 
ATOM     28  C   UNL A   1      36.917  22.253  23.961  1.00  0.00     0.000 A 
ENDBRANCH  21  23
ENDBRANCH  19  21
ENDBRANCH  14  19
ENDBRANCH   8   9
ENDBRANCH   7   8
ENDBRANCH   5   7
ENDBRANCH   4   5
ENDBRANCH   3   4
ENDBRANCH   2   3
ENDBRANCH   1   2
BRANCH   1  29
ATOM     29  C   UNL A   1      34.685  32.807  29.478  1.00  0.00     0.188 C 
BRANCH  29  30
ATOM     30  C   UNL A   1      35.328  34.009  28.762  1.00  0.00     0.188 C 
BRANCH  30  31
ATOM     31  O   UNL A   1      34.430  34.789  28.004  1.00  0.00    -0.376 OA
BRANCH  31  32
ATOM     32  C   UNL A   1      34.062  36.047  28.539  1.00  0.00     0.202 C 
BRANCH  32  33
ATOM     33  C   UNL A   1      32.918  36.048  29.564  1.00  0.00     0.261 C 
BRANCH  33  34
ATOM     34  O   UNL A   1      33.277  36.424  30.906  1.00  0.00    -0.460 OA
BRANCH  34  35
ATOM     35  C   UNL A   1      32.840  35.635  31.913  1.00  0.00     0.338 C 
ATOM     36  O   UNL A   1      31.682  35.378  32.198  1.00  0.00    -0.246 OA
BRANCH  35  37
ATOM     37  C   UNL A   1      34.020  34.951  32.491  1.00  0.00     0.060 A 
ATOM     38  C   UNL A   1      35.286  35.544  32.373  1.00  0.00     0.016 A 
ATOM     39  C   UNL A   1      33.874  33.736  33.162  1.00  0.00     0.016 A 
ATOM     40  C   UNL A   1      36.414  34.907  32.900  1.00  0.00     0.010 A 
ATOM     41  C   UNL A   1      35.005  33.087  33.666  1.00  0.00     0.010 A 
ATOM     42  C   UNL A   1      36.284  33.651  33.507  1.00  0.00    -0.014 A 
BRANCH  42  43
ATOM     43  C   UNL A   1      37.486  32.812  33.760  1.00  0.00     0.031 A 
ATOM     44  C   UNL A   1      38.257  33.056  35.029  1.00  0.00     0.074 A 
ATOM     45  C   UNL A   1      37.895  31.866  32.897  1.00  0.00     0.049 A 
ATOM     46  N   UNL A   1      39.389  32.539  35.434  1.00  0.00    -0.248 NA
ATOM     47  C   UNL A   1      37.671  34.029  35.966  1.00  0.00     0.031 C 
ATOM     48  C   UNL A   1      37.217  31.495  31.660  1.00  0.00     0.029 A 
ATOM     49  N   UNL A   1      39.003  31.052  32.933  1.00  0.00    -0.354 N 
ATOM     50  C   UNL A   1      39.655  33.134  36.661  1.00  0.00     0.074 A 
ATOM     51  C   UNL A   1      38.586  34.072  36.921  1.00  0.00     0.031 C 
ATOM     52  C   UNL A   1      37.934  30.538  31.041  1.00  0.00     0.029 A 
ATOM     53  C   UNL A   1      39.140  30.258  31.821  1.00  0.00     0.049 A 
ATOM     54  H   UNL A   1      39.638  31.041  33.685  1.00  0.00     0.167 HD
ATOM     55  C   UNL A   1      40.695  32.912  37.500  1.00  0.00     0.037 A 
ATOM     56  C   UNL A   1      40.139  29.426  31.465  1.00  0.00     0.037 A 
ATOM     57  C   UNL A   1      41.761  31.982  37.242  1.00  0.00     0.049 A 
ATOM     58  C   UNL A   1      41.329  29.255  32.380  1.00  0.00     0.074 A 
ATOM     59  C   UNL A   1      42.851  31.676  38.037  1.00  0.00     0.029 A 
ATOM     60  N   UNL A   1      41.875  31.212  36.093  1.00  0.00    -0.354 N 
ATOM     61  N   UNL A   1      41.566  29.803  33.547  1.00  0.00    -0.248 NA
ATOM     62  C   UNL A   1      42.391  28.345  31.923  1.00  0.00     0.031 C 
ATOM     63  C   UNL A   1      43.656  30.768  37.343  1.00  0.00     0.029 A 
ATOM     64  C   UNL A   1      43.032  30.451  36.147  1.00  0.00     0.049 A 
ATOM     65  H   UNL A   1      41.229  31.207  35.349  1.00  0.00     0.167 HD
ATOM     66  C   UNL A   1      42.778  29.276  33.981  1.00  0.00     0.074 A 
ATOM     67  C   UNL A   1      43.223  28.358  32.955  1.00  0.00     0.031 C 
ATOM     68  C   UNL A   1      43.457  29.526  35.128  1.00  0.00     0.037 A 
BRANCH  55  69
ATOM     69  C   UNL A   1      40.747  33.721  38.765  1.00  0.00     0.064 A 
ATOM     70  C   UNL A   1      40.037  33.343  39.915  1.00  0.00     0.173 A 
ATOM     71  C   UNL A   1      41.538  34.877  38.834  1.00  0.00     0.173 A 
ATOM     72  F   UNL A   1      39.252  32.254  39.898  1.00  0.00    -0.203 F 
ATOM     73  C   UNL A   1      40.094  34.109  41.076  1.00  0.00     0.198 A 
ATOM     74  C   UNL A   1      41.621  35.621  40.007  1.00  0.00     0.198 A 
ATOM     75  F   UNL A   1      42.239  35.283  37.764  1.00  0.00    -0.203 F 
ATOM     76  F   UNL A   1      39.365  33.759  42.145  1.00  0.00    -0.200 F 
ATOM     77  C   UNL A   1      40.892  35.242  41.125  1.00  0.00     0.200 A 
ATOM     78  F   UNL A   1      42.405  36.708  40.056  1.00  0.00    -0.200 F 
ATOM     79  F   UNL A   1      40.954  35.973  42.246  1.00  0.00    -0.200 F 
ENDBRANCH  55  69
BRANCH  56  80
ATOM     80  C   UNL A   1      40.076  28.693  30.171  1.00  0.00     0.064 A 
ATOM     81  C   UNL A   1      39.467  27.433  30.082  1.00  0.00     0.173 A 
ATOM     82  C   UNL A   1      40.657  29.216  29.006  1.00  0.00     0.173 A 
ATOM     83  F   UNL A   1      38.926  26.873  31.173  1.00  0.00    -0.203 F 
ATOM     84  C   UNL A   1      39.463  26.716  28.886  1.00  0.00     0.198 A 
ATOM     85  C   UNL A   1      40.623  28.513  27.803  1.00  0.00     0.198 A 
ATOM     86  F   UNL A   1      41.260  30.414  29.037  1.00  0.00    -0.203 F 
ATOM     87  F   UNL A   1      38.927  25.488  28.845  1.00  0.00    -0.200 F 
ATOM     88  C   UNL A   1      40.035  27.259  27.746  1.00  0.00     0.200 A 
ATOM     89  F   UNL A   1      41.170  29.047  26.702  1.00  0.00    -0.200 F 
ATOM     90  F   UNL A   1      40.031  26.570  26.597  1.00  0.00    -0.200 F 
ENDBRANCH  56  80
BRANCH  68  91
ATOM     91  C   UNL A   1      44.725  28.755  35.373  1.00  0.00     0.064 A 
ATOM     92  C   UNL A   1      45.984  29.254  35.006  1.00  0.00     0.173 A 
ATOM     93  C   UNL A   1      44.680  27.515  36.030  1.00  0.00     0.173 A 
ATOM     94  F   UNL A   1      46.084  30.428  34.367  1.00  0.00    -0.203 F 
ATOM     95  C   UNL A   1      47.145  28.527  35.261  1.00  0.00     0.198 A 
ATOM     96  C   UNL A   1      45.845  26.808  36.316  1.00  0.00     0.198 A 
ATOM     97  F   UNL A   1      43.504  26.994  36.414  1.00  0.00    -0.203 F 
ATOM     98  F   UNL A   1      48.332  29.000  34.856  1.00  0.00    -0.200 F 
ATOM     99  C   UNL A   1      47.076  27.311  35.923  1.00  0.00     0.200 A 
ATOM    100  F   UNL A   1      45.776  25.643  36.973  1.00  0.00    -0.200 F 
ATOM    101  F   UNL A   1      48.195  26.619  36.177  1.00  0.00    -0.200 F 
ENDBRANCH  68  91
ENDBRANCH  42  43
ENDBRANCH  35  37
ENDBRANCH  34  35
ENDBRANCH  33  34
ENDBRANCH  32  33
ENDBRANCH  31  32
ENDBRANCH  30  31
ENDBRANCH  29  30
ENDBRANCH   1  29
TORSDOF 23
ENDMDL
MODEL 2
REMARK VINA RESULT:     -10.1      0.533      2.021
REMARK SMILES C[NH+](C)[C@H]1CCN(C(=O)C(=O)c2ccccc2)C[C@H]1CCC(=O)OCCOCCOCCOC(=O)c1ccc(-c2c3nc(c(-c4c(F)c(F)c(F)c(F)c4F)c4ccc([nH]4)c(-c4c(F)c(F)c(F)c(F)c4F)c4nc(c(-c5c(F)c(F)c(F)c(F)c5F)c5ccc2[nH]5)C=C4)C=C3)cc1
REMARK SMILES IDX 27 1 26 2 25 3 24 4 22 5 23 6 21 7 20 8 19 9 4 10 5 11 6 12
REMARK SMILES IDX 18 13 7 14 2 15 1 16 3 17 8 19 9 20 10 21 11 22 12 23 13 24
REMARK SMILES IDX 17 25 14 26 16 27 15 28 28 29 29 30 30 31 31 32 32 33 33 34
REMARK SMILES IDX 34 35 35 36 36 37 37 38 98 39 38 40 97 41 39 42 40 43 41 44
REMARK SMILES IDX 91 45 42 46 96 47 90 48 92 49 43 50 95 51 89 52 88 53 44 55
REMARK SMILES IDX 76 56 56 57 75 58 57 59 60 60 74 61 93 62 58 63 59 64 73 66
REMARK SMILES IDX 94 67 61 68 45 69 46 70 54 71 47 72 48 73 52 74 55 75 49 76
REMARK SMILES IDX 50 77 53 78 51 79 77 80 78 81 86 82 79 83 80 84 84 85 87 86
REMARK SMILES IDX 81 87 82 88 85 89 83 90 62 91 63 92 71 93 64 94 65 95 69 96
REMARK SMILES IDX 72 97 66 98 67 99 70 100 68 101
REMARK H PARENT 2 18 92 54 60 65
REMARK Flexibility Score: inf
ROOT
ATOM      1  O   UNL A   1      34.172  31.823  28.775  1.00  0.00    -0.376 OA
ENDROOT
BRANCH   1   2
ATOM      2  C   UNL A   1      34.879  31.203  27.707  1.00  0.00     0.202 C 
BRANCH   2   3
ATOM      3  C   UNL A   1      34.153  30.120  26.893  1.00  0.00     0.261 C 
BRANCH   3   4
ATOM      4  O   UNL A   1      32.819  29.805  27.350  1.00  0.00    -0.463 OA
BRANCH   4   5
ATOM      5  C   UNL A   1      32.446  28.504  27.326  1.00  0.00     0.305 C 
ATOM      6  O   UNL A   1      31.443  28.075  27.891  1.00  0.00    -0.252 OA
BRANCH   5   7
ATOM      7  C   UNL A   1      33.316  27.579  26.481  1.00  0.00     0.123 C 
BRANCH   7   8
ATOM      8  C   UNL A   1      32.801  26.497  25.521  1.00  0.00     0.023 C 
BRANCH   8   9
ATOM      9  C   UNL A   1      31.340  26.534  25.006  1.00  0.00     0.067 C 
ATOM     10  C   UNL A   1      31.185  26.407  23.454  1.00  0.00     0.190 C 
ATOM     11  C   UNL A   1      31.528  24.963  23.015  1.00  0.00     0.087 C 
ATOM     12  C   UNL A   1      30.711  23.931  23.776  1.00  0.00     0.126 C 
ATOM     13  C   UNL A   1      30.527  25.416  25.722  1.00  0.00     0.129 C 
ATOM     14  N   UNL A   1      30.849  24.081  25.215  1.00  0.00    -0.335 N 
BRANCH  10  15
ATOM     15  N   UNL A   1      31.963  27.446  22.730  1.00  0.00    -0.337 N 
ATOM     16  C   UNL A   1      33.388  27.099  22.639  1.00  0.00     0.332 C 
ATOM     17  C   UNL A   1      31.875  28.784  23.325  1.00  0.00     0.332 C 
ATOM     18  H   UNL A   1      31.534  27.471  21.804  1.00  0.00     0.347 HD
ENDBRANCH  10  15
BRANCH  14  19
ATOM     19  C   UNL A   1      31.097  22.921  25.963  1.00  0.00     0.294 C 
ATOM     20  O   UNL A   1      30.273  22.012  26.049  1.00  0.00    -0.265 OA
BRANCH  19  21
ATOM     21  C   UNL A   1      32.400  22.762  26.764  1.00  0.00     0.250 C 
ATOM     22  O   UNL A   1      32.395  22.790  27.989  1.00  0.00    -0.283 OA
BRANCH  21  23
ATOM     23  C   UNL A   1      33.661  22.427  26.038  1.00  0.00     0.028 A 
ATOM     24  C   UNL A   1      33.905  21.085  25.713  1.00  0.00     0.012 A 
ATOM     25  C   UNL A   1      34.586  23.406  25.651  1.00  0.00     0.012 A 
ATOM     26  C   UNL A   1      35.037  20.732  24.975  1.00  0.00     0.001 A 
ATOM     27  C   UNL A   1      35.723  23.046  24.918  1.00  0.00     0.001 A 
ATOM     28  C   UNL A   1      35.943  21.712  24.574  1.00  0.00     0.000 A 
ENDBRANCH  21  23
ENDBRANCH  19  21
ENDBRANCH  14  19
ENDBRANCH   8   9
ENDBRANCH   7   8
ENDBRANCH   5   7
ENDBRANCH   4   5
ENDBRANCH   3   4
ENDBRANCH   2   3
ENDBRANCH   1   2
BRANCH   1  29
ATOM     29  C   UNL A   1      34.813  32.855  29.517  1.00  0.00     0.188 C 
BRANCH  29  30
ATOM     30  C   UNL A   1      35.395  34.069  28.772  1.00  0.00     0.188 C 
BRANCH  30  31
ATOM     31  O   UNL A   1      34.455  34.796  28.011  1.00  0.00    -0.376 OA
BRANCH  31  32
ATOM     32  C   UNL A   1      34.050  36.053  28.522  1.00  0.00     0.202 C 
BRANCH  32  33
ATOM     33  C   UNL A   1      32.920  36.040  29.562  1.00  0.00     0.261 C 
BRANCH  33  34
ATOM     34  O   UNL A   1      33.297  36.394  30.905  1.00  0.00    -0.460 OA
BRANCH  34  35
ATOM     35  C   UNL A   1      32.858  35.598  31.906  1.00  0.00     0.338 C 
ATOM     36  O   UNL A   1      31.701  35.321  32.172  1.00  0.00    -0.246 OA
BRANCH  35  37
ATOM     37  C   UNL A   1      34.041  34.936  32.504  1.00  0.00     0.060 A 
ATOM     38  C   UNL A   1      35.300  35.544  32.392  1.00  0.00     0.016 A 
ATOM     39  C   UNL A   1      33.903  33.728  33.189  1.00  0.00     0.016 A 
ATOM     40  C   UNL A   1      36.430  34.928  32.938  1.00  0.00     0.010 A 
ATOM     41  C   UNL A   1      35.037  33.099  33.712  1.00  0.00     0.010 A 
ATOM     42  C   UNL A   1      36.311  33.678  33.559  1.00  0.00    -0.014 A 
BRANCH  42  43
ATOM     43  C   UNL A   1      37.520  32.859  33.835  1.00  0.00     0.031 A 
ATOM     44  C   UNL A   1      38.269  33.120  35.114  1.00  0.00     0.074 A 
ATOM     45  C   UNL A   1      37.956  31.914  32.983  1.00  0.00     0.049 A 
ATOM     46  N   UNL A   1      39.402  32.621  35.539  1.00  0.00    -0.248 NA
ATOM     47  C   UNL A   1      37.653  34.088  36.038  1.00  0.00     0.031 C 
ATOM     48  C   UNL A   1      37.304  31.527  31.737  1.00  0.00     0.029 A 
ATOM     49  N   UNL A   1      39.076  31.117  33.040  1.00  0.00    -0.354 N 
ATOM     50  C   UNL A   1      39.640  33.225  36.767  1.00  0.00     0.074 A 
ATOM     51  C   UNL A   1      38.553  34.149  37.006  1.00  0.00     0.031 C 
ATOM     52  C   UNL A   1      38.043  30.578  31.135  1.00  0.00     0.029 A 
ATOM     53  C   UNL A   1      39.242  30.320  31.934  1.00  0.00     0.049 A 
ATOM     54  H   UNL A   1      39.699  31.119  33.802  1.00  0.00     0.167 HD
ATOM     55  C   UNL A   1      40.669  33.023  37.623  1.00  0.00     0.037 A 
ATOM     56  C   UNL A   1      40.258  29.501  31.597  1.00  0.00     0.037 A 
ATOM     57  C   UNL A   1      41.753  32.107  37.386  1.00  0.00     0.049 A 
ATOM     58  C   UNL A   1      41.436  29.352  32.531  1.00  0.00     0.074 A 
ATOM     59  C   UNL A   1      42.834  31.821  38.199  1.00  0.00     0.029 A 
ATOM     60  N   UNL A   1      41.895  31.334  36.243  1.00  0.00    -0.354 N 
ATOM     61  N   UNL A   1      41.647  29.908  33.699  1.00  0.00    -0.248 NA
ATOM     62  C   UNL A   1      42.518  28.455  32.096  1.00  0.00     0.031 C 
ATOM     63  C   UNL A   1      43.664  30.921  37.522  1.00  0.00     0.029 A 
ATOM     64  C   UNL A   1      43.063  30.590  36.319  1.00  0.00     0.049 A 
ATOM     65  H   UNL A   1      41.262  31.316  35.489  1.00  0.00     0.167 HD
ATOM     66  C   UNL A   1      42.859  29.401  34.154  1.00  0.00     0.074 A 
ATOM     67  C   UNL A   1      43.334  28.485  33.140  1.00  0.00     0.031 C 
ATOM     68  C   UNL A   1      43.517  29.667  35.311  1.00  0.00     0.037 A 
BRANCH  55  69
ATOM     69  C   UNL A   1      40.690  33.838  38.884  1.00  0.00     0.064 A 
ATOM     70  C   UNL A   1      41.379  35.058  38.967  1.00  0.00     0.173 A 
ATOM     71  C   UNL A   1      39.988  33.405  40.019  1.00  0.00     0.173 A 
ATOM     72  F   UNL A   1      42.081  35.511  37.916  1.00  0.00    -0.203 F 
ATOM     73  C   UNL A   1      41.390  35.796  40.148  1.00  0.00     0.198 A 
ATOM     74  C   UNL A   1      39.971  34.163  41.186  1.00  0.00     0.198 A 
ATOM     75  F   UNL A   1      39.309  32.247  39.994  1.00  0.00    -0.203 F 
ATOM     76  F   UNL A   1      42.101  36.930  40.220  1.00  0.00    -0.200 F 
ATOM     77  C   UNL A   1      40.680  35.353  41.253  1.00  0.00     0.200 A 
ATOM     78  F   UNL A   1      39.272  33.739  42.249  1.00  0.00    -0.200 F 
ATOM     79  F   UNL A   1      40.683  36.069  42.386  1.00  0.00    -0.200 F 
ENDBRANCH  55  69
BRANCH  56  80
ATOM     80  C   UNL A   1      40.226  28.761  30.306  1.00  0.00     0.064 A 
ATOM     81  C   UNL A   1      40.797  29.304  29.146  1.00  0.00     0.173 A 
ATOM     82  C   UNL A   1      39.589  27.516  30.194  1.00  0.00     0.173 A 
ATOM     83  F   UNL A   1      41.389  30.506  29.191  1.00  0.00    -0.203 F 
ATOM     84  C   UNL A   1      40.712  28.642  27.922  1.00  0.00     0.198 A 
ATOM     85  C   UNL A   1      39.534  26.839  28.976  1.00  0.00     0.198 A 
ATOM     86  F   UNL A   1      39.018  26.954  31.270  1.00  0.00    -0.203 F 
ATOM     87  F   UNL A   1      41.214  29.213  26.818  1.00  0.00    -0.200 F 
ATOM     88  C   UNL A   1      40.086  27.408  27.839  1.00  0.00     0.200 A 
ATOM     89  F   UNL A   1      38.935  25.643  28.904  1.00  0.00    -0.200 F 
ATOM     90  F   UNL A   1      40.004  26.772  26.662  1.00  0.00    -0.200 F 
ENDBRANCH  56  80
BRANCH  68  91
ATOM     91  C   UNL A   1      44.792  28.916  35.579  1.00  0.00     0.064 A 
ATOM     92  C   UNL A   1      44.804  27.678  36.238  1.00  0.00     0.173 A 
ATOM     93  C   UNL A   1      46.019  29.425  35.122  1.00  0.00     0.173 A 
ATOM     94  F   UNL A   1      43.663  27.150  36.703  1.00  0.00    -0.203 F 
ATOM     95  C   UNL A   1      45.998  26.993  36.456  1.00  0.00     0.198 A 
ATOM     96  C   UNL A   1      47.206  28.721  35.310  1.00  0.00     0.198 A 
ATOM     97  F   UNL A   1      46.066  30.600  34.476  1.00  0.00    -0.203 F 
ATOM     98  F   UNL A   1      45.991  25.837  37.135  1.00  0.00    -0.200 F 
ATOM     99  C   UNL A   1      47.195  27.511  35.985  1.00  0.00     0.200 A 
ATOM    100  F   UNL A   1      48.358  29.215  34.836  1.00  0.00    -0.200 F 
ATOM    101  F   UNL A   1      48.341  26.845  36.187  1.00  0.00    -0.200 F 
ENDBRANCH  68  91
ENDBRANCH  42  43
ENDBRANCH  35  37
ENDBRANCH  34  35
ENDBRANCH  33  34
ENDBRANCH  32  33
ENDBRANCH  31  32
ENDBRANCH  30  31
ENDBRANCH  29  30
ENDBRANCH   1  29
TORSDOF 23
ENDMDL
MODEL 3
REMARK VINA RESULT:      -9.3      5.215     10.491
REMARK SMILES C[NH+](C)[C@H]1CCN(C(=O)C(=O)c2ccccc2)C[C@H]1CCC(=O)OCCOCCOCCOC(=O)c1ccc(-c2c3nc(c(-c4c(F)c(F)c(F)c(F)c4F)c4ccc([nH]4)c(-c4c(F)c(F)c(F)c(F)c4F)c4nc(c(-c5c(F)c(F)c(F)c(F)c5F)c5ccc2[nH]5)C=C4)C=C3)cc1
REMARK SMILES IDX 27 1 26 2 25 3 24 4 22 5 23 6 21 7 20 8 19 9 4 10 5 11 6 12
REMARK SMILES IDX 18 13 7 14 2 15 1 16 3 17 8 19 9 20 10 21 11 22 12 23 13 24
REMARK SMILES IDX 17 25 14 26 16 27 15 28 28 29 29 30 30 31 31 32 32 33 33 34
REMARK SMILES IDX 34 35 35 36 36 37 37 38 98 39 38 40 97 41 39 42 40 43 41 44
REMARK SMILES IDX 91 45 42 46 96 47 90 48 92 49 43 50 95 51 89 52 88 53 44 55
REMARK SMILES IDX 76 56 56 57 75 58 57 59 60 60 74 61 93 62 58 63 59 64 73 66
REMARK SMILES IDX 94 67 61 68 45 69 46 70 54 71 47 72 48 73 52 74 55 75 49 76
REMARK SMILES IDX 50 77 53 78 51 79 77 80 78 81 86 82 79 83 80 84 84 85 87 86
REMARK SMILES IDX 81 87 82 88 85 89 83 90 62 91 63 92 71 93 64 94 65 95 69 96
REMARK SMILES IDX 72 97 66 98 67 99 70 100 68 101
REMARK H PARENT 2 18 92 54 60 65
REMARK Flexibility Score: inf
ROOT
ATOM      1  O   UNL A   1      39.357  19.084  25.373  1.00  0.00    -0.376 OA
ENDROOT
BRANCH   1   2
ATOM      2  C   UNL A   1      38.340  19.950  24.880  1.00  0.00     0.202 C 
BRANCH   2   3
ATOM      3  C   UNL A   1      38.308  21.395  25.398  1.00  0.00     0.261 C 
BRANCH   3   4
ATOM      4  O   UNL A   1      36.987  21.929  25.637  1.00  0.00    -0.463 OA
BRANCH   4   5
ATOM      5  C   UNL A   1      36.620  23.021  24.925  1.00  0.00     0.305 C 
ATOM      6  O   UNL A   1      36.972  23.225  23.766  1.00  0.00    -0.252 OA
BRANCH   5   7
ATOM      7  C   UNL A   1      35.664  23.979  25.626  1.00  0.00     0.123 C 
BRANCH   7   8
ATOM      8  C   UNL A   1      34.255  24.353  25.140  1.00  0.00     0.023 C 
BRANCH   8   9
ATOM      9  C   UNL A   1      33.610  23.599  23.950  1.00  0.00     0.067 C 
ATOM     10  C   UNL A   1      32.123  23.165  24.173  1.00  0.00     0.190 C 
ATOM     11  C   UNL A   1      31.210  24.415  24.153  1.00  0.00     0.087 C 
ATOM     12  C   UNL A   1      31.402  25.235  22.887  1.00  0.00     0.126 C 
ATOM     13  C   UNL A   1      33.728  24.481  22.673  1.00  0.00     0.129 C 
ATOM     14  N   UNL A   1      32.792  25.606  22.685  1.00  0.00    -0.335 N 
BRANCH  10  15
ATOM     15  N   UNL A   1      31.962  22.336  25.397  1.00  0.00    -0.337 N 
ATOM     16  C   UNL A   1      32.107  20.902  25.110  1.00  0.00     0.332 C 
ATOM     17  C   UNL A   1      30.676  22.519  26.080  1.00  0.00     0.332 C 
ATOM     18  H   UNL A   1      32.708  22.661  26.013  1.00  0.00     0.347 HD
ENDBRANCH  10  15
BRANCH  14  19
ATOM     19  C   UNL A   1      33.062  26.943  22.356  1.00  0.00     0.294 C 
ATOM     20  O   UNL A   1      33.842  27.248  21.454  1.00  0.00    -0.265 OA
BRANCH  19  21
ATOM     21  C   UNL A   1      32.432  28.095  23.155  1.00  0.00     0.250 C 
ATOM     22  O   UNL A   1      31.716  28.924  22.608  1.00  0.00    -0.283 OA
BRANCH  21  23
ATOM     23  C   UNL A   1      32.585  28.115  24.640  1.00  0.00     0.028 A 
ATOM     24  C   UNL A   1      33.870  28.290  25.173  1.00  0.00     0.012 A 
ATOM     25  C   UNL A   1      31.493  27.993  25.509  1.00  0.00     0.012 A 
ATOM     26  C   UNL A   1      34.055  28.384  26.555  1.00  0.00     0.001 A 
ATOM     27  C   UNL A   1      31.684  28.079  26.893  1.00  0.00     0.001 A 
ATOM     28  C   UNL A   1      32.961  28.283  27.413  1.00  0.00     0.000 A 
ENDBRANCH  21  23
ENDBRANCH  19  21
ENDBRANCH  14  19
ENDBRANCH   8   9
ENDBRANCH   7   8
ENDBRANCH   5   7
ENDBRANCH   4   5
ENDBRANCH   3   4
ENDBRANCH   2   3
ENDBRANCH   1   2
BRANCH   1  29
ATOM     29  C   UNL A   1      40.356  19.616  26.236  1.00  0.00     0.188 C 
BRANCH  29  30
ATOM     30  C   UNL A   1      41.830  19.238  26.005  1.00  0.00     0.188 C 
BRANCH  30  31
ATOM     31  O   UNL A   1      42.529  20.105  25.139  1.00  0.00    -0.376 OA
BRANCH  31  32
ATOM     32  C   UNL A   1      43.700  20.715  25.650  1.00  0.00     0.202 C 
BRANCH  32  33
ATOM     33  C   UNL A   1      43.805  22.240  25.490  1.00  0.00     0.261 C 
BRANCH  33  34
ATOM     34  O   UNL A   1      42.558  22.946  25.362  1.00  0.00    -0.460 OA
BRANCH  34  35
ATOM     35  C   UNL A   1      41.889  23.240  26.500  1.00  0.00     0.338 C 
ATOM     36  O   UNL A   1      41.215  22.481  27.175  1.00  0.00    -0.246 OA
BRANCH  35  37
ATOM     37  C   UNL A   1      42.290  24.604  26.915  1.00  0.00     0.060 A 
ATOM     38  C   UNL A   1      42.772  24.815  28.216  1.00  0.00     0.016 A 
ATOM     39  C   UNL A   1      42.206  25.669  26.016  1.00  0.00     0.016 A 
ATOM     40  C   UNL A   1      43.142  26.099  28.629  1.00  0.00     0.010 A 
ATOM     41  C   UNL A   1      42.552  26.956  26.438  1.00  0.00     0.010 A 
ATOM     42  C   UNL A   1      42.988  27.184  27.757  1.00  0.00    -0.014 A 
BRANCH  42  43
ATOM     43  C   UNL A   1      43.044  28.576  28.275  1.00  0.00     0.031 A 
ATOM     44  C   UNL A   1      44.383  29.264  28.296  1.00  0.00     0.074 A 
ATOM     45  C   UNL A   1      41.952  29.221  28.721  1.00  0.00     0.049 A 
ATOM     46  N   UNL A   1      44.720  30.428  28.790  1.00  0.00    -0.248 NA
ATOM     47  C   UNL A   1      45.500  28.525  27.681  1.00  0.00     0.031 C 
ATOM     48  C   UNL A   1      40.592  28.693  28.713  1.00  0.00     0.029 A 
ATOM     49  N   UNL A   1      41.828  30.468  29.288  1.00  0.00    -0.354 N 
ATOM     50  C   UNL A   1      46.084  30.553  28.559  1.00  0.00     0.074 A 
ATOM     51  C   UNL A   1      46.519  29.336  27.910  1.00  0.00     0.031 C 
ATOM     52  C   UNL A   1      39.769  29.602  29.268  1.00  0.00     0.029 A 
ATOM     53  C   UNL A   1      40.552  30.759  29.705  1.00  0.00     0.049 A 
ATOM     54  H   UNL A   1      42.583  31.092  29.386  1.00  0.00     0.167 HD
ATOM     55  C   UNL A   1      46.899  31.592  28.855  1.00  0.00     0.037 A 
ATOM     56  C   UNL A   1      40.081  31.823  30.386  1.00  0.00     0.037 A 
ATOM     57  C   UNL A   1      46.468  32.802  29.503  1.00  0.00     0.049 A 
ATOM     58  C   UNL A   1      41.026  32.935  30.776  1.00  0.00     0.074 A 
ATOM     59  C   UNL A   1      47.216  33.918  29.831  1.00  0.00     0.029 A 
ATOM     60  N   UNL A   1      45.172  33.049  29.929  1.00  0.00    -0.354 N 
ATOM     61  N   UNL A   1      42.309  33.058  30.538  1.00  0.00    -0.248 NA
ATOM     62  C   UNL A   1      40.451  34.059  31.532  1.00  0.00     0.031 C 
ATOM     63  C   UNL A   1      46.387  34.815  30.512  1.00  0.00     0.029 A 
ATOM     64  C   UNL A   1      45.105  34.290  30.542  1.00  0.00     0.049 A 
ATOM     65  H   UNL A   1      44.411  32.434  29.813  1.00  0.00     0.167 HD
ATOM     66  C   UNL A   1      42.685  34.285  31.075  1.00  0.00     0.074 A 
ATOM     67  C   UNL A   1      41.492  34.872  31.645  1.00  0.00     0.031 C 
ATOM     68  C   UNL A   1      43.907  34.873  31.090  1.00  0.00     0.037 A 
BRANCH  55  69
ATOM     69  C   UNL A   1      48.354  31.449  28.510  1.00  0.00     0.064 A 
ATOM     70  C   UNL A   1      48.879  31.927  27.299  1.00  0.00     0.173 A 
ATOM     71  C   UNL A   1      49.241  30.847  29.416  1.00  0.00     0.173 A 
ATOM     72  F   UNL A   1      48.072  32.496  26.390  1.00  0.00    -0.203 F 
ATOM     73  C   UNL A   1      50.231  31.779  26.997  1.00  0.00     0.198 A 
ATOM     74  C   UNL A   1      50.597  30.734  29.125  1.00  0.00     0.198 A 
ATOM     75  F   UNL A   1      48.793  30.375  30.590  1.00  0.00    -0.203 F 
ATOM     76  F   UNL A   1      50.699  32.194  25.811  1.00  0.00    -0.200 F 
ATOM     77  C   UNL A   1      51.090  31.192  27.912  1.00  0.00     0.200 A 
ATOM     78  F   UNL A   1      51.428  30.178  30.018  1.00  0.00    -0.200 F 
ATOM     79  F   UNL A   1      52.392  31.059  27.624  1.00  0.00    -0.200 F 
ENDBRANCH  55  69
BRANCH  56  80
ATOM     80  C   UNL A   1      38.643  31.893  30.762  1.00  0.00     0.064 A 
ATOM     81  C   UNL A   1      37.681  32.373  29.862  1.00  0.00     0.173 A 
ATOM     82  C   UNL A   1      38.204  31.520  32.042  1.00  0.00     0.173 A 
ATOM     83  F   UNL A   1      38.053  32.774  28.637  1.00  0.00    -0.203 F 
ATOM     84  C   UNL A   1      36.343  32.500  30.233  1.00  0.00     0.198 A 
ATOM     85  C   UNL A   1      36.861  31.616  32.402  1.00  0.00     0.198 A 
ATOM     86  F   UNL A   1      39.083  31.063  32.946  1.00  0.00    -0.203 F 
ATOM     87  F   UNL A   1      35.457  33.018  29.372  1.00  0.00    -0.200 F 
ATOM     88  C   UNL A   1      35.933  32.116  31.501  1.00  0.00     0.200 A 
ATOM     89  F   UNL A   1      36.469  31.235  33.625  1.00  0.00    -0.200 F 
ATOM     90  F   UNL A   1      34.648  32.238  31.858  1.00  0.00    -0.200 F 
ENDBRANCH  56  80
BRANCH  68  91
ATOM     91  C   UNL A   1      44.013  36.250  31.688  1.00  0.00     0.064 A 
ATOM     92  C   UNL A   1      44.277  36.453  33.050  1.00  0.00     0.173 A 
ATOM     93  C   UNL A   1      43.896  37.385  30.868  1.00  0.00     0.173 A 
ATOM     94  F   UNL A   1      44.388  35.406  33.880  1.00  0.00    -0.203 F 
ATOM     95  C   UNL A   1      44.389  37.740  33.574  1.00  0.00     0.198 A 
ATOM     96  C   UNL A   1      44.044  38.668  31.388  1.00  0.00     0.198 A 
ATOM     97  F   UNL A   1      43.655  37.249  29.555  1.00  0.00    -0.203 F 
ATOM     98  F   UNL A   1      44.589  37.911  34.889  1.00  0.00    -0.200 F 
ATOM     99  C   UNL A   1      44.282  38.844  32.742  1.00  0.00     0.200 A 
ATOM    100  F   UNL A   1      43.960  39.731  30.578  1.00  0.00    -0.200 F 
ATOM    101  F   UNL A   1      44.401  40.080  33.247  1.00  0.00    -0.200 F 
ENDBRANCH  68  91
ENDBRANCH  42  43
ENDBRANCH  35  37
ENDBRANCH  34  35
ENDBRANCH  33  34
ENDBRANCH  32  33
ENDBRANCH  31  32
ENDBRANCH  30  31
ENDBRANCH  29  30
ENDBRANCH   1  29
TORSDOF 23
ENDMDL
