MODEL 1
REMARK VINA RESULT:     -13.7      0.000      0.000
REMARK SMILES Cc1cccc(CC(=O)N2CCC3(CCC(=O)N([C@H](C)C(=O)OCCOCCOCCOC(=O)c4ccc(-c5c6nc(c(-c7c(F)c(F)c(F)c(F)c7F)c7ccc([nH]7)c(-c7c(F)c(F)c(F)c(F)c7F)c7nc(c(-c8c(F)c(F)c(F)c(F)c8F)c8ccc5[nH]8)C=C7)C=C6)cc4)C3)CC2)c1
REMARK SMILES IDX 27 1 26 2 25 3 24 4 23 5 21 6 22 7 19 8 20 9 18 10 8 11 9 12
REMARK SMILES IDX 10 13 11 14 100 15 12 16 99 17 13 18 14 19 98 20 15 21 16 22
REMARK SMILES IDX 17 23 7 24 6 25 1 26 2 27 3 28 101 29 4 30 5 31 28 32 29 33
REMARK SMILES IDX 30 34 31 35 32 36 33 37 34 38 35 39 36 40 97 41 37 42 96 43
REMARK SMILES IDX 38 44 39 45 40 46 90 47 41 48 95 49 89 50 91 51 42 52 94 53
REMARK SMILES IDX 88 54 87 55 43 57 75 58 55 59 74 60 56 61 59 62 73 63 92 64
REMARK SMILES IDX 57 65 58 66 72 68 93 69 60 70 44 71 45 72 53 73 46 74 47 75
REMARK SMILES IDX 51 76 54 77 48 78 49 79 52 80 50 81 76 82 77 83 85 84 78 85
REMARK SMILES IDX 79 86 83 87 86 88 80 89 81 90 84 91 82 92 61 93 62 94 70 95
REMARK SMILES IDX 63 96 64 97 68 98 71 99 65 100 66 101 69 102 67 103
REMARK H PARENT 91 56 59 67
REMARK Flexibility Score: inf
ROOT
ATOM      1  C   UNL A   1      33.809  34.620  29.151  1.00  0.00     0.188 C 
ENDROOT
BRANCH   1   2
ATOM      2  O   UNL A   1      33.224  33.399  28.647  1.00  0.00    -0.376 OA
BRANCH   2   3
ATOM      3  C   UNL A   1      33.795  32.557  27.628  1.00  0.00     0.202 C 
BRANCH   3   4
ATOM      4  C   UNL A   1      33.414  30.870  27.555  1.00  0.00     0.261 C 
BRANCH   4   5
ATOM      5  O   UNL A   1      32.722  29.957  26.197  1.00  0.00    -0.462 OA
BRANCH   5   6
ATOM      6  C   UNL A   1      32.163  29.630  24.920  1.00  0.00     0.328 C 
ATOM      7  O   UNL A   1      31.011  30.020  24.665  1.00  0.00    -0.250 OA
BRANCH   6   8
ATOM      8  C   UNL A   1      32.725  28.813  23.546  1.00  0.00     0.192 C 
ATOM      9  C   UNL A   1      33.998  29.159  22.749  1.00  0.00     0.044 C 
BRANCH   8  10
ATOM     10  N   UNL A   1      32.250  27.454  23.121  1.00  0.00    -0.329 N 
ATOM     11  C   UNL A   1      32.766  22.044  27.044  1.00  0.00     0.226 C 
ATOM     12  O   UNL A   1      32.665  22.044  28.279  1.00  0.00    -0.275 OA
ATOM     13  N   UNL A   1      32.047  22.955  26.289  1.00  0.00    -0.342 N 
ATOM     14  C   UNL A   1      31.640  24.223  26.882  1.00  0.00     0.120 C 
ATOM     15  C   UNL A   1      31.637  22.809  24.905  1.00  0.00     0.120 C 
ATOM     16  C   UNL A   1      32.210  25.396  26.050  1.00  0.00     0.030 C 
ATOM     17  C   UNL A   1      32.368  23.841  24.073  1.00  0.00     0.030 C 
ATOM     18  C   UNL A   1      31.968  25.275  24.504  1.00  0.00    -0.008 C 
ATOM     19  C   UNL A   1      30.448  25.452  24.211  1.00  0.00     0.019 C 
ATOM     20  C   UNL A   1      32.894  26.252  23.666  1.00  0.00     0.127 C 
ATOM     21  C   UNL A   1      30.071  26.875  23.888  1.00  0.00     0.101 C 
ATOM     22  C   UNL A   1      30.953  27.231  22.735  1.00  0.00     0.223 C 
ATOM     23  O   UNL A   1      30.658  26.968  21.572  1.00  0.00    -0.275 OA
BRANCH  11  24
ATOM     24  C   UNL A   1      33.889  21.215  26.414  1.00  0.00     0.135 C 
BRANCH  24  25
ATOM     25  C   UNL A   1      35.185  21.883  26.037  1.00  0.00    -0.038 A 
ATOM     26  C   UNL A   1      38.800  20.847  25.380  1.00  0.00     0.044 C 
ATOM     27  C   UNL A   1      37.577  21.691  25.592  1.00  0.00    -0.051 A 
ATOM     28  C   UNL A   1      37.688  23.082  25.675  1.00  0.00     0.003 A 
ATOM     29  C   UNL A   1      36.318  21.101  25.751  1.00  0.00     0.007 A 
ATOM     30  C   UNL A   1      36.556  23.873  25.890  1.00  0.00     0.001 A 
ATOM     31  C   UNL A   1      35.305  23.279  26.057  1.00  0.00     0.004 A 
ENDBRANCH  24  25
ENDBRANCH  11  24
ENDBRANCH   8  10
ENDBRANCH   6   8
ENDBRANCH   5   6
ENDBRANCH   4   5
ENDBRANCH   3   4
ENDBRANCH   2   3
ENDBRANCH   1   2
BRANCH   1  32
ATOM     32  C   UNL A   1      33.292  35.264  30.450  1.00  0.00     0.188 C 
BRANCH  32  33
ATOM     33  O   UNL A   1      33.568  34.550  31.652  1.00  0.00    -0.376 OA
BRANCH  33  34
ATOM     34  C   UNL A   1      34.925  34.252  31.985  1.00  0.00     0.202 C 
BRANCH  34  35
ATOM     35  C   UNL A   1      35.323  32.771  32.172  1.00  0.00     0.261 C 
BRANCH  35  36
ATOM     36  O   UNL A   1      35.175  32.036  30.949  1.00  0.00    -0.460 OA
BRANCH  36  37
ATOM     37  C   UNL A   1      36.307  31.965  30.196  1.00  0.00     0.338 C 
ATOM     38  O   UNL A   1      36.874  32.908  29.650  1.00  0.00    -0.246 OA
BRANCH  37  39
ATOM     39  C   UNL A   1      36.437  30.548  29.775  1.00  0.00     0.060 A 
ATOM     40  C   UNL A   1      36.832  29.643  30.754  1.00  0.00     0.016 A 
ATOM     41  C   UNL A   1      36.702  30.276  28.435  1.00  0.00     0.016 A 
ATOM     42  C   UNL A   1      37.803  28.707  30.420  1.00  0.00     0.010 A 
ATOM     43  C   UNL A   1      37.722  29.384  28.136  1.00  0.00     0.010 A 
ATOM     44  C   UNL A   1      38.432  28.759  29.163  1.00  0.00    -0.014 A 
BRANCH  44  45
ATOM     45  C   UNL A   1      39.892  28.373  28.958  1.00  0.00     0.031 A 
ATOM     46  C   UNL A   1      40.120  26.821  28.188  1.00  0.00     0.074 A 
ATOM     47  C   UNL A   1      40.844  29.320  29.468  1.00  0.00     0.049 A 
ATOM     48  N   UNL A   1      40.772  25.826  28.760  1.00  0.00    -0.248 NA
ATOM     49  C   UNL A   1      39.650  26.274  26.890  1.00  0.00     0.031 C 
ATOM     50  C   UNL A   1      42.301  29.561  29.247  1.00  0.00     0.029 A 
ATOM     51  N   UNL A   1      40.694  30.321  30.487  1.00  0.00    -0.354 N 
ATOM     52  C   UNL A   1      41.166  24.830  27.918  1.00  0.00     0.074 A 
ATOM     53  C   UNL A   1      40.258  25.057  26.799  1.00  0.00     0.031 C 
ATOM     54  C   UNL A   1      42.914  30.409  30.044  1.00  0.00     0.029 A 
ATOM     55  C   UNL A   1      41.973  30.656  31.034  1.00  0.00     0.049 A 
ATOM     56  H   UNL A   1      39.838  30.718  30.768  1.00  0.00     0.167 HD
ATOM     57  C   UNL A   1      42.331  24.080  28.105  1.00  0.00     0.037 A 
ATOM     58  C   UNL A   1      42.408  30.586  32.313  1.00  0.00     0.037 A 
ATOM     59  C   UNL A   1      43.445  24.666  28.990  1.00  0.00     0.049 A 
ATOM     60  C   UNL A   1      43.456  29.500  32.662  1.00  0.00     0.074 A 
ATOM     61  C   UNL A   1      44.652  25.282  28.638  1.00  0.00     0.029 A 
ATOM     62  N   UNL A   1      43.447  24.794  30.397  1.00  0.00    -0.354 N 
ATOM     63  N   UNL A   1      44.015  28.612  31.846  1.00  0.00    -0.248 NA
ATOM     64  C   UNL A   1      43.874  29.288  34.047  1.00  0.00     0.031 C 
ATOM     65  C   UNL A   1      45.198  25.984  29.753  1.00  0.00     0.029 A 
ATOM     66  C   UNL A   1      44.402  25.745  30.854  1.00  0.00     0.049 A 
ATOM     67  H   UNL A   1      42.856  24.281  30.994  1.00  0.00     0.167 HD
ATOM     68  C   UNL A   1      44.452  27.534  32.626  1.00  0.00     0.074 A 
ATOM     69  C   UNL A   1      44.543  28.128  33.957  1.00  0.00     0.031 C 
ATOM     70  C   UNL A   1      44.514  26.186  32.269  1.00  0.00     0.037 A 
BRANCH  57  71
ATOM     71  C   UNL A   1      42.629  22.878  27.209  1.00  0.00     0.064 A 
ATOM     72  C   UNL A   1      43.618  22.878  26.200  1.00  0.00     0.173 A 
ATOM     73  C   UNL A   1      42.008  21.630  27.421  1.00  0.00     0.173 A 
ATOM     74  F   UNL A   1      44.295  23.982  25.868  1.00  0.00    -0.203 F 
ATOM     75  C   UNL A   1      43.945  21.736  25.460  1.00  0.00     0.198 A 
ATOM     76  C   UNL A   1      42.336  20.488  26.681  1.00  0.00     0.198 A 
ATOM     77  F   UNL A   1      41.056  21.486  28.353  1.00  0.00    -0.203 F 
ATOM     78  F   UNL A   1      44.885  21.810  24.506  1.00  0.00    -0.200 F 
ATOM     79  C   UNL A   1      43.305  20.541  25.700  1.00  0.00     0.200 A 
ATOM     80  F   UNL A   1      41.699  19.334  26.925  1.00  0.00    -0.200 F 
ATOM     81  F   UNL A   1      43.614  19.450  24.986  1.00  0.00    -0.200 F 
ENDBRANCH  57  71
BRANCH  58  82
ATOM     82  C   UNL A   1      41.651  31.617  33.073  1.00  0.00     0.064 A 
ATOM     83  C   UNL A   1      41.885  32.932  32.575  1.00  0.00     0.173 A 
ATOM     84  C   UNL A   1      40.337  31.294  33.429  1.00  0.00     0.173 A 
ATOM     85  F   UNL A   1      43.128  33.292  32.209  1.00  0.00    -0.203 F 
ATOM     86  C   UNL A   1      40.823  33.721  32.130  1.00  0.00     0.198 A 
ATOM     87  C   UNL A   1      39.279  32.114  33.024  1.00  0.00     0.198 A 
ATOM     88  F   UNL A   1      40.061  30.083  33.934  1.00  0.00    -0.203 F 
ATOM     89  F   UNL A   1      41.065  34.805  31.375  1.00  0.00    -0.200 F 
ATOM     90  C   UNL A   1      39.522  33.286  32.315  1.00  0.00     0.200 A 
ATOM     91  F   UNL A   1      38.016  31.691  33.174  1.00  0.00    -0.200 F 
ATOM     92  F   UNL A   1      38.508  33.942  31.732  1.00  0.00    -0.200 F 
ENDBRANCH  58  82
BRANCH  70  93
ATOM     93  C   UNL A   1      44.714  25.100  33.319  1.00  0.00     0.064 A 
ATOM     94  C   UNL A   1      45.945  24.462  33.571  1.00  0.00     0.173 A 
ATOM     95  C   UNL A   1      43.656  24.732  34.180  1.00  0.00     0.173 A 
ATOM     96  F   UNL A   1      47.064  24.826  32.928  1.00  0.00    -0.203 F 
ATOM     97  C   UNL A   1      46.073  23.440  34.514  1.00  0.00     0.198 A 
ATOM     98  C   UNL A   1      43.807  23.760  35.173  1.00  0.00     0.198 A 
ATOM     99  F   UNL A   1      42.449  25.309  34.079  1.00  0.00    -0.203 F 
ATOM    100  F   UNL A   1      47.244  22.798  34.646  1.00  0.00    -0.200 F 
ATOM    101  C   UNL A   1      45.006  23.089  35.316  1.00  0.00     0.200 A 
ATOM    102  F   UNL A   1      42.782  23.471  35.988  1.00  0.00    -0.200 F 
ATOM    103  F   UNL A   1      45.137  22.122  36.234  1.00  0.00    -0.200 F 
ENDBRANCH  70  93
ENDBRANCH  44  45
ENDBRANCH  37  39
ENDBRANCH  36  37
ENDBRANCH  35  36
ENDBRANCH  34  35
ENDBRANCH  33  34
ENDBRANCH  32  33
ENDBRANCH   1  32
TORSDOF 20
ENDMDL
MODEL 2
REMARK VINA RESULT:     -13.3      3.509     10.561
REMARK SMILES Cc1cccc(CC(=O)N2CCC3(CCC(=O)N([C@H](C)C(=O)OCCOCCOCCOC(=O)c4ccc(-c5c6nc(c(-c7c(F)c(F)c(F)c(F)c7F)c7ccc([nH]7)c(-c7c(F)c(F)c(F)c(F)c7F)c7nc(c(-c8c(F)c(F)c(F)c(F)c8F)c8ccc5[nH]8)C=C7)C=C6)cc4)C3)CC2)c1
REMARK SMILES IDX 27 1 26 2 25 3 24 4 23 5 21 6 22 7 19 8 20 9 18 10 8 11 9 12
REMARK SMILES IDX 10 13 11 14 100 15 12 16 99 17 13 18 14 19 98 20 15 21 16 22
REMARK SMILES IDX 17 23 7 24 6 25 1 26 2 27 3 28 101 29 4 30 5 31 28 32 29 33
REMARK SMILES IDX 30 34 31 35 32 36 33 37 34 38 35 39 36 40 97 41 37 42 96 43
REMARK SMILES IDX 38 44 39 45 40 46 90 47 41 48 95 49 89 50 91 51 42 52 94 53
REMARK SMILES IDX 88 54 87 55 43 57 75 58 55 59 74 60 56 61 59 62 73 63 92 64
REMARK SMILES IDX 57 65 58 66 72 68 93 69 60 70 44 71 45 72 53 73 46 74 47 75
REMARK SMILES IDX 51 76 54 77 48 78 49 79 52 80 50 81 76 82 77 83 85 84 78 85
REMARK SMILES IDX 79 86 83 87 86 88 80 89 81 90 84 91 82 92 61 93 62 94 70 95
REMARK SMILES IDX 63 96 64 97 68 98 71 99 65 100 66 101 69 102 67 103
REMARK H PARENT 91 56 59 67
REMARK Flexibility Score: inf
ROOT
ATOM      1  C   UNL A   1      42.566  20.653  26.174  1.00  0.00     0.188 C 
ENDROOT
BRANCH   1   2
ATOM      2  O   UNL A   1      41.377  21.339  25.727  1.00  0.00    -0.376 OA
BRANCH   2   3
ATOM      3  C   UNL A   1      40.148  21.453  26.469  1.00  0.00     0.202 C 
BRANCH   3   4
ATOM      4  C   UNL A   1      38.836  22.411  25.871  1.00  0.00     0.261 C 
BRANCH   4   5
ATOM      5  O   UNL A   1      37.096  22.060  25.944  1.00  0.00    -0.462 OA
BRANCH   5   6
ATOM      6  C   UNL A   1      35.839  21.379  25.861  1.00  0.00     0.328 C 
ATOM      7  O   UNL A   1      35.790  20.310  25.228  1.00  0.00    -0.250 OA
BRANCH   6   8
ATOM      8  C   UNL A   1      34.287  21.660  26.479  1.00  0.00     0.192 C 
ATOM      9  C   UNL A   1      33.947  21.993  27.945  1.00  0.00     0.044 C 
BRANCH   8  10
ATOM     10  N   UNL A   1      33.082  21.952  25.632  1.00  0.00    -0.329 N 
ATOM     11  C   UNL A   1      32.160  27.828  22.544  1.00  0.00     0.226 C 
ATOM     12  O   UNL A   1      33.059  28.536  22.071  1.00  0.00    -0.275 OA
ATOM     13  N   UNL A   1      32.296  26.450  22.556  1.00  0.00    -0.342 N 
ATOM     14  C   UNL A   1      33.627  25.856  22.563  1.00  0.00     0.120 C 
ATOM     15  C   UNL A   1      31.227  25.469  22.580  1.00  0.00     0.120 C 
ATOM     16  C   UNL A   1      33.788  24.948  23.806  1.00  0.00     0.030 C 
ATOM     17  C   UNL A   1      31.279  24.729  23.900  1.00  0.00     0.030 C 
ATOM     18  C   UNL A   1      32.607  23.941  24.034  1.00  0.00    -0.008 C 
ATOM     19  C   UNL A   1      32.633  22.863  22.910  1.00  0.00     0.019 C 
ATOM     20  C   UNL A   1      32.601  23.332  25.498  1.00  0.00     0.127 C 
ATOM     21  C   UNL A   1      33.407  21.627  23.295  1.00  0.00     0.101 C 
ATOM     22  C   UNL A   1      32.751  21.168  24.557  1.00  0.00     0.223 C 
ATOM     23  O   UNL A   1      31.752  20.452  24.559  1.00  0.00    -0.275 OA
BRANCH  11  24
ATOM     24  C   UNL A   1      31.049  28.514  23.343  1.00  0.00     0.135 C 
BRANCH  24  25
ATOM     25  C   UNL A   1      31.258  28.810  24.805  1.00  0.00    -0.038 A 
ATOM     26  C   UNL A   1      31.996  31.858  26.983  1.00  0.00     0.044 C 
ATOM     27  C   UNL A   1      31.773  30.438  26.549  1.00  0.00    -0.051 A 
ATOM     28  C   UNL A   1      31.991  29.386  27.443  1.00  0.00     0.003 A 
ATOM     29  C   UNL A   1      31.383  30.143  25.238  1.00  0.00     0.007 A 
ATOM     30  C   UNL A   1      31.803  28.061  27.041  1.00  0.00     0.001 A 
ATOM     31  C   UNL A   1      31.423  27.772  25.731  1.00  0.00     0.004 A 
ENDBRANCH  24  25
ENDBRANCH  11  24
ENDBRANCH   8  10
ENDBRANCH   6   8
ENDBRANCH   5   6
ENDBRANCH   4   5
ENDBRANCH   3   4
ENDBRANCH   2   3
ENDBRANCH   1   2
BRANCH   1  32
ATOM     32  C   UNL A   1      43.935  20.953  25.538  1.00  0.00     0.188 C 
BRANCH  32  33
ATOM     33  O   UNL A   1      43.952  21.976  24.547  1.00  0.00    -0.376 OA
BRANCH  33  34
ATOM     34  C   UNL A   1      44.842  23.083  24.708  1.00  0.00     0.202 C 
BRANCH  34  35
ATOM     35  C   UNL A   1      44.234  24.497  24.834  1.00  0.00     0.261 C 
BRANCH  35  36
ATOM     36  O   UNL A   1      42.816  24.435  25.042  1.00  0.00    -0.460 OA
BRANCH  36  37
ATOM     37  C   UNL A   1      42.423  24.714  26.317  1.00  0.00     0.338 C 
ATOM     38  O   UNL A   1      42.673  24.041  27.314  1.00  0.00    -0.246 OA
BRANCH  37  39
ATOM     39  C   UNL A   1      41.286  25.660  26.202  1.00  0.00     0.060 A 
ATOM     40  C   UNL A   1      41.590  26.946  25.769  1.00  0.00     0.016 A 
ATOM     41  C   UNL A   1      40.164  25.448  26.998  1.00  0.00     0.016 A 
ATOM     42  C   UNL A   1      41.011  28.014  26.443  1.00  0.00     0.010 A 
ATOM     43  C   UNL A   1      39.649  26.522  27.709  1.00  0.00     0.010 A 
ATOM     44  C   UNL A   1      40.233  27.785  27.592  1.00  0.00    -0.014 A 
BRANCH  44  45
ATOM     45  C   UNL A   1      40.199  28.754  28.768  1.00  0.00     0.031 A 
ATOM     46  C   UNL A   1      38.727  29.688  28.882  1.00  0.00     0.074 A 
ATOM     47  C   UNL A   1      41.393  28.779  29.566  1.00  0.00     0.049 A 
ATOM     48  N   UNL A   1      38.709  31.008  28.830  1.00  0.00    -0.248 NA
ATOM     49  C   UNL A   1      37.300  29.291  28.990  1.00  0.00     0.031 C 
ATOM     50  C   UNL A   1      41.728  29.278  30.932  1.00  0.00     0.029 A 
ATOM     51  N   UNL A   1      42.736  28.396  29.228  1.00  0.00    -0.354 N 
ATOM     52  C   UNL A   1      37.562  31.591  29.280  1.00  0.00     0.074 A 
ATOM     53  C   UNL A   1      36.637  30.469  29.171  1.00  0.00     0.031 C 
ATOM     54  C   UNL A   1      42.996  29.317  31.281  1.00  0.00     0.029 A 
ATOM     55  C   UNL A   1      43.664  29.058  30.091  1.00  0.00     0.049 A 
ATOM     56  H   UNL A   1      42.981  27.770  28.508  1.00  0.00     0.167 HD
ATOM     57  C   UNL A   1      37.529  32.838  29.911  1.00  0.00     0.037 A 
ATOM     58  C   UNL A   1      44.691  29.881  29.782  1.00  0.00     0.037 A 
ATOM     59  C   UNL A   1      38.825  33.372  30.545  1.00  0.00     0.049 A 
ATOM     60  C   UNL A   1      44.547  31.382  30.139  1.00  0.00     0.074 A 
ATOM     61  C   UNL A   1      39.231  33.409  31.885  1.00  0.00     0.029 A 
ATOM     62  N   UNL A   1      39.965  33.876  29.879  1.00  0.00    -0.354 N 
ATOM     63  N   UNL A   1      43.526  31.985  30.741  1.00  0.00    -0.248 NA
ATOM     64  C   UNL A   1      45.562  32.347  29.720  1.00  0.00     0.031 C 
ATOM     65  C   UNL A   1      40.633  33.654  31.977  1.00  0.00     0.029 A 
ATOM     66  C   UNL A   1      41.123  33.876  30.706  1.00  0.00     0.049 A 
ATOM     67  H   UNL A   1      39.957  34.193  28.947  1.00  0.00     0.167 HD
ATOM     68  C   UNL A   1      43.562  33.340  30.386  1.00  0.00     0.074 A 
ATOM     69  C   UNL A   1      44.950  33.516  29.967  1.00  0.00     0.031 C 
ATOM     70  C   UNL A   1      42.485  34.211  30.217  1.00  0.00     0.037 A 
BRANCH  57  71
ATOM     71  C   UNL A   1      36.194  33.498  30.248  1.00  0.00     0.064 A 
ATOM     72  C   UNL A   1      35.707  33.656  31.566  1.00  0.00     0.173 A 
ATOM     73  C   UNL A   1      35.406  34.115  29.255  1.00  0.00     0.173 A 
ATOM     74  F   UNL A   1      36.330  33.125  32.622  1.00  0.00    -0.203 F 
ATOM     75  C   UNL A   1      34.530  34.354  31.859  1.00  0.00     0.198 A 
ATOM     76  C   UNL A   1      34.229  34.814  29.550  1.00  0.00     0.198 A 
ATOM     77  F   UNL A   1      35.755  34.051  27.962  1.00  0.00    -0.203 F 
ATOM     78  F   UNL A   1      34.116  34.453  33.132  1.00  0.00    -0.200 F 
ATOM     79  C   UNL A   1      33.791  34.934  30.853  1.00  0.00     0.200 A 
ATOM     80  F   UNL A   1      33.520  35.369  28.556  1.00  0.00    -0.200 F 
ATOM     81  F   UNL A   1      32.661  35.596  31.134  1.00  0.00    -0.200 F 
ENDBRANCH  57  71
BRANCH  58  82
ATOM     82  C   UNL A   1      45.709  29.046  29.090  1.00  0.00     0.064 A 
ATOM     83  C   UNL A   1      46.195  27.993  29.919  1.00  0.00     0.173 A 
ATOM     84  C   UNL A   1      45.459  28.737  27.748  1.00  0.00     0.173 A 
ATOM     85  F   UNL A   1      46.443  28.233  31.219  1.00  0.00    -0.203 F 
ATOM     86  C   UNL A   1      46.083  26.663  29.514  1.00  0.00     0.198 A 
ATOM     87  C   UNL A   1      45.397  27.403  27.336  1.00  0.00     0.198 A 
ATOM     88  F   UNL A   1      45.031  29.695  26.912  1.00  0.00    -0.203 F 
ATOM     89  F   UNL A   1      46.236  25.675  30.410  1.00  0.00    -0.200 F 
ATOM     90  C   UNL A   1      45.639  26.371  28.236  1.00  0.00     0.200 A 
ATOM     91  F   UNL A   1      44.943  27.108  26.109  1.00  0.00    -0.200 F 
ATOM     92  F   UNL A   1      45.353  25.104  27.900  1.00  0.00    -0.200 F 
ENDBRANCH  58  82
BRANCH  70  93
ATOM     93  C   UNL A   1      42.663  35.561  29.532  1.00  0.00     0.064 A 
ATOM     94  C   UNL A   1      43.168  36.710  30.172  1.00  0.00     0.173 A 
ATOM     95  C   UNL A   1      42.402  35.703  28.150  1.00  0.00     0.173 A 
ATOM     96  F   UNL A   1      43.596  36.672  31.441  1.00  0.00    -0.203 F 
ATOM     97  C   UNL A   1      43.272  37.940  29.516  1.00  0.00     0.198 A 
ATOM     98  C   UNL A   1      42.578  36.916  27.481  1.00  0.00     0.198 A 
ATOM     99  F   UNL A   1      41.971  34.665  27.418  1.00  0.00    -0.203 F 
ATOM    100  F   UNL A   1      43.666  39.026  30.197  1.00  0.00    -0.200 F 
ATOM    101  C   UNL A   1      42.980  38.043  28.171  1.00  0.00     0.200 A 
ATOM    102  F   UNL A   1      42.350  36.992  26.161  1.00  0.00    -0.200 F 
ATOM    103  F   UNL A   1      43.100  39.219  27.541  1.00  0.00    -0.200 F 
ENDBRANCH  70  93
ENDBRANCH  44  45
ENDBRANCH  37  39
ENDBRANCH  36  37
ENDBRANCH  35  36
ENDBRANCH  34  35
ENDBRANCH  33  34
ENDBRANCH  32  33
ENDBRANCH   1  32
TORSDOF 20
ENDMDL
MODEL 3
REMARK VINA RESULT:     -13.2      3.944     10.358
REMARK SMILES Cc1cccc(CC(=O)N2CCC3(CCC(=O)N([C@H](C)C(=O)OCCOCCOCCOC(=O)c4ccc(-c5c6nc(c(-c7c(F)c(F)c(F)c(F)c7F)c7ccc([nH]7)c(-c7c(F)c(F)c(F)c(F)c7F)c7nc(c(-c8c(F)c(F)c(F)c(F)c8F)c8ccc5[nH]8)C=C7)C=C6)cc4)C3)CC2)c1
REMARK SMILES IDX 27 1 26 2 25 3 24 4 23 5 21 6 22 7 19 8 20 9 18 10 8 11 9 12
REMARK SMILES IDX 10 13 11 14 100 15 12 16 99 17 13 18 14 19 98 20 15 21 16 22
REMARK SMILES IDX 17 23 7 24 6 25 1 26 2 27 3 28 101 29 4 30 5 31 28 32 29 33
REMARK SMILES IDX 30 34 31 35 32 36 33 37 34 38 35 39 36 40 97 41 37 42 96 43
REMARK SMILES IDX 38 44 39 45 40 46 90 47 41 48 95 49 89 50 91 51 42 52 94 53
REMARK SMILES IDX 88 54 87 55 43 57 75 58 55 59 74 60 56 61 59 62 73 63 92 64
REMARK SMILES IDX 57 65 58 66 72 68 93 69 60 70 44 71 45 72 53 73 46 74 47 75
REMARK SMILES IDX 51 76 54 77 48 78 49 79 52 80 50 81 76 82 77 83 85 84 78 85
REMARK SMILES IDX 79 86 83 87 86 88 80 89 81 90 84 91 82 92 61 93 62 94 70 95
REMARK SMILES IDX 63 96 64 97 68 98 71 99 65 100 66 101 69 102 67 103
REMARK H PARENT 91 56 59 67
REMARK Flexibility Score: inf
ROOT
ATOM      1  C   UNL A   1      42.607  19.001  26.082  1.00  0.00     0.188 C 
ENDROOT
BRANCH   1   2
ATOM      2  O   UNL A   1      41.810  20.201  25.978  1.00  0.00    -0.376 OA
BRANCH   2   3
ATOM      3  C   UNL A   1      40.782  20.605  26.902  1.00  0.00     0.202 C 
BRANCH   3   4
ATOM      4  C   UNL A   1      39.792  21.987  26.579  1.00  0.00     0.261 C 
BRANCH   4   5
ATOM      5  O   UNL A   1      38.248  22.053  25.701  1.00  0.00    -0.462 OA
BRANCH   5   6
ATOM      6  C   UNL A   1      37.140  21.698  24.868  1.00  0.00     0.328 C 
ATOM      7  O   UNL A   1      36.984  22.315  23.801  1.00  0.00    -0.250 OA
BRANCH   6   8
ATOM      8  C   UNL A   1      35.907  20.538  24.953  1.00  0.00     0.192 C 
ATOM      9  C   UNL A   1      36.090  19.015  24.803  1.00  0.00     0.044 C 
BRANCH   8  10
ATOM     10  N   UNL A   1      34.539  20.801  25.513  1.00  0.00    -0.329 N 
ATOM     11  C   UNL A   1      31.477  26.737  24.962  1.00  0.00     0.226 C 
ATOM     12  O   UNL A   1      31.577  27.507  23.998  1.00  0.00    -0.275 OA
ATOM     13  N   UNL A   1      31.556  25.368  24.770  1.00  0.00    -0.342 N 
ATOM     14  C   UNL A   1      32.289  24.842  23.625  1.00  0.00     0.120 C 
ATOM     15  C   UNL A   1      30.985  24.335  25.613  1.00  0.00     0.120 C 
ATOM     16  C   UNL A   1      33.413  23.897  24.114  1.00  0.00     0.030 C 
ATOM     17  C   UNL A   1      32.113  23.549  26.245  1.00  0.00     0.030 C 
ATOM     18  C   UNL A   1      32.951  22.823  25.161  1.00  0.00    -0.008 C 
ATOM     19  C   UNL A   1      32.020  21.792  24.456  1.00  0.00     0.019 C 
ATOM     20  C   UNL A   1      34.169  22.160  25.929  1.00  0.00     0.127 C 
ATOM     21  C   UNL A   1      32.761  20.583  23.943  1.00  0.00     0.101 C 
ATOM     22  C   UNL A   1      33.455  20.043  25.153  1.00  0.00     0.223 C 
ATOM     23  O   UNL A   1      32.906  19.279  25.942  1.00  0.00    -0.275 OA
BRANCH  11  24
ATOM     24  C   UNL A   1      31.539  27.336  26.371  1.00  0.00     0.135 C 
BRANCH  24  25
ATOM     25  C   UNL A   1      32.376  28.562  26.622  1.00  0.00    -0.038 A 
ATOM     26  C   UNL A   1      35.941  29.357  27.733  1.00  0.00     0.044 C 
ATOM     27  C   UNL A   1      34.503  29.523  27.338  1.00  0.00    -0.051 A 
ATOM     28  C   UNL A   1      33.886  30.774  27.433  1.00  0.00     0.003 A 
ATOM     29  C   UNL A   1      33.747  28.426  26.909  1.00  0.00     0.007 A 
ATOM     30  C   UNL A   1      32.543  30.932  27.083  1.00  0.00     0.001 A 
ATOM     31  C   UNL A   1      31.791  29.834  26.665  1.00  0.00     0.004 A 
ENDBRANCH  24  25
ENDBRANCH  11  24
ENDBRANCH   8  10
ENDBRANCH   6   8
ENDBRANCH   5   6
ENDBRANCH   4   5
ENDBRANCH   3   4
ENDBRANCH   2   3
ENDBRANCH   1   2
BRANCH   1  32
ATOM     32  C   UNL A   1      43.957  18.886  25.353  1.00  0.00     0.188 C 
BRANCH  32  33
ATOM     33  O   UNL A   1      44.280  19.953  24.465  1.00  0.00    -0.376 OA
BRANCH  33  34
ATOM     34  C   UNL A   1      45.607  20.482  24.471  1.00  0.00     0.202 C 
BRANCH  34  35
ATOM     35  C   UNL A   1      45.785  22.009  24.618  1.00  0.00     0.261 C 
BRANCH  35  36
ATOM     36  O   UNL A   1      44.783  22.567  25.479  1.00  0.00    -0.460 OA
BRANCH  36  37
ATOM     37  C   UNL A   1      44.402  23.834  25.152  1.00  0.00     0.338 C 
ATOM     38  O   UNL A   1      45.141  24.730  24.752  1.00  0.00    -0.246 OA
BRANCH  37  39
ATOM     39  C   UNL A   1      43.089  24.055  25.806  1.00  0.00     0.060 A 
ATOM     40  C   UNL A   1      42.395  25.201  25.433  1.00  0.00     0.016 A 
ATOM     41  C   UNL A   1      42.869  23.492  27.060  1.00  0.00     0.016 A 
ATOM     42  C   UNL A   1      41.810  25.962  26.437  1.00  0.00     0.010 A 
ATOM     43  C   UNL A   1      42.344  24.300  28.059  1.00  0.00     0.010 A 
ATOM     44  C   UNL A   1      42.018  25.630  27.788  1.00  0.00    -0.014 A 
BRANCH  44  45
ATOM     45  C   UNL A   1      42.117  26.681  28.887  1.00  0.00     0.031 A 
ATOM     46  C   UNL A   1      40.636  27.567  29.163  1.00  0.00     0.074 A 
ATOM     47  C   UNL A   1      43.414  26.806  29.489  1.00  0.00     0.049 A 
ATOM     48  N   UNL A   1      40.550  28.878  29.026  1.00  0.00    -0.248 NA
ATOM     49  C   UNL A   1      39.262  27.129  29.515  1.00  0.00     0.031 C 
ATOM     50  C   UNL A   1      43.928  27.415  30.751  1.00  0.00     0.029 A 
ATOM     51  N   UNL A   1      44.708  26.447  28.975  1.00  0.00    -0.354 N 
ATOM     52  C   UNL A   1      39.458  29.451  29.607  1.00  0.00     0.074 A 
ATOM     53  C   UNL A   1      38.580  28.292  29.716  1.00  0.00     0.031 C 
ATOM     54  C   UNL A   1      45.231  27.525  30.897  1.00  0.00     0.029 A 
ATOM     55  C   UNL A   1      45.723  27.204  29.639  1.00  0.00     0.049 A 
ATOM     56  H   UNL A   1      44.870  25.780  28.269  1.00  0.00     0.167 HD
ATOM     57  C   UNL A   1      39.463  30.739  30.150  1.00  0.00     0.037 A 
ATOM     58  C   UNL A   1      46.653  28.038  29.122  1.00  0.00     0.037 A 
ATOM     59  C   UNL A   1      40.813  31.364  30.541  1.00  0.00     0.049 A 
ATOM     60  C   UNL A   1      46.494  29.555  29.395  1.00  0.00     0.074 A 
ATOM     61  C   UNL A   1      41.414  31.513  31.797  1.00  0.00     0.029 A 
ATOM     62  N   UNL A   1      41.815  31.858  29.675  1.00  0.00    -0.354 N 
ATOM     63  N   UNL A   1      45.549  30.163  30.105  1.00  0.00    -0.248 NA
ATOM     64  C   UNL A   1      47.390  30.522  28.762  1.00  0.00     0.031 C 
ATOM     65  C   UNL A   1      42.801  31.814  31.655  1.00  0.00     0.029 A 
ATOM     66  C   UNL A   1      43.083  31.960  30.313  1.00  0.00     0.049 A 
ATOM     67  H   UNL A   1      41.653  32.105  28.736  1.00  0.00     0.167 HD
ATOM     68  C   UNL A   1      45.468  31.489  29.658  1.00  0.00     0.074 A 
ATOM     69  C   UNL A   1      46.768  31.683  29.020  1.00  0.00     0.031 C 
ATOM     70  C   UNL A   1      44.339  32.307  29.599  1.00  0.00     0.037 A 
BRANCH  57  71
ATOM     71  C   UNL A   1      38.164  31.374  30.643  1.00  0.00     0.064 A 
ATOM     72  C   UNL A   1      37.258  32.061  29.803  1.00  0.00     0.173 A 
ATOM     73  C   UNL A   1      37.718  31.204  31.970  1.00  0.00     0.173 A 
ATOM     74  F   UNL A   1      37.531  32.315  28.520  1.00  0.00    -0.203 F 
ATOM     75  C   UNL A   1      36.026  32.547  30.255  1.00  0.00     0.198 A 
ATOM     76  C   UNL A   1      36.485  31.689  32.421  1.00  0.00     0.198 A 
ATOM     77  F   UNL A   1      38.475  30.563  32.872  1.00  0.00    -0.203 F 
ATOM     78  F   UNL A   1      35.220  33.204  29.408  1.00  0.00    -0.200 F 
ATOM     79  C   UNL A   1      35.638  32.361  31.563  1.00  0.00     0.200 A 
ATOM     80  F   UNL A   1      36.125  31.502  33.699  1.00  0.00    -0.200 F 
ATOM     81  F   UNL A   1      34.461  32.832  31.996  1.00  0.00    -0.200 F 
ENDBRANCH  57  71
BRANCH  58  82
ATOM     82  C   UNL A   1      47.592  27.191  28.339  1.00  0.00     0.064 A 
ATOM     83  C   UNL A   1      47.386  27.315  26.934  1.00  0.00     0.173 A 
ATOM     84  C   UNL A   1      48.917  27.145  28.788  1.00  0.00     0.173 A 
ATOM     85  F   UNL A   1      46.132  27.374  26.450  1.00  0.00    -0.203 F 
ATOM     86  C   UNL A   1      48.424  27.730  26.099  1.00  0.00     0.198 A 
ATOM     87  C   UNL A   1      49.960  27.514  27.932  1.00  0.00     0.198 A 
ATOM     88  F   UNL A   1      49.174  26.997  30.096  1.00  0.00    -0.203 F 
ATOM     89  F   UNL A   1      48.154  28.154  24.855  1.00  0.00    -0.200 F 
ATOM     90  C   UNL A   1      49.702  27.872  26.614  1.00  0.00     0.200 A 
ATOM     91  F   UNL A   1      51.196  27.680  28.426  1.00  0.00    -0.200 F 
ATOM     92  F   UNL A   1      50.662  28.443  25.872  1.00  0.00    -0.200 F 
ENDBRANCH  58  82
BRANCH  70  93
ATOM     93  C   UNL A   1      44.349  33.608  28.806  1.00  0.00     0.064 A 
ATOM     94  C   UNL A   1      44.350  34.889  29.392  1.00  0.00     0.173 A 
ATOM     95  C   UNL A   1      44.449  33.587  27.397  1.00  0.00     0.173 A 
ATOM     96  F   UNL A   1      44.410  35.050  30.721  1.00  0.00    -0.203 F 
ATOM     97  C   UNL A   1      44.314  36.057  28.625  1.00  0.00     0.198 A 
ATOM     98  C   UNL A   1      44.487  34.758  26.635  1.00  0.00     0.198 A 
ATOM     99  F   UNL A   1      44.513  32.428  26.725  1.00  0.00    -0.203 F 
ATOM    100  F   UNL A   1      44.217  37.249  29.231  1.00  0.00    -0.200 F 
ATOM    101  C   UNL A   1      44.385  35.993  27.248  1.00  0.00     0.200 A 
ATOM    102  F   UNL A   1      44.618  34.687  25.303  1.00  0.00    -0.200 F 
ATOM    103  F   UNL A   1      44.370  37.115  26.516  1.00  0.00    -0.200 F 
ENDBRANCH  70  93
ENDBRANCH  44  45
ENDBRANCH  37  39
ENDBRANCH  36  37
ENDBRANCH  35  36
ENDBRANCH  34  35
ENDBRANCH  33  34
ENDBRANCH  32  33
ENDBRANCH   1  32
TORSDOF 20
ENDMDL
