MODEL 1
REMARK VINA RESULT:     -11.1      0.000      0.000
REMARK SMILES COc1c[nH]c(C[N@H+]2CCC[C@@H](c3ccc(C(=O)OCCOCCOCCOC(=O)c4ccc(-c5c6nc(c(-c7c(F)c(F)c(F)c(F)c7F)c7ccc([nH]7)c(-c7c(F)c(F)c(F)c(F)c7F)c7nc(c(-c8c(F)c(F)c(F)c(F)c8F)c8ccc5[nH]8)C=C7)C=C6)cc4)cc3)C2)cc1=O
REMARK SMILES IDX 23 1 22 2 21 3 20 4 19 5 17 6 18 7 16 8 13 9 14 10 95 11
REMARK SMILES IDX 15 12 94 13 12 14 8 15 9 16 96 17 10 19 11 20 7 21 6 22 3 23
REMARK SMILES IDX 4 24 98 25 5 26 97 27 99 28 2 30 1 31 24 32 25 33 26 34
REMARK SMILES IDX 27 35 28 36 29 37 30 38 31 39 32 40 93 41 33 42 92 43 34 44
REMARK SMILES IDX 35 45 36 46 86 47 37 48 91 49 85 50 87 51 38 52 90 53 84 54
REMARK SMILES IDX 83 55 39 57 71 58 51 59 70 60 52 61 55 62 69 63 88 64 53 65
REMARK SMILES IDX 54 66 68 68 89 69 56 70 40 71 41 72 49 73 42 74 43 75 47 76
REMARK SMILES IDX 50 77 44 78 45 79 48 80 46 81 72 82 73 83 81 84 74 85 75 86
REMARK SMILES IDX 79 87 82 88 76 89 77 90 80 91 78 92 57 93 58 94 66 95 59 96
REMARK SMILES IDX 60 97 64 98 67 99 61 100 62 101 65 102 63 103
REMARK H PARENT 8 18 5 29 87 56 55 67
REMARK Flexibility Score: inf
ROOT
ATOM      1  C   UNL A   1      33.655  27.483  25.221  1.00  0.00     0.188 C 
ENDROOT
BRANCH   1   2
ATOM      2  O   UNL A   1      34.149  28.155  24.066  1.00  0.00    -0.376 OA
BRANCH   2   3
ATOM      3  C   UNL A   1      33.394  28.129  22.857  1.00  0.00     0.202 C 
BRANCH   3   4
ATOM      4  C   UNL A   1      32.211  29.093  22.695  1.00  0.00     0.261 C 
BRANCH   4   5
ATOM      5  O   UNL A   1      31.146  28.870  23.632  1.00  0.00    -0.460 OA
BRANCH   5   6
ATOM      6  C   UNL A   1      30.176  28.024  23.210  1.00  0.00     0.338 C 
ATOM      7  O   UNL A   1      29.365  28.217  22.319  1.00  0.00    -0.246 OA
BRANCH   6   8
ATOM      8  C   UNL A   1      30.342  26.699  23.844  1.00  0.00     0.060 A 
ATOM      9  C   UNL A   1      30.822  24.298  25.213  1.00  0.00    -0.039 A 
ATOM     10  C   UNL A   1      30.356  25.432  25.901  1.00  0.00     0.005 A 
ATOM     11  C   UNL A   1      30.944  24.360  23.815  1.00  0.00     0.005 A 
ATOM     12  C   UNL A   1      30.147  26.631  25.227  1.00  0.00     0.016 A 
ATOM     13  C   UNL A   1      30.694  25.554  23.126  1.00  0.00     0.016 A 
BRANCH   9  14
ATOM     14  C   UNL A   1      31.361  23.095  25.985  1.00  0.00     0.074 C 
ATOM     15  N   UNL A   1      32.890  21.099  25.617  1.00  0.00    -0.329 N 
ATOM     16  C   UNL A   1      33.682  21.481  26.793  1.00  0.00     0.262 C 
ATOM     17  C   UNL A   1      32.228  22.258  25.014  1.00  0.00     0.270 C 
ATOM     18  H   UNL A   1      32.157  20.469  25.943  1.00  0.00     0.348 HD
ATOM     19  C   UNL A   1      32.829  22.224  27.828  1.00  0.00     0.062 C 
ATOM     20  C   UNL A   1      32.173  23.471  27.231  1.00  0.00     0.020 C 
BRANCH  15  21
ATOM     21  C   UNL A   1      33.684  20.331  24.628  1.00  0.00     0.317 C 
BRANCH  21  22
ATOM     22  C   UNL A   1      33.610  18.805  24.711  1.00  0.00     0.074 A 
ATOM     23  C   UNL A   1      33.126  15.994  24.947  1.00  0.00     0.182 A 
ATOM     24  C   UNL A   1      32.724  16.882  25.866  1.00  0.00     0.133 A 
ATOM     25  C   UNL A   1      33.945  16.547  23.808  1.00  0.00     0.223 A 
ATOM     26  N   UNL A   1      33.005  18.219  25.809  1.00  0.00    -0.357 N 
ATOM     27  C   UNL A   1      34.117  18.028  23.735  1.00  0.00     0.083 A 
ATOM     28  O   UNL A   1      34.447  15.841  22.938  1.00  0.00    -0.286 OA
ATOM     29  H   UNL A   1      32.767  18.786  26.578  1.00  0.00     0.166 HD
BRANCH  23  30
ATOM     30  O   UNL A   1      32.725  14.673  25.027  1.00  0.00    -0.491 OA
ATOM     31  C   UNL A   1      32.210  14.317  26.305  1.00  0.00     0.278 C 
ENDBRANCH  23  30
ENDBRANCH  21  22
ENDBRANCH  15  21
ENDBRANCH   9  14
ENDBRANCH   6   8
ENDBRANCH   5   6
ENDBRANCH   4   5
ENDBRANCH   3   4
ENDBRANCH   2   3
ENDBRANCH   1   2
BRANCH   1  32
ATOM     32  C   UNL A   1      34.104  26.036  25.519  1.00  0.00     0.188 C 
BRANCH  32  33
ATOM     33  O   UNL A   1      34.452  25.305  24.366  1.00  0.00    -0.376 OA
BRANCH  33  34
ATOM     34  C   UNL A   1      35.119  24.064  24.502  1.00  0.00     0.202 C 
BRANCH  34  35
ATOM     35  C   UNL A   1      36.174  23.790  25.592  1.00  0.00     0.261 C 
BRANCH  35  36
ATOM     36  O   UNL A   1      37.552  23.785  25.202  1.00  0.00    -0.460 OA
BRANCH  36  37
ATOM     37  C   UNL A   1      38.427  23.247  26.080  1.00  0.00     0.338 C 
ATOM     38  O   UNL A   1      38.693  22.072  26.233  1.00  0.00    -0.246 OA
BRANCH  37  39
ATOM     39  C   UNL A   1      39.153  24.351  26.745  1.00  0.00     0.060 A 
ATOM     40  C   UNL A   1      38.925  24.575  28.107  1.00  0.00     0.016 A 
ATOM     41  C   UNL A   1      40.008  25.187  26.021  1.00  0.00     0.016 A 
ATOM     42  C   UNL A   1      39.513  25.670  28.740  1.00  0.00     0.010 A 
ATOM     43  C   UNL A   1      40.586  26.293  26.653  1.00  0.00     0.010 A 
ATOM     44  C   UNL A   1      40.307  26.562  28.005  1.00  0.00    -0.014 A 
BRANCH  44  45
ATOM     45  C   UNL A   1      40.664  27.873  28.600  1.00  0.00     0.031 A 
ATOM     46  C   UNL A   1      42.102  28.125  28.966  1.00  0.00     0.074 A 
ATOM     47  C   UNL A   1      39.746  28.839  28.773  1.00  0.00     0.049 A 
ATOM     48  N   UNL A   1      42.658  29.191  29.483  1.00  0.00    -0.248 NA
ATOM     49  C   UNL A   1      43.042  27.021  28.711  1.00  0.00     0.031 C 
ATOM     50  C   UNL A   1      38.330  28.729  28.432  1.00  0.00     0.029 A 
ATOM     51  N   UNL A   1      39.875  30.107  29.283  1.00  0.00    -0.354 N 
ATOM     52  C   UNL A   1      44.006  28.888  29.613  1.00  0.00     0.074 A 
ATOM     53  C   UNL A   1      44.182  27.527  29.155  1.00  0.00     0.031 C 
ATOM     54  C   UNL A   1      37.717  29.886  28.748  1.00  0.00     0.029 A 
ATOM     55  C   UNL A   1      38.694  30.804  29.332  1.00  0.00     0.049 A 
ATOM     56  H   UNL A   1      40.735  30.481  29.585  1.00  0.00     0.167 HD
ATOM     57  C   UNL A   1      45.012  29.677  30.060  1.00  0.00     0.037 A 
ATOM     58  C   UNL A   1      38.433  32.038  29.808  1.00  0.00     0.037 A 
ATOM     59  C   UNL A   1      44.840  31.029  30.520  1.00  0.00     0.049 A 
ATOM     60  C   UNL A   1      39.560  32.872  30.363  1.00  0.00     0.074 A 
ATOM     61  C   UNL A   1      45.799  31.915  30.980  1.00  0.00     0.029 A 
ATOM     62  N   UNL A   1      43.622  31.688  30.589  1.00  0.00    -0.354 N 
ATOM     63  N   UNL A   1      40.838  32.590  30.453  1.00  0.00    -0.248 NA
ATOM     64  C   UNL A   1      39.205  34.202  30.878  1.00  0.00     0.031 C 
ATOM     65  C   UNL A   1      45.155  33.092  31.371  1.00  0.00     0.029 A 
ATOM     66  C   UNL A   1      43.801  32.961  31.106  1.00  0.00     0.049 A 
ATOM     67  H   UNL A   1      42.757  31.308  30.311  1.00  0.00     0.167 HD
ATOM     68  C   UNL A   1      41.441  33.713  31.005  1.00  0.00     0.074 A 
ATOM     69  C   UNL A   1      40.392  34.688  31.216  1.00  0.00     0.031 C 
ATOM     70  C   UNL A   1      42.746  33.921  31.310  1.00  0.00     0.037 A 
BRANCH  57  71
ATOM     71  C   UNL A   1      46.390  29.082  30.092  1.00  0.00     0.064 A 
ATOM     72  C   UNL A   1      46.868  28.392  31.215  1.00  0.00     0.173 A 
ATOM     73  C   UNL A   1      47.234  29.189  28.976  1.00  0.00     0.173 A 
ATOM     74  F   UNL A   1      46.106  28.278  32.313  1.00  0.00    -0.203 F 
ATOM     75  C   UNL A   1      48.151  27.852  31.230  1.00  0.00     0.198 A 
ATOM     76  C   UNL A   1      48.506  28.622  28.984  1.00  0.00     0.198 A 
ATOM     77  F   UNL A   1      46.824  29.838  27.876  1.00  0.00    -0.203 F 
ATOM     78  F   UNL A   1      48.607  27.239  32.332  1.00  0.00    -0.200 F 
ATOM     79  C   UNL A   1      48.966  27.962  30.113  1.00  0.00     0.200 A 
ATOM     80  F   UNL A   1      49.288  28.722  27.901  1.00  0.00    -0.200 F 
ATOM     81  F   UNL A   1      50.200  27.439  30.129  1.00  0.00    -0.200 F 
ENDBRANCH  57  71
BRANCH  58  82
ATOM     82  C   UNL A   1      37.044  32.565  29.789  1.00  0.00     0.064 A 
ATOM     83  C   UNL A   1      36.556  33.281  28.687  1.00  0.00     0.173 A 
ATOM     84  C   UNL A   1      36.188  32.391  30.886  1.00  0.00     0.173 A 
ATOM     85  F   UNL A   1      37.348  33.504  27.628  1.00  0.00    -0.203 F 
ATOM     86  C   UNL A   1      35.271  33.821  28.692  1.00  0.00     0.198 A 
ATOM     87  C   UNL A   1      34.894  32.908  30.880  1.00  0.00     0.198 A 
ATOM     88  F   UNL A   1      36.610  31.720  31.968  1.00  0.00    -0.203 F 
ATOM     89  F   UNL A   1      34.846  34.547  27.649  1.00  0.00    -0.200 F 
ATOM     90  C   UNL A   1      34.439  33.629  29.786  1.00  0.00     0.200 A 
ATOM     91  F   UNL A   1      34.093  32.717  31.936  1.00  0.00    -0.200 F 
ATOM     92  F   UNL A   1      33.205  34.151  29.792  1.00  0.00    -0.200 F 
ENDBRANCH  58  82
BRANCH  70  93
ATOM     93  C   UNL A   1      43.118  35.263  31.873  1.00  0.00     0.064 A 
ATOM     94  C   UNL A   1      43.008  35.543  33.244  1.00  0.00     0.173 A 
ATOM     95  C   UNL A   1      43.618  36.272  31.036  1.00  0.00     0.173 A 
ATOM     96  F   UNL A   1      42.524  34.616  34.086  1.00  0.00    -0.203 F 
ATOM     97  C   UNL A   1      43.354  36.793  33.749  1.00  0.00     0.198 A 
ATOM     98  C   UNL A   1      43.993  37.511  31.550  1.00  0.00     0.198 A 
ATOM     99  F   UNL A   1      43.753  36.053  29.719  1.00  0.00    -0.203 F 
ATOM    100  F   UNL A   1      43.190  37.055  35.053  1.00  0.00    -0.200 F 
ATOM    101  C   UNL A   1      43.851  37.774  32.903  1.00  0.00     0.200 A 
ATOM    102  F   UNL A   1      44.488  38.452  30.733  1.00  0.00    -0.200 F 
ATOM    103  F   UNL A   1      44.188  38.975  33.393  1.00  0.00    -0.200 F 
ENDBRANCH  70  93
ENDBRANCH  44  45
ENDBRANCH  37  39
ENDBRANCH  36  37
ENDBRANCH  35  36
ENDBRANCH  34  35
ENDBRANCH  33  34
ENDBRANCH  32  33
ENDBRANCH   1  32
TORSDOF 21
ENDMDL
MODEL 2
REMARK VINA RESULT:     -10.3      4.130      8.187
REMARK SMILES COc1c[nH]c(C[N@H+]2CCC[C@@H](c3ccc(C(=O)OCCOCCOCCOC(=O)c4ccc(-c5c6nc(c(-c7c(F)c(F)c(F)c(F)c7F)c7ccc([nH]7)c(-c7c(F)c(F)c(F)c(F)c7F)c7nc(c(-c8c(F)c(F)c(F)c(F)c8F)c8ccc5[nH]8)C=C7)C=C6)cc4)cc3)C2)cc1=O
REMARK SMILES IDX 23 1 22 2 21 3 20 4 19 5 17 6 18 7 16 8 13 9 14 10 95 11
REMARK SMILES IDX 15 12 94 13 12 14 8 15 9 16 96 17 10 19 11 20 7 21 6 22 3 23
REMARK SMILES IDX 4 24 98 25 5 26 97 27 99 28 2 30 1 31 24 32 25 33 26 34
REMARK SMILES IDX 27 35 28 36 29 37 30 38 31 39 32 40 93 41 33 42 92 43 34 44
REMARK SMILES IDX 35 45 36 46 86 47 37 48 91 49 85 50 87 51 38 52 90 53 84 54
REMARK SMILES IDX 83 55 39 57 71 58 51 59 70 60 52 61 55 62 69 63 88 64 53 65
REMARK SMILES IDX 54 66 68 68 89 69 56 70 40 71 41 72 49 73 42 74 43 75 47 76
REMARK SMILES IDX 50 77 44 78 45 79 48 80 46 81 72 82 73 83 81 84 74 85 75 86
REMARK SMILES IDX 79 87 82 88 76 89 77 90 80 91 78 92 57 93 58 94 66 95 59 96
REMARK SMILES IDX 60 97 64 98 67 99 61 100 62 101 65 102 63 103
REMARK H PARENT 8 18 5 29 87 56 55 67
REMARK Flexibility Score: inf
ROOT
ATOM      1  C   UNL A   1      38.201  21.376  25.344  1.00  0.00     0.188 C 
ENDROOT
BRANCH   1   2
ATOM      2  O   UNL A   1      36.996  21.903  25.892  1.00  0.00    -0.376 OA
BRANCH   2   3
ATOM      3  C   UNL A   1      36.603  23.237  25.580  1.00  0.00     0.202 C 
BRANCH   3   4
ATOM      4  C   UNL A   1      35.582  23.470  24.458  1.00  0.00     0.261 C 
BRANCH   4   5
ATOM      5  O   UNL A   1      34.896  24.730  24.547  1.00  0.00    -0.460 OA
BRANCH   5   6
ATOM      6  C   UNL A   1      33.567  24.645  24.793  1.00  0.00     0.338 C 
ATOM      7  O   UNL A   1      32.883  23.635  24.806  1.00  0.00    -0.246 OA
BRANCH   6   8
ATOM      8  C   UNL A   1      33.049  25.947  25.260  1.00  0.00     0.060 A 
ATOM      9  C   UNL A   1      32.308  28.476  26.222  1.00  0.00    -0.039 A 
ATOM     10  C   UNL A   1      33.314  28.348  25.249  1.00  0.00     0.005 A 
ATOM     11  C   UNL A   1      31.610  27.326  26.627  1.00  0.00     0.005 A 
ATOM     12  C   UNL A   1      33.702  27.092  24.795  1.00  0.00     0.016 A 
ATOM     13  C   UNL A   1      31.970  26.062  26.140  1.00  0.00     0.016 A 
BRANCH   9  14
ATOM     14  C   UNL A   1      32.108  29.801  26.956  1.00  0.00     0.074 C 
ATOM     15  N   UNL A   1      33.498  31.610  28.076  1.00  0.00    -0.329 N 
ATOM     16  C   UNL A   1      32.847  32.632  27.247  1.00  0.00     0.262 C 
ATOM     17  C   UNL A   1      33.498  30.302  27.417  1.00  0.00     0.270 C 
ATOM     18  H   UNL A   1      32.942  31.518  28.927  1.00  0.00     0.348 HD
ATOM     19  C   UNL A   1      31.424  32.215  26.855  1.00  0.00     0.062 C 
ATOM     20  C   UNL A   1      31.409  30.876  26.114  1.00  0.00     0.020 C 
BRANCH  15  21
ATOM     21  C   UNL A   1      34.855  32.018  28.512  1.00  0.00     0.317 C 
BRANCH  21  22
ATOM     22  C   UNL A   1      35.049  32.313  30.000  1.00  0.00     0.074 A 
ATOM     23  C   UNL A   1      35.056  32.891  32.803  1.00  0.00     0.182 A 
ATOM     24  C   UNL A   1      34.354  33.605  31.914  1.00  0.00     0.133 A 
ATOM     25  C   UNL A   1      35.934  31.806  32.233  1.00  0.00     0.223 A 
ATOM     26  N   UNL A   1      34.390  33.392  30.563  1.00  0.00    -0.357 N 
ATOM     27  C   UNL A   1      35.841  31.540  30.766  1.00  0.00     0.083 A 
ATOM     28  O   UNL A   1      36.693  31.127  32.919  1.00  0.00    -0.286 OA
ATOM     29  H   UNL A   1      33.931  34.029  29.970  1.00  0.00     0.166 HD
BRANCH  23  30
ATOM     30  O   UNL A   1      34.896  33.109  34.159  1.00  0.00    -0.491 OA
ATOM     31  C   UNL A   1      35.403  34.367  34.591  1.00  0.00     0.278 C 
ENDBRANCH  23  30
ENDBRANCH  21  22
ENDBRANCH  15  21
ENDBRANCH   9  14
ENDBRANCH   6   8
ENDBRANCH   5   6
ENDBRANCH   4   5
ENDBRANCH   3   4
ENDBRANCH   2   3
ENDBRANCH   1   2
BRANCH   1  32
ATOM     32  C   UNL A   1      39.539  21.581  26.087  1.00  0.00     0.188 C 
BRANCH  32  33
ATOM     33  O   UNL A   1      40.022  20.413  26.709  1.00  0.00    -0.376 OA
BRANCH  33  34
ATOM     34  C   UNL A   1      41.065  19.678  26.097  1.00  0.00     0.202 C 
BRANCH  34  35
ATOM     35  C   UNL A   1      42.476  20.251  25.867  1.00  0.00     0.261 C 
BRANCH  35  36
ATOM     36  O   UNL A   1      43.508  19.345  25.462  1.00  0.00    -0.460 OA
BRANCH  36  37
ATOM     37  C   UNL A   1      44.338  19.769  24.483  1.00  0.00     0.338 C 
ATOM     38  O   UNL A   1      44.586  19.214  23.431  1.00  0.00    -0.246 OA
BRANCH  37  39
ATOM     39  C   UNL A   1      44.797  21.133  24.825  1.00  0.00     0.060 A 
ATOM     40  C   UNL A   1      45.335  21.356  26.097  1.00  0.00     0.016 A 
ATOM     41  C   UNL A   1      44.652  22.187  23.919  1.00  0.00     0.016 A 
ATOM     42  C   UNL A   1      45.681  22.649  26.488  1.00  0.00     0.010 A 
ATOM     43  C   UNL A   1      44.987  23.486  24.317  1.00  0.00     0.010 A 
ATOM     44  C   UNL A   1      45.464  23.727  25.618  1.00  0.00    -0.014 A 
BRANCH  44  45
ATOM     45  C   UNL A   1      45.538  25.112  26.147  1.00  0.00     0.031 A 
ATOM     46  C   UNL A   1      46.860  25.828  26.091  1.00  0.00     0.074 A 
ATOM     47  C   UNL A   1      44.452  25.739  26.626  1.00  0.00     0.049 A 
ATOM     48  N   UNL A   1      47.170  27.041  26.476  1.00  0.00    -0.248 NA
ATOM     49  C   UNL A   1      47.988  25.073  25.521  1.00  0.00     0.031 C 
ATOM     50  C   UNL A   1      43.111  25.165  26.707  1.00  0.00     0.029 A 
ATOM     51  N   UNL A   1      44.310  27.005  27.138  1.00  0.00    -0.354 N 
ATOM     52  C   UNL A   1      48.521  27.193  26.194  1.00  0.00     0.074 A 
ATOM     53  C   UNL A   1      48.982  25.939  25.639  1.00  0.00     0.031 C 
ATOM     54  C   UNL A   1      42.279  26.078  27.243  1.00  0.00     0.029 A 
ATOM     55  C   UNL A   1      43.035  27.288  27.562  1.00  0.00     0.049 A 
ATOM     56  H   UNL A   1      45.052  27.649  27.195  1.00  0.00     0.167 HD
ATOM     57  C   UNL A   1      49.305  28.283  26.368  1.00  0.00     0.037 A 
ATOM     58  C   UNL A   1      42.543  28.395  28.153  1.00  0.00     0.037 A 
ATOM     59  C   UNL A   1      48.850  29.529  26.924  1.00  0.00     0.049 A 
ATOM     60  C   UNL A   1      43.453  29.573  28.397  1.00  0.00     0.074 A 
ATOM     61  C   UNL A   1      49.564  30.697  27.128  1.00  0.00     0.029 A 
ATOM     62  N   UNL A   1      47.560  29.766  27.376  1.00  0.00    -0.354 N 
ATOM     63  N   UNL A   1      44.721  29.720  28.098  1.00  0.00    -0.248 NA
ATOM     64  C   UNL A   1      42.856  30.743  29.057  1.00  0.00     0.031 C 
ATOM     65  C   UNL A   1      48.719  31.624  27.747  1.00  0.00     0.029 A 
ATOM     66  C   UNL A   1      47.464  31.053  27.880  1.00  0.00     0.049 A 
ATOM     67  H   UNL A   1      46.822  29.115  27.342  1.00  0.00     0.167 HD
ATOM     68  C   UNL A   1      45.065  31.003  28.505  1.00  0.00     0.074 A 
ATOM     69  C   UNL A   1      43.868  31.599  29.059  1.00  0.00     0.031 C 
ATOM     70  C   UNL A   1      46.264  31.633  28.428  1.00  0.00     0.037 A 
BRANCH  57  71
ATOM     71  C   UNL A   1      50.746  28.164  25.969  1.00  0.00     0.064 A 
ATOM     72  C   UNL A   1      51.150  28.260  24.630  1.00  0.00     0.173 A 
ATOM     73  C   UNL A   1      51.738  27.969  26.943  1.00  0.00     0.173 A 
ATOM     74  F   UNL A   1      50.239  28.428  23.660  1.00  0.00    -0.203 F 
ATOM     75  C   UNL A   1      52.491  28.140  24.276  1.00  0.00     0.198 A 
ATOM     76  C   UNL A   1      53.081  27.879  26.588  1.00  0.00     0.198 A 
ATOM     77  F   UNL A   1      51.404  27.872  28.238  1.00  0.00    -0.203 F 
ATOM     78  F   UNL A   1      52.850  28.186  22.985  1.00  0.00    -0.200 F 
ATOM     79  C   UNL A   1      53.456  27.956  25.256  1.00  0.00     0.200 A 
ATOM     80  F   UNL A   1      54.012  27.710  27.537  1.00  0.00    -0.200 F 
ATOM     81  F   UNL A   1      54.747  27.844  24.914  1.00  0.00    -0.200 F 
ENDBRANCH  57  71
BRANCH  58  82
ATOM     82  C   UNL A   1      41.116  28.447  28.564  1.00  0.00     0.064 A 
ATOM     83  C   UNL A   1      40.127  28.925  27.692  1.00  0.00     0.173 A 
ATOM     84  C   UNL A   1      40.717  28.052  29.849  1.00  0.00     0.173 A 
ATOM     85  F   UNL A   1      40.465  29.349  26.465  1.00  0.00    -0.203 F 
ATOM     86  C   UNL A   1      38.797  29.024  28.096  1.00  0.00     0.198 A 
ATOM     87  C   UNL A   1      39.383  28.125  30.244  1.00  0.00     0.198 A 
ATOM     88  F   UNL A   1      41.625  27.595  30.723  1.00  0.00    -0.203 F 
ATOM     89  F   UNL A   1      37.881  29.534  27.263  1.00  0.00    -0.200 F 
ATOM     90  C   UNL A   1      38.426  28.619  29.370  1.00  0.00     0.200 A 
ATOM     91  F   UNL A   1      39.027  27.729  31.473  1.00  0.00    -0.200 F 
ATOM     92  F   UNL A   1      37.147  28.717  29.760  1.00  0.00    -0.200 F 
ENDBRANCH  58  82
BRANCH  70  93
ATOM     93  C   UNL A   1      46.333  33.049  28.924  1.00  0.00     0.064 A 
ATOM     94  C   UNL A   1      46.710  33.351  30.241  1.00  0.00     0.173 A 
ATOM     95  C   UNL A   1      46.045  34.119  28.063  1.00  0.00     0.173 A 
ATOM     96  F   UNL A   1      46.983  32.364  31.109  1.00  0.00    -0.203 F 
ATOM     97  C   UNL A   1      46.766  34.669  30.685  1.00  0.00     0.198 A 
ATOM     98  C   UNL A   1      46.132  35.438  28.502  1.00  0.00     0.198 A 
ATOM     99  F   UNL A   1      45.689  33.886  26.791  1.00  0.00    -0.203 F 
ATOM    100  F   UNL A   1      47.077  34.931  31.963  1.00  0.00    -0.200 F 
ATOM    101  C   UNL A   1      46.482  35.711  29.815  1.00  0.00     0.200 A 
ATOM    102  F   UNL A   1      45.873  36.443  27.655  1.00  0.00    -0.200 F 
ATOM    103  F   UNL A   1      46.540  36.980  30.244  1.00  0.00    -0.200 F 
ENDBRANCH  70  93
ENDBRANCH  44  45
ENDBRANCH  37  39
ENDBRANCH  36  37
ENDBRANCH  35  36
ENDBRANCH  34  35
ENDBRANCH  33  34
ENDBRANCH  32  33
ENDBRANCH   1  32
TORSDOF 21
ENDMDL
MODEL 3
REMARK VINA RESULT:     -10.2      3.874      7.864
REMARK SMILES COc1c[nH]c(C[N@H+]2CCC[C@@H](c3ccc(C(=O)OCCOCCOCCOC(=O)c4ccc(-c5c6nc(c(-c7c(F)c(F)c(F)c(F)c7F)c7ccc([nH]7)c(-c7c(F)c(F)c(F)c(F)c7F)c7nc(c(-c8c(F)c(F)c(F)c(F)c8F)c8ccc5[nH]8)C=C7)C=C6)cc4)cc3)C2)cc1=O
REMARK SMILES IDX 23 1 22 2 21 3 20 4 19 5 17 6 18 7 16 8 13 9 14 10 95 11
REMARK SMILES IDX 15 12 94 13 12 14 8 15 9 16 96 17 10 19 11 20 7 21 6 22 3 23
REMARK SMILES IDX 4 24 98 25 5 26 97 27 99 28 2 30 1 31 24 32 25 33 26 34
REMARK SMILES IDX 27 35 28 36 29 37 30 38 31 39 32 40 93 41 33 42 92 43 34 44
REMARK SMILES IDX 35 45 36 46 86 47 37 48 91 49 85 50 87 51 38 52 90 53 84 54
REMARK SMILES IDX 83 55 39 57 71 58 51 59 70 60 52 61 55 62 69 63 88 64 53 65
REMARK SMILES IDX 54 66 68 68 89 69 56 70 40 71 41 72 49 73 42 74 43 75 47 76
REMARK SMILES IDX 50 77 44 78 45 79 48 80 46 81 72 82 73 83 81 84 74 85 75 86
REMARK SMILES IDX 79 87 82 88 76 89 77 90 80 91 78 92 57 93 58 94 66 95 59 96
REMARK SMILES IDX 60 97 64 98 67 99 61 100 62 101 65 102 63 103
REMARK H PARENT 8 18 5 29 87 56 55 67
REMARK Flexibility Score: inf
ROOT
ATOM      1  C   UNL A   1      38.216  21.633  25.470  1.00  0.00     0.188 C 
ENDROOT
BRANCH   1   2
ATOM      2  O   UNL A   1      36.971  22.238  25.807  1.00  0.00    -0.376 OA
BRANCH   2   3
ATOM      3  C   UNL A   1      35.889  22.188  24.881  1.00  0.00     0.202 C 
BRANCH   3   4
ATOM      4  C   UNL A   1      34.854  21.061  25.002  1.00  0.00     0.261 C 
BRANCH   4   5
ATOM      5  O   UNL A   1      33.683  21.256  24.194  1.00  0.00    -0.460 OA
BRANCH   5   6
ATOM      6  C   UNL A   1      32.509  21.239  24.870  1.00  0.00     0.338 C 
ATOM      7  O   UNL A   1      31.950  20.268  25.352  1.00  0.00    -0.246 OA
BRANCH   6   8
ATOM      8  C   UNL A   1      32.056  22.618  25.143  1.00  0.00     0.060 A 
ATOM      9  C   UNL A   1      31.359  25.315  25.474  1.00  0.00    -0.039 A 
ATOM     10  C   UNL A   1      31.219  24.689  24.223  1.00  0.00     0.005 A 
ATOM     11  C   UNL A   1      31.755  24.540  26.577  1.00  0.00     0.005 A 
ATOM     12  C   UNL A   1      31.594  23.361  24.053  1.00  0.00     0.016 A 
ATOM     13  C   UNL A   1      32.094  23.189  26.418  1.00  0.00     0.016 A 
BRANCH   9  14
ATOM     14  C   UNL A   1      31.265  26.836  25.590  1.00  0.00     0.074 C 
ATOM     15  N   UNL A   1      32.743  28.817  26.182  1.00  0.00    -0.329 N 
ATOM     16  C   UNL A   1      32.388  29.467  24.914  1.00  0.00     0.262 C 
ATOM     17  C   UNL A   1      32.634  27.359  26.088  1.00  0.00     0.270 C 
ATOM     18  H   UNL A   1      32.062  29.125  26.876  1.00  0.00     0.348 HD
ATOM     19  C   UNL A   1      30.990  29.052  24.441  1.00  0.00     0.062 C 
ATOM     20  C   UNL A   1      30.873  27.534  24.282  1.00  0.00     0.020 C 
BRANCH  15  21
ATOM     21  C   UNL A   1      34.070  29.247  26.685  1.00  0.00     0.317 C 
BRANCH  21  22
ATOM     22  C   UNL A   1      34.112  30.518  27.536  1.00  0.00     0.074 A 
ATOM     23  C   UNL A   1      34.547  32.881  29.091  1.00  0.00     0.182 A 
ATOM     24  C   UNL A   1      35.235  31.747  29.282  1.00  0.00     0.133 A 
ATOM     25  C   UNL A   1      33.447  32.822  28.062  1.00  0.00     0.223 A 
ATOM     26  N   UNL A   1      34.996  30.586  28.599  1.00  0.00    -0.357 N 
ATOM     27  C   UNL A   1      33.312  31.566  27.265  1.00  0.00     0.083 A 
ATOM     28  O   UNL A   1      32.685  33.758  27.839  1.00  0.00    -0.286 OA
ATOM     29  H   UNL A   1      35.470  29.768  28.874  1.00  0.00     0.166 HD
BRANCH  23  30
ATOM     30  O   UNL A   1      34.908  34.038  29.756  1.00  0.00    -0.491 OA
ATOM     31  C   UNL A   1      35.661  33.797  30.939  1.00  0.00     0.278 C 
ENDBRANCH  23  30
ENDBRANCH  21  22
ENDBRANCH  15  21
ENDBRANCH   9  14
ENDBRANCH   6   8
ENDBRANCH   5   6
ENDBRANCH   4   5
ENDBRANCH   3   4
ENDBRANCH   2   3
ENDBRANCH   1   2
BRANCH   1  32
ATOM     32  C   UNL A   1      39.497  22.030  26.235  1.00  0.00     0.188 C 
BRANCH  32  33
ATOM     33  O   UNL A   1      40.079  20.964  26.950  1.00  0.00    -0.376 OA
BRANCH  33  34
ATOM     34  C   UNL A   1      40.948  20.069  26.283  1.00  0.00     0.202 C 
BRANCH  34  35
ATOM     35  C   UNL A   1      42.386  20.440  25.874  1.00  0.00     0.261 C 
BRANCH  35  36
ATOM     36  O   UNL A   1      43.258  19.382  25.460  1.00  0.00    -0.460 OA
BRANCH  36  37
ATOM     37  C   UNL A   1      44.221  19.704  24.568  1.00  0.00     0.338 C 
ATOM     38  O   UNL A   1      44.573  19.065  23.597  1.00  0.00    -0.246 OA
BRANCH  37  39
ATOM     39  C   UNL A   1      44.695  21.071  24.874  1.00  0.00     0.060 A 
ATOM     40  C   UNL A   1      45.311  21.303  26.109  1.00  0.00     0.016 A 
ATOM     41  C   UNL A   1      44.489  22.120  23.974  1.00  0.00     0.016 A 
ATOM     42  C   UNL A   1      45.676  22.599  26.471  1.00  0.00     0.010 A 
ATOM     43  C   UNL A   1      44.843  23.422  24.344  1.00  0.00     0.010 A 
ATOM     44  C   UNL A   1      45.400  23.672  25.611  1.00  0.00    -0.014 A 
BRANCH  44  45
ATOM     45  C   UNL A   1      45.501  25.059  26.127  1.00  0.00     0.031 A 
ATOM     46  C   UNL A   1      46.832  25.757  26.046  1.00  0.00     0.074 A 
ATOM     47  C   UNL A   1      44.430  25.706  26.617  1.00  0.00     0.049 A 
ATOM     48  N   UNL A   1      47.164  26.968  26.416  1.00  0.00    -0.248 NA
ATOM     49  C   UNL A   1      47.941  24.981  25.466  1.00  0.00     0.031 C 
ATOM     50  C   UNL A   1      43.083  25.152  26.721  1.00  0.00     0.029 A 
ATOM     51  N   UNL A   1      44.314  26.978  27.120  1.00  0.00    -0.354 N 
ATOM     52  C   UNL A   1      48.513  27.098  26.114  1.00  0.00     0.074 A 
ATOM     53  C   UNL A   1      48.949  25.834  25.563  1.00  0.00     0.031 C 
ATOM     54  C   UNL A   1      42.272  26.081  27.261  1.00  0.00     0.029 A 
ATOM     55  C   UNL A   1      43.050  27.283  27.560  1.00  0.00     0.049 A 
ATOM     56  H   UNL A   1      45.066  27.612  27.161  1.00  0.00     0.167 HD
ATOM     57  C   UNL A   1      49.314  28.179  26.267  1.00  0.00     0.037 A 
ATOM     58  C   UNL A   1      42.582  28.401  28.148  1.00  0.00     0.037 A 
ATOM     59  C   UNL A   1      48.885  29.436  26.819  1.00  0.00     0.049 A 
ATOM     60  C   UNL A   1      43.511  29.568  28.369  1.00  0.00     0.074 A 
ATOM     61  C   UNL A   1      49.619  30.595  27.003  1.00  0.00     0.029 A 
ATOM     62  N   UNL A   1      47.606  29.695  27.287  1.00  0.00    -0.354 N 
ATOM     63  N   UNL A   1      44.777  29.695  28.051  1.00  0.00    -0.248 NA
ATOM     64  C   UNL A   1      42.941  30.752  29.028  1.00  0.00     0.031 C 
ATOM     65  C   UNL A   1      48.796  31.539  27.626  1.00  0.00     0.029 A 
ATOM     66  C   UNL A   1      47.535  30.987  27.782  1.00  0.00     0.049 A 
ATOM     67  H   UNL A   1      46.858  29.054  27.270  1.00  0.00     0.167 HD
ATOM     68  C   UNL A   1      45.145  30.976  28.442  1.00  0.00     0.074 A 
ATOM     69  C   UNL A   1      43.965  31.594  29.008  1.00  0.00     0.031 C 
ATOM     70  C   UNL A   1      46.351  31.588  28.342  1.00  0.00     0.037 A 
BRANCH  57  71
ATOM     71  C   UNL A   1      50.748  28.036  25.849  1.00  0.00     0.064 A 
ATOM     72  C   UNL A   1      51.138  28.145  24.506  1.00  0.00     0.173 A 
ATOM     73  C   UNL A   1      51.747  27.805  26.807  1.00  0.00     0.173 A 
ATOM     74  F   UNL A   1      50.219  28.349  23.550  1.00  0.00    -0.203 F 
ATOM     75  C   UNL A   1      52.472  28.003  24.134  1.00  0.00     0.198 A 
ATOM     76  C   UNL A   1      53.084  27.692  26.434  1.00  0.00     0.198 A 
ATOM     77  F   UNL A   1      51.427  27.693  28.105  1.00  0.00    -0.203 F 
ATOM     78  F   UNL A   1      52.816  28.062  22.839  1.00  0.00    -0.200 F 
ATOM     79  C   UNL A   1      53.444  27.783  25.099  1.00  0.00     0.200 A 
ATOM     80  F   UNL A   1      54.023  27.488  27.368  1.00  0.00    -0.200 F 
ATOM     81  F   UNL A   1      54.729  27.650  24.739  1.00  0.00    -0.200 F 
ENDBRANCH  57  71
BRANCH  58  82
ATOM     82  C   UNL A   1      41.161  28.477  28.579  1.00  0.00     0.064 A 
ATOM     83  C   UNL A   1      40.764  28.029  29.847  1.00  0.00     0.173 A 
ATOM     84  C   UNL A   1      40.168  28.968  27.719  1.00  0.00     0.173 A 
ATOM     85  F   UNL A   1      41.671  27.518  30.691  1.00  0.00    -0.203 F 
ATOM     86  C   UNL A   1      39.424  28.051  30.230  1.00  0.00     0.198 A 
ATOM     87  C   UNL A   1      38.833  29.015  28.113  1.00  0.00     0.198 A 
ATOM     88  F   UNL A   1      40.496  29.402  26.493  1.00  0.00    -0.203 F 
ATOM     89  F   UNL A   1      39.062  27.568  31.426  1.00  0.00    -0.200 F 
ATOM     90  C   UNL A   1      38.461  28.549  29.364  1.00  0.00     0.200 A 
ATOM     91  F   UNL A   1      37.906  29.501  27.277  1.00  0.00    -0.200 F 
ATOM     92  F   UNL A   1      37.172  28.567  29.732  1.00  0.00    -0.200 F 
ENDBRANCH  58  82
BRANCH  70  93
ATOM     93  C   UNL A   1      46.447  33.007  28.825  1.00  0.00     0.064 A 
ATOM     94  C   UNL A   1      46.818  33.314  30.144  1.00  0.00     0.173 A 
ATOM     95  C   UNL A   1      46.193  34.075  27.951  1.00  0.00     0.173 A 
ATOM     96  F   UNL A   1      47.060  32.329  31.023  1.00  0.00    -0.203 F 
ATOM     97  C   UNL A   1      46.899  34.635  30.575  1.00  0.00     0.198 A 
ATOM     98  C   UNL A   1      46.306  35.396  28.378  1.00  0.00     0.198 A 
ATOM     99  F   UNL A   1      45.845  33.838  26.677  1.00  0.00    -0.203 F 
ATOM    100  F   UNL A   1      47.203  34.901  31.853  1.00  0.00    -0.200 F 
ATOM    101  C   UNL A   1      46.648  35.674  29.692  1.00  0.00     0.200 A 
ATOM    102  F   UNL A   1      46.078  36.399  27.519  1.00  0.00    -0.200 F 
ATOM    103  F   UNL A   1      46.731  36.945  30.109  1.00  0.00    -0.200 F 
ENDBRANCH  70  93
ENDBRANCH  44  45
ENDBRANCH  37  39
ENDBRANCH  36  37
ENDBRANCH  35  36
ENDBRANCH  34  35
ENDBRANCH  33  34
ENDBRANCH  32  33
ENDBRANCH   1  32
TORSDOF 21
ENDMDL
