MODEL 1
REMARK VINA RESULT:     -11.1      0.000      0.000
REMARK SMILES O=C(OCCOCCOCCOC(=O)c1cn(C2CN(C(=O)Nc3ccsc3)C2)nn1)c1ccc(-c2c3nc(c(-c4c(F)c(F)c(F)c(F)c4F)c4ccc([nH]4)c(-c4c(F)c(F)c(F)c(F)c4F)c4nc(c(-c5c(F)c(F)c(F)c(F)c5F)c5ccc2[nH]5)C=C4)C=C3)cc1
REMARK SMILES IDX 7 1 6 2 5 3 4 4 3 5 2 6 1 7 32 8 33 9 94 10 34 11 93 12
REMARK SMILES IDX 35 13 36 14 37 15 87 16 38 17 92 18 86 19 88 20 39 21 91 22
REMARK SMILES IDX 85 23 84 24 40 26 72 27 52 28 71 29 53 30 56 31 70 32 89 33
REMARK SMILES IDX 54 34 55 35 69 37 90 38 57 39 41 40 42 41 50 42 43 43 44 44
REMARK SMILES IDX 48 45 51 46 45 47 46 48 49 49 47 50 73 51 74 52 82 53 75 54
REMARK SMILES IDX 76 55 80 56 83 57 77 58 78 59 81 60 79 61 58 62 59 63 67 64
REMARK SMILES IDX 60 65 61 66 65 67 68 68 62 69 63 70 66 71 64 72 8 73 9 74
REMARK SMILES IDX 10 75 11 76 12 77 13 78 14 79 15 80 16 81 31 82 17 83 30 84
REMARK SMILES IDX 18 85 19 86 29 87 20 88 21 89 22 90 23 91 24 93 25 94 28 95
REMARK SMILES IDX 26 96 27 97
REMARK H PARENT 88 25 56 36 23 92
REMARK Flexibility Score: inf
ROOT
ATOM      1  C   UNL A   1      39.249  21.144  26.109  1.00  0.00     0.188 C 
ENDROOT
BRANCH   1   2
ATOM      2  O   UNL A   1      39.827  19.894  25.784  1.00  0.00    -0.376 OA
BRANCH   2   3
ATOM      3  C   UNL A   1      41.094  19.568  26.319  1.00  0.00     0.202 C 
BRANCH   3   4
ATOM      4  C   UNL A   1      41.938  20.696  26.926  1.00  0.00     0.261 C 
BRANCH   4   5
ATOM      5  O   UNL A   1      42.744  21.438  26.003  1.00  0.00    -0.460 OA
BRANCH   5   6
ATOM      6  C   UNL A   1      42.632  22.721  25.612  1.00  0.00     0.338 C 
ATOM      7  O   UNL A   1      43.146  23.086  24.559  1.00  0.00    -0.246 OA
BRANCH   6   8
ATOM      8  C   UNL A   1      42.092  23.768  26.514  1.00  0.00     0.060 A 
ATOM      9  C   UNL A   1      41.095  24.685  26.177  1.00  0.00     0.016 A 
ATOM     10  C   UNL A   1      42.727  23.863  27.768  1.00  0.00     0.016 A 
ATOM     11  C   UNL A   1      40.864  25.779  26.990  1.00  0.00     0.010 A 
ATOM     12  C   UNL A   1      42.495  24.950  28.590  1.00  0.00     0.010 A 
ATOM     13  C   UNL A   1      41.649  25.951  28.127  1.00  0.00    -0.014 A 
BRANCH  13  14
ATOM     14  C   UNL A   1      41.686  27.286  28.700  1.00  0.00     0.031 A 
ATOM     15  C   UNL A   1      42.858  28.123  28.341  1.00  0.00     0.074 A 
ATOM     16  C   UNL A   1      40.660  27.682  29.481  1.00  0.00     0.049 A 
ATOM     17  N   UNL A   1      43.703  28.710  29.129  1.00  0.00    -0.248 NA
ATOM     18  C   UNL A   1      43.185  28.245  26.911  1.00  0.00     0.031 C 
ATOM     19  C   UNL A   1      39.382  26.994  29.711  1.00  0.00     0.029 A 
ATOM     20  N   UNL A   1      40.496  28.847  30.159  1.00  0.00    -0.354 N 
ATOM     21  C   UNL A   1      44.561  29.425  28.296  1.00  0.00     0.074 A 
ATOM     22  C   UNL A   1      44.283  28.999  26.949  1.00  0.00     0.031 C 
ATOM     23  C   UNL A   1      38.499  27.859  30.253  1.00  0.00     0.029 A 
ATOM     24  C   UNL A   1      39.185  29.106  30.526  1.00  0.00     0.049 A 
ATOM     25  H   UNL A   1      41.243  29.454  30.372  1.00  0.00     0.167 HD
ATOM     26  C   UNL A   1      45.278  30.489  28.748  1.00  0.00     0.037 A 
ATOM     27  C   UNL A   1      38.691  30.308  30.906  1.00  0.00     0.037 A 
ATOM     28  C   UNL A   1      45.472  30.446  30.171  1.00  0.00     0.049 A 
ATOM     29  C   UNL A   1      39.844  31.143  31.329  1.00  0.00     0.074 A 
ATOM     30  C   UNL A   1      46.109  29.576  31.033  1.00  0.00     0.029 A 
ATOM     31  N   UNL A   1      44.684  31.237  30.968  1.00  0.00    -0.354 N 
ATOM     32  N   UNL A   1      40.568  30.891  32.386  1.00  0.00    -0.248 NA
ATOM     33  C   UNL A   1      40.485  31.973  30.317  1.00  0.00     0.031 C 
ATOM     34  C   UNL A   1      45.301  29.559  32.208  1.00  0.00     0.029 A 
ATOM     35  C   UNL A   1      44.249  30.452  32.005  1.00  0.00     0.049 A 
ATOM     36  H   UNL A   1      44.470  32.188  30.824  1.00  0.00     0.167 HD
ATOM     37  C   UNL A   1      41.872  31.182  32.005  1.00  0.00     0.074 A 
ATOM     38  C   UNL A   1      41.749  31.908  30.745  1.00  0.00     0.031 C 
ATOM     39  C   UNL A   1      42.937  30.559  32.592  1.00  0.00     0.037 A 
BRANCH  26  40
ATOM     40  C   UNL A   1      45.492  31.740  27.934  1.00  0.00     0.064 A 
ATOM     41  C   UNL A   1      46.799  32.172  27.644  1.00  0.00     0.173 A 
ATOM     42  C   UNL A   1      44.467  32.682  27.690  1.00  0.00     0.173 A 
ATOM     43  F   UNL A   1      47.849  31.368  27.866  1.00  0.00    -0.203 F 
ATOM     44  C   UNL A   1      47.063  33.473  27.205  1.00  0.00     0.198 A 
ATOM     45  C   UNL A   1      44.728  33.959  27.201  1.00  0.00     0.198 A 
ATOM     46  F   UNL A   1      43.192  32.446  28.021  1.00  0.00    -0.203 F 
ATOM     47  F   UNL A   1      48.330  33.881  27.055  1.00  0.00    -0.200 F 
ATOM     48  C   UNL A   1      46.028  34.366  26.988  1.00  0.00     0.200 A 
ATOM     49  F   UNL A   1      43.713  34.815  27.019  1.00  0.00    -0.200 F 
ATOM     50  F   UNL A   1      46.282  35.630  26.626  1.00  0.00    -0.200 F 
ENDBRANCH  26  40
BRANCH  27  51
ATOM     51  C   UNL A   1      37.372  30.862  30.514  1.00  0.00     0.064 A 
ATOM     52  C   UNL A   1      36.443  31.283  31.476  1.00  0.00     0.173 A 
ATOM     53  C   UNL A   1      37.088  31.210  29.176  1.00  0.00     0.173 A 
ATOM     54  F   UNL A   1      36.667  31.044  32.776  1.00  0.00    -0.203 F 
ATOM     55  C   UNL A   1      35.299  32.007  31.120  1.00  0.00     0.198 A 
ATOM     56  C   UNL A   1      35.942  31.920  28.821  1.00  0.00     0.198 A 
ATOM     57  F   UNL A   1      37.960  30.947  28.193  1.00  0.00    -0.203 F 
ATOM     58  F   UNL A   1      34.458  32.438  32.071  1.00  0.00    -0.200 F 
ATOM     59  C   UNL A   1      35.051  32.328  29.794  1.00  0.00     0.200 A 
ATOM     60  F   UNL A   1      35.738  32.255  27.538  1.00  0.00    -0.200 F 
ATOM     61  F   UNL A   1      33.982  33.063  29.459  1.00  0.00    -0.200 F 
ENDBRANCH  27  51
BRANCH  39  62
ATOM     62  C   UNL A   1      42.660  29.699  33.794  1.00  0.00     0.064 A 
ATOM     63  C   UNL A   1      42.259  28.355  33.702  1.00  0.00     0.173 A 
ATOM     64  C   UNL A   1      42.963  30.193  35.068  1.00  0.00     0.173 A 
ATOM     65  F   UNL A   1      42.068  27.777  32.510  1.00  0.00    -0.203 F 
ATOM     66  C   UNL A   1      42.118  27.558  34.836  1.00  0.00     0.198 A 
ATOM     67  C   UNL A   1      42.856  29.386  36.198  1.00  0.00     0.198 A 
ATOM     68  F   UNL A   1      43.419  31.447  35.211  1.00  0.00    -0.203 F 
ATOM     69  F   UNL A   1      41.729  26.280  34.718  1.00  0.00    -0.200 F 
ATOM     70  C   UNL A   1      42.422  28.074  36.085  1.00  0.00     0.200 A 
ATOM     71  F   UNL A   1      43.206  29.871  37.398  1.00  0.00    -0.200 F 
ATOM     72  F   UNL A   1      42.333  27.297  37.173  1.00  0.00    -0.200 F 
ENDBRANCH  39  62
ENDBRANCH  13  14
ENDBRANCH   6   8
ENDBRANCH   5   6
ENDBRANCH   4   5
ENDBRANCH   3   4
ENDBRANCH   2   3
ENDBRANCH   1   2
BRANCH   1  73
ATOM     73  C   UNL A   1      38.055  21.570  25.217  1.00  0.00     0.188 C 
BRANCH  73  74
ATOM     74  O   UNL A   1      36.710  21.161  25.456  1.00  0.00    -0.376 OA
BRANCH  74  75
ATOM     75  C   UNL A   1      36.247  19.890  25.040  1.00  0.00     0.202 C 
BRANCH  75  76
ATOM     76  C   UNL A   1      34.732  19.785  24.809  1.00  0.00     0.261 C 
BRANCH  76  77
ATOM     77  O   UNL A   1      33.975  20.914  25.272  1.00  0.00    -0.458 OA
BRANCH  77  78
ATOM     78  C   UNL A   1      32.962  21.322  24.454  1.00  0.00     0.360 C 
ATOM     79  O   UNL A   1      31.840  20.844  24.423  1.00  0.00    -0.244 OA
BRANCH  78  80
ATOM     80  C   UNL A   1      33.355  22.463  23.646  1.00  0.00     0.190 A 
ATOM     81  C   UNL A   1      32.558  23.377  22.983  1.00  0.00     0.147 A 
ATOM     82  N   UNL A   1      34.674  22.797  23.449  1.00  0.00    -0.123 NA
ATOM     83  N   UNL A   1      33.454  24.307  22.526  1.00  0.00    -0.245 N 
ATOM     84  N   UNL A   1      34.720  23.883  22.696  1.00  0.00    -0.066 NA
BRANCH  83  85
ATOM     85  C   UNL A   1      33.217  25.689  22.248  1.00  0.00     0.148 C 
ATOM     86  C   UNL A   1      31.871  26.120  21.664  1.00  0.00     0.150 C 
ATOM     87  C   UNL A   1      32.759  26.380  23.552  1.00  0.00     0.150 C 
ATOM     88  N   UNL A   1      31.861  27.142  22.718  1.00  0.00    -0.320 N 
ATOM     89  C   UNL A   1      30.906  28.082  22.923  1.00  0.00     0.322 C 
ATOM     90  O   UNL A   1      30.064  28.320  22.051  1.00  0.00    -0.248 OA
ATOM     91  N   UNL A   1      30.751  28.673  24.138  1.00  0.00    -0.307 N 
ATOM     92  H   UNL A   1      29.868  29.088  24.272  1.00  0.00     0.171 HD
BRANCH  91  93
ATOM     93  C   UNL A   1      31.602  28.800  25.221  1.00  0.00     0.053 A 
ATOM     94  C   UNL A   1      31.580  28.083  26.452  1.00  0.00     0.038 A 
ATOM     95  C   UNL A   1      32.693  29.644  25.171  1.00  0.00     0.091 A 
ATOM     96  C   UNL A   1      32.510  28.550  27.357  1.00  0.00     0.067 A 
ATOM     97  S   UNL A   1      33.517  29.745  26.668  1.00  0.00    -0.150 S 
ENDBRANCH  91  93
ENDBRANCH  83  85
ENDBRANCH  78  80
ENDBRANCH  77  78
ENDBRANCH  76  77
ENDBRANCH  75  76
ENDBRANCH  74  75
ENDBRANCH  73  74
ENDBRANCH   1  73
TORSDOF 19
ENDMDL
MODEL 2
REMARK VINA RESULT:     -11.0      4.439      7.659
REMARK SMILES O=C(OCCOCCOCCOC(=O)c1cn(C2CN(C(=O)Nc3ccsc3)C2)nn1)c1ccc(-c2c3nc(c(-c4c(F)c(F)c(F)c(F)c4F)c4ccc([nH]4)c(-c4c(F)c(F)c(F)c(F)c4F)c4nc(c(-c5c(F)c(F)c(F)c(F)c5F)c5ccc2[nH]5)C=C4)C=C3)cc1
REMARK SMILES IDX 7 1 6 2 5 3 4 4 3 5 2 6 1 7 32 8 33 9 94 10 34 11 93 12
REMARK SMILES IDX 35 13 36 14 37 15 87 16 38 17 92 18 86 19 88 20 39 21 91 22
REMARK SMILES IDX 85 23 84 24 40 26 72 27 52 28 71 29 53 30 56 31 70 32 89 33
REMARK SMILES IDX 54 34 55 35 69 37 90 38 57 39 41 40 42 41 50 42 43 43 44 44
REMARK SMILES IDX 48 45 51 46 45 47 46 48 49 49 47 50 73 51 74 52 82 53 75 54
REMARK SMILES IDX 76 55 80 56 83 57 77 58 78 59 81 60 79 61 58 62 59 63 67 64
REMARK SMILES IDX 60 65 61 66 65 67 68 68 62 69 63 70 66 71 64 72 8 73 9 74
REMARK SMILES IDX 10 75 11 76 12 77 13 78 14 79 15 80 16 81 31 82 17 83 30 84
REMARK SMILES IDX 18 85 19 86 29 87 20 88 21 89 22 90 23 91 24 93 25 94 28 95
REMARK SMILES IDX 26 96 27 97
REMARK H PARENT 88 25 56 36 23 92
REMARK Flexibility Score: inf
ROOT
ATOM      1  C   UNL A   1      43.664  18.837  25.161  1.00  0.00     0.188 C 
ENDROOT
BRANCH   1   2
ATOM      2  O   UNL A   1      42.349  18.918  25.677  1.00  0.00    -0.376 OA
BRANCH   2   3
ATOM      3  C   UNL A   1      41.873  20.165  26.143  1.00  0.00     0.202 C 
BRANCH   3   4
ATOM      4  C   UNL A   1      40.389  20.283  26.514  1.00  0.00     0.261 C 
BRANCH   4   5
ATOM      5  O   UNL A   1      40.028  21.437  27.281  1.00  0.00    -0.460 OA
BRANCH   5   6
ATOM      6  C   UNL A   1      39.584  22.636  26.860  1.00  0.00     0.338 C 
ATOM      7  O   UNL A   1      38.651  22.698  26.065  1.00  0.00    -0.246 OA
BRANCH   6   8
ATOM      8  C   UNL A   1      40.321  23.889  27.155  1.00  0.00     0.060 A 
ATOM      9  C   UNL A   1      41.259  24.051  28.177  1.00  0.00     0.016 A 
ATOM     10  C   UNL A   1      39.948  25.000  26.374  1.00  0.00     0.016 A 
ATOM     11  C   UNL A   1      41.677  25.321  28.531  1.00  0.00     0.010 A 
ATOM     12  C   UNL A   1      40.369  26.271  26.717  1.00  0.00     0.010 A 
ATOM     13  C   UNL A   1      41.136  26.418  27.867  1.00  0.00    -0.014 A 
BRANCH  13  14
ATOM     14  C   UNL A   1      41.252  27.705  28.530  1.00  0.00     0.031 A 
ATOM     15  C   UNL A   1      42.462  28.503  28.212  1.00  0.00     0.074 A 
ATOM     16  C   UNL A   1      40.259  28.100  29.353  1.00  0.00     0.049 A 
ATOM     17  N   UNL A   1      43.348  28.987  29.024  1.00  0.00    -0.248 NA
ATOM     18  C   UNL A   1      42.778  28.706  26.789  1.00  0.00     0.031 C 
ATOM     19  C   UNL A   1      38.948  27.465  29.557  1.00  0.00     0.029 A 
ATOM     20  N   UNL A   1      40.166  29.221  30.113  1.00  0.00    -0.354 N 
ATOM     21  C   UNL A   1      44.233  29.713  28.229  1.00  0.00     0.074 A 
ATOM     22  C   UNL A   1      43.915  29.397  26.861  1.00  0.00     0.031 C 
ATOM     23  C   UNL A   1      38.120  28.335  30.171  1.00  0.00     0.029 A 
ATOM     24  C   UNL A   1      38.875  29.522  30.518  1.00  0.00     0.049 A 
ATOM     25  H   UNL A   1      40.947  29.772  30.355  1.00  0.00     0.167 HD
ATOM     26  C   UNL A   1      45.011  30.704  28.742  1.00  0.00     0.037 A 
ATOM     27  C   UNL A   1      38.451  30.720  30.988  1.00  0.00     0.037 A 
ATOM     28  C   UNL A   1      45.220  30.551  30.155  1.00  0.00     0.049 A 
ATOM     29  C   UNL A   1      39.653  31.461  31.450  1.00  0.00     0.074 A 
ATOM     30  C   UNL A   1      45.820  29.590  30.945  1.00  0.00     0.029 A 
ATOM     31  N   UNL A   1      44.486  31.325  31.018  1.00  0.00    -0.354 N 
ATOM     32  N   UNL A   1      40.375  31.098  32.475  1.00  0.00    -0.248 NA
ATOM     33  C   UNL A   1      40.325  32.324  30.487  1.00  0.00     0.031 C 
ATOM     34  C   UNL A   1      45.028  29.535  32.128  1.00  0.00     0.029 A 
ATOM     35  C   UNL A   1      44.023  30.493  32.004  1.00  0.00     0.049 A 
ATOM     36  H   UNL A   1      44.322  32.293  30.943  1.00  0.00     0.167 HD
ATOM     37  C   UNL A   1      41.688  31.345  32.094  1.00  0.00     0.074 A 
ATOM     38  C   UNL A   1      41.589  32.164  30.889  1.00  0.00     0.031 C 
ATOM     39  C   UNL A   1      42.725  30.628  32.619  1.00  0.00     0.037 A 
BRANCH  26  40
ATOM     40  C   UNL A   1      45.282  31.995  28.013  1.00  0.00     0.064 A 
ATOM     41  C   UNL A   1      44.210  32.833  27.652  1.00  0.00     0.173 A 
ATOM     42  C   UNL A   1      46.520  32.285  27.396  1.00  0.00     0.173 A 
ATOM     43  F   UNL A   1      42.984  32.628  28.155  1.00  0.00    -0.203 F 
ATOM     44  C   UNL A   1      44.358  33.844  26.696  1.00  0.00     0.198 A 
ATOM     45  C   UNL A   1      46.675  33.326  26.486  1.00  0.00     0.198 A 
ATOM     46  F   UNL A   1      47.595  31.506  27.563  1.00  0.00    -0.203 F 
ATOM     47  F   UNL A   1      43.286  34.540  26.294  1.00  0.00    -0.200 F 
ATOM     48  C   UNL A   1      45.588  34.086  26.111  1.00  0.00     0.200 A 
ATOM     49  F   UNL A   1      47.871  33.530  25.916  1.00  0.00    -0.200 F 
ATOM     50  F   UNL A   1      45.717  35.012  25.153  1.00  0.00    -0.200 F 
ENDBRANCH  26  40
BRANCH  27  51
ATOM     51  C   UNL A   1      37.159  31.369  30.657  1.00  0.00     0.064 A 
ATOM     52  C   UNL A   1      36.229  31.691  31.655  1.00  0.00     0.173 A 
ATOM     53  C   UNL A   1      36.911  31.902  29.374  1.00  0.00     0.173 A 
ATOM     54  F   UNL A   1      36.420  31.272  32.914  1.00  0.00    -0.203 F 
ATOM     55  C   UNL A   1      35.116  32.497  31.384  1.00  0.00     0.198 A 
ATOM     56  C   UNL A   1      35.797  32.695  29.102  1.00  0.00     0.198 A 
ATOM     57  F   UNL A   1      37.792  31.742  28.376  1.00  0.00    -0.203 F 
ATOM     58  F   UNL A   1      34.274  32.827  32.373  1.00  0.00    -0.200 F 
ATOM     59  C   UNL A   1      34.903  33.001  30.109  1.00  0.00     0.200 A 
ATOM     60  F   UNL A   1      35.628  33.205  27.874  1.00  0.00    -0.200 F 
ATOM     61  F   UNL A   1      33.866  33.812  29.862  1.00  0.00    -0.200 F 
ENDBRANCH  27  51
BRANCH  39  62
ATOM     62  C   UNL A   1      42.418  29.702  33.763  1.00  0.00     0.064 A 
ATOM     63  C   UNL A   1      41.953  28.387  33.584  1.00  0.00     0.173 A 
ATOM     64  C   UNL A   1      42.753  30.094  35.064  1.00  0.00     0.173 A 
ATOM     65  F   UNL A   1      41.726  27.902  32.358  1.00  0.00    -0.203 F 
ATOM     66  C   UNL A   1      41.784  27.523  34.664  1.00  0.00     0.198 A 
ATOM     67  C   UNL A   1      42.617  29.218  36.138  1.00  0.00     0.198 A 
ATOM     68  F   UNL A   1      43.269  31.313  35.286  1.00  0.00    -0.203 F 
ATOM     69  F   UNL A   1      41.335  26.275  34.464  1.00  0.00    -0.200 F 
ATOM     70  C   UNL A   1      42.121  27.938  35.941  1.00  0.00     0.200 A 
ATOM     71  F   UNL A   1      42.998  29.603  37.364  1.00  0.00    -0.200 F 
ATOM     72  F   UNL A   1      42.004  27.093  36.975  1.00  0.00    -0.200 F 
ENDBRANCH  39  62
ENDBRANCH  13  14
ENDBRANCH   6   8
ENDBRANCH   5   6
ENDBRANCH   4   5
ENDBRANCH   3   4
ENDBRANCH   2   3
ENDBRANCH   1   2
BRANCH   1  73
ATOM     73  C   UNL A   1      44.355  20.201  24.903  1.00  0.00     0.188 C 
BRANCH  73  74
ATOM     74  O   UNL A   1      45.723  20.329  24.517  1.00  0.00    -0.376 OA
BRANCH  74  75
ATOM     75  C   UNL A   1      46.408  21.559  24.653  1.00  0.00     0.202 C 
BRANCH  75  76
ATOM     76  C   UNL A   1      45.566  22.726  25.191  1.00  0.00     0.261 C 
BRANCH  76  77
ATOM     77  O   UNL A   1      45.728  23.961  24.478  1.00  0.00    -0.458 OA
BRANCH  77  78
ATOM     78  C   UNL A   1      46.749  24.760  24.906  1.00  0.00     0.360 C 
ATOM     79  O   UNL A   1      47.606  25.257  24.194  1.00  0.00    -0.244 OA
BRANCH  78  80
ATOM     80  C   UNL A   1      46.664  25.017  26.333  1.00  0.00     0.190 A 
ATOM     81  C   UNL A   1      45.753  25.790  27.026  1.00  0.00     0.147 A 
ATOM     82  N   UNL A   1      47.545  24.457  27.228  1.00  0.00    -0.123 NA
ATOM     83  N   UNL A   1      46.059  25.542  28.338  1.00  0.00    -0.245 N 
ATOM     84  N   UNL A   1      47.209  24.852  28.445  1.00  0.00    -0.066 NA
BRANCH  83  85
ATOM     85  C   UNL A   1      45.189  25.619  29.469  1.00  0.00     0.148 C 
ATOM     86  C   UNL A   1      44.531  24.345  30.002  1.00  0.00     0.150 C 
ATOM     87  C   UNL A   1      46.049  25.592  30.753  1.00  0.00     0.150 C 
ATOM     88  N   UNL A   1      44.998  24.784  31.323  1.00  0.00    -0.320 N 
ATOM     89  C   UNL A   1      44.791  24.151  32.505  1.00  0.00     0.322 C 
ATOM     90  O   UNL A   1      43.945  23.257  32.595  1.00  0.00    -0.248 OA
ATOM     91  N   UNL A   1      45.605  24.371  33.572  1.00  0.00    -0.307 N 
ATOM     92  H   UNL A   1      45.572  23.661  34.253  1.00  0.00     0.171 HD
BRANCH  91  93
ATOM     93  C   UNL A   1      46.471  25.405  33.878  1.00  0.00     0.053 A 
ATOM     94  C   UNL A   1      46.154  26.728  34.300  1.00  0.00     0.038 A 
ATOM     95  C   UNL A   1      47.837  25.208  33.886  1.00  0.00     0.091 A 
ATOM     96  C   UNL A   1      47.267  27.535  34.405  1.00  0.00     0.067 A 
ATOM     97  S   UNL A   1      48.710  26.656  34.154  1.00  0.00    -0.150 S 
ENDBRANCH  91  93
ENDBRANCH  83  85
ENDBRANCH  78  80
ENDBRANCH  77  78
ENDBRANCH  76  77
ENDBRANCH  75  76
ENDBRANCH  74  75
ENDBRANCH  73  74
ENDBRANCH   1  73
TORSDOF 19
ENDMDL
MODEL 3
REMARK VINA RESULT:     -10.8      2.732      4.207
REMARK SMILES O=C(OCCOCCOCCOC(=O)c1cn(C2CN(C(=O)Nc3ccsc3)C2)nn1)c1ccc(-c2c3nc(c(-c4c(F)c(F)c(F)c(F)c4F)c4ccc([nH]4)c(-c4c(F)c(F)c(F)c(F)c4F)c4nc(c(-c5c(F)c(F)c(F)c(F)c5F)c5ccc2[nH]5)C=C4)C=C3)cc1
REMARK SMILES IDX 7 1 6 2 5 3 4 4 3 5 2 6 1 7 32 8 33 9 94 10 34 11 93 12
REMARK SMILES IDX 35 13 36 14 37 15 87 16 38 17 92 18 86 19 88 20 39 21 91 22
REMARK SMILES IDX 85 23 84 24 40 26 72 27 52 28 71 29 53 30 56 31 70 32 89 33
REMARK SMILES IDX 54 34 55 35 69 37 90 38 57 39 41 40 42 41 50 42 43 43 44 44
REMARK SMILES IDX 48 45 51 46 45 47 46 48 49 49 47 50 73 51 74 52 82 53 75 54
REMARK SMILES IDX 76 55 80 56 83 57 77 58 78 59 81 60 79 61 58 62 59 63 67 64
REMARK SMILES IDX 60 65 61 66 65 67 68 68 62 69 63 70 66 71 64 72 8 73 9 74
REMARK SMILES IDX 10 75 11 76 12 77 13 78 14 79 15 80 16 81 31 82 17 83 30 84
REMARK SMILES IDX 18 85 19 86 29 87 20 88 21 89 22 90 23 91 24 93 25 94 28 95
REMARK SMILES IDX 26 96 27 97
REMARK H PARENT 88 25 56 36 23 92
REMARK Flexibility Score: inf
ROOT
ATOM      1  C   UNL A   1      44.588  21.454  25.064  1.00  0.00     0.188 C 
ENDROOT
BRANCH   1   2
ATOM      2  O   UNL A   1      45.328  22.588  25.476  1.00  0.00    -0.376 OA
BRANCH   2   3
ATOM      3  C   UNL A   1      44.848  23.875  25.144  1.00  0.00     0.202 C 
BRANCH   3   4
ATOM      4  C   UNL A   1      44.514  24.841  26.288  1.00  0.00     0.261 C 
BRANCH   4   5
ATOM      5  O   UNL A   1      43.244  24.644  26.920  1.00  0.00    -0.460 OA
BRANCH   5   6
ATOM      6  C   UNL A   1      42.918  24.724  28.223  1.00  0.00     0.338 C 
ATOM      7  O   UNL A   1      43.109  23.762  28.962  1.00  0.00    -0.246 OA
BRANCH   6   8
ATOM      8  C   UNL A   1      42.133  25.861  28.763  1.00  0.00     0.060 A 
ATOM      9  C   UNL A   1      40.991  26.406  28.171  1.00  0.00     0.016 A 
ATOM     10  C   UNL A   1      42.668  26.462  29.920  1.00  0.00     0.016 A 
ATOM     11  C   UNL A   1      40.503  27.623  28.610  1.00  0.00     0.010 A 
ATOM     12  C   UNL A   1      42.180  27.674  30.370  1.00  0.00     0.010 A 
ATOM     13  C   UNL A   1      41.177  28.290  29.629  1.00  0.00    -0.014 A 
BRANCH  13  14
ATOM     14  C   UNL A   1      40.916  29.713  29.763  1.00  0.00     0.031 A 
ATOM     15  C   UNL A   1      42.050  30.621  29.459  1.00  0.00     0.074 A 
ATOM     16  C   UNL A   1      39.678  30.113  30.117  1.00  0.00     0.049 A 
ATOM     17  N   UNL A   1      42.577  31.536  30.210  1.00  0.00    -0.248 NA
ATOM     18  C   UNL A   1      42.752  30.416  28.181  1.00  0.00     0.031 C 
ATOM     19  C   UNL A   1      38.462  29.293  30.233  1.00  0.00     0.029 A 
ATOM     20  N   UNL A   1      39.213  31.367  30.351  1.00  0.00    -0.354 N 
ATOM     21  C   UNL A   1      43.557  32.147  29.430  1.00  0.00     0.074 A 
ATOM     22  C   UNL A   1      43.713  31.337  28.250  1.00  0.00     0.031 C 
ATOM     23  C   UNL A   1      37.380  30.099  30.259  1.00  0.00     0.029 A 
ATOM     24  C   UNL A   1      37.832  31.475  30.298  1.00  0.00     0.049 A 
ATOM     25  H   UNL A   1      39.804  32.132  30.542  1.00  0.00     0.167 HD
ATOM     26  C   UNL A   1      44.006  33.403  29.697  1.00  0.00     0.037 A 
ATOM     27  C   UNL A   1      37.132  32.627  30.165  1.00  0.00     0.037 A 
ATOM     28  C   UNL A   1      43.796  33.773  31.068  1.00  0.00     0.049 A 
ATOM     29  C   UNL A   1      38.029  33.736  30.579  1.00  0.00     0.074 A 
ATOM     30  C   UNL A   1      44.250  33.291  32.280  1.00  0.00     0.029 A 
ATOM     31  N   UNL A   1      42.740  34.594  31.376  1.00  0.00    -0.354 N 
ATOM     32  N   UNL A   1      38.449  33.906  31.804  1.00  0.00    -0.248 NA
ATOM     33  C   UNL A   1      38.841  34.369  29.548  1.00  0.00     0.031 C 
ATOM     34  C   UNL A   1      43.151  33.442  33.175  1.00  0.00     0.029 A 
ATOM     35  C   UNL A   1      42.114  34.046  32.466  1.00  0.00     0.049 A 
ATOM     36  H   UNL A   1      42.481  35.418  30.904  1.00  0.00     0.167 HD
ATOM     37  C   UNL A   1      39.771  34.314  31.676  1.00  0.00     0.074 A 
ATOM     38  C   UNL A   1      39.933  34.647  30.265  1.00  0.00     0.031 C 
ATOM     39  C   UNL A   1      40.685  34.069  32.661  1.00  0.00     0.037 A 
BRANCH  26  40
ATOM     40  C   UNL A   1      44.312  34.411  28.618  1.00  0.00     0.064 A 
ATOM     41  C   UNL A   1      45.615  34.927  28.491  1.00  0.00     0.173 A 
ATOM     42  C   UNL A   1      43.307  35.104  27.907  1.00  0.00     0.173 A 
ATOM     43  F   UNL A   1      46.640  34.363  29.147  1.00  0.00    -0.203 F 
ATOM     44  C   UNL A   1      45.877  36.089  27.758  1.00  0.00     0.198 A 
ATOM     45  C   UNL A   1      43.580  36.229  27.134  1.00  0.00     0.198 A 
ATOM     46  F   UNL A   1      42.011  34.790  28.022  1.00  0.00    -0.203 F 
ATOM     47  F   UNL A   1      47.110  36.614  27.761  1.00  0.00    -0.200 F 
ATOM     48  C   UNL A   1      44.859  36.741  27.085  1.00  0.00     0.200 A 
ATOM     49  F   UNL A   1      42.576  36.857  26.508  1.00  0.00    -0.200 F 
ATOM     50  F   UNL A   1      45.096  37.887  26.433  1.00  0.00    -0.200 F 
ENDBRANCH  26  40
BRANCH  27  51
ATOM     51  C   UNL A   1      35.927  32.813  29.321  1.00  0.00     0.064 A 
ATOM     52  C   UNL A   1      35.631  31.936  28.269  1.00  0.00     0.173 A 
ATOM     53  C   UNL A   1      34.911  33.725  29.680  1.00  0.00     0.173 A 
ATOM     54  F   UNL A   1      36.520  31.000  27.903  1.00  0.00    -0.203 F 
ATOM     55  C   UNL A   1      34.394  31.970  27.614  1.00  0.00     0.198 A 
ATOM     56  C   UNL A   1      33.684  33.766  29.019  1.00  0.00     0.198 A 
ATOM     57  F   UNL A   1      35.052  34.536  30.737  1.00  0.00    -0.203 F 
ATOM     58  F   UNL A   1      34.125  31.082  26.646  1.00  0.00    -0.200 F 
ATOM     59  C   UNL A   1      33.420  32.882  27.992  1.00  0.00     0.200 A 
ATOM     60  F   UNL A   1      32.740  34.630  29.423  1.00  0.00    -0.200 F 
ATOM     61  F   UNL A   1      32.219  32.882  27.399  1.00  0.00    -0.200 F 
ENDBRANCH  27  51
BRANCH  39  62
ATOM     62  C   UNL A   1      40.171  33.523  33.964  1.00  0.00     0.064 A 
ATOM     63  C   UNL A   1      39.666  34.337  34.994  1.00  0.00     0.173 A 
ATOM     64  C   UNL A   1      40.033  32.139  34.115  1.00  0.00     0.173 A 
ATOM     65  F   UNL A   1      39.653  35.669  34.869  1.00  0.00    -0.203 F 
ATOM     66  C   UNL A   1      39.098  33.789  36.142  1.00  0.00     0.198 A 
ATOM     67  C   UNL A   1      39.433  31.592  35.247  1.00  0.00     0.198 A 
ATOM     68  F   UNL A   1      40.432  31.314  33.133  1.00  0.00    -0.203 F 
ATOM     69  F   UNL A   1      38.629  34.591  37.109  1.00  0.00    -0.200 F 
ATOM     70  C   UNL A   1      38.977  32.415  36.265  1.00  0.00     0.200 A 
ATOM     71  F   UNL A   1      39.266  30.265  35.337  1.00  0.00    -0.200 F 
ATOM     72  F   UNL A   1      38.388  31.887  37.347  1.00  0.00    -0.200 F 
ENDBRANCH  39  62
ENDBRANCH  13  14
ENDBRANCH   6   8
ENDBRANCH   5   6
ENDBRANCH   4   5
ENDBRANCH   3   4
ENDBRANCH   2   3
ENDBRANCH   1   2
BRANCH   1  73
ATOM     73  C   UNL A   1      43.262  21.219  25.833  1.00  0.00     0.188 C 
BRANCH  73  74
ATOM     74  O   UNL A   1      42.026  21.833  25.475  1.00  0.00    -0.376 OA
BRANCH  74  75
ATOM     75  C   UNL A   1      40.982  21.979  26.418  1.00  0.00     0.202 C 
BRANCH  75  76
ATOM     76  C   UNL A   1      39.727  21.136  26.146  1.00  0.00     0.261 C 
BRANCH  76  77
ATOM     77  O   UNL A   1      38.666  21.838  25.480  1.00  0.00    -0.458 OA
BRANCH  77  78
ATOM     78  C   UNL A   1      37.610  21.071  25.080  1.00  0.00     0.360 C 
ATOM     79  O   UNL A   1      37.661  19.885  24.801  1.00  0.00    -0.244 OA
BRANCH  78  80
ATOM     80  C   UNL A   1      36.370  21.827  25.084  1.00  0.00     0.190 A 
ATOM     81  C   UNL A   1      35.231  21.636  24.325  1.00  0.00     0.147 A 
ATOM     82  N   UNL A   1      36.169  22.895  25.926  1.00  0.00    -0.123 NA
ATOM     83  N   UNL A   1      34.341  22.532  24.856  1.00  0.00    -0.245 N 
ATOM     84  N   UNL A   1      34.950  23.365  25.719  1.00  0.00    -0.066 NA
BRANCH  83  85
ATOM     85  C   UNL A   1      32.914  22.450  24.862  1.00  0.00     0.148 C 
ATOM     86  C   UNL A   1      32.183  22.112  26.162  1.00  0.00     0.150 C 
ATOM     87  C   UNL A   1      32.341  23.876  25.028  1.00  0.00     0.150 C 
ATOM     88  N   UNL A   1      31.330  23.267  25.858  1.00  0.00    -0.320 N 
ATOM     89  C   UNL A   1      30.278  23.710  26.591  1.00  0.00     0.322 C 
ATOM     90  O   UNL A   1      29.783  22.996  27.468  1.00  0.00    -0.248 OA
ATOM     91  N   UNL A   1      29.843  24.995  26.490  1.00  0.00    -0.307 N 
ATOM     92  H   UNL A   1      29.306  25.296  27.259  1.00  0.00     0.171 HD
BRANCH  91  93
ATOM     93  C   UNL A   1      30.013  25.956  25.511  1.00  0.00     0.053 A 
ATOM     94  C   UNL A   1      29.316  26.094  24.277  1.00  0.00     0.038 A 
ATOM     95  C   UNL A   1      30.890  27.006  25.693  1.00  0.00     0.091 A 
ATOM     96  C   UNL A   1      29.826  27.103  23.487  1.00  0.00     0.067 A 
ATOM     97  S   UNL A   1      31.040  27.988  24.298  1.00  0.00    -0.150 S 
ENDBRANCH  91  93
ENDBRANCH  83  85
ENDBRANCH  78  80
ENDBRANCH  77  78
ENDBRANCH  76  77
ENDBRANCH  75  76
ENDBRANCH  74  75
ENDBRANCH  73  74
ENDBRANCH   1  73
TORSDOF 19
ENDMDL
