MODEL 1
REMARK VINA RESULT:     -10.4      0.000      0.000
REMARK SMILES C[C@@H](C(=O)OCCOCCOCCOC(=O)c1ccc(-c2c3nc(c(-c4c(F)c(F)c(F)c(F)c4F)c4ccc([nH]4)c(-c4c(F)c(F)c(F)c(F)c4F)c4nc(c(-c5c(F)c(F)c(F)c(F)c5F)c5ccc2[nH]5)C=C4)C=C3)cc1)[C@H](C)[S@@](=O)c1ccc(F)c(F)c1
REMARK SMILES IDX 9 1 8 2 7 3 6 4 5 5 3 6 4 7 2 8 1 9 80 10 81 11 82 12 83 13
REMARK SMILES IDX 84 14 85 15 91 16 86 17 89 18 87 19 90 20 88 21 10 22 11 23
REMARK SMILES IDX 12 24 13 25 14 26 15 27 16 28 17 29 18 30 79 31 19 32 78 33
REMARK SMILES IDX 20 34 21 35 22 36 72 37 23 38 77 39 71 40 73 41 24 42 76 43
REMARK SMILES IDX 70 44 69 45 25 47 57 48 37 49 56 50 38 51 41 52 55 53 74 54
REMARK SMILES IDX 39 55 40 56 54 58 75 59 42 60 26 61 27 62 35 63 28 64 29 65
REMARK SMILES IDX 33 66 36 67 30 68 31 69 34 70 32 71 58 72 59 73 67 74 60 75
REMARK SMILES IDX 61 76 65 77 68 78 62 79 63 80 66 81 64 82 43 83 44 84 52 85
REMARK SMILES IDX 45 86 46 87 50 88 53 89 47 90 48 91 51 92 49 93
REMARK H PARENT 73 46 41 57
REMARK Flexibility Score: inf
ROOT
ATOM      1  C   UNL A   1      40.781  21.289  27.291  1.00  0.00     0.188 C 
ENDROOT
BRANCH   1   2
ATOM      2  O   UNL A   1      39.592  21.817  26.723  1.00  0.00    -0.376 OA
BRANCH   2   3
ATOM      3  C   UNL A   1      39.422  23.229  26.737  1.00  0.00     0.202 C 
BRANCH   3   4
ATOM      4  C   UNL A   1      38.065  23.729  26.252  1.00  0.00     0.261 C 
BRANCH   4   5
ATOM      5  O   UNL A   1      37.242  22.639  25.801  1.00  0.00    -0.463 OA
BRANCH   5   6
ATOM      6  C   UNL A   1      35.930  22.946  25.641  1.00  0.00     0.309 C 
ATOM      7  O   UNL A   1      35.226  23.414  26.526  1.00  0.00    -0.252 OA
BRANCH   6   8
ATOM      8  C   UNL A   1      35.418  22.598  24.253  1.00  0.00     0.112 C 
ATOM      9  C   UNL A   1      36.533  22.764  23.207  1.00  0.00     0.021 C 
BRANCH   8  10
ATOM     10  C   UNL A   1      34.053  23.176  23.799  1.00  0.00     0.095 C 
ATOM     11  C   UNL A   1      33.973  24.660  23.450  1.00  0.00     0.023 C 
BRANCH  10  12
ATOM     12  S   UNL A   1      32.544  22.594  24.648  1.00  0.00     0.057 S 
ATOM     13  O   UNL A   1      31.355  23.212  23.985  1.00  0.00    -0.254 OA
BRANCH  12  14
ATOM     14  C   UNL A   1      32.451  20.817  24.352  1.00  0.00     0.042 A 
ATOM     15  C   UNL A   1      32.283  20.328  23.048  1.00  0.00     0.021 A 
ATOM     16  C   UNL A   1      32.726  19.903  25.377  1.00  0.00     0.060 A 
ATOM     17  C   UNL A   1      32.375  18.956  22.772  1.00  0.00     0.043 A 
ATOM     18  C   UNL A   1      32.787  18.535  25.105  1.00  0.00     0.160 A 
ATOM     19  C   UNL A   1      32.621  18.065  23.809  1.00  0.00     0.158 A 
ATOM     20  F   UNL A   1      33.018  17.676  26.107  1.00  0.00    -0.204 F 
ATOM     21  F   UNL A   1      32.701  16.753  23.547  1.00  0.00    -0.204 F 
ENDBRANCH  12  14
ENDBRANCH  10  12
ENDBRANCH   8  10
ENDBRANCH   6   8
ENDBRANCH   5   6
ENDBRANCH   4   5
ENDBRANCH   3   4
ENDBRANCH   2   3
ENDBRANCH   1   2
BRANCH   1  22
ATOM     22  C   UNL A   1      41.450  20.050  26.675  1.00  0.00     0.188 C 
BRANCH  22  23
ATOM     23  O   UNL A   1      42.542  20.215  25.788  1.00  0.00    -0.376 OA
BRANCH  23  24
ATOM     24  C   UNL A   1      42.930  21.534  25.426  1.00  0.00     0.202 C 
BRANCH  24  25
ATOM     25  C   UNL A   1      44.426  21.836  25.509  1.00  0.00     0.261 C 
BRANCH  25  26
ATOM     26  O   UNL A   1      44.714  23.001  26.308  1.00  0.00    -0.460 OA
BRANCH  26  27
ATOM     27  C   UNL A   1      44.614  24.185  25.677  1.00  0.00     0.338 C 
ATOM     28  O   UNL A   1      45.085  24.491  24.580  1.00  0.00    -0.246 OA
BRANCH  27  29
ATOM     29  C   UNL A   1      43.746  25.110  26.422  1.00  0.00     0.060 A 
ATOM     30  C   UNL A   1      44.056  26.476  26.400  1.00  0.00     0.016 A 
ATOM     31  C   UNL A   1      42.751  24.629  27.277  1.00  0.00     0.016 A 
ATOM     32  C   UNL A   1      43.409  27.357  27.270  1.00  0.00     0.010 A 
ATOM     33  C   UNL A   1      42.111  25.513  28.155  1.00  0.00     0.010 A 
ATOM     34  C   UNL A   1      42.466  26.875  28.187  1.00  0.00    -0.014 A 
BRANCH  34  35
ATOM     35  C   UNL A   1      41.996  27.745  29.299  1.00  0.00     0.031 A 
ATOM     36  C   UNL A   1      42.755  27.738  30.598  1.00  0.00     0.074 A 
ATOM     37  C   UNL A   1      40.934  28.559  29.162  1.00  0.00     0.049 A 
ATOM     38  N   UNL A   1      42.479  28.339  31.727  1.00  0.00    -0.248 NA
ATOM     39  C   UNL A   1      43.997  26.949  30.622  1.00  0.00     0.031 C 
ATOM     40  C   UNL A   1      40.148  28.715  27.946  1.00  0.00     0.029 A 
ATOM     41  N   UNL A   1      40.326  29.401  30.062  1.00  0.00    -0.354 N 
ATOM     42  C   UNL A   1      43.502  27.993  32.599  1.00  0.00     0.074 A 
ATOM     43  C   UNL A   1      44.397  27.117  31.874  1.00  0.00     0.031 C 
ATOM     44  C   UNL A   1      39.157  29.593  28.167  1.00  0.00     0.029 A 
ATOM     45  C   UNL A   1      39.202  30.018  29.564  1.00  0.00     0.049 A 
ATOM     46  H   UNL A   1      40.664  29.550  30.974  1.00  0.00     0.167 HD
ATOM     47  C   UNL A   1      43.681  28.372  33.887  1.00  0.00     0.037 A 
ATOM     48  C   UNL A   1      38.291  30.799  30.175  1.00  0.00     0.037 A 
ATOM     49  C   UNL A   1      42.789  29.238  34.614  1.00  0.00     0.049 A 
ATOM     50  C   UNL A   1      38.455  31.127  31.636  1.00  0.00     0.074 A 
ATOM     51  C   UNL A   1      42.882  29.667  35.927  1.00  0.00     0.029 A 
ATOM     52  N   UNL A   1      41.637  29.803  34.089  1.00  0.00    -0.354 N 
ATOM     53  N   UNL A   1      39.414  30.779  32.459  1.00  0.00    -0.248 NA
ATOM     54  C   UNL A   1      37.404  31.948  32.255  1.00  0.00     0.031 C 
ATOM     55  C   UNL A   1      41.762  30.457  36.209  1.00  0.00     0.029 A 
ATOM     56  C   UNL A   1      40.998  30.561  35.058  1.00  0.00     0.049 A 
ATOM     57  H   UNL A   1      41.320  29.684  33.165  1.00  0.00     0.167 HD
ATOM     58  C   UNL A   1      39.099  31.358  33.681  1.00  0.00     0.074 A 
ATOM     59  C   UNL A   1      37.863  32.089  33.491  1.00  0.00     0.031 C 
ATOM     60  C   UNL A   1      39.773  31.291  34.855  1.00  0.00     0.037 A 
BRANCH  47  61
ATOM     61  C   UNL A   1      44.874  27.815  34.606  1.00  0.00     0.064 A 
ATOM     62  C   UNL A   1      46.111  28.476  34.601  1.00  0.00     0.173 A 
ATOM     63  C   UNL A   1      44.773  26.613  35.322  1.00  0.00     0.173 A 
ATOM     64  F   UNL A   1      46.264  29.620  33.916  1.00  0.00    -0.203 F 
ATOM     65  C   UNL A   1      47.212  27.937  35.264  1.00  0.00     0.198 A 
ATOM     66  C   UNL A   1      45.867  26.093  36.005  1.00  0.00     0.198 A 
ATOM     67  F   UNL A   1      43.611  25.945  35.359  1.00  0.00    -0.203 F 
ATOM     68  F   UNL A   1      48.397  28.560  35.204  1.00  0.00    -0.200 F 
ATOM     69  C   UNL A   1      47.088  26.750  35.970  1.00  0.00     0.200 A 
ATOM     70  F   UNL A   1      45.743  24.950  36.694  1.00  0.00    -0.200 F 
ATOM     71  F   UNL A   1      48.147  26.235  36.608  1.00  0.00    -0.200 F 
ENDBRANCH  47  61
BRANCH  48  72
ATOM     72  C   UNL A   1      37.109  31.291  29.418  1.00  0.00     0.064 A 
ATOM     73  C   UNL A   1      36.051  30.435  29.084  1.00  0.00     0.173 A 
ATOM     74  C   UNL A   1      37.025  32.626  28.993  1.00  0.00     0.173 A 
ATOM     75  F   UNL A   1      36.098  29.143  29.442  1.00  0.00    -0.203 F 
ATOM     76  C   UNL A   1      34.963  30.891  28.343  1.00  0.00     0.198 A 
ATOM     77  C   UNL A   1      35.923  33.088  28.277  1.00  0.00     0.198 A 
ATOM     78  F   UNL A   1      38.015  33.485  29.282  1.00  0.00    -0.203 F 
ATOM     79  F   UNL A   1      33.988  30.039  27.996  1.00  0.00    -0.200 F 
ATOM     80  C   UNL A   1      34.897  32.217  27.945  1.00  0.00     0.200 A 
ATOM     81  F   UNL A   1      35.861  34.373  27.903  1.00  0.00    -0.200 F 
ATOM     82  F   UNL A   1      33.849  32.656  27.233  1.00  0.00    -0.200 F 
ENDBRANCH  48  72
BRANCH  60  83
ATOM     83  C   UNL A   1      39.214  32.058  36.018  1.00  0.00     0.064 A 
ATOM     84  C   UNL A   1      39.569  33.393  36.259  1.00  0.00     0.173 A 
ATOM     85  C   UNL A   1      38.281  31.461  36.880  1.00  0.00     0.173 A 
ATOM     86  F   UNL A   1      40.470  34.004  35.474  1.00  0.00    -0.203 F 
ATOM     87  C   UNL A   1      39.027  34.096  37.332  1.00  0.00     0.198 A 
ATOM     88  C   UNL A   1      37.720  32.175  37.934  1.00  0.00     0.198 A 
ATOM     89  F   UNL A   1      37.904  30.188  36.689  1.00  0.00    -0.203 F 
ATOM     90  F   UNL A   1      39.413  35.358  37.569  1.00  0.00    -0.200 F 
ATOM     91  C   UNL A   1      38.097  33.489  38.164  1.00  0.00     0.200 A 
ATOM     92  F   UNL A   1      36.812  31.590  38.729  1.00  0.00    -0.200 F 
ATOM     93  F   UNL A   1      37.571  34.169  39.191  1.00  0.00    -0.200 F 
ENDBRANCH  60  83
ENDBRANCH  34  35
ENDBRANCH  27  29
ENDBRANCH  26  27
ENDBRANCH  25  26
ENDBRANCH  24  25
ENDBRANCH  23  24
ENDBRANCH  22  23
ENDBRANCH   1  22
TORSDOF 20
ENDMDL
MODEL 2
REMARK VINA RESULT:     -10.1      0.558      7.419
REMARK SMILES C[C@@H](C(=O)OCCOCCOCCOC(=O)c1ccc(-c2c3nc(c(-c4c(F)c(F)c(F)c(F)c4F)c4ccc([nH]4)c(-c4c(F)c(F)c(F)c(F)c4F)c4nc(c(-c5c(F)c(F)c(F)c(F)c5F)c5ccc2[nH]5)C=C4)C=C3)cc1)[C@H](C)[S@@](=O)c1ccc(F)c(F)c1
REMARK SMILES IDX 9 1 8 2 7 3 6 4 5 5 3 6 4 7 2 8 1 9 80 10 81 11 82 12 83 13
REMARK SMILES IDX 84 14 85 15 91 16 86 17 89 18 87 19 90 20 88 21 10 22 11 23
REMARK SMILES IDX 12 24 13 25 14 26 15 27 16 28 17 29 18 30 79 31 19 32 78 33
REMARK SMILES IDX 20 34 21 35 22 36 72 37 23 38 77 39 71 40 73 41 24 42 76 43
REMARK SMILES IDX 70 44 69 45 25 47 57 48 37 49 56 50 38 51 41 52 55 53 74 54
REMARK SMILES IDX 39 55 40 56 54 58 75 59 42 60 26 61 27 62 35 63 28 64 29 65
REMARK SMILES IDX 33 66 36 67 30 68 31 69 34 70 32 71 58 72 59 73 67 74 60 75
REMARK SMILES IDX 61 76 65 77 68 78 62 79 63 80 66 81 64 82 43 83 44 84 52 85
REMARK SMILES IDX 45 86 46 87 50 88 53 89 47 90 48 91 51 92 49 93
REMARK H PARENT 73 46 41 57
REMARK Flexibility Score: inf
ROOT
ATOM      1  C   UNL A   1      40.761  21.464  27.196  1.00  0.00     0.188 C 
ENDROOT
BRANCH   1   2
ATOM      2  O   UNL A   1      39.554  21.928  26.609  1.00  0.00    -0.376 OA
BRANCH   2   3
ATOM      3  C   UNL A   1      39.336  23.333  26.569  1.00  0.00     0.202 C 
BRANCH   3   4
ATOM      4  C   UNL A   1      37.922  23.764  26.191  1.00  0.00     0.261 C 
BRANCH   4   5
ATOM      5  O   UNL A   1      37.101  22.627  25.873  1.00  0.00    -0.463 OA
BRANCH   5   6
ATOM      6  C   UNL A   1      35.817  22.925  25.549  1.00  0.00     0.309 C 
ATOM      7  O   UNL A   1      35.007  23.393  26.337  1.00  0.00    -0.252 OA
BRANCH   6   8
ATOM      8  C   UNL A   1      35.484  22.567  24.110  1.00  0.00     0.112 C 
ATOM      9  C   UNL A   1      36.650  22.935  23.177  1.00  0.00     0.021 C 
BRANCH   8  10
ATOM     10  C   UNL A   1      34.094  22.963  23.550  1.00  0.00     0.095 C 
ATOM     11  C   UNL A   1      33.888  24.397  23.067  1.00  0.00     0.023 C 
BRANCH  10  12
ATOM     12  S   UNL A   1      32.608  22.305  24.384  1.00  0.00     0.057 S 
ATOM     13  O   UNL A   1      31.407  22.656  23.565  1.00  0.00    -0.254 OA
BRANCH  12  14
ATOM     14  C   UNL A   1      32.765  20.508  24.352  1.00  0.00     0.042 A 
ATOM     15  C   UNL A   1      32.946  19.795  25.547  1.00  0.00     0.021 A 
ATOM     16  C   UNL A   1      32.527  19.788  23.175  1.00  0.00     0.060 A 
ATOM     17  C   UNL A   1      32.903  18.394  25.567  1.00  0.00     0.043 A 
ATOM     18  C   UNL A   1      32.515  18.392  23.192  1.00  0.00     0.160 A 
ATOM     19  C   UNL A   1      32.693  17.699  24.382  1.00  0.00     0.158 A 
ATOM     20  F   UNL A   1      32.319  17.723  22.048  1.00  0.00    -0.204 F 
ATOM     21  F   UNL A   1      32.660  16.359  24.400  1.00  0.00    -0.204 F 
ENDBRANCH  12  14
ENDBRANCH  10  12
ENDBRANCH   8  10
ENDBRANCH   6   8
ENDBRANCH   5   6
ENDBRANCH   4   5
ENDBRANCH   3   4
ENDBRANCH   2   3
ENDBRANCH   1   2
BRANCH   1  22
ATOM     22  C   UNL A   1      41.552  20.322  26.538  1.00  0.00     0.188 C 
BRANCH  22  23
ATOM     23  O   UNL A   1      42.612  20.629  25.649  1.00  0.00    -0.376 OA
BRANCH  23  24
ATOM     24  C   UNL A   1      42.889  21.994  25.368  1.00  0.00     0.202 C 
BRANCH  24  25
ATOM     25  C   UNL A   1      44.368  22.370  25.275  1.00  0.00     0.261 C 
BRANCH  25  26
ATOM     26  O   UNL A   1      44.730  23.432  26.181  1.00  0.00    -0.460 OA
BRANCH  26  27
ATOM     27  C   UNL A   1      44.671  24.678  25.678  1.00  0.00     0.338 C 
ATOM     28  O   UNL A   1      45.169  25.086  24.626  1.00  0.00    -0.246 OA
BRANCH  27  29
ATOM     29  C   UNL A   1      43.813  25.543  26.503  1.00  0.00     0.060 A 
ATOM     30  C   UNL A   1      44.263  26.835  26.802  1.00  0.00     0.016 A 
ATOM     31  C   UNL A   1      42.669  25.035  27.124  1.00  0.00     0.016 A 
ATOM     32  C   UNL A   1      43.602  27.604  27.764  1.00  0.00     0.010 A 
ATOM     33  C   UNL A   1      42.014  25.803  28.095  1.00  0.00     0.010 A 
ATOM     34  C   UNL A   1      42.500  27.075  28.451  1.00  0.00    -0.014 A 
BRANCH  34  35
ATOM     35  C   UNL A   1      41.980  27.763  29.664  1.00  0.00     0.031 A 
ATOM     36  C   UNL A   1      40.713  28.567  29.556  1.00  0.00     0.074 A 
ATOM     37  C   UNL A   1      42.594  27.659  30.856  1.00  0.00     0.049 A 
ATOM     38  N   UNL A   1      40.128  29.322  30.451  1.00  0.00    -0.248 NA
ATOM     39  C   UNL A   1      40.009  28.504  28.266  1.00  0.00     0.031 C 
ATOM     40  C   UNL A   1      43.787  26.865  31.118  1.00  0.00     0.029 A 
ATOM     41  N   UNL A   1      42.302  28.233  32.070  1.00  0.00    -0.354 N 
ATOM     42  C   UNL A   1      38.996  29.834  29.831  1.00  0.00     0.074 A 
ATOM     43  C   UNL A   1      38.985  29.316  28.478  1.00  0.00     0.031 C 
ATOM     44  C   UNL A   1      44.136  27.002  32.408  1.00  0.00     0.029 A 
ATOM     45  C   UNL A   1      43.222  27.942  33.050  1.00  0.00     0.049 A 
ATOM     46  H   UNL A   1      41.510  28.797  32.223  1.00  0.00     0.167 HD
ATOM     47  C   UNL A   1      38.051  30.659  30.341  1.00  0.00     0.037 A 
ATOM     48  C   UNL A   1      43.339  28.414  34.306  1.00  0.00     0.037 A 
ATOM     49  C   UNL A   1      38.062  31.180  31.683  1.00  0.00     0.049 A 
ATOM     50  C   UNL A   1      42.333  29.409  34.822  1.00  0.00     0.074 A 
ATOM     51  C   UNL A   1      37.153  32.034  32.285  1.00  0.00     0.029 A 
ATOM     52  N   UNL A   1      39.036  30.900  32.630  1.00  0.00    -0.354 N 
ATOM     53  N   UNL A   1      41.277  29.904  34.222  1.00  0.00    -0.248 NA
ATOM     54  C   UNL A   1      42.539  29.918  36.185  1.00  0.00     0.031 C 
ATOM     55  C   UNL A   1      37.602  32.304  33.583  1.00  0.00     0.029 A 
ATOM     56  C   UNL A   1      38.761  31.581  33.806  1.00  0.00     0.049 A 
ATOM     57  H   UNL A   1      39.808  30.306  32.488  1.00  0.00     0.167 HD
ATOM     58  C   UNL A   1      40.681  30.759  35.140  1.00  0.00     0.074 A 
ATOM     59  C   UNL A   1      41.486  30.709  36.342  1.00  0.00     0.031 C 
ATOM     60  C   UNL A   1      39.566  31.517  34.999  1.00  0.00     0.037 A 
BRANCH  47  61
ATOM     61  C   UNL A   1      36.941  31.080  29.424  1.00  0.00     0.064 A 
ATOM     62  C   UNL A   1      35.892  30.212  29.090  1.00  0.00     0.173 A 
ATOM     63  C   UNL A   1      36.920  32.375  28.885  1.00  0.00     0.173 A 
ATOM     64  F   UNL A   1      35.876  28.957  29.566  1.00  0.00    -0.203 F 
ATOM     65  C   UNL A   1      34.876  30.616  28.227  1.00  0.00     0.198 A 
ATOM     66  C   UNL A   1      35.890  32.784  28.045  1.00  0.00     0.198 A 
ATOM     67  F   UNL A   1      37.900  33.243  29.175  1.00  0.00    -0.203 F 
ATOM     68  F   UNL A   1      33.910  29.754  27.882  1.00  0.00    -0.200 F 
ATOM     69  C   UNL A   1      34.872  31.903  27.710  1.00  0.00     0.200 A 
ATOM     70  F   UNL A   1      35.884  34.031  27.553  1.00  0.00    -0.200 F 
ATOM     71  F   UNL A   1      33.894  32.290  26.881  1.00  0.00    -0.200 F 
ENDBRANCH  47  61
BRANCH  48  72
ATOM     72  C   UNL A   1      44.482  27.987  35.156  1.00  0.00     0.064 A 
ATOM     73  C   UNL A   1      45.705  28.671  35.127  1.00  0.00     0.173 A 
ATOM     74  C   UNL A   1      44.381  26.869  35.998  1.00  0.00     0.173 A 
ATOM     75  F   UNL A   1      45.860  29.728  34.317  1.00  0.00    -0.203 F 
ATOM     76  C   UNL A   1      46.786  28.245  35.898  1.00  0.00     0.198 A 
ATOM     77  C   UNL A   1      45.453  26.461  36.789  1.00  0.00     0.198 A 
ATOM     78  F   UNL A   1      43.234  26.175  36.057  1.00  0.00    -0.203 F 
ATOM     79  F   UNL A   1      47.958  28.890  35.815  1.00  0.00    -0.200 F 
ATOM     80  C   UNL A   1      46.658  27.145  36.731  1.00  0.00     0.200 A 
ATOM     81  F   UNL A   1      45.320  25.403  37.599  1.00  0.00    -0.200 F 
ATOM     82  F   UNL A   1      47.697  26.737  37.472  1.00  0.00    -0.200 F 
ENDBRANCH  48  72
BRANCH  60  83
ATOM     83  C   UNL A   1      39.124  32.324  36.185  1.00  0.00     0.064 A 
ATOM     84  C   UNL A   1      38.237  31.807  37.140  1.00  0.00     0.173 A 
ATOM     85  C   UNL A   1      39.627  33.618  36.389  1.00  0.00     0.173 A 
ATOM     86  F   UNL A   1      37.716  30.580  36.982  1.00  0.00    -0.203 F 
ATOM     87  C   UNL A   1      37.853  32.563  38.244  1.00  0.00     0.198 A 
ATOM     88  C   UNL A   1      39.263  34.361  37.508  1.00  0.00     0.198 A 
ATOM     89  F   UNL A   1      40.483  34.157  35.509  1.00  0.00    -0.203 F 
ATOM     90  F   UNL A   1      36.970  32.065  39.122  1.00  0.00    -0.200 F 
ATOM     91  C   UNL A   1      38.371  33.836  38.432  1.00  0.00     0.200 A 
ATOM     92  F   UNL A   1      39.775  35.586  37.694  1.00  0.00    -0.200 F 
ATOM     93  F   UNL A   1      38.006  34.559  39.499  1.00  0.00    -0.200 F 
ENDBRANCH  60  83
ENDBRANCH  34  35
ENDBRANCH  27  29
ENDBRANCH  26  27
ENDBRANCH  25  26
ENDBRANCH  24  25
ENDBRANCH  23  24
ENDBRANCH  22  23
ENDBRANCH   1  22
TORSDOF 20
ENDMDL
MODEL 3
REMARK VINA RESULT:     -10.0      1.054      2.031
REMARK SMILES C[C@@H](C(=O)OCCOCCOCCOC(=O)c1ccc(-c2c3nc(c(-c4c(F)c(F)c(F)c(F)c4F)c4ccc([nH]4)c(-c4c(F)c(F)c(F)c(F)c4F)c4nc(c(-c5c(F)c(F)c(F)c(F)c5F)c5ccc2[nH]5)C=C4)C=C3)cc1)[C@H](C)[S@@](=O)c1ccc(F)c(F)c1
REMARK SMILES IDX 9 1 8 2 7 3 6 4 5 5 3 6 4 7 2 8 1 9 80 10 81 11 82 12 83 13
REMARK SMILES IDX 84 14 85 15 91 16 86 17 89 18 87 19 90 20 88 21 10 22 11 23
REMARK SMILES IDX 12 24 13 25 14 26 15 27 16 28 17 29 18 30 79 31 19 32 78 33
REMARK SMILES IDX 20 34 21 35 22 36 72 37 23 38 77 39 71 40 73 41 24 42 76 43
REMARK SMILES IDX 70 44 69 45 25 47 57 48 37 49 56 50 38 51 41 52 55 53 74 54
REMARK SMILES IDX 39 55 40 56 54 58 75 59 42 60 26 61 27 62 35 63 28 64 29 65
REMARK SMILES IDX 33 66 36 67 30 68 31 69 34 70 32 71 58 72 59 73 67 74 60 75
REMARK SMILES IDX 61 76 65 77 68 78 62 79 63 80 66 81 64 82 43 83 44 84 52 85
REMARK SMILES IDX 45 86 46 87 50 88 53 89 47 90 48 91 51 92 49 93
REMARK H PARENT 73 46 41 57
REMARK Flexibility Score: inf
ROOT
ATOM      1  C   UNL A   1      40.384  21.434  26.968  1.00  0.00     0.188 C 
ENDROOT
BRANCH   1   2
ATOM      2  O   UNL A   1      39.137  21.835  26.419  1.00  0.00    -0.376 OA
BRANCH   2   3
ATOM      3  C   UNL A   1      38.583  21.035  25.382  1.00  0.00     0.202 C 
BRANCH   3   4
ATOM      4  C   UNL A   1      37.184  21.435  24.923  1.00  0.00     0.261 C 
BRANCH   4   5
ATOM      5  O   UNL A   1      36.400  21.930  26.023  1.00  0.00    -0.463 OA
BRANCH   5   6
ATOM      6  C   UNL A   1      36.003  23.222  25.901  1.00  0.00     0.309 C 
ATOM      7  O   UNL A   1      36.735  24.182  26.104  1.00  0.00    -0.252 OA
BRANCH   6   8
ATOM      8  C   UNL A   1      34.533  23.344  25.535  1.00  0.00     0.112 C 
ATOM      9  C   UNL A   1      33.645  23.078  26.762  1.00  0.00     0.021 C 
BRANCH   8  10
ATOM     10  C   UNL A   1      34.030  22.648  24.245  1.00  0.00     0.095 C 
ATOM     11  C   UNL A   1      34.204  23.374  22.912  1.00  0.00     0.023 C 
BRANCH  10  12
ATOM     12  S   UNL A   1      32.453  21.729  24.318  1.00  0.00     0.057 S 
ATOM     13  O   UNL A   1      31.595  22.163  23.174  1.00  0.00    -0.254 OA
BRANCH  12  14
ATOM     14  C   UNL A   1      32.866  19.994  24.043  1.00  0.00     0.042 A 
ATOM     15  C   UNL A   1      32.154  19.242  23.096  1.00  0.00     0.021 A 
ATOM     16  C   UNL A   1      34.005  19.426  24.625  1.00  0.00     0.060 A 
ATOM     17  C   UNL A   1      32.563  17.948  22.745  1.00  0.00     0.043 A 
ATOM     18  C   UNL A   1      34.393  18.126  24.297  1.00  0.00     0.160 A 
ATOM     19  C   UNL A   1      33.680  17.394  23.357  1.00  0.00     0.158 A 
ATOM     20  F   UNL A   1      35.467  17.591  24.892  1.00  0.00    -0.204 F 
ATOM     21  F   UNL A   1      34.066  16.153  23.027  1.00  0.00    -0.204 F 
ENDBRANCH  12  14
ENDBRANCH  10  12
ENDBRANCH   8  10
ENDBRANCH   6   8
ENDBRANCH   5   6
ENDBRANCH   4   5
ENDBRANCH   3   4
ENDBRANCH   2   3
ENDBRANCH   1   2
BRANCH   1  22
ATOM     22  C   UNL A   1      41.122  20.211  26.400  1.00  0.00     0.188 C 
BRANCH  22  23
ATOM     23  O   UNL A   1      42.416  20.372  25.846  1.00  0.00    -0.376 OA
BRANCH  23  24
ATOM     24  C   UNL A   1      43.230  21.435  26.322  1.00  0.00     0.202 C 
BRANCH  24  25
ATOM     25  C   UNL A   1      44.267  21.975  25.335  1.00  0.00     0.261 C 
BRANCH  25  26
ATOM     26  O   UNL A   1      44.877  23.201  25.786  1.00  0.00    -0.460 OA
BRANCH  26  27
ATOM     27  C   UNL A   1      44.137  24.315  25.637  1.00  0.00     0.338 C 
ATOM     28  O   UNL A   1      43.561  24.700  24.617  1.00  0.00    -0.246 OA
BRANCH  27  29
ATOM     29  C   UNL A   1      43.984  25.025  26.916  1.00  0.00     0.060 A 
ATOM     30  C   UNL A   1      43.023  24.561  27.823  1.00  0.00     0.016 A 
ATOM     31  C   UNL A   1      44.645  26.234  27.147  1.00  0.00     0.016 A 
ATOM     32  C   UNL A   1      42.681  25.331  28.938  1.00  0.00     0.010 A 
ATOM     33  C   UNL A   1      44.293  27.009  28.261  1.00  0.00     0.010 A 
ATOM     34  C   UNL A   1      43.280  26.583  29.140  1.00  0.00    -0.014 A 
BRANCH  34  35
ATOM     35  C   UNL A   1      42.717  27.523  30.146  1.00  0.00     0.031 A 
ATOM     36  C   UNL A   1      43.406  27.660  31.477  1.00  0.00     0.074 A 
ATOM     37  C   UNL A   1      41.633  28.275  29.886  1.00  0.00     0.049 A 
ATOM     38  N   UNL A   1      43.045  28.343  32.534  1.00  0.00    -0.248 NA
ATOM     39  C   UNL A   1      44.675  26.932  31.633  1.00  0.00     0.031 C 
ATOM     40  C   UNL A   1      40.908  28.292  28.622  1.00  0.00     0.029 A 
ATOM     41  N   UNL A   1      40.945  29.163  30.676  1.00  0.00    -0.354 N 
ATOM     42  C   UNL A   1      44.033  28.118  33.483  1.00  0.00     0.074 A 
ATOM     43  C   UNL A   1      45.000  27.223  32.883  1.00  0.00     0.031 C 
ATOM     44  C   UNL A   1      39.872  29.141  28.716  1.00  0.00     0.029 A 
ATOM     45  C   UNL A   1      39.826  29.685  30.071  1.00  0.00     0.049 A 
ATOM     46  H   UNL A   1      41.227  29.404  31.588  1.00  0.00     0.167 HD
ATOM     47  C   UNL A   1      44.127  28.613  34.740  1.00  0.00     0.037 A 
ATOM     48  C   UNL A   1      38.853  30.474  30.565  1.00  0.00     0.037 A 
ATOM     49  C   UNL A   1      43.165  29.498  35.343  1.00  0.00     0.049 A 
ATOM     50  C   UNL A   1      38.925  30.933  31.998  1.00  0.00     0.074 A 
ATOM     51  C   UNL A   1      43.170  30.042  36.616  1.00  0.00     0.029 A 
ATOM     52  N   UNL A   1      42.021  29.965  34.714  1.00  0.00    -0.354 N 
ATOM     53  N   UNL A   1      39.852  30.700  32.895  1.00  0.00    -0.248 NA
ATOM     54  C   UNL A   1      37.811  31.757  32.489  1.00  0.00     0.031 C 
ATOM     55  C   UNL A   1      42.005  30.802  36.772  1.00  0.00     0.029 A 
ATOM     56  C   UNL A   1      41.301  30.774  35.580  1.00  0.00     0.049 A 
ATOM     57  H   UNL A   1      41.758  29.753  33.789  1.00  0.00     0.167 HD
ATOM     58  C   UNL A   1      39.449  31.367  34.045  1.00  0.00     0.074 A 
ATOM     59  C   UNL A   1      38.197  32.023  33.729  1.00  0.00     0.031 C 
ATOM     60  C   UNL A   1      40.060  31.429  35.252  1.00  0.00     0.037 A 
BRANCH  47  61
ATOM     61  C   UNL A   1      45.301  28.173  35.564  1.00  0.00     0.064 A 
ATOM     62  C   UNL A   1      45.246  27.031  36.375  1.00  0.00     0.173 A 
ATOM     63  C   UNL A   1      46.502  28.898  35.529  1.00  0.00     0.173 A 
ATOM     64  F   UNL A   1      44.114  26.314  36.456  1.00  0.00    -0.203 F 
ATOM     65  C   UNL A   1      46.342  26.645  37.143  1.00  0.00     0.198 A 
ATOM     66  C   UNL A   1      47.604  28.494  36.276  1.00  0.00     0.198 A 
ATOM     67  F   UNL A   1      46.606  29.997  34.768  1.00  0.00    -0.203 F 
ATOM     68  F   UNL A   1      46.251  25.579  37.949  1.00  0.00    -0.200 F 
ATOM     69  C   UNL A   1      47.522  27.373  37.089  1.00  0.00     0.200 A 
ATOM     70  F   UNL A   1      48.745  29.195  36.216  1.00  0.00    -0.200 F 
ATOM     71  F   UNL A   1      48.575  27.001  37.828  1.00  0.00    -0.200 F 
ENDBRANCH  47  61
BRANCH  48  72
ATOM     72  C   UNL A   1      37.695  30.848  29.710  1.00  0.00     0.064 A 
ATOM     73  C   UNL A   1      36.691  29.920  29.398  1.00  0.00     0.173 A 
ATOM     74  C   UNL A   1      37.581  32.137  29.166  1.00  0.00     0.173 A 
ATOM     75  F   UNL A   1      36.771  28.666  29.869  1.00  0.00    -0.203 F 
ATOM     76  C   UNL A   1      35.627  30.263  28.566  1.00  0.00     0.198 A 
ATOM     77  C   UNL A   1      36.501  32.487  28.359  1.00  0.00     0.198 A 
ATOM     78  F   UNL A   1      38.518  33.060  29.429  1.00  0.00    -0.203 F 
ATOM     79  F   UNL A   1      34.707  29.342  28.247  1.00  0.00    -0.200 F 
ATOM     80  C   UNL A   1      35.530  31.547  28.052  1.00  0.00     0.200 A 
ATOM     81  F   UNL A   1      36.408  33.731  27.872  1.00  0.00    -0.200 F 
ATOM     82  F   UNL A   1      34.506  31.876  27.253  1.00  0.00    -0.200 F 
ENDBRANCH  48  72
BRANCH  60  83
ATOM     83  C   UNL A   1      39.411  32.268  36.314  1.00  0.00     0.064 A 
ATOM     84  C   UNL A   1      38.349  31.781  37.091  1.00  0.00     0.173 A 
ATOM     85  C   UNL A   1      39.883  33.561  36.585  1.00  0.00     0.173 A 
ATOM     86  F   UNL A   1      37.850  30.557  36.860  1.00  0.00    -0.203 F 
ATOM     87  C   UNL A   1      37.771  32.566  38.085  1.00  0.00     0.198 A 
ATOM     88  C   UNL A   1      39.322  34.332  37.598  1.00  0.00     0.198 A 
ATOM     89  F   UNL A   1      40.901  34.071  35.875  1.00  0.00    -0.203 F 
ATOM     90  F   UNL A   1      36.730  32.097  38.787  1.00  0.00    -0.200 F 
ATOM     91  C   UNL A   1      38.263  33.838  38.344  1.00  0.00     0.200 A 
ATOM     92  F   UNL A   1      39.807  35.556  37.854  1.00  0.00    -0.200 F 
ATOM     93  F   UNL A   1      37.710  34.588  39.306  1.00  0.00    -0.200 F 
ENDBRANCH  60  83
ENDBRANCH  34  35
ENDBRANCH  27  29
ENDBRANCH  26  27
ENDBRANCH  25  26
ENDBRANCH  24  25
ENDBRANCH  23  24
ENDBRANCH  22  23
ENDBRANCH   1  22
TORSDOF 20
ENDMDL
