MODEL 1
REMARK VINA RESULT:     -11.6      0.000      0.000
REMARK SMILES NS(=O)(=O)c1ccc(-n2nc(C(F)(F)F)cc2-c2ccc(C(=O)OCCOCCOCCOC(=O)c3ccc(-c4c5nc(c(-c6c(F)c(F)c(F)c(F)c6F)c6ccc([nH]6)c(-c6c(F)c(F)c(F)c(F)c6F)c6nc(c(-c7c(F)c(F)c(F)c(F)c7F)c7ccc4[nH]7)C=C6)C=C5)cc3)cc2)cc1
REMARK SMILES IDX 28 1 27 2 26 3 25 4 24 5 22 6 23 7 21 8 18 9 19 10 100 11
REMARK SMILES IDX 20 12 99 13 17 14 9 15 10 16 11 17 16 18 8 19 5 20 6 21
REMARK SMILES IDX 102 22 7 23 101 24 2 25 3 26 4 27 1 28 12 31 13 32 14 33
REMARK SMILES IDX 15 34 29 35 30 36 31 37 32 38 33 39 34 40 35 41 36 42 37 43
REMARK SMILES IDX 98 44 38 45 97 46 39 47 40 48 41 49 91 50 42 51 96 52 90 53
REMARK SMILES IDX 92 54 43 55 95 56 89 57 88 58 44 60 76 61 56 62 75 63 57 64
REMARK SMILES IDX 60 65 74 66 93 67 58 68 59 69 73 71 94 72 61 73 45 74 46 75
REMARK SMILES IDX 54 76 47 77 48 78 52 79 55 80 49 81 50 82 53 83 51 84 77 85
REMARK SMILES IDX 78 86 86 87 79 88 80 89 84 90 87 91 81 92 82 93 85 94 83 95
REMARK SMILES IDX 62 96 63 97 71 98 64 99 65 100 69 101 72 102 66 103 67 104
REMARK SMILES IDX 70 105 68 106
REMARK H PARENT 1 29 1 30 92 59 60 70
REMARK Flexibility Score: inf
ROOT
ATOM      1  C   UNL A   1      32.867  29.693  25.582  1.00  0.00     0.188 C 
ENDROOT
BRANCH   1   2
ATOM      2  O   UNL A   1      31.799  28.870  25.182  1.00  0.00    -0.376 OA
BRANCH   2   3
ATOM      3  C   UNL A   1      30.845  29.312  24.232  1.00  0.00     0.202 C 
BRANCH   3   4
ATOM      4  C   UNL A   1      30.317  28.512  23.020  1.00  0.00     0.261 C 
BRANCH   4   5
ATOM      5  O   UNL A   1      30.964  27.284  22.687  1.00  0.00    -0.460 OA
BRANCH   5   6
ATOM      6  C   UNL A   1      30.637  26.223  23.461  1.00  0.00     0.338 C 
ATOM      7  O   UNL A   1      29.514  25.816  23.705  1.00  0.00    -0.246 OA
BRANCH   6   8
ATOM      8  C   UNL A   1      31.859  25.466  23.817  1.00  0.00     0.060 A 
ATOM      9  C   UNL A   1      34.189  24.138  24.627  1.00  0.00     0.000 A 
ATOM     10  C   UNL A   1      33.243  24.549  25.576  1.00  0.00     0.011 A 
ATOM     11  C   UNL A   1      33.927  24.342  23.265  1.00  0.00     0.011 A 
ATOM     12  C   UNL A   1      32.088  25.217  25.174  1.00  0.00     0.016 A 
ATOM     13  C   UNL A   1      32.757  24.993  22.855  1.00  0.00     0.016 A 
BRANCH   9  14
ATOM     14  C   UNL A   1      35.490  23.640  25.070  1.00  0.00     0.075 A 
ATOM     15  N   UNL A   1      35.811  22.323  25.377  1.00  0.00    -0.233 N 
ATOM     16  N   UNL A   1      36.942  22.240  26.128  1.00  0.00    -0.163 NA
ATOM     17  C   UNL A   1      37.454  23.487  26.129  1.00  0.00     0.167 A 
ATOM     18  C   UNL A   1      36.568  24.391  25.497  1.00  0.00     0.064 A 
BRANCH  15  19
ATOM     19  C   UNL A   1      35.107  21.145  25.014  1.00  0.00     0.065 A 
ATOM     20  C   UNL A   1      33.729  18.855  24.234  1.00  0.00     0.082 A 
ATOM     21  C   UNL A   1      35.068  18.754  24.623  1.00  0.00     0.024 A 
ATOM     22  C   UNL A   1      33.069  20.089  24.254  1.00  0.00     0.024 A 
ATOM     23  C   UNL A   1      35.764  19.905  24.999  1.00  0.00     0.030 A 
ATOM     24  C   UNL A   1      33.751  21.233  24.670  1.00  0.00     0.030 A 
BRANCH  20  25
ATOM     25  S   UNL A   1      32.844  17.404  23.747  1.00  0.00     0.238 S 
ATOM     26  O   UNL A   1      31.794  17.157  24.719  1.00  0.00    -0.207 OA
ATOM     27  O   UNL A   1      33.772  16.392  23.326  1.00  0.00    -0.207 OA
BRANCH  25  28
ATOM     28  N   UNL A   1      32.064  17.902  22.342  1.00  0.00    -0.225 NA
ATOM     29  H   UNL A   1      32.712  18.442  21.768  1.00  0.00     0.137 HD
ATOM     30  H   UNL A   1      31.262  18.482  22.586  1.00  0.00     0.137 HD
ENDBRANCH  25  28
ENDBRANCH  20  25
ENDBRANCH  15  19
BRANCH  17  31
ATOM     31  C   UNL A   1      38.771  23.846  26.764  1.00  0.00     0.435 C 
ATOM     32  F   UNL A   1      39.543  22.764  27.044  1.00  0.00    -0.164 F 
ATOM     33  F   UNL A   1      39.508  24.674  25.978  1.00  0.00    -0.164 F 
ATOM     34  F   UNL A   1      38.592  24.503  27.945  1.00  0.00    -0.164 F 
ENDBRANCH  17  31
ENDBRANCH   9  14
ENDBRANCH   6   8
ENDBRANCH   5   6
ENDBRANCH   4   5
ENDBRANCH   3   4
ENDBRANCH   2   3
ENDBRANCH   1   2
BRANCH   1  35
ATOM     35  C   UNL A   1      32.663  30.591  26.820  1.00  0.00     0.188 C 
BRANCH  35  36
ATOM     36  O   UNL A   1      33.708  30.881  27.728  1.00  0.00    -0.376 OA
BRANCH  36  37
ATOM     37  C   UNL A   1      34.164  32.193  28.018  1.00  0.00     0.202 C 
BRANCH  37  38
ATOM     38  C   UNL A   1      34.516  32.707  29.410  1.00  0.00     0.261 C 
BRANCH  38  39
ATOM     39  O   UNL A   1      34.649  31.717  30.404  1.00  0.00    -0.460 OA
BRANCH  39  40
ATOM     40  C   UNL A   1      35.875  31.693  30.960  1.00  0.00     0.338 C 
ATOM     41  O   UNL A   1      36.238  32.247  31.983  1.00  0.00    -0.246 OA
BRANCH  40  42
ATOM     42  C   UNL A   1      36.778  30.975  30.065  1.00  0.00     0.060 A 
ATOM     43  C   UNL A   1      36.764  29.585  30.184  1.00  0.00     0.016 A 
ATOM     44  C   UNL A   1      37.860  31.682  29.523  1.00  0.00     0.016 A 
ATOM     45  C   UNL A   1      37.960  28.929  30.050  1.00  0.00     0.010 A 
ATOM     46  C   UNL A   1      39.057  31.029  29.414  1.00  0.00     0.010 A 
ATOM     47  C   UNL A   1      39.105  29.689  29.787  1.00  0.00    -0.014 A 
BRANCH  47  48
ATOM     48  C   UNL A   1      40.381  29.018  29.813  1.00  0.00     0.031 A 
ATOM     49  C   UNL A   1      40.897  28.905  31.191  1.00  0.00     0.074 A 
ATOM     50  C   UNL A   1      40.938  28.497  28.704  1.00  0.00     0.049 A 
ATOM     51  N   UNL A   1      41.909  29.521  31.699  1.00  0.00    -0.248 NA
ATOM     52  C   UNL A   1      40.057  28.208  32.181  1.00  0.00     0.031 C 
ATOM     53  C   UNL A   1      40.358  28.373  27.365  1.00  0.00     0.029 A 
ATOM     54  N   UNL A   1      42.138  27.868  28.575  1.00  0.00    -0.354 N 
ATOM     55  C   UNL A   1      41.967  29.098  33.019  1.00  0.00     0.074 A 
ATOM     56  C   UNL A   1      40.694  28.500  33.313  1.00  0.00     0.031 C 
ATOM     57  C   UNL A   1      41.103  27.512  26.632  1.00  0.00     0.029 A 
ATOM     58  C   UNL A   1      42.271  27.127  27.402  1.00  0.00     0.049 A 
ATOM     59  H   UNL A   1      42.851  27.931  29.251  1.00  0.00     0.167 HD
ATOM     60  C   UNL A   1      43.168  28.980  33.642  1.00  0.00     0.037 A 
ATOM     61  C   UNL A   1      43.237  26.200  27.171  1.00  0.00     0.037 A 
ATOM     62  C   UNL A   1      44.173  29.771  32.973  1.00  0.00     0.049 A 
ATOM     63  C   UNL A   1      44.343  26.475  28.130  1.00  0.00     0.074 A 
ATOM     64  C   UNL A   1      44.315  31.115  32.685  1.00  0.00     0.029 A 
ATOM     65  N   UNL A   1      45.048  29.116  32.140  1.00  0.00    -0.354 N 
ATOM     66  N   UNL A   1      45.100  27.536  28.070  1.00  0.00    -0.248 NA
ATOM     67  C   UNL A   1      44.273  25.829  29.433  1.00  0.00     0.031 C 
ATOM     68  C   UNL A   1      44.907  31.159  31.388  1.00  0.00     0.029 A 
ATOM     69  C   UNL A   1      45.164  29.848  30.987  1.00  0.00     0.049 A 
ATOM     70  H   UNL A   1      45.511  28.271  32.337  1.00  0.00     0.167 HD
ATOM     71  C   UNL A   1      45.236  27.943  29.390  1.00  0.00     0.074 A 
ATOM     72  C   UNL A   1      44.754  26.819  30.190  1.00  0.00     0.031 C 
ATOM     73  C   UNL A   1      45.438  29.257  29.699  1.00  0.00     0.037 A 
BRANCH  60  74
ATOM     74  C   UNL A   1      43.517  27.822  34.548  1.00  0.00     0.064 A 
ATOM     75  C   UNL A   1      43.438  26.518  34.024  1.00  0.00     0.173 A 
ATOM     76  C   UNL A   1      43.613  27.904  35.957  1.00  0.00     0.173 A 
ATOM     77  F   UNL A   1      43.334  26.319  32.701  1.00  0.00    -0.203 F 
ATOM     78  C   UNL A   1      43.358  25.395  34.850  1.00  0.00     0.198 A 
ATOM     79  C   UNL A   1      43.589  26.777  36.775  1.00  0.00     0.198 A 
ATOM     80  F   UNL A   1      43.621  29.065  36.619  1.00  0.00    -0.203 F 
ATOM     81  F   UNL A   1      43.141  24.189  34.310  1.00  0.00    -0.200 F 
ATOM     82  C   UNL A   1      43.424  25.527  36.225  1.00  0.00     0.200 A 
ATOM     83  F   UNL A   1      43.638  26.932  38.105  1.00  0.00    -0.200 F 
ATOM     84  F   UNL A   1      43.279  24.461  37.021  1.00  0.00    -0.200 F 
ENDBRANCH  60  74
BRANCH  61  85
ATOM     85  C   UNL A   1      43.120  24.897  26.467  1.00  0.00     0.064 A 
ATOM     86  C   UNL A   1      43.865  24.635  25.302  1.00  0.00     0.173 A 
ATOM     87  C   UNL A   1      42.512  23.781  27.077  1.00  0.00     0.173 A 
ATOM     88  F   UNL A   1      44.516  25.630  24.682  1.00  0.00    -0.203 F 
ATOM     89  C   UNL A   1      44.019  23.338  24.801  1.00  0.00     0.198 A 
ATOM     90  C   UNL A   1      42.661  22.488  26.573  1.00  0.00     0.198 A 
ATOM     91  F   UNL A   1      41.845  23.906  28.232  1.00  0.00    -0.203 F 
ATOM     92  F   UNL A   1      44.794  23.122  23.728  1.00  0.00    -0.200 F 
ATOM     93  C   UNL A   1      43.427  22.263  25.444  1.00  0.00     0.200 A 
ATOM     94  F   UNL A   1      42.114  21.454  27.226  1.00  0.00    -0.200 F 
ATOM     95  F   UNL A   1      43.628  21.013  25.004  1.00  0.00    -0.200 F 
ENDBRANCH  61  85
BRANCH  73  96
ATOM     96  C   UNL A   1      45.766  30.200  28.576  1.00  0.00     0.064 A 
ATOM     97  C   UNL A   1      44.805  30.860  27.788  1.00  0.00     0.173 A 
ATOM     98  C   UNL A   1      47.108  30.553  28.385  1.00  0.00     0.173 A 
ATOM     99  F   UNL A   1      43.496  30.649  27.978  1.00  0.00    -0.203 F 
ATOM    100  C   UNL A   1      45.181  31.798  26.825  1.00  0.00     0.198 A 
ATOM    101  C   UNL A   1      47.477  31.517  27.452  1.00  0.00     0.198 A 
ATOM    102  F   UNL A   1      48.063  29.994  29.145  1.00  0.00    -0.203 F 
ATOM    103  F   UNL A   1      44.249  32.403  26.076  1.00  0.00    -0.200 F 
ATOM    104  C   UNL A   1      46.516  32.130  26.664  1.00  0.00     0.200 A 
ATOM    105  F   UNL A   1      48.764  31.869  27.335  1.00  0.00    -0.200 F 
ATOM    106  F   UNL A   1      46.876  33.060  25.768  1.00  0.00    -0.200 F 
ENDBRANCH  73  96
ENDBRANCH  47  48
ENDBRANCH  40  42
ENDBRANCH  39  40
ENDBRANCH  38  39
ENDBRANCH  37  38
ENDBRANCH  36  37
ENDBRANCH  35  36
ENDBRANCH   1  35
TORSDOF 22
ENDMDL
MODEL 2
REMARK VINA RESULT:     -11.6      3.521      5.545
REMARK SMILES NS(=O)(=O)c1ccc(-n2nc(C(F)(F)F)cc2-c2ccc(C(=O)OCCOCCOCCOC(=O)c3ccc(-c4c5nc(c(-c6c(F)c(F)c(F)c(F)c6F)c6ccc([nH]6)c(-c6c(F)c(F)c(F)c(F)c6F)c6nc(c(-c7c(F)c(F)c(F)c(F)c7F)c7ccc4[nH]7)C=C6)C=C5)cc3)cc2)cc1
REMARK SMILES IDX 28 1 27 2 26 3 25 4 24 5 22 6 23 7 21 8 18 9 19 10 100 11
REMARK SMILES IDX 20 12 99 13 17 14 9 15 10 16 11 17 16 18 8 19 5 20 6 21
REMARK SMILES IDX 102 22 7 23 101 24 2 25 3 26 4 27 1 28 12 31 13 32 14 33
REMARK SMILES IDX 15 34 29 35 30 36 31 37 32 38 33 39 34 40 35 41 36 42 37 43
REMARK SMILES IDX 98 44 38 45 97 46 39 47 40 48 41 49 91 50 42 51 96 52 90 53
REMARK SMILES IDX 92 54 43 55 95 56 89 57 88 58 44 60 76 61 56 62 75 63 57 64
REMARK SMILES IDX 60 65 74 66 93 67 58 68 59 69 73 71 94 72 61 73 45 74 46 75
REMARK SMILES IDX 54 76 47 77 48 78 52 79 55 80 49 81 50 82 53 83 51 84 77 85
REMARK SMILES IDX 78 86 86 87 79 88 80 89 84 90 87 91 81 92 82 93 85 94 83 95
REMARK SMILES IDX 62 96 63 97 71 98 64 99 65 100 69 101 72 102 66 103 67 104
REMARK SMILES IDX 70 105 68 106
REMARK H PARENT 1 29 1 30 92 59 60 70
REMARK Flexibility Score: inf
ROOT
ATOM      1  C   UNL A   1      32.892  36.007  30.299  1.00  0.00     0.188 C 
ENDROOT
BRANCH   1   2
ATOM      2  O   UNL A   1      33.573  35.662  29.119  1.00  0.00    -0.376 OA
BRANCH   2   3
ATOM      3  C   UNL A   1      33.268  34.471  28.414  1.00  0.00     0.202 C 
BRANCH   3   4
ATOM      4  C   UNL A   1      33.834  33.062  28.703  1.00  0.00     0.261 C 
BRANCH   4   5
ATOM      5  O   UNL A   1      33.420  31.983  27.866  1.00  0.00    -0.460 OA
BRANCH   5   6
ATOM      6  C   UNL A   1      34.394  31.111  27.514  1.00  0.00     0.338 C 
ATOM      7  O   UNL A   1      35.596  31.270  27.642  1.00  0.00    -0.246 OA
BRANCH   6   8
ATOM      8  C   UNL A   1      33.792  29.812  27.138  1.00  0.00     0.060 A 
ATOM      9  C   UNL A   1      32.760  27.349  26.288  1.00  0.00     0.000 A 
ATOM     10  C   UNL A   1      34.137  27.604  26.213  1.00  0.00     0.011 A 
ATOM     11  C   UNL A   1      31.915  28.315  26.851  1.00  0.00     0.011 A 
ATOM     12  C   UNL A   1      34.650  28.831  26.627  1.00  0.00     0.016 A 
ATOM     13  C   UNL A   1      32.429  29.542  27.290  1.00  0.00     0.016 A 
BRANCH   9  14
ATOM     14  C   UNL A   1      32.209  26.155  25.651  1.00  0.00     0.075 A 
ATOM     15  N   UNL A   1      31.067  26.091  24.860  1.00  0.00    -0.233 N 
ATOM     16  N   UNL A   1      30.595  24.821  24.756  1.00  0.00    -0.163 NA
ATOM     17  C   UNL A   1      31.548  24.045  25.310  1.00  0.00     0.167 A 
ATOM     18  C   UNL A   1      32.560  24.842  25.897  1.00  0.00     0.064 A 
BRANCH  15  19
ATOM     19  C   UNL A   1      30.393  27.159  24.212  1.00  0.00     0.065 A 
ATOM     20  C   UNL A   1      29.093  29.228  22.878  1.00  0.00     0.082 A 
ATOM     21  C   UNL A   1      28.342  28.188  23.433  1.00  0.00     0.024 A 
ATOM     22  C   UNL A   1      30.486  29.253  23.005  1.00  0.00     0.024 A 
ATOM     23  C   UNL A   1      28.995  27.142  24.089  1.00  0.00     0.030 A 
ATOM     24  C   UNL A   1      31.137  28.229  23.696  1.00  0.00     0.030 A 
BRANCH  20  25
ATOM     25  S   UNL A   1      28.274  30.551  22.038  1.00  0.00     0.238 S 
ATOM     26  O   UNL A   1      27.259  31.097  22.920  1.00  0.00    -0.207 OA
ATOM     27  O   UNL A   1      28.004  30.166  20.681  1.00  0.00    -0.207 OA
BRANCH  25  28
ATOM     28  N   UNL A   1      29.476  31.724  21.936  1.00  0.00    -0.225 NA
ATOM     29  H   UNL A   1      29.248  32.379  21.188  1.00  0.00     0.137 HD
ATOM     30  H   UNL A   1      30.370  31.277  21.736  1.00  0.00     0.137 HD
ENDBRANCH  25  28
ENDBRANCH  20  25
ENDBRANCH  15  19
BRANCH  17  31
ATOM     31  C   UNL A   1      31.493  22.540  25.328  1.00  0.00     0.435 C 
ATOM     32  F   UNL A   1      31.519  21.990  24.086  1.00  0.00    -0.164 F 
ATOM     33  F   UNL A   1      32.523  22.001  26.030  1.00  0.00    -0.164 F 
ATOM     34  F   UNL A   1      30.351  22.091  25.922  1.00  0.00    -0.164 F 
ENDBRANCH  17  31
ENDBRANCH   9  14
ENDBRANCH   6   8
ENDBRANCH   5   6
ENDBRANCH   4   5
ENDBRANCH   3   4
ENDBRANCH   2   3
ENDBRANCH   1   2
BRANCH   1  35
ATOM     35  C   UNL A   1      33.439  35.463  31.635  1.00  0.00     0.188 C 
BRANCH  35  36
ATOM     36  O   UNL A   1      34.822  35.286  31.874  1.00  0.00    -0.376 OA
BRANCH  36  37
ATOM     37  C   UNL A   1      35.477  34.028  31.838  1.00  0.00     0.202 C 
BRANCH  37  38
ATOM     38  C   UNL A   1      36.682  33.696  30.962  1.00  0.00     0.261 C 
BRANCH  38  39
ATOM     39  O   UNL A   1      37.443  32.587  31.379  1.00  0.00    -0.460 OA
BRANCH  39  40
ATOM     40  C   UNL A   1      37.012  31.426  30.851  1.00  0.00     0.338 C 
ATOM     41  O   UNL A   1      35.921  30.902  30.998  1.00  0.00    -0.246 OA
BRANCH  40  42
ATOM     42  C   UNL A   1      38.121  30.797  30.139  1.00  0.00     0.060 A 
ATOM     43  C   UNL A   1      37.940  29.454  29.809  1.00  0.00     0.016 A 
ATOM     44  C   UNL A   1      39.385  31.394  30.240  1.00  0.00     0.016 A 
ATOM     45  C   UNL A   1      39.035  28.632  29.890  1.00  0.00     0.010 A 
ATOM     46  C   UNL A   1      40.471  30.569  30.345  1.00  0.00     0.010 A 
ATOM     47  C   UNL A   1      40.256  29.195  30.279  1.00  0.00    -0.014 A 
BRANCH  47  48
ATOM     48  C   UNL A   1      41.362  28.303  30.524  1.00  0.00     0.031 A 
ATOM     49  C   UNL A   1      41.675  28.225  31.964  1.00  0.00     0.074 A 
ATOM     50  C   UNL A   1      41.935  27.586  29.540  1.00  0.00     0.049 A 
ATOM     51  N   UNL A   1      42.720  28.687  32.562  1.00  0.00    -0.248 NA
ATOM     52  C   UNL A   1      40.601  27.792  32.875  1.00  0.00     0.031 C 
ATOM     53  C   UNL A   1      41.508  27.448  28.146  1.00  0.00     0.029 A 
ATOM     54  N   UNL A   1      42.994  26.734  29.619  1.00  0.00    -0.354 N 
ATOM     55  C   UNL A   1      42.533  28.385  33.904  1.00  0.00     0.074 A 
ATOM     56  C   UNL A   1      41.141  28.066  34.061  1.00  0.00     0.031 C 
ATOM     57  C   UNL A   1      42.152  26.398  27.582  1.00  0.00     0.029 A 
ATOM     58  C   UNL A   1      43.119  25.875  28.529  1.00  0.00     0.049 A 
ATOM     59  H   UNL A   1      43.618  26.726  30.380  1.00  0.00     0.167 HD
ATOM     60  C   UNL A   1      43.603  28.104  34.692  1.00  0.00     0.037 A 
ATOM     61  C   UNL A   1      43.904  24.767  28.496  1.00  0.00     0.037 A 
ATOM     62  C   UNL A   1      44.817  28.627  34.113  1.00  0.00     0.049 A 
ATOM     63  C   UNL A   1      44.918  24.919  29.576  1.00  0.00     0.074 A 
ATOM     64  C   UNL A   1      45.255  29.888  33.757  1.00  0.00     0.029 A 
ATOM     65  N   UNL A   1      45.641  27.746  33.455  1.00  0.00    -0.354 N 
ATOM     66  N   UNL A   1      45.871  25.810  29.548  1.00  0.00    -0.248 NA
ATOM     67  C   UNL A   1      44.565  24.422  30.899  1.00  0.00     0.031 C 
ATOM     68  C   UNL A   1      45.997  29.699  32.552  1.00  0.00     0.029 A 
ATOM     69  C   UNL A   1      46.037  28.332  32.281  1.00  0.00     0.049 A 
ATOM     70  H   UNL A   1      45.901  26.851  33.770  1.00  0.00     0.167 HD
ATOM     71  C   UNL A   1      45.924  26.306  30.843  1.00  0.00     0.074 A 
ATOM     72  C   UNL A   1      45.137  25.371  31.644  1.00  0.00     0.031 C 
ATOM     73  C   UNL A   1      46.342  27.583  31.086  1.00  0.00     0.037 A 
BRANCH  60  74
ATOM     74  C   UNL A   1      43.604  26.991  35.714  1.00  0.00     0.064 A 
ATOM     75  C   UNL A   1      44.026  27.288  37.024  1.00  0.00     0.173 A 
ATOM     76  C   UNL A   1      43.521  25.614  35.403  1.00  0.00     0.173 A 
ATOM     77  F   UNL A   1      44.151  28.562  37.427  1.00  0.00    -0.203 F 
ATOM     78  C   UNL A   1      44.428  26.290  37.913  1.00  0.00     0.198 A 
ATOM     79  C   UNL A   1      43.870  24.619  36.312  1.00  0.00     0.198 A 
ATOM     80  F   UNL A   1      43.209  25.162  34.184  1.00  0.00    -0.203 F 
ATOM     81  F   UNL A   1      44.955  26.630  39.096  1.00  0.00    -0.200 F 
ATOM     82  C   UNL A   1      44.359  24.957  37.553  1.00  0.00     0.200 A 
ATOM     83  F   UNL A   1      43.810  23.334  35.934  1.00  0.00    -0.200 F 
ATOM     84  F   UNL A   1      44.808  24.003  38.377  1.00  0.00    -0.200 F 
ENDBRANCH  60  74
BRANCH  61  85
ATOM     85  C   UNL A   1      43.618  23.448  27.874  1.00  0.00     0.064 A 
ATOM     86  C   UNL A   1      42.566  22.641  28.342  1.00  0.00     0.173 A 
ATOM     87  C   UNL A   1      44.169  23.086  26.628  1.00  0.00     0.173 A 
ATOM     88  F   UNL A   1      41.951  22.939  29.497  1.00  0.00    -0.203 F 
ATOM     89  C   UNL A   1      42.075  21.562  27.598  1.00  0.00     0.198 A 
ATOM     90  C   UNL A   1      43.683  22.007  25.888  1.00  0.00     0.198 A 
ATOM     91  F   UNL A   1      45.122  23.833  26.053  1.00  0.00    -0.203 F 
ATOM     92  F   UNL A   1      41.026  20.860  28.048  1.00  0.00    -0.200 F 
ATOM     93  C   UNL A   1      42.626  21.253  26.365  1.00  0.00     0.200 A 
ATOM     94  F   UNL A   1      44.200  21.743  24.680  1.00  0.00    -0.200 F 
ATOM     95  F   UNL A   1      42.114  20.264  25.621  1.00  0.00    -0.200 F 
ENDBRANCH  61  85
BRANCH  73  96
ATOM     96  C   UNL A   1      46.983  28.339  29.957  1.00  0.00     0.064 A 
ATOM     97  C   UNL A   1      48.344  28.245  29.612  1.00  0.00     0.173 A 
ATOM     98  C   UNL A   1      46.153  29.081  29.107  1.00  0.00     0.173 A 
ATOM     99  F   UNL A   1      49.183  27.476  30.318  1.00  0.00    -0.203 F 
ATOM    100  C   UNL A   1      48.851  28.901  28.489  1.00  0.00     0.198 A 
ATOM    101  C   UNL A   1      46.653  29.702  27.967  1.00  0.00     0.198 A 
ATOM    102  F   UNL A   1      44.837  29.162  29.359  1.00  0.00    -0.203 F 
ATOM    103  F   UNL A   1      50.154  28.810  28.188  1.00  0.00    -0.200 F 
ATOM    104  C   UNL A   1      48.003  29.623  27.665  1.00  0.00     0.200 A 
ATOM    105  F   UNL A   1      45.820  30.356  27.148  1.00  0.00    -0.200 F 
ATOM    106  F   UNL A   1      48.481  30.220  26.564  1.00  0.00    -0.200 F 
ENDBRANCH  73  96
ENDBRANCH  47  48
ENDBRANCH  40  42
ENDBRANCH  39  40
ENDBRANCH  38  39
ENDBRANCH  37  38
ENDBRANCH  36  37
ENDBRANCH  35  36
ENDBRANCH   1  35
TORSDOF 22
ENDMDL
MODEL 3
REMARK VINA RESULT:     -11.3      3.667      5.888
REMARK SMILES NS(=O)(=O)c1ccc(-n2nc(C(F)(F)F)cc2-c2ccc(C(=O)OCCOCCOCCOC(=O)c3ccc(-c4c5nc(c(-c6c(F)c(F)c(F)c(F)c6F)c6ccc([nH]6)c(-c6c(F)c(F)c(F)c(F)c6F)c6nc(c(-c7c(F)c(F)c(F)c(F)c7F)c7ccc4[nH]7)C=C6)C=C5)cc3)cc2)cc1
REMARK SMILES IDX 28 1 27 2 26 3 25 4 24 5 22 6 23 7 21 8 18 9 19 10 100 11
REMARK SMILES IDX 20 12 99 13 17 14 9 15 10 16 11 17 16 18 8 19 5 20 6 21
REMARK SMILES IDX 102 22 7 23 101 24 2 25 3 26 4 27 1 28 12 31 13 32 14 33
REMARK SMILES IDX 15 34 29 35 30 36 31 37 32 38 33 39 34 40 35 41 36 42 37 43
REMARK SMILES IDX 98 44 38 45 97 46 39 47 40 48 41 49 91 50 42 51 96 52 90 53
REMARK SMILES IDX 92 54 43 55 95 56 89 57 88 58 44 60 76 61 56 62 75 63 57 64
REMARK SMILES IDX 60 65 74 66 93 67 58 68 59 69 73 71 94 72 61 73 45 74 46 75
REMARK SMILES IDX 54 76 47 77 48 78 52 79 55 80 49 81 50 82 53 83 51 84 77 85
REMARK SMILES IDX 78 86 86 87 79 88 80 89 84 90 87 91 81 92 82 93 85 94 83 95
REMARK SMILES IDX 62 96 63 97 71 98 64 99 65 100 69 101 72 102 66 103 67 104
REMARK SMILES IDX 70 105 68 106
REMARK H PARENT 1 29 1 30 92 59 60 70
REMARK Flexibility Score: inf
ROOT
ATOM      1  C   UNL A   1      34.840  34.009  31.957  1.00  0.00     0.188 C 
ENDROOT
BRANCH   1   2
ATOM      2  O   UNL A   1      34.331  33.574  30.720  1.00  0.00    -0.376 OA
BRANCH   2   3
ATOM      3  C   UNL A   1      34.749  32.350  30.141  1.00  0.00     0.202 C 
BRANCH   3   4
ATOM      4  C   UNL A   1      35.987  32.135  29.242  1.00  0.00     0.261 C 
BRANCH   4   5
ATOM      5  O   UNL A   1      35.793  31.554  27.953  1.00  0.00    -0.460 OA
BRANCH   5   6
ATOM      6  C   UNL A   1      35.428  30.250  27.949  1.00  0.00     0.338 C 
ATOM      7  O   UNL A   1      35.801  29.386  28.725  1.00  0.00    -0.246 OA
BRANCH   6   8
ATOM      8  C   UNL A   1      34.322  30.041  26.988  1.00  0.00     0.060 A 
ATOM      9  C   UNL A   1      32.117  29.668  25.300  1.00  0.00     0.000 A 
ATOM     10  C   UNL A   1      32.091  30.661  26.290  1.00  0.00     0.011 A 
ATOM     11  C   UNL A   1      33.280  28.906  25.124  1.00  0.00     0.011 A 
ATOM     12  C   UNL A   1      33.183  30.841  27.135  1.00  0.00     0.016 A 
ATOM     13  C   UNL A   1      34.390  29.099  25.957  1.00  0.00     0.016 A 
BRANCH   9  14
ATOM     14  C   UNL A   1      30.893  29.340  24.571  1.00  0.00     0.075 A 
ATOM     15  N   UNL A   1      30.471  28.071  24.191  1.00  0.00    -0.233 N 
ATOM     16  N   UNL A   1      29.538  28.124  23.203  1.00  0.00    -0.163 NA
ATOM     17  C   UNL A   1      29.215  29.428  23.094  1.00  0.00     0.167 A 
ATOM     18  C   UNL A   1      30.053  30.219  23.916  1.00  0.00     0.064 A 
BRANCH  15  19
ATOM     19  C   UNL A   1      30.906  26.819  24.696  1.00  0.00     0.065 A 
ATOM     20  C   UNL A   1      31.693  24.338  25.687  1.00  0.00     0.082 A 
ATOM     21  C   UNL A   1      31.938  24.654  24.347  1.00  0.00     0.024 A 
ATOM     22  C   UNL A   1      31.078  25.262  26.539  1.00  0.00     0.024 A 
ATOM     23  C   UNL A   1      31.530  25.892  23.846  1.00  0.00     0.030 A 
ATOM     24  C   UNL A   1      30.707  26.516  26.050  1.00  0.00     0.030 A 
BRANCH  20  25
ATOM     25  S   UNL A   1      32.198  22.769  26.326  1.00  0.00     0.238 S 
ATOM     26  O   UNL A   1      32.390  22.896  27.759  1.00  0.00    -0.207 OA
ATOM     27  O   UNL A   1      33.181  22.188  25.455  1.00  0.00    -0.207 OA
BRANCH  25  28
ATOM     28  N   UNL A   1      30.818  21.828  26.127  1.00  0.00    -0.225 NA
ATOM     29  H   UNL A   1      30.782  21.476  25.171  1.00  0.00     0.137 HD
ATOM     30  H   UNL A   1      29.991  22.396  26.312  1.00  0.00     0.137 HD
ENDBRANCH  25  28
ENDBRANCH  20  25
ENDBRANCH  15  19
BRANCH  17  31
ATOM     31  C   UNL A   1      28.137  29.947  22.180  1.00  0.00     0.435 C 
ATOM     32  F   UNL A   1      27.392  30.936  22.739  1.00  0.00    -0.164 F 
ATOM     33  F   UNL A   1      28.645  30.433  21.017  1.00  0.00    -0.164 F 
ATOM     34  F   UNL A   1      27.264  28.960  21.830  1.00  0.00    -0.164 F 
ENDBRANCH  17  31
ENDBRANCH   9  14
ENDBRANCH   6   8
ENDBRANCH   5   6
ENDBRANCH   4   5
ENDBRANCH   3   4
ENDBRANCH   2   3
ENDBRANCH   1   2
BRANCH   1  35
ATOM     35  C   UNL A   1      35.330  32.938  32.953  1.00  0.00     0.188 C 
BRANCH  35  36
ATOM     36  O   UNL A   1      36.412  33.160  33.836  1.00  0.00    -0.376 OA
BRANCH  36  37
ATOM     37  C   UNL A   1      37.453  32.223  34.064  1.00  0.00     0.202 C 
BRANCH  37  38
ATOM     38  C   UNL A   1      38.030  31.285  33.009  1.00  0.00     0.261 C 
BRANCH  38  39
ATOM     39  O   UNL A   1      39.291  31.652  32.500  1.00  0.00    -0.460 OA
BRANCH  39  40
ATOM     40  C   UNL A   1      39.219  32.228  31.286  1.00  0.00     0.338 C 
ATOM     41  O   UNL A   1      38.649  33.263  30.986  1.00  0.00    -0.246 OA
BRANCH  40  42
ATOM     42  C   UNL A   1      39.850  31.342  30.311  1.00  0.00     0.060 A 
ATOM     43  C   UNL A   1      39.101  30.226  29.939  1.00  0.00     0.016 A 
ATOM     44  C   UNL A   1      41.243  31.404  30.177  1.00  0.00     0.016 A 
ATOM     45  C   UNL A   1      39.779  29.053  29.727  1.00  0.00     0.010 A 
ATOM     46  C   UNL A   1      41.917  30.228  29.990  1.00  0.00     0.010 A 
ATOM     47  C   UNL A   1      41.170  29.058  29.880  1.00  0.00    -0.014 A 
BRANCH  47  48
ATOM     48  C   UNL A   1      41.860  27.794  29.821  1.00  0.00     0.031 A 
ATOM     49  C   UNL A   1      42.608  27.535  31.067  1.00  0.00     0.074 A 
ATOM     50  C   UNL A   1      41.726  26.953  28.778  1.00  0.00     0.049 A 
ATOM     51  N   UNL A   1      43.888  27.522  31.221  1.00  0.00    -0.248 NA
ATOM     52  C   UNL A   1      41.848  27.520  32.329  1.00  0.00     0.031 C 
ATOM     53  C   UNL A   1      40.816  27.056  27.635  1.00  0.00     0.029 A 
ATOM     54  N   UNL A   1      42.333  25.752  28.576  1.00  0.00    -0.354 N 
ATOM     55  C   UNL A   1      44.088  27.259  32.569  1.00  0.00     0.074 A 
ATOM     56  C   UNL A   1      42.834  27.506  33.224  1.00  0.00     0.031 C 
ATOM     57  C   UNL A   1      40.764  25.864  26.995  1.00  0.00     0.029 A 
ATOM     58  C   UNL A   1      41.725  24.962  27.602  1.00  0.00     0.049 A 
ATOM     59  H   UNL A   1      43.132  25.465  29.074  1.00  0.00     0.167 HD
ATOM     60  C   UNL A   1      45.173  26.545  32.967  1.00  0.00     0.037 A 
ATOM     61  C   UNL A   1      41.959  23.637  27.415  1.00  0.00     0.037 A 
ATOM     62  C   UNL A   1      46.204  26.574  31.958  1.00  0.00     0.049 A 
ATOM     63  C   UNL A   1      43.266  23.330  28.061  1.00  0.00     0.074 A 
ATOM     64  C   UNL A   1      46.934  27.575  31.347  1.00  0.00     0.029 A 
ATOM     65  N   UNL A   1      46.337  25.470  31.150  1.00  0.00    -0.354 N 
ATOM     66  N   UNL A   1      44.410  23.775  27.618  1.00  0.00    -0.248 NA
ATOM     67  C   UNL A   1      43.242  22.954  29.467  1.00  0.00     0.031 C 
ATOM     68  C   UNL A   1      47.068  27.164  29.987  1.00  0.00     0.029 A 
ATOM     69  C   UNL A   1      46.483  25.905  29.859  1.00  0.00     0.049 A 
ATOM     70  H   UNL A   1      46.328  24.532  31.447  1.00  0.00     0.167 HD
ATOM     71  C   UNL A   1      45.103  24.152  28.759  1.00  0.00     0.074 A 
ATOM     72  C   UNL A   1      44.358  23.567  29.872  1.00  0.00     0.031 C 
ATOM     73  C   UNL A   1      46.034  25.149  28.714  1.00  0.00     0.037 A 
BRANCH  60  74
ATOM     74  C   UNL A   1      45.110  25.477  34.034  1.00  0.00     0.064 A 
ATOM     75  C   UNL A   1      46.048  25.526  35.083  1.00  0.00     0.173 A 
ATOM     76  C   UNL A   1      44.402  24.259  33.912  1.00  0.00     0.173 A 
ATOM     77  F   UNL A   1      46.785  26.629  35.288  1.00  0.00    -0.203 F 
ATOM     78  C   UNL A   1      46.325  24.411  35.877  1.00  0.00     0.198 A 
ATOM     79  C   UNL A   1      44.642  23.167  34.742  1.00  0.00     0.198 A 
ATOM     80  F   UNL A   1      43.532  24.020  32.926  1.00  0.00    -0.203 F 
ATOM     81  F   UNL A   1      47.324  24.464  36.767  1.00  0.00    -0.200 F 
ATOM     82  C   UNL A   1      45.628  23.230  35.700  1.00  0.00     0.200 A 
ATOM     83  F   UNL A   1      43.965  22.028  34.540  1.00  0.00    -0.200 F 
ATOM     84  F   UNL A   1      45.938  22.141  36.412  1.00  0.00    -0.200 F 
ENDBRANCH  60  74
BRANCH  61  85
ATOM     85  C   UNL A   1      40.991  22.566  27.065  1.00  0.00     0.064 A 
ATOM     86  C   UNL A   1      39.653  22.874  26.753  1.00  0.00     0.173 A 
ATOM     87  C   UNL A   1      41.418  21.264  26.737  1.00  0.00     0.173 A 
ATOM     88  F   UNL A   1      39.174  24.105  26.987  1.00  0.00    -0.203 F 
ATOM     89  C   UNL A   1      38.810  21.950  26.126  1.00  0.00     0.198 A 
ATOM     90  C   UNL A   1      40.574  20.341  26.117  1.00  0.00     0.198 A 
ATOM     91  F   UNL A   1      42.692  20.890  26.919  1.00  0.00    -0.203 F 
ATOM     92  F   UNL A   1      37.564  22.306  25.783  1.00  0.00    -0.200 F 
ATOM     93  C   UNL A   1      39.275  20.688  25.796  1.00  0.00     0.200 A 
ATOM     94  F   UNL A   1      41.049  19.136  25.770  1.00  0.00    -0.200 F 
ATOM     95  F   UNL A   1      38.490  19.826  25.135  1.00  0.00    -0.200 F 
ENDBRANCH  61  85
BRANCH  73  96
ATOM     96  C   UNL A   1      46.470  25.642  27.363  1.00  0.00     0.064 A 
ATOM     97  C   UNL A   1      45.717  26.513  26.556  1.00  0.00     0.173 A 
ATOM     98  C   UNL A   1      47.766  25.325  26.935  1.00  0.00     0.173 A 
ATOM     99  F   UNL A   1      44.508  26.940  26.944  1.00  0.00    -0.203 F 
ATOM    100  C   UNL A   1      46.227  27.007  25.354  1.00  0.00     0.198 A 
ATOM    101  C   UNL A   1      48.287  25.850  25.756  1.00  0.00     0.198 A 
ATOM    102  F   UNL A   1      48.548  24.540  27.691  1.00  0.00    -0.203 F 
ATOM    103  F   UNL A   1      45.485  27.825  24.594  1.00  0.00    -0.200 F 
ATOM    104  C   UNL A   1      47.514  26.681  24.960  1.00  0.00     0.200 A 
ATOM    105  F   UNL A   1      49.549  25.571  25.405  1.00  0.00    -0.200 F 
ATOM    106  F   UNL A   1      48.021  27.187  23.827  1.00  0.00    -0.200 F 
ENDBRANCH  73  96
ENDBRANCH  47  48
ENDBRANCH  40  42
ENDBRANCH  39  40
ENDBRANCH  38  39
ENDBRANCH  37  38
ENDBRANCH  36  37
ENDBRANCH  35  36
ENDBRANCH   1  35
TORSDOF 22
ENDMDL
