MODEL 1
REMARK VINA RESULT:     -10.2      0.000      0.000
REMARK SMILES O=C(Cc1c(F)cc(Cl)cc1F)OCCOCCOCCOC(=O)c1ccc(-c2c3nc(c(-c4c(F)c(F)c(F)c(F)c4F)c4ccc([nH]4)c(-c4c(F)c(F)c(F)c(F)c4F)c4nc(c(-c5c(F)c(F)c(F)c(F)c5F)c5ccc2[nH]5)C=C4)C=C3)cc1
REMARK SMILES IDX 18 1 17 2 16 3 15 4 14 5 13 6 2 7 1 8 3 9 4 10 5 11 11 12
REMARK SMILES IDX 6 13 7 14 10 15 12 16 8 17 9 18 19 19 20 20 21 21 22 22
REMARK SMILES IDX 23 23 24 24 25 25 26 26 87 27 27 28 86 29 28 30 29 31 30 32
REMARK SMILES IDX 80 33 31 34 85 35 79 36 81 37 32 38 84 39 78 40 77 41 33 43
REMARK SMILES IDX 65 44 45 45 64 46 46 47 49 48 63 49 82 50 47 51 48 52 62 54
REMARK SMILES IDX 83 55 50 56 34 57 35 58 43 59 36 60 37 61 41 62 44 63 38 64
REMARK SMILES IDX 39 65 42 66 40 67 66 68 67 69 75 70 68 71 69 72 73 73 76 74
REMARK SMILES IDX 70 75 71 76 74 77 72 78 51 79 52 80 60 81 53 82 54 83 58 84
REMARK SMILES IDX 61 85 55 86 56 87 59 88 57 89
REMARK H PARENT 81 42 49 53
REMARK Flexibility Score: inf
ROOT
ATOM      1  C   UNL A   1      32.636  29.139  26.238  1.00  0.00     0.188 C 
ENDROOT
BRANCH   1   2
ATOM      2  C   UNL A   1      33.980  28.454  26.536  1.00  0.00     0.188 C 
BRANCH   2   3
ATOM      3  O   UNL A   1      34.038  27.092  26.165  1.00  0.00    -0.376 OA
BRANCH   3   4
ATOM      4  C   UNL A   1      33.770  26.784  24.811  1.00  0.00     0.202 C 
BRANCH   4   5
ATOM      5  C   UNL A   1      33.018  25.471  24.619  1.00  0.00     0.261 C 
BRANCH   5   6
ATOM      6  O   UNL A   1      31.853  25.255  25.453  1.00  0.00    -0.463 OA
BRANCH   6   7
ATOM      7  C   UNL A   1      30.585  25.695  25.330  1.00  0.00     0.310 C 
ATOM      8  O   UNL A   1      29.923  25.897  26.349  1.00  0.00    -0.252 OA
BRANCH   7   9
ATOM      9  C   UNL A   1      29.908  25.754  23.986  1.00  0.00     0.164 C 
BRANCH   9  10
ATOM     10  C   UNL A   1      29.365  27.055  23.475  1.00  0.00     0.035 A 
ATOM     11  C   UNL A   1      30.223  27.901  22.762  1.00  0.00     0.131 A 
ATOM     12  C   UNL A   1      28.038  27.449  23.614  1.00  0.00     0.131 A 
ATOM     13  F   UNL A   1      31.502  27.541  22.578  1.00  0.00    -0.207 F 
ATOM     14  C   UNL A   1      29.793  29.117  22.245  1.00  0.00     0.060 A 
ATOM     15  C   UNL A   1      27.588  28.669  23.123  1.00  0.00     0.060 A 
ATOM     16  F   UNL A   1      27.170  26.666  24.266  1.00  0.00    -0.207 F 
ATOM     17  C   UNL A   1      28.472  29.501  22.439  1.00  0.00     0.046 A 
ATOM     18  Cl  UNL A   1      27.924  31.009  21.827  1.00  0.00    -0.084 Cl
ENDBRANCH   9  10
ENDBRANCH   7   9
ENDBRANCH   6   7
ENDBRANCH   5   6
ENDBRANCH   4   5
ENDBRANCH   3   4
ENDBRANCH   2   3
ENDBRANCH   1   2
BRANCH   1  19
ATOM     19  O   UNL A   1      32.256  30.299  26.963  1.00  0.00    -0.376 OA
BRANCH  19  20
ATOM     20  C   UNL A   1      31.458  31.293  26.334  1.00  0.00     0.202 C 
BRANCH  20  21
ATOM     21  C   UNL A   1      31.549  32.739  26.841  1.00  0.00     0.261 C 
BRANCH  21  22
ATOM     22  O   UNL A   1      32.871  33.314  26.800  1.00  0.00    -0.460 OA
BRANCH  22  23
ATOM     23  C   UNL A   1      33.333  33.815  27.972  1.00  0.00     0.338 C 
ATOM     24  O   UNL A   1      32.794  34.638  28.690  1.00  0.00    -0.246 OA
BRANCH  23  25
ATOM     25  C   UNL A   1      34.568  33.113  28.381  1.00  0.00     0.060 A 
ATOM     26  C   UNL A   1      34.458  31.805  28.876  1.00  0.00     0.016 A 
ATOM     27  C   UNL A   1      35.806  33.758  28.370  1.00  0.00     0.016 A 
ATOM     28  C   UNL A   1      35.578  31.149  29.389  1.00  0.00     0.010 A 
ATOM     29  C   UNL A   1      36.923  33.110  28.912  1.00  0.00     0.010 A 
ATOM     30  C   UNL A   1      36.809  31.816  29.455  1.00  0.00    -0.014 A 
BRANCH  30  31
ATOM     31  C   UNL A   1      37.911  31.246  30.273  1.00  0.00     0.031 A 
ATOM     32  C   UNL A   1      38.826  30.234  29.639  1.00  0.00     0.074 A 
ATOM     33  C   UNL A   1      38.125  31.635  31.543  1.00  0.00     0.049 A 
ATOM     34  N   UNL A   1      39.829  29.573  30.161  1.00  0.00    -0.248 NA
ATOM     35  C   UNL A   1      38.581  29.931  28.219  1.00  0.00     0.031 C 
ATOM     36  C   UNL A   1      37.354  32.649  32.257  1.00  0.00     0.029 A 
ATOM     37  N   UNL A   1      39.061  31.216  32.458  1.00  0.00    -0.354 N 
ATOM     38  C   UNL A   1      40.333  28.784  29.136  1.00  0.00     0.074 A 
ATOM     39  C   UNL A   1      39.509  29.020  27.971  1.00  0.00     0.031 C 
ATOM     40  C   UNL A   1      37.846  32.770  33.503  1.00  0.00     0.029 A 
ATOM     41  C   UNL A   1      38.944  31.820  33.685  1.00  0.00     0.049 A 
ATOM     42  H   UNL A   1      39.753  30.545  32.252  1.00  0.00     0.167 HD
ATOM     43  C   UNL A   1      41.396  27.946  29.159  1.00  0.00     0.037 A 
ATOM     44  C   UNL A   1      39.633  31.615  34.827  1.00  0.00     0.037 A 
ATOM     45  C   UNL A   1      42.214  27.699  30.316  1.00  0.00     0.049 A 
ATOM     46  C   UNL A   1      40.744  30.595  34.858  1.00  0.00     0.074 A 
ATOM     47  C   UNL A   1      43.310  26.862  30.433  1.00  0.00     0.029 A 
ATOM     48  N   UNL A   1      42.022  28.285  31.558  1.00  0.00    -0.354 N 
ATOM     49  N   UNL A   1      41.220  29.857  33.884  1.00  0.00    -0.248 NA
ATOM     50  C   UNL A   1      41.414  30.379  36.150  1.00  0.00     0.031 C 
ATOM     51  C   UNL A   1      43.749  26.900  31.760  1.00  0.00     0.029 A 
ATOM     52  C   UNL A   1      42.964  27.804  32.455  1.00  0.00     0.049 A 
ATOM     53  H   UNL A   1      41.322  28.942  31.771  1.00  0.00     0.167 HD
ATOM     54  C   UNL A   1      42.257  29.114  34.435  1.00  0.00     0.074 A 
ATOM     55  C   UNL A   1      42.351  29.496  35.827  1.00  0.00     0.031 C 
ATOM     56  C   UNL A   1      43.057  28.198  33.838  1.00  0.00     0.037 A 
BRANCH  43  57
ATOM     57  C   UNL A   1      41.734  27.215  27.893  1.00  0.00     0.064 A 
ATOM     58  C   UNL A   1      42.641  27.743  26.963  1.00  0.00     0.173 A 
ATOM     59  C   UNL A   1      41.192  25.947  27.636  1.00  0.00     0.173 A 
ATOM     60  F   UNL A   1      43.176  28.958  27.156  1.00  0.00    -0.203 F 
ATOM     61  C   UNL A   1      42.983  27.034  25.815  1.00  0.00     0.198 A 
ATOM     62  C   UNL A   1      41.557  25.229  26.502  1.00  0.00     0.198 A 
ATOM     63  F   UNL A   1      40.323  25.396  28.497  1.00  0.00    -0.203 F 
ATOM     64  F   UNL A   1      43.826  27.571  24.922  1.00  0.00    -0.200 F 
ATOM     65  C   UNL A   1      42.449  25.774  25.590  1.00  0.00     0.200 A 
ATOM     66  F   UNL A   1      41.051  24.004  26.294  1.00  0.00    -0.200 F 
ATOM     67  F   UNL A   1      42.792  25.084  24.493  1.00  0.00    -0.200 F 
ENDBRANCH  43  57
BRANCH  44  68
ATOM     68  C   UNL A   1      39.291  32.395  36.046  1.00  0.00     0.064 A 
ATOM     69  C   UNL A   1      39.899  33.631  36.307  1.00  0.00     0.173 A 
ATOM     70  C   UNL A   1      38.359  31.920  36.980  1.00  0.00     0.173 A 
ATOM     71  F   UNL A   1      40.821  34.113  35.460  1.00  0.00    -0.203 F 
ATOM     72  C   UNL A   1      39.593  34.358  37.455  1.00  0.00     0.198 A 
ATOM     73  C   UNL A   1      38.032  32.660  38.114  1.00  0.00     0.198 A 
ATOM     74  F   UNL A   1      37.753  30.739  36.785  1.00  0.00    -0.203 F 
ATOM     75  F   UNL A   1      40.218  35.518  37.698  1.00  0.00    -0.200 F 
ATOM     76  C   UNL A   1      38.654  33.876  38.354  1.00  0.00     0.200 A 
ATOM     77  F   UNL A   1      37.115  32.197  38.975  1.00  0.00    -0.200 F 
ATOM     78  F   UNL A   1      38.351  34.581  39.453  1.00  0.00    -0.200 F 
ENDBRANCH  44  68
BRANCH  56  79
ATOM     79  C   UNL A   1      44.131  27.550  34.667  1.00  0.00     0.064 A 
ATOM     80  C   UNL A   1      45.371  28.169  34.877  1.00  0.00     0.173 A 
ATOM     81  C   UNL A   1      43.879  26.339  35.333  1.00  0.00     0.173 A 
ATOM     82  F   UNL A   1      45.664  29.321  34.257  1.00  0.00    -0.203 F 
ATOM     83  C   UNL A   1      46.324  27.595  35.717  1.00  0.00     0.198 A 
ATOM     84  C   UNL A   1      44.823  25.784  36.194  1.00  0.00     0.198 A 
ATOM     85  F   UNL A   1      42.705  25.711  35.174  1.00  0.00    -0.203 F 
ATOM     86  F   UNL A   1      47.514  28.190  35.880  1.00  0.00    -0.200 F 
ATOM     87  C   UNL A   1      46.045  26.410  36.382  1.00  0.00     0.200 A 
ATOM     88  F   UNL A   1      44.545  24.648  36.849  1.00  0.00    -0.200 F 
ATOM     89  F   UNL A   1      46.956  25.871  37.204  1.00  0.00    -0.200 F 
ENDBRANCH  56  79
ENDBRANCH  30  31
ENDBRANCH  23  25
ENDBRANCH  22  23
ENDBRANCH  21  22
ENDBRANCH  20  21
ENDBRANCH  19  20
ENDBRANCH   1  19
TORSDOF 18
ENDMDL
MODEL 2
REMARK VINA RESULT:     -10.2      2.596      3.860
REMARK SMILES O=C(Cc1c(F)cc(Cl)cc1F)OCCOCCOCCOC(=O)c1ccc(-c2c3nc(c(-c4c(F)c(F)c(F)c(F)c4F)c4ccc([nH]4)c(-c4c(F)c(F)c(F)c(F)c4F)c4nc(c(-c5c(F)c(F)c(F)c(F)c5F)c5ccc2[nH]5)C=C4)C=C3)cc1
REMARK SMILES IDX 18 1 17 2 16 3 15 4 14 5 13 6 2 7 1 8 3 9 4 10 5 11 11 12
REMARK SMILES IDX 6 13 7 14 10 15 12 16 8 17 9 18 19 19 20 20 21 21 22 22
REMARK SMILES IDX 23 23 24 24 25 25 26 26 87 27 27 28 86 29 28 30 29 31 30 32
REMARK SMILES IDX 80 33 31 34 85 35 79 36 81 37 32 38 84 39 78 40 77 41 33 43
REMARK SMILES IDX 65 44 45 45 64 46 46 47 49 48 63 49 82 50 47 51 48 52 62 54
REMARK SMILES IDX 83 55 50 56 34 57 35 58 43 59 36 60 37 61 41 62 44 63 38 64
REMARK SMILES IDX 39 65 42 66 40 67 66 68 67 69 75 70 68 71 69 72 73 73 76 74
REMARK SMILES IDX 70 75 71 76 74 77 72 78 51 79 52 80 60 81 53 82 54 83 58 84
REMARK SMILES IDX 61 85 55 86 56 87 59 88 57 89
REMARK H PARENT 81 42 49 53
REMARK Flexibility Score: inf
ROOT
ATOM      1  C   UNL A   1      33.414  27.330  24.736  1.00  0.00     0.188 C 
ENDROOT
BRANCH   1   2
ATOM      2  C   UNL A   1      33.459  25.801  24.582  1.00  0.00     0.188 C 
BRANCH   2   3
ATOM      3  O   UNL A   1      33.247  25.339  23.263  1.00  0.00    -0.376 OA
BRANCH   3   4
ATOM      4  C   UNL A   1      33.690  24.030  22.962  1.00  0.00     0.202 C 
BRANCH   4   5
ATOM      5  C   UNL A   1      32.611  22.965  23.127  1.00  0.00     0.261 C 
BRANCH   5   6
ATOM      6  O   UNL A   1      33.060  21.612  23.381  1.00  0.00    -0.463 OA
BRANCH   6   7
ATOM      7  C   UNL A   1      32.967  20.842  24.484  1.00  0.00     0.310 C 
ATOM      8  O   UNL A   1      31.860  20.660  24.992  1.00  0.00    -0.252 OA
BRANCH   7   9
ATOM      9  C   UNL A   1      34.199  20.370  25.209  1.00  0.00     0.164 C 
BRANCH   9  10
ATOM     10  C   UNL A   1      35.346  21.309  25.431  1.00  0.00     0.035 A 
ATOM     11  C   UNL A   1      35.080  22.567  25.985  1.00  0.00     0.131 A 
ATOM     12  C   UNL A   1      36.675  20.984  25.176  1.00  0.00     0.131 A 
ATOM     13  F   UNL A   1      33.815  22.905  26.277  1.00  0.00    -0.207 F 
ATOM     14  C   UNL A   1      36.089  23.489  26.234  1.00  0.00     0.060 A 
ATOM     15  C   UNL A   1      37.700  21.897  25.398  1.00  0.00     0.060 A 
ATOM     16  F   UNL A   1      36.988  19.786  24.669  1.00  0.00    -0.207 F 
ATOM     17  C   UNL A   1      37.401  23.149  25.927  1.00  0.00     0.046 A 
ATOM     18  Cl  UNL A   1      38.662  24.282  26.207  1.00  0.00    -0.084 Cl
ENDBRANCH   9  10
ENDBRANCH   7   9
ENDBRANCH   6   7
ENDBRANCH   5   6
ENDBRANCH   4   5
ENDBRANCH   3   4
ENDBRANCH   2   3
ENDBRANCH   1   2
BRANCH   1  19
ATOM     19  O   UNL A   1      32.297  27.946  25.358  1.00  0.00    -0.376 OA
BRANCH  19  20
ATOM     20  C   UNL A   1      31.778  29.160  24.832  1.00  0.00     0.202 C 
BRANCH  20  21
ATOM     21  C   UNL A   1      31.701  30.387  25.752  1.00  0.00     0.261 C 
BRANCH  21  22
ATOM     22  O   UNL A   1      32.524  30.312  26.933  1.00  0.00    -0.460 OA
BRANCH  22  23
ATOM     23  C   UNL A   1      33.201  31.442  27.253  1.00  0.00     0.338 C 
ATOM     24  O   UNL A   1      32.768  32.579  27.293  1.00  0.00    -0.246 OA
BRANCH  23  25
ATOM     25  C   UNL A   1      34.568  31.110  27.712  1.00  0.00     0.060 A 
ATOM     26  C   UNL A   1      34.877  29.767  27.966  1.00  0.00     0.016 A 
ATOM     27  C   UNL A   1      35.503  32.111  27.981  1.00  0.00     0.016 A 
ATOM     28  C   UNL A   1      36.112  29.421  28.517  1.00  0.00     0.010 A 
ATOM     29  C   UNL A   1      36.730  31.765  28.562  1.00  0.00     0.010 A 
ATOM     30  C   UNL A   1      37.028  30.423  28.864  1.00  0.00    -0.014 A 
BRANCH  30  31
ATOM     31  C   UNL A   1      38.193  30.088  29.725  1.00  0.00     0.031 A 
ATOM     32  C   UNL A   1      39.236  29.147  29.187  1.00  0.00     0.074 A 
ATOM     33  C   UNL A   1      38.349  30.629  30.947  1.00  0.00     0.049 A 
ATOM     34  N   UNL A   1      40.315  28.680  29.763  1.00  0.00    -0.248 NA
ATOM     35  C   UNL A   1      39.038  28.673  27.807  1.00  0.00     0.031 C 
ATOM     36  C   UNL A   1      37.448  31.599  31.562  1.00  0.00     0.029 A 
ATOM     37  N   UNL A   1      39.329  30.431  31.890  1.00  0.00    -0.354 N 
ATOM     38  C   UNL A   1      40.923  27.865  28.818  1.00  0.00     0.074 A 
ATOM     39  C   UNL A   1      40.079  27.871  27.643  1.00  0.00     0.031 C 
ATOM     40  C   UNL A   1      37.915  31.910  32.785  1.00  0.00     0.029 A 
ATOM     41  C   UNL A   1      39.129  31.136  33.051  1.00  0.00     0.049 A 
ATOM     42  H   UNL A   1      40.104  29.841  31.746  1.00  0.00     0.167 HD
ATOM     43  C   UNL A   1      42.088  27.181  28.915  1.00  0.00     0.037 A 
ATOM     44  C   UNL A   1      39.834  31.140  34.201  1.00  0.00     0.037 A 
ATOM     45  C   UNL A   1      42.926  27.162  30.083  1.00  0.00     0.049 A 
ATOM     46  C   UNL A   1      41.070  30.284  34.324  1.00  0.00     0.074 A 
ATOM     47  C   UNL A   1      44.123  26.493  30.273  1.00  0.00     0.029 A 
ATOM     48  N   UNL A   1      42.654  27.840  31.262  1.00  0.00    -0.354 N 
ATOM     49  N   UNL A   1      41.643  29.520  33.424  1.00  0.00    -0.248 NA
ATOM     50  C   UNL A   1      41.758  30.289  35.625  1.00  0.00     0.031 C 
ATOM     51  C   UNL A   1      44.548  26.723  31.584  1.00  0.00     0.029 A 
ATOM     52  C   UNL A   1      43.648  27.581  32.193  1.00  0.00     0.049 A 
ATOM     53  H   UNL A   1      41.873  28.418  31.414  1.00  0.00     0.167 HD
ATOM     54  C   UNL A   1      42.767  28.979  34.038  1.00  0.00     0.074 A 
ATOM     55  C   UNL A   1      42.804  29.509  35.384  1.00  0.00     0.031 C 
ATOM     56  C   UNL A   1      43.684  28.121  33.528  1.00  0.00     0.037 A 
BRANCH  43  57
ATOM     57  C   UNL A   1      42.523  26.377  27.725  1.00  0.00     0.064 A 
ATOM     58  C   UNL A   1      43.461  26.875  26.810  1.00  0.00     0.173 A 
ATOM     59  C   UNL A   1      42.044  25.072  27.534  1.00  0.00     0.173 A 
ATOM     60  F   UNL A   1      43.939  28.121  26.941  1.00  0.00    -0.203 F 
ATOM     61  C   UNL A   1      43.894  26.100  25.737  1.00  0.00     0.198 A 
ATOM     62  C   UNL A   1      42.500  24.291  26.476  1.00  0.00     0.198 A 
ATOM     63  F   UNL A   1      41.149  24.549  28.385  1.00  0.00    -0.203 F 
ATOM     64  F   UNL A   1      44.765  26.607  24.853  1.00  0.00    -0.200 F 
ATOM     65  C   UNL A   1      43.421  24.806  25.576  1.00  0.00     0.200 A 
ATOM     66  F   UNL A   1      42.053  23.035  26.331  1.00  0.00    -0.200 F 
ATOM     67  F   UNL A   1      43.851  24.056  24.552  1.00  0.00    -0.200 F 
ENDBRANCH  43  57
BRANCH  44  68
ATOM     68  C   UNL A   1      39.388  31.988  35.339  1.00  0.00     0.064 A 
ATOM     69  C   UNL A   1      39.828  33.312  35.468  1.00  0.00     0.173 A 
ATOM     70  C   UNL A   1      38.522  31.491  36.324  1.00  0.00     0.173 A 
ATOM     71  F   UNL A   1      40.682  33.823  34.570  1.00  0.00    -0.203 F 
ATOM     72  C   UNL A   1      39.424  34.105  36.541  1.00  0.00     0.198 A 
ATOM     73  C   UNL A   1      38.096  32.292  37.381  1.00  0.00     0.198 A 
ATOM     74  F   UNL A   1      38.077  30.227  36.254  1.00  0.00    -0.203 F 
ATOM     75  F   UNL A   1      39.890  35.355  36.660  1.00  0.00    -0.200 F 
ATOM     76  C   UNL A   1      38.552  33.597  37.492  1.00  0.00     0.200 A 
ATOM     77  F   UNL A   1      37.244  31.802  38.292  1.00  0.00    -0.200 F 
ATOM     78  F   UNL A   1      38.155  34.363  38.517  1.00  0.00    -0.200 F 
ENDBRANCH  44  68
BRANCH  56  79
ATOM     79  C   UNL A   1      44.830  27.708  34.408  1.00  0.00     0.064 A 
ATOM     80  C   UNL A   1      45.996  28.480  34.507  1.00  0.00     0.173 A 
ATOM     81  C   UNL A   1      44.721  26.574  35.229  1.00  0.00     0.173 A 
ATOM     82  F   UNL A   1      46.153  29.566  33.737  1.00  0.00    -0.203 F 
ATOM     83  C   UNL A   1      47.014  28.128  35.390  1.00  0.00     0.198 A 
ATOM     84  C   UNL A   1      45.729  26.242  36.132  1.00  0.00     0.198 A 
ATOM     85  F   UNL A   1      43.622  25.807  35.180  1.00  0.00    -0.203 F 
ATOM     86  F   UNL A   1      48.133  28.864  35.448  1.00  0.00    -0.200 F 
ATOM     87  C   UNL A   1      46.876  27.016  36.209  1.00  0.00     0.200 A 
ATOM     88  F   UNL A   1      45.584  25.178  36.934  1.00  0.00    -0.200 F 
ATOM     89  F   UNL A   1      47.848  26.691  37.072  1.00  0.00    -0.200 F 
ENDBRANCH  56  79
ENDBRANCH  30  31
ENDBRANCH  23  25
ENDBRANCH  22  23
ENDBRANCH  21  22
ENDBRANCH  20  21
ENDBRANCH  19  20
ENDBRANCH   1  19
TORSDOF 18
ENDMDL
MODEL 3
REMARK VINA RESULT:     -10.2      4.898      8.254
REMARK SMILES O=C(Cc1c(F)cc(Cl)cc1F)OCCOCCOCCOC(=O)c1ccc(-c2c3nc(c(-c4c(F)c(F)c(F)c(F)c4F)c4ccc([nH]4)c(-c4c(F)c(F)c(F)c(F)c4F)c4nc(c(-c5c(F)c(F)c(F)c(F)c5F)c5ccc2[nH]5)C=C4)C=C3)cc1
REMARK SMILES IDX 18 1 17 2 16 3 15 4 14 5 13 6 2 7 1 8 3 9 4 10 5 11 11 12
REMARK SMILES IDX 6 13 7 14 10 15 12 16 8 17 9 18 19 19 20 20 21 21 22 22
REMARK SMILES IDX 23 23 24 24 25 25 26 26 87 27 27 28 86 29 28 30 29 31 30 32
REMARK SMILES IDX 80 33 31 34 85 35 79 36 81 37 32 38 84 39 78 40 77 41 33 43
REMARK SMILES IDX 65 44 45 45 64 46 46 47 49 48 63 49 82 50 47 51 48 52 62 54
REMARK SMILES IDX 83 55 50 56 34 57 35 58 43 59 36 60 37 61 41 62 44 63 38 64
REMARK SMILES IDX 39 65 42 66 40 67 66 68 67 69 75 70 68 71 69 72 73 73 76 74
REMARK SMILES IDX 70 75 71 76 74 77 72 78 51 79 52 80 60 81 53 82 54 83 58 84
REMARK SMILES IDX 61 85 55 86 56 87 59 88 57 89
REMARK H PARENT 81 42 49 53
REMARK Flexibility Score: inf
ROOT
ATOM      1  C   UNL A   1      37.020  22.228  25.248  1.00  0.00     0.188 C 
ENDROOT
BRANCH   1   2
ATOM      2  C   UNL A   1      35.790  21.800  26.067  1.00  0.00     0.188 C 
BRANCH   2   3
ATOM      3  O   UNL A   1      34.707  21.327  25.291  1.00  0.00    -0.376 OA
BRANCH   3   4
ATOM      4  C   UNL A   1      33.622  20.749  25.991  1.00  0.00     0.202 C 
BRANCH   4   5
ATOM      5  C   UNL A   1      32.348  20.638  25.161  1.00  0.00     0.261 C 
BRANCH   5   6
ATOM      6  O   UNL A   1      31.266  21.540  25.498  1.00  0.00    -0.463 OA
BRANCH   6   7
ATOM      7  C   UNL A   1      31.282  22.783  26.019  1.00  0.00     0.310 C 
ATOM      8  O   UNL A   1      31.153  22.921  27.236  1.00  0.00    -0.252 OA
BRANCH   7   9
ATOM      9  C   UNL A   1      31.258  24.000  25.132  1.00  0.00     0.164 C 
BRANCH   9  10
ATOM     10  C   UNL A   1      31.830  25.297  25.620  1.00  0.00     0.035 A 
ATOM     11  C   UNL A   1      30.951  26.266  26.119  1.00  0.00     0.131 A 
ATOM     12  C   UNL A   1      33.192  25.577  25.663  1.00  0.00     0.131 A 
ATOM     13  F   UNL A   1      29.632  26.021  26.125  1.00  0.00    -0.207 F 
ATOM     14  C   UNL A   1      31.402  27.488  26.602  1.00  0.00     0.060 A 
ATOM     15  C   UNL A   1      33.667  26.800  26.123  1.00  0.00     0.060 A 
ATOM     16  F   UNL A   1      34.077  24.676  25.221  1.00  0.00    -0.207 F 
ATOM     17  C   UNL A   1      32.766  27.753  26.592  1.00  0.00     0.046 A 
ATOM     18  Cl  UNL A   1      33.344  29.265  27.164  1.00  0.00    -0.084 Cl
ENDBRANCH   9  10
ENDBRANCH   7   9
ENDBRANCH   6   7
ENDBRANCH   5   6
ENDBRANCH   4   5
ENDBRANCH   3   4
ENDBRANCH   2   3
ENDBRANCH   1   2
BRANCH   1  19
ATOM     19  O   UNL A   1      37.760  21.257  24.523  1.00  0.00    -0.376 OA
BRANCH  19  20
ATOM     20  C   UNL A   1      37.824  19.920  25.001  1.00  0.00     0.202 C 
BRANCH  20  21
ATOM     21  C   UNL A   1      39.118  19.441  25.676  1.00  0.00     0.261 C 
BRANCH  21  22
ATOM     22  O   UNL A   1      40.164  20.431  25.752  1.00  0.00    -0.460 OA
BRANCH  22  23
ATOM     23  C   UNL A   1      40.854  20.472  26.918  1.00  0.00     0.338 C 
ATOM     24  O   UNL A   1      41.409  19.548  27.484  1.00  0.00    -0.246 OA
BRANCH  23  25
ATOM     25  C   UNL A   1      40.988  21.868  27.388  1.00  0.00     0.060 A 
ATOM     26  C   UNL A   1      40.256  22.866  26.729  1.00  0.00     0.016 A 
ATOM     27  C   UNL A   1      41.890  22.208  28.397  1.00  0.00     0.016 A 
ATOM     28  C   UNL A   1      40.444  24.210  27.057  1.00  0.00     0.010 A 
ATOM     29  C   UNL A   1      42.101  23.559  28.704  1.00  0.00     0.010 A 
ATOM     30  C   UNL A   1      41.404  24.568  28.013  1.00  0.00    -0.014 A 
BRANCH  30  31
ATOM     31  C   UNL A   1      41.824  25.989  28.136  1.00  0.00     0.031 A 
ATOM     32  C   UNL A   1      43.171  26.388  27.598  1.00  0.00     0.074 A 
ATOM     33  C   UNL A   1      41.020  26.920  28.682  1.00  0.00     0.049 A 
ATOM     34  N   UNL A   1      43.767  27.554  27.624  1.00  0.00    -0.248 NA
ATOM     35  C   UNL A   1      43.949  25.329  26.935  1.00  0.00     0.031 C 
ATOM     36  C   UNL A   1      39.670  26.681  29.184  1.00  0.00     0.029 A 
ATOM     37  N   UNL A   1      41.232  28.260  28.903  1.00  0.00    -0.354 N 
ATOM     38  C   UNL A   1      44.983  27.368  26.978  1.00  0.00     0.074 A 
ATOM     39  C   UNL A   1      45.057  25.973  26.602  1.00  0.00     0.031 C 
ATOM     40  C   UNL A   1      39.175  27.837  29.661  1.00  0.00     0.029 A 
ATOM     41  C   UNL A   1      40.183  28.889  29.528  1.00  0.00     0.049 A 
ATOM     42  H   UNL A   1      42.058  28.725  28.638  1.00  0.00     0.167 HD
ATOM     43  C   UNL A   1      45.946  28.281  26.712  1.00  0.00     0.037 A 
ATOM     44  C   UNL A   1      40.062  30.161  29.958  1.00  0.00     0.037 A 
ATOM     45  C   UNL A   1      45.883  29.666  27.093  1.00  0.00     0.049 A 
ATOM     46  C   UNL A   1      41.196  31.135  29.747  1.00  0.00     0.074 A 
ATOM     47  C   UNL A   1      46.816  30.664  26.869  1.00  0.00     0.029 A 
ATOM     48  N   UNL A   1      44.830  30.249  27.781  1.00  0.00    -0.354 N 
ATOM     49  N   UNL A   1      42.339  30.954  29.131  1.00  0.00    -0.248 NA
ATOM     50  C   UNL A   1      41.021  32.490  30.294  1.00  0.00     0.031 C 
ATOM     51  C   UNL A   1      46.352  31.838  27.467  1.00  0.00     0.029 A 
ATOM     52  C   UNL A   1      45.105  31.588  28.014  1.00  0.00     0.049 A 
ATOM     53  H   UNL A   1      44.011  29.783  28.062  1.00  0.00     0.167 HD
ATOM     54  C   UNL A   1      43.005  32.173  29.191  1.00  0.00     0.074 A 
ATOM     55  C   UNL A   1      42.135  33.090  29.894  1.00  0.00     0.031 C 
ATOM     56  C   UNL A   1      44.228  32.498  28.706  1.00  0.00     0.037 A 
BRANCH  43  57
ATOM     57  C   UNL A   1      47.169  27.808  25.983  1.00  0.00     0.064 A 
ATOM     58  C   UNL A   1      48.299  27.345  26.673  1.00  0.00     0.173 A 
ATOM     59  C   UNL A   1      47.188  27.759  24.581  1.00  0.00     0.173 A 
ATOM     60  F   UNL A   1      48.336  27.384  28.013  1.00  0.00    -0.203 F 
ATOM     61  C   UNL A   1      49.409  26.864  25.985  1.00  0.00     0.198 A 
ATOM     62  C   UNL A   1      48.289  27.251  23.898  1.00  0.00     0.198 A 
ATOM     63  F   UNL A   1      46.130  28.186  23.875  1.00  0.00    -0.203 F 
ATOM     64  F   UNL A   1      50.493  26.458  26.662  1.00  0.00    -0.200 F 
ATOM     65  C   UNL A   1      49.400  26.808  24.599  1.00  0.00     0.200 A 
ATOM     66  F   UNL A   1      48.271  27.184  22.558  1.00  0.00    -0.200 F 
ATOM     67  F   UNL A   1      50.463  26.329  23.938  1.00  0.00    -0.200 F 
ENDBRANCH  43  57
BRANCH  44  68
ATOM     68  C   UNL A   1      38.812  30.596  30.637  1.00  0.00     0.064 A 
ATOM     69  C   UNL A   1      37.721  31.079  29.902  1.00  0.00     0.173 A 
ATOM     70  C   UNL A   1      38.685  30.548  32.034  1.00  0.00     0.173 A 
ATOM     71  F   UNL A   1      37.805  31.175  28.567  1.00  0.00    -0.203 F 
ATOM     72  C   UNL A   1      36.554  31.501  30.535  1.00  0.00     0.198 A 
ATOM     73  C   UNL A   1      37.508  30.944  32.665  1.00  0.00     0.198 A 
ATOM     74  F   UNL A   1      39.702  30.103  32.787  1.00  0.00    -0.203 F 
ATOM     75  F   UNL A   1      35.541  31.993  29.810  1.00  0.00    -0.200 F 
ATOM     76  C   UNL A   1      36.445  31.425  31.916  1.00  0.00     0.200 A 
ATOM     77  F   UNL A   1      37.402  30.858  33.998  1.00  0.00    -0.200 F 
ATOM     78  F   UNL A   1      35.319  31.820  32.524  1.00  0.00    -0.200 F 
ENDBRANCH  44  68
BRANCH  56  79
ATOM     79  C   UNL A   1      44.707  33.912  28.887  1.00  0.00     0.064 A 
ATOM     80  C   UNL A   1      45.509  34.282  29.975  1.00  0.00     0.173 A 
ATOM     81  C   UNL A   1      44.434  34.884  27.911  1.00  0.00     0.173 A 
ATOM     82  F   UNL A   1      45.790  33.393  30.939  1.00  0.00    -0.203 F 
ATOM     83  C   UNL A   1      46.014  35.575  30.085  1.00  0.00     0.198 A 
ATOM     84  C   UNL A   1      44.965  36.168  28.009  1.00  0.00     0.198 A 
ATOM     85  F   UNL A   1      43.680  34.579  26.845  1.00  0.00    -0.203 F 
ATOM     86  F   UNL A   1      46.756  35.915  31.149  1.00  0.00    -0.200 F 
ATOM     87  C   UNL A   1      45.751  36.514  29.097  1.00  0.00     0.200 A 
ATOM     88  F   UNL A   1      44.724  37.067  27.044  1.00  0.00    -0.200 F 
ATOM     89  F   UNL A   1      46.256  37.752  29.195  1.00  0.00    -0.200 F 
ENDBRANCH  56  79
ENDBRANCH  30  31
ENDBRANCH  23  25
ENDBRANCH  22  23
ENDBRANCH  21  22
ENDBRANCH  20  21
ENDBRANCH  19  20
ENDBRANCH   1  19
TORSDOF 18
ENDMDL
