MODEL 1
REMARK VINA RESULT:     -10.8      0.000      0.000
REMARK SMILES O=C(OCCOCCOCCOC(=O)[C@H]1CCCCN1S(=O)(=O)c1cc[nH]c1)c1ccc(-c2c3nc(c(-c4c(F)c(F)c(F)c(F)c4F)c4ccc([nH]4)c(-c4c(F)c(F)c(F)c(F)c4F)c4nc(c(-c5c(F)c(F)c(F)c(F)c5F)c5ccc2[nH]5)C=C4)C=C3)cc1
REMARK SMILES IDX 7 1 6 2 5 3 4 4 3 5 2 6 1 7 29 8 30 9 91 10 31 11 90 12
REMARK SMILES IDX 32 13 33 14 34 15 84 16 35 17 89 18 83 19 85 20 36 21 88 22
REMARK SMILES IDX 82 23 81 24 37 26 69 27 49 28 68 29 50 30 53 31 67 32 86 33
REMARK SMILES IDX 51 34 52 35 66 37 87 38 54 39 38 40 39 41 47 42 40 43 41 44
REMARK SMILES IDX 45 45 48 46 42 47 43 48 46 49 44 50 70 51 71 52 79 53 72 54
REMARK SMILES IDX 73 55 77 56 80 57 74 58 75 59 78 60 76 61 55 62 56 63 64 64
REMARK SMILES IDX 57 65 58 66 62 67 65 68 59 69 60 70 63 71 61 72 8 73 9 74
REMARK SMILES IDX 10 75 11 76 12 77 13 78 14 79 15 80 16 81 20 82 17 83 19 84
REMARK SMILES IDX 18 85 21 86 22 87 23 88 24 89 25 90 28 91 26 92 27 93
REMARK H PARENT 85 25 53 36 27 94
REMARK Flexibility Score: inf
ROOT
ATOM      1  C   UNL A   1      36.038  20.804  24.947  1.00  0.00     0.188 C 
ENDROOT
BRANCH   1   2
ATOM      2  O   UNL A   1      37.450  20.859  24.743  1.00  0.00    -0.376 OA
BRANCH   2   3
ATOM      3  C   UNL A   1      38.191  21.691  25.639  1.00  0.00     0.202 C 
BRANCH   3   4
ATOM      4  C   UNL A   1      39.610  21.312  26.128  1.00  0.00     0.261 C 
BRANCH   4   5
ATOM      5  O   UNL A   1      40.726  22.144  25.767  1.00  0.00    -0.460 OA
BRANCH   5   6
ATOM      6  C   UNL A   1      41.410  23.055  26.489  1.00  0.00     0.338 C 
ATOM      7  O   UNL A   1      42.557  22.793  26.848  1.00  0.00    -0.246 OA
BRANCH   6   8
ATOM      8  C   UNL A   1      40.876  24.408  26.765  1.00  0.00     0.060 A 
ATOM      9  C   UNL A   1      41.381  25.579  26.209  1.00  0.00     0.016 A 
ATOM     10  C   UNL A   1      39.921  24.487  27.799  1.00  0.00     0.016 A 
ATOM     11  C   UNL A   1      41.174  26.777  26.854  1.00  0.00     0.010 A 
ATOM     12  C   UNL A   1      39.676  25.693  28.432  1.00  0.00     0.010 A 
ATOM     13  C   UNL A   1      40.402  26.804  28.015  1.00  0.00    -0.014 A 
BRANCH  13  14
ATOM     14  C   UNL A   1      40.489  28.042  28.795  1.00  0.00     0.031 A 
ATOM     15  C   UNL A   1      41.453  27.898  29.957  1.00  0.00     0.074 A 
ATOM     16  C   UNL A   1      39.548  28.973  28.465  1.00  0.00     0.049 A 
ATOM     17  N   UNL A   1      41.331  28.245  31.203  1.00  0.00    -0.248 NA
ATOM     18  C   UNL A   1      42.683  27.104  29.711  1.00  0.00     0.031 C 
ATOM     19  C   UNL A   1      38.658  28.906  27.285  1.00  0.00     0.029 A 
ATOM     20  N   UNL A   1      39.107  30.122  29.072  1.00  0.00    -0.354 N 
ATOM     21  C   UNL A   1      42.525  27.865  31.844  1.00  0.00     0.074 A 
ATOM     22  C   UNL A   1      43.239  27.032  30.919  1.00  0.00     0.031 C 
ATOM     23  C   UNL A   1      37.747  29.897  27.311  1.00  0.00     0.029 A 
ATOM     24  C   UNL A   1      37.942  30.693  28.503  1.00  0.00     0.049 A 
ATOM     25  H   UNL A   1      39.567  30.520  29.846  1.00  0.00     0.167 HD
ATOM     26  C   UNL A   1      42.955  28.395  33.024  1.00  0.00     0.037 A 
ATOM     27  C   UNL A   1      37.138  31.675  29.012  1.00  0.00     0.037 A 
ATOM     28  C   UNL A   1      42.052  29.376  33.539  1.00  0.00     0.049 A 
ATOM     29  C   UNL A   1      37.719  31.972  30.334  1.00  0.00     0.074 A 
ATOM     30  C   UNL A   1      41.062  29.459  34.485  1.00  0.00     0.029 A 
ATOM     31  N   UNL A   1      42.144  30.603  32.937  1.00  0.00    -0.354 N 
ATOM     32  N   UNL A   1      38.814  32.636  30.533  1.00  0.00    -0.248 NA
ATOM     33  C   UNL A   1      37.170  31.265  31.491  1.00  0.00     0.031 C 
ATOM     34  C   UNL A   1      40.441  30.727  34.298  1.00  0.00     0.029 A 
ATOM     35  C   UNL A   1      40.969  31.278  33.135  1.00  0.00     0.049 A 
ATOM     36  H   UNL A   1      42.925  30.944  32.444  1.00  0.00     0.167 HD
ATOM     37  C   UNL A   1      39.236  32.219  31.779  1.00  0.00     0.074 A 
ATOM     38  C   UNL A   1      38.131  31.495  32.379  1.00  0.00     0.031 C 
ATOM     39  C   UNL A   1      40.556  32.179  32.095  1.00  0.00     0.037 A 
BRANCH  26  40
ATOM     40  C   UNL A   1      44.342  28.385  33.626  1.00  0.00     0.064 A 
ATOM     41  C   UNL A   1      44.496  27.884  34.940  1.00  0.00     0.173 A 
ATOM     42  C   UNL A   1      45.404  29.166  33.140  1.00  0.00     0.173 A 
ATOM     43  F   UNL A   1      43.566  27.082  35.481  1.00  0.00    -0.203 F 
ATOM     44  C   UNL A   1      45.563  28.259  35.756  1.00  0.00     0.198 A 
ATOM     45  C   UNL A   1      46.505  29.487  33.940  1.00  0.00     0.198 A 
ATOM     46  F   UNL A   1      45.361  29.728  31.926  1.00  0.00    -0.203 F 
ATOM     47  F   UNL A   1      45.586  27.879  37.042  1.00  0.00    -0.200 F 
ATOM     48  C   UNL A   1      46.561  29.074  35.259  1.00  0.00     0.200 A 
ATOM     49  F   UNL A   1      47.476  30.268  33.447  1.00  0.00    -0.200 F 
ATOM     50  F   UNL A   1      47.556  29.487  36.056  1.00  0.00    -0.200 F 
ENDBRANCH  26  40
BRANCH  27  51
ATOM     51  C   UNL A   1      35.816  32.303  28.654  1.00  0.00     0.064 A 
ATOM     52  C   UNL A   1      35.539  33.678  28.639  1.00  0.00     0.173 A 
ATOM     53  C   UNL A   1      34.717  31.483  28.279  1.00  0.00     0.173 A 
ATOM     54  F   UNL A   1      36.419  34.568  29.108  1.00  0.00    -0.203 F 
ATOM     55  C   UNL A   1      34.316  34.191  28.169  1.00  0.00     0.198 A 
ATOM     56  C   UNL A   1      33.506  31.990  27.805  1.00  0.00     0.198 A 
ATOM     57  F   UNL A   1      34.786  30.146  28.356  1.00  0.00    -0.203 F 
ATOM     58  F   UNL A   1      34.120  35.517  28.141  1.00  0.00    -0.200 F 
ATOM     59  C   UNL A   1      33.311  33.349  27.729  1.00  0.00     0.200 A 
ATOM     60  F   UNL A   1      32.541  31.146  27.412  1.00  0.00    -0.200 F 
ATOM     61  F   UNL A   1      32.162  33.842  27.249  1.00  0.00    -0.200 F 
ENDBRANCH  27  51
BRANCH  39  62
ATOM     62  C   UNL A   1      41.444  32.700  30.983  1.00  0.00     0.064 A 
ATOM     63  C   UNL A   1      42.084  31.838  30.089  1.00  0.00     0.173 A 
ATOM     64  C   UNL A   1      41.807  34.059  30.899  1.00  0.00     0.173 A 
ATOM     65  F   UNL A   1      41.803  30.528  30.106  1.00  0.00    -0.203 F 
ATOM     66  C   UNL A   1      43.031  32.317  29.176  1.00  0.00     0.198 A 
ATOM     67  C   UNL A   1      42.741  34.542  29.990  1.00  0.00     0.198 A 
ATOM     68  F   UNL A   1      41.234  34.955  31.700  1.00  0.00    -0.203 F 
ATOM     69  F   UNL A   1      43.633  31.466  28.334  1.00  0.00    -0.200 F 
ATOM     70  C   UNL A   1      43.361  33.665  29.129  1.00  0.00     0.200 A 
ATOM     71  F   UNL A   1      43.022  35.853  29.955  1.00  0.00    -0.200 F 
ATOM     72  F   UNL A   1      44.265  34.119  28.250  1.00  0.00    -0.200 F 
ENDBRANCH  39  62
ENDBRANCH  13  14
ENDBRANCH   6   8
ENDBRANCH   5   6
ENDBRANCH   4   5
ENDBRANCH   3   4
ENDBRANCH   2   3
ENDBRANCH   1   2
BRANCH   1  73
ATOM     73  C   UNL A   1      35.326  22.105  25.256  1.00  0.00     0.188 C 
BRANCH  73  74
ATOM     74  O   UNL A   1      35.281  23.050  24.195  1.00  0.00    -0.376 OA
BRANCH  74  75
ATOM     75  C   UNL A   1      34.534  24.237  24.400  1.00  0.00     0.202 C 
BRANCH  75  76
ATOM     76  C   UNL A   1      33.305  24.421  23.513  1.00  0.00     0.261 C 
BRANCH  76  77
ATOM     77  O   UNL A   1      32.633  25.679  23.685  1.00  0.00    -0.462 OA
BRANCH  77  78
ATOM     78  C   UNL A   1      31.505  25.613  24.445  1.00  0.00     0.324 C 
ATOM     79  O   UNL A   1      30.689  24.698  24.407  1.00  0.00    -0.250 OA
BRANCH  78  80
ATOM     80  C   UNL A   1      31.282  26.871  25.282  1.00  0.00     0.183 C 
ATOM     81  C   UNL A   1      32.295  27.099  26.410  1.00  0.00     0.032 C 
ATOM     82  N   UNL A   1      31.088  28.104  24.423  1.00  0.00    -0.184 NA
ATOM     83  C   UNL A   1      33.582  27.785  25.971  1.00  0.00     0.004 C 
ATOM     84  C   UNL A   1      32.376  28.672  23.946  1.00  0.00     0.103 C 
ATOM     85  C   UNL A   1      33.277  29.013  25.127  1.00  0.00     0.017 C 
BRANCH  82  86
ATOM     86  S   UNL A   1      29.950  27.761  23.161  1.00  0.00     0.245 S 
ATOM     87  O   UNL A   1      30.693  27.182  22.050  1.00  0.00    -0.207 OA
ATOM     88  O   UNL A   1      28.813  27.115  23.759  1.00  0.00    -0.207 OA
BRANCH  86  89
ATOM     89  C   UNL A   1      29.310  29.207  22.480  1.00  0.00     0.100 A 
ATOM     90  C   UNL A   1      28.063  29.795  22.810  1.00  0.00     0.041 A 
ATOM     91  C   UNL A   1      29.969  30.078  21.633  1.00  0.00     0.104 A 
ATOM     92  C   UNL A   1      28.001  31.006  22.159  1.00  0.00     0.083 A 
ATOM     93  N   UNL A   1      29.168  31.173  21.454  1.00  0.00    -0.366 N 
ATOM     94  H   UNL A   1      29.394  31.958  20.906  1.00  0.00     0.165 HD
ENDBRANCH  86  89
ENDBRANCH  82  86
ENDBRANCH  78  80
ENDBRANCH  77  78
ENDBRANCH  76  77
ENDBRANCH  75  76
ENDBRANCH  74  75
ENDBRANCH  73  74
ENDBRANCH   1  73
TORSDOF 19
ENDMDL
MODEL 2
REMARK VINA RESULT:     -10.7      4.246      8.958
REMARK SMILES O=C(OCCOCCOCCOC(=O)[C@H]1CCCCN1S(=O)(=O)c1cc[nH]c1)c1ccc(-c2c3nc(c(-c4c(F)c(F)c(F)c(F)c4F)c4ccc([nH]4)c(-c4c(F)c(F)c(F)c(F)c4F)c4nc(c(-c5c(F)c(F)c(F)c(F)c5F)c5ccc2[nH]5)C=C4)C=C3)cc1
REMARK SMILES IDX 7 1 6 2 5 3 4 4 3 5 2 6 1 7 29 8 30 9 91 10 31 11 90 12
REMARK SMILES IDX 32 13 33 14 34 15 84 16 35 17 89 18 83 19 85 20 36 21 88 22
REMARK SMILES IDX 82 23 81 24 37 26 69 27 49 28 68 29 50 30 53 31 67 32 86 33
REMARK SMILES IDX 51 34 52 35 66 37 87 38 54 39 38 40 39 41 47 42 40 43 41 44
REMARK SMILES IDX 45 45 48 46 42 47 43 48 46 49 44 50 70 51 71 52 79 53 72 54
REMARK SMILES IDX 73 55 77 56 80 57 74 58 75 59 78 60 76 61 55 62 56 63 64 64
REMARK SMILES IDX 57 65 58 66 62 67 65 68 59 69 60 70 63 71 61 72 8 73 9 74
REMARK SMILES IDX 10 75 11 76 12 77 13 78 14 79 15 80 16 81 20 82 17 83 19 84
REMARK SMILES IDX 18 85 21 86 22 87 23 88 24 89 25 90 28 91 26 92 27 93
REMARK H PARENT 85 25 53 36 27 94
REMARK Flexibility Score: inf
ROOT
ATOM      1  C   UNL A   1      32.575  28.589  24.752  1.00  0.00     0.188 C 
ENDROOT
BRANCH   1   2
ATOM      2  O   UNL A   1      31.864  29.216  25.819  1.00  0.00    -0.376 OA
BRANCH   2   3
ATOM      3  C   UNL A   1      32.580  30.200  26.570  1.00  0.00     0.202 C 
BRANCH   3   4
ATOM      4  C   UNL A   1      33.991  29.928  27.145  1.00  0.00     0.261 C 
BRANCH   4   5
ATOM      5  O   UNL A   1      34.741  31.013  27.715  1.00  0.00    -0.460 OA
BRANCH   5   6
ATOM      6  C   UNL A   1      35.847  31.004  28.489  1.00  0.00     0.338 C 
ATOM      7  O   UNL A   1      35.964  31.853  29.372  1.00  0.00    -0.246 OA
BRANCH   6   8
ATOM      8  C   UNL A   1      36.870  29.938  28.394  1.00  0.00     0.060 A 
ATOM      9  C   UNL A   1      37.104  28.987  29.381  1.00  0.00     0.016 A 
ATOM     10  C   UNL A   1      37.759  30.042  27.305  1.00  0.00     0.016 A 
ATOM     11  C   UNL A   1      38.332  28.368  29.444  1.00  0.00     0.010 A 
ATOM     12  C   UNL A   1      38.982  29.396  27.340  1.00  0.00     0.010 A 
ATOM     13  C   UNL A   1      39.293  28.655  28.475  1.00  0.00    -0.014 A 
BRANCH  13  14
ATOM     14  C   UNL A   1      40.651  28.200  28.787  1.00  0.00     0.031 A 
ATOM     15  C   UNL A   1      40.955  26.870  28.123  1.00  0.00     0.074 A 
ATOM     16  C   UNL A   1      41.271  28.928  29.760  1.00  0.00     0.049 A 
ATOM     17  N   UNL A   1      41.510  25.796  28.601  1.00  0.00    -0.248 NA
ATOM     18  C   UNL A   1      40.414  26.665  26.757  1.00  0.00     0.031 C 
ATOM     19  C   UNL A   1      40.777  30.209  30.312  1.00  0.00     0.029 A 
ATOM     20  N   UNL A   1      42.395  28.720  30.519  1.00  0.00    -0.354 N 
ATOM     21  C   UNL A   1      41.534  24.858  27.553  1.00  0.00     0.074 A 
ATOM     22  C   UNL A   1      40.707  25.389  26.507  1.00  0.00     0.031 C 
ATOM     23  C   UNL A   1      41.532  30.608  31.353  1.00  0.00     0.029 A 
ATOM     24  C   UNL A   1      42.574  29.632  31.589  1.00  0.00     0.049 A 
ATOM     25  H   UNL A   1      43.030  27.991  30.334  1.00  0.00     0.167 HD
ATOM     26  C   UNL A   1      42.371  23.781  27.517  1.00  0.00     0.037 A 
ATOM     27  C   UNL A   1      43.440  29.550  32.644  1.00  0.00     0.037 A 
ATOM     28  C   UNL A   1      43.215  23.713  28.668  1.00  0.00     0.049 A 
ATOM     29  C   UNL A   1      44.114  28.251  32.459  1.00  0.00     0.074 A 
ATOM     30  C   UNL A   1      43.269  23.032  29.858  1.00  0.00     0.029 A 
ATOM     31  N   UNL A   1      44.287  24.565  28.637  1.00  0.00    -0.354 N 
ATOM     32  N   UNL A   1      45.026  28.007  31.571  1.00  0.00    -0.248 NA
ATOM     33  C   UNL A   1      43.552  27.090  33.148  1.00  0.00     0.031 C 
ATOM     34  C   UNL A   1      44.310  23.643  30.616  1.00  0.00     0.029 A 
ATOM     35  C   UNL A   1      44.717  24.776  29.920  1.00  0.00     0.049 A 
ATOM     36  H   UNL A   1      44.683  24.961  27.827  1.00  0.00     0.167 HD
ATOM     37  C   UNL A   1      44.969  26.638  31.402  1.00  0.00     0.074 A 
ATOM     38  C   UNL A   1      44.158  26.111  32.484  1.00  0.00     0.031 C 
ATOM     39  C   UNL A   1      45.280  26.066  30.211  1.00  0.00     0.037 A 
BRANCH  26  40
ATOM     40  C   UNL A   1      42.782  22.932  26.336  1.00  0.00     0.064 A 
ATOM     41  C   UNL A   1      42.708  21.525  26.468  1.00  0.00     0.173 A 
ATOM     42  C   UNL A   1      43.574  23.407  25.277  1.00  0.00     0.173 A 
ATOM     43  F   UNL A   1      41.936  20.965  27.412  1.00  0.00    -0.203 F 
ATOM     44  C   UNL A   1      43.484  20.666  25.691  1.00  0.00     0.198 A 
ATOM     45  C   UNL A   1      44.301  22.537  24.458  1.00  0.00     0.198 A 
ATOM     46  F   UNL A   1      43.754  24.717  25.071  1.00  0.00    -0.203 F 
ATOM     47  F   UNL A   1      43.492  19.351  25.954  1.00  0.00    -0.200 F 
ATOM     48  C   UNL A   1      44.293  21.175  24.695  1.00  0.00     0.200 A 
ATOM     49  F   UNL A   1      45.075  23.038  23.485  1.00  0.00    -0.200 F 
ATOM     50  F   UNL A   1      45.087  20.360  23.986  1.00  0.00    -0.200 F 
ENDBRANCH  26  40
BRANCH  27  51
ATOM     51  C   UNL A   1      43.682  30.305  33.924  1.00  0.00     0.064 A 
ATOM     52  C   UNL A   1      44.858  30.990  34.263  1.00  0.00     0.173 A 
ATOM     53  C   UNL A   1      42.661  30.378  34.912  1.00  0.00     0.173 A 
ATOM     54  F   UNL A   1      45.958  30.893  33.509  1.00  0.00    -0.203 F 
ATOM     55  C   UNL A   1      44.959  31.780  35.422  1.00  0.00     0.198 A 
ATOM     56  C   UNL A   1      42.756  31.166  36.059  1.00  0.00     0.198 A 
ATOM     57  F   UNL A   1      41.523  29.680  34.790  1.00  0.00    -0.203 F 
ATOM     58  F   UNL A   1      46.096  32.444  35.676  1.00  0.00    -0.200 F 
ATOM     59  C   UNL A   1      43.901  31.888  36.305  1.00  0.00     0.200 A 
ATOM     60  F   UNL A   1      41.722  31.228  36.910  1.00  0.00    -0.200 F 
ATOM     61  F   UNL A   1      43.987  32.670  37.390  1.00  0.00    -0.200 F 
ENDBRANCH  27  51
BRANCH  39  62
ATOM     62  C   UNL A   1      45.747  27.071  29.177  1.00  0.00     0.064 A 
ATOM     63  C   UNL A   1      44.887  27.571  28.197  1.00  0.00     0.173 A 
ATOM     64  C   UNL A   1      47.105  27.421  29.045  1.00  0.00     0.173 A 
ATOM     65  F   UNL A   1      43.579  27.280  28.243  1.00  0.00    -0.203 F 
ATOM     66  C   UNL A   1      45.368  28.365  27.150  1.00  0.00     0.198 A 
ATOM     67  C   UNL A   1      47.589  28.216  28.013  1.00  0.00     0.198 A 
ATOM     68  F   UNL A   1      47.994  27.004  29.945  1.00  0.00    -0.203 F 
ATOM     69  F   UNL A   1      44.520  28.827  26.220  1.00  0.00    -0.200 F 
ATOM     70  C   UNL A   1      46.716  28.684  27.056  1.00  0.00     0.200 A 
ATOM     71  F   UNL A   1      48.894  28.524  27.961  1.00  0.00    -0.200 F 
ATOM     72  F   UNL A   1      47.172  29.450  26.055  1.00  0.00    -0.200 F 
ENDBRANCH  39  62
ENDBRANCH  13  14
ENDBRANCH   6   8
ENDBRANCH   5   6
ENDBRANCH   4   5
ENDBRANCH   3   4
ENDBRANCH   2   3
ENDBRANCH   1   2
BRANCH   1  73
ATOM     73  C   UNL A   1      32.975  27.139  24.938  1.00  0.00     0.188 C 
BRANCH  73  74
ATOM     74  O   UNL A   1      31.914  26.195  24.879  1.00  0.00    -0.376 OA
BRANCH  74  75
ATOM     75  C   UNL A   1      31.445  25.654  26.103  1.00  0.00     0.202 C 
BRANCH  75  76
ATOM     76  C   UNL A   1      31.928  24.248  26.448  1.00  0.00     0.261 C 
BRANCH  76  77
ATOM     77  O   UNL A   1      32.509  23.533  25.347  1.00  0.00    -0.462 OA
BRANCH  77  78
ATOM     78  C   UNL A   1      33.788  23.116  25.560  1.00  0.00     0.324 C 
ATOM     79  O   UNL A   1      34.416  23.293  26.598  1.00  0.00    -0.250 OA
BRANCH  78  80
ATOM     80  C   UNL A   1      34.424  22.500  24.316  1.00  0.00     0.183 C 
ATOM     81  C   UNL A   1      35.672  23.220  23.791  1.00  0.00     0.032 C 
ATOM     82  N   UNL A   1      34.637  21.007  24.460  1.00  0.00    -0.184 NA
ATOM     83  C   UNL A   1      36.969  22.820  24.483  1.00  0.00     0.004 C 
ATOM     84  C   UNL A   1      35.868  20.681  25.228  1.00  0.00     0.103 C 
ATOM     85  C   UNL A   1      37.090  21.306  24.566  1.00  0.00     0.017 C 
BRANCH  82  86
ATOM     86  S   UNL A   1      33.196  20.270  25.079  1.00  0.00     0.245 S 
ATOM     87  O   UNL A   1      33.256  20.347  26.532  1.00  0.00    -0.207 OA
ATOM     88  O   UNL A   1      32.084  20.773  24.318  1.00  0.00    -0.207 OA
BRANCH  86  89
ATOM     89  C   UNL A   1      33.180  18.573  24.788  1.00  0.00     0.100 A 
ATOM     90  C   UNL A   1      33.662  17.930  23.620  1.00  0.00     0.041 A 
ATOM     91  C   UNL A   1      32.840  17.588  25.694  1.00  0.00     0.104 A 
ATOM     92  C   UNL A   1      33.605  16.575  23.851  1.00  0.00     0.083 A 
ATOM     93  N   UNL A   1      33.112  16.377  25.117  1.00  0.00    -0.366 N 
ATOM     94  H   UNL A   1      32.977  15.501  25.544  1.00  0.00     0.165 HD
ENDBRANCH  86  89
ENDBRANCH  82  86
ENDBRANCH  78  80
ENDBRANCH  77  78
ENDBRANCH  76  77
ENDBRANCH  75  76
ENDBRANCH  74  75
ENDBRANCH  73  74
ENDBRANCH   1  73
TORSDOF 19
ENDMDL
MODEL 3
REMARK VINA RESULT:     -10.6      1.961      2.653
REMARK SMILES O=C(OCCOCCOCCOC(=O)[C@H]1CCCCN1S(=O)(=O)c1cc[nH]c1)c1ccc(-c2c3nc(c(-c4c(F)c(F)c(F)c(F)c4F)c4ccc([nH]4)c(-c4c(F)c(F)c(F)c(F)c4F)c4nc(c(-c5c(F)c(F)c(F)c(F)c5F)c5ccc2[nH]5)C=C4)C=C3)cc1
REMARK SMILES IDX 7 1 6 2 5 3 4 4 3 5 2 6 1 7 29 8 30 9 91 10 31 11 90 12
REMARK SMILES IDX 32 13 33 14 34 15 84 16 35 17 89 18 83 19 85 20 36 21 88 22
REMARK SMILES IDX 82 23 81 24 37 26 69 27 49 28 68 29 50 30 53 31 67 32 86 33
REMARK SMILES IDX 51 34 52 35 66 37 87 38 54 39 38 40 39 41 47 42 40 43 41 44
REMARK SMILES IDX 45 45 48 46 42 47 43 48 46 49 44 50 70 51 71 52 79 53 72 54
REMARK SMILES IDX 73 55 77 56 80 57 74 58 75 59 78 60 76 61 55 62 56 63 64 64
REMARK SMILES IDX 57 65 58 66 62 67 65 68 59 69 60 70 63 71 61 72 8 73 9 74
REMARK SMILES IDX 10 75 11 76 12 77 13 78 14 79 15 80 16 81 20 82 17 83 19 84
REMARK SMILES IDX 18 85 21 86 22 87 23 88 24 89 25 90 28 91 26 92 27 93
REMARK H PARENT 85 25 53 36 27 94
REMARK Flexibility Score: inf
ROOT
ATOM      1  C   UNL A   1      33.779  20.625  25.025  1.00  0.00     0.188 C 
ENDROOT
BRANCH   1   2
ATOM      2  O   UNL A   1      34.967  21.291  25.451  1.00  0.00    -0.376 OA
BRANCH   2   3
ATOM      3  C   UNL A   1      36.204  20.758  24.973  1.00  0.00     0.202 C 
BRANCH   3   4
ATOM      4  C   UNL A   1      37.412  21.664  24.632  1.00  0.00     0.261 C 
BRANCH   4   5
ATOM      5  O   UNL A   1      38.057  22.404  25.683  1.00  0.00    -0.460 OA
BRANCH   5   6
ATOM      6  C   UNL A   1      37.968  23.707  26.020  1.00  0.00     0.338 C 
ATOM      7  O   UNL A   1      36.920  24.311  25.796  1.00  0.00    -0.246 OA
BRANCH   6   8
ATOM      8  C   UNL A   1      39.044  24.409  26.758  1.00  0.00     0.060 A 
ATOM      9  C   UNL A   1      39.101  24.517  28.143  1.00  0.00     0.016 A 
ATOM     10  C   UNL A   1      39.941  25.153  25.966  1.00  0.00     0.016 A 
ATOM     11  C   UNL A   1      39.816  25.547  28.710  1.00  0.00     0.010 A 
ATOM     12  C   UNL A   1      40.693  26.168  26.530  1.00  0.00     0.010 A 
ATOM     13  C   UNL A   1      40.526  26.421  27.887  1.00  0.00    -0.014 A 
BRANCH  13  14
ATOM     14  C   UNL A   1      40.996  27.649  28.536  1.00  0.00     0.031 A 
ATOM     15  C   UNL A   1      42.328  27.433  29.230  1.00  0.00     0.074 A 
ATOM     16  C   UNL A   1      40.067  28.646  28.577  1.00  0.00     0.049 A 
ATOM     17  N   UNL A   1      42.729  27.786  30.414  1.00  0.00    -0.248 NA
ATOM     18  C   UNL A   1      43.305  26.552  28.543  1.00  0.00     0.031 C 
ATOM     19  C   UNL A   1      38.782  28.645  27.842  1.00  0.00     0.029 A 
ATOM     20  N   UNL A   1      39.979  29.823  29.276  1.00  0.00    -0.354 N 
ATOM     21  C   UNL A   1      44.050  27.320  30.545  1.00  0.00     0.074 A 
ATOM     22  C   UNL A   1      44.286  26.438  29.438  1.00  0.00     0.031 C 
ATOM     23  C   UNL A   1      38.024  29.700  28.197  1.00  0.00     0.029 A 
ATOM     24  C   UNL A   1      38.724  30.478  29.194  1.00  0.00     0.049 A 
ATOM     25  H   UNL A   1      40.731  30.185  29.797  1.00  0.00     0.167 HD
ATOM     26  C   UNL A   1      44.945  27.816  31.448  1.00  0.00     0.037 A 
ATOM     27  C   UNL A   1      38.254  31.515  29.951  1.00  0.00     0.037 A 
ATOM     28  C   UNL A   1      44.385  28.859  32.248  1.00  0.00     0.049 A 
ATOM     29  C   UNL A   1      39.326  31.767  30.931  1.00  0.00     0.074 A 
ATOM     30  C   UNL A   1      43.855  29.012  33.504  1.00  0.00     0.029 A 
ATOM     31  N   UNL A   1      44.316  30.077  31.625  1.00  0.00    -0.354 N 
ATOM     32  N   UNL A   1      40.454  32.349  30.665  1.00  0.00    -0.248 NA
ATOM     33  C   UNL A   1      39.231  31.101  32.229  1.00  0.00     0.031 C 
ATOM     34  C   UNL A   1      43.298  30.323  33.541  1.00  0.00     0.029 A 
ATOM     35  C   UNL A   1      43.361  30.835  32.249  1.00  0.00     0.049 A 
ATOM     36  H   UNL A   1      44.861  30.361  30.855  1.00  0.00     0.167 HD
ATOM     37  C   UNL A   1      41.303  31.901  31.657  1.00  0.00     0.074 A 
ATOM     38  C   UNL A   1      40.477  31.259  32.662  1.00  0.00     0.031 C 
ATOM     39  C   UNL A   1      42.634  31.765  31.431  1.00  0.00     0.037 A 
BRANCH  26  40
ATOM     40  C   UNL A   1      46.453  27.704  31.456  1.00  0.00     0.064 A 
ATOM     41  C   UNL A   1      47.063  27.000  32.521  1.00  0.00     0.173 A 
ATOM     42  C   UNL A   1      47.298  28.548  30.716  1.00  0.00     0.173 A 
ATOM     43  F   UNL A   1      46.359  26.127  33.258  1.00  0.00    -0.203 F 
ATOM     44  C   UNL A   1      48.383  27.235  32.905  1.00  0.00     0.198 A 
ATOM     45  C   UNL A   1      48.639  28.732  31.065  1.00  0.00     0.198 A 
ATOM     46  F   UNL A   1      46.831  29.296  29.708  1.00  0.00    -0.203 F 
ATOM     47  F   UNL A   1      48.870  26.656  34.012  1.00  0.00    -0.200 F 
ATOM     48  C   UNL A   1      49.167  28.114  32.184  1.00  0.00     0.200 A 
ATOM     49  F   UNL A   1      49.397  29.577  30.353  1.00  0.00    -0.200 F 
ATOM     50  F   UNL A   1      50.415  28.391  32.584  1.00  0.00    -0.200 F 
ENDBRANCH  26  40
BRANCH  27  51
ATOM     51  C   UNL A   1      36.943  32.238  30.124  1.00  0.00     0.064 A 
ATOM     52  C   UNL A   1      36.007  32.007  31.143  1.00  0.00     0.173 A 
ATOM     53  C   UNL A   1      36.572  33.265  29.213  1.00  0.00     0.173 A 
ATOM     54  F   UNL A   1      36.141  30.979  31.986  1.00  0.00    -0.203 F 
ATOM     55  C   UNL A   1      34.867  32.813  31.310  1.00  0.00     0.198 A 
ATOM     56  C   UNL A   1      35.444  34.071  29.381  1.00  0.00     0.198 A 
ATOM     57  F   UNL A   1      37.302  33.525  28.120  1.00  0.00    -0.203 F 
ATOM     58  F   UNL A   1      34.026  32.570  32.325  1.00  0.00    -0.200 F 
ATOM     59  C   UNL A   1      34.600  33.859  30.446  1.00  0.00     0.200 A 
ATOM     60  F   UNL A   1      35.198  35.060  28.510  1.00  0.00    -0.200 F 
ATOM     61  F   UNL A   1      33.532  34.647  30.629  1.00  0.00    -0.200 F 
ENDBRANCH  27  51
BRANCH  39  62
ATOM     62  C   UNL A   1      43.046  32.222  30.045  1.00  0.00     0.064 A 
ATOM     63  C   UNL A   1      43.264  31.313  29.007  1.00  0.00     0.173 A 
ATOM     64  C   UNL A   1      43.397  33.560  29.780  1.00  0.00     0.173 A 
ATOM     65  F   UNL A   1      42.965  30.018  29.178  1.00  0.00    -0.203 F 
ATOM     66  C   UNL A   1      43.806  31.729  27.785  1.00  0.00     0.198 A 
ATOM     67  C   UNL A   1      43.928  33.981  28.566  1.00  0.00     0.198 A 
ATOM     68  F   UNL A   1      43.207  34.498  30.706  1.00  0.00    -0.203 F 
ATOM     69  F   UNL A   1      44.008  30.834  26.808  1.00  0.00    -0.200 F 
ATOM     70  C   UNL A   1      44.139  33.059  27.566  1.00  0.00     0.200 A 
ATOM     71  F   UNL A   1      44.221  35.277  28.379  1.00  0.00    -0.200 F 
ATOM     72  F   UNL A   1      44.653  33.453  26.393  1.00  0.00    -0.200 F 
ENDBRANCH  39  62
ENDBRANCH  13  14
ENDBRANCH   6   8
ENDBRANCH   5   6
ENDBRANCH   4   5
ENDBRANCH   3   4
ENDBRANCH   2   3
ENDBRANCH   1   2
BRANCH   1  73
ATOM     73  C   UNL A   1      32.607  21.489  24.604  1.00  0.00     0.188 C 
BRANCH  73  74
ATOM     74  O   UNL A   1      31.485  21.471  25.476  1.00  0.00    -0.376 OA
BRANCH  74  75
ATOM     75  C   UNL A   1      30.854  22.708  25.762  1.00  0.00     0.202 C 
BRANCH  75  76
ATOM     76  C   UNL A   1      31.602  23.964  25.321  1.00  0.00     0.261 C 
BRANCH  76  77
ATOM     77  O   UNL A   1      31.390  25.107  26.165  1.00  0.00    -0.462 OA
BRANCH  77  78
ATOM     78  C   UNL A   1      32.140  26.195  25.834  1.00  0.00     0.324 C 
ATOM     79  O   UNL A   1      33.248  26.146  25.312  1.00  0.00    -0.250 OA
BRANCH  78  80
ATOM     80  C   UNL A   1      31.511  27.508  26.295  1.00  0.00     0.183 C 
ATOM     81  C   UNL A   1      32.162  28.151  27.526  1.00  0.00     0.032 C 
ATOM     82  N   UNL A   1      31.335  28.491  25.156  1.00  0.00    -0.184 NA
ATOM     83  C   UNL A   1      33.385  29.005  27.219  1.00  0.00     0.004 C 
ATOM     84  C   UNL A   1      32.589  29.224  24.840  1.00  0.00     0.103 C 
ATOM     85  C   UNL A   1      33.100  29.962  26.071  1.00  0.00     0.017 C 
BRANCH  82  86
ATOM     86  S   UNL A   1      30.619  27.686  23.799  1.00  0.00     0.245 S 
ATOM     87  O   UNL A   1      31.703  27.230  22.939  1.00  0.00    -0.207 OA
ATOM     88  O   UNL A   1      29.599  26.804  24.299  1.00  0.00    -0.207 OA
BRANCH  86  89
ATOM     89  C   UNL A   1      29.769  28.790  22.787  1.00  0.00     0.100 A 
ATOM     90  C   UNL A   1      28.371  29.023  22.809  1.00  0.00     0.041 A 
ATOM     91  C   UNL A   1      30.331  29.709  21.921  1.00  0.00     0.104 A 
ATOM     92  C   UNL A   1      28.123  30.077  21.959  1.00  0.00     0.083 A 
ATOM     93  N   UNL A   1      29.321  30.493  21.432  1.00  0.00    -0.366 N 
ATOM     94  H   UNL A   1      29.436  31.238  20.801  1.00  0.00     0.165 HD
ENDBRANCH  86  89
ENDBRANCH  82  86
ENDBRANCH  78  80
ENDBRANCH  77  78
ENDBRANCH  76  77
ENDBRANCH  75  76
ENDBRANCH  74  75
ENDBRANCH  73  74
ENDBRANCH   1  73
TORSDOF 19
ENDMDL
