MODEL 1
REMARK VINA RESULT:     -10.7      0.000      0.000
REMARK SMILES CC[NH+]1CCN(C(=O)c2ccccc2C(=O)OCCOCCOCCOC(=O)c2ccc(-c3c4nc(c(-c5c(F)c(F)c(F)c(F)c5F)c5ccc([nH]5)c(-c5c(F)c(F)c(F)c(F)c5F)c5nc(c(-c6c(F)c(F)c(F)c(F)c6F)c6ccc3[nH]6)C=C5)C=C4)cc2)CC1
REMARK SMILES IDX 21 1 20 2 19 3 18 4 17 5 15 6 16 7 14 8 9 9 10 10 11 11
REMARK SMILES IDX 13 12 12 13 7 14 3 15 4 16 93 17 5 19 92 20 6 21 8 22 2 23
REMARK SMILES IDX 1 24 22 25 23 26 24 27 25 28 26 29 27 30 28 31 29 32 30 33
REMARK SMILES IDX 91 34 31 35 90 36 32 37 33 38 34 39 84 40 35 41 89 42 83 43
REMARK SMILES IDX 85 44 36 45 88 46 82 47 81 48 37 50 69 51 49 52 68 53 50 54
REMARK SMILES IDX 53 55 67 56 86 57 51 58 52 59 66 61 87 62 54 63 38 64 39 65
REMARK SMILES IDX 47 66 40 67 41 68 45 69 48 70 42 71 43 72 46 73 44 74 70 75
REMARK SMILES IDX 71 76 79 77 72 78 73 79 77 80 80 81 74 82 75 83 78 84 76 85
REMARK SMILES IDX 55 86 56 87 64 88 57 89 58 90 62 91 65 92 59 93 60 94 63 95
REMARK SMILES IDX 61 96
REMARK H PARENT 3 18 85 49 53 60
REMARK Flexibility Score: inf
ROOT
ATOM      1  C   UNL A   1      35.655  32.324  28.132  1.00  0.00     0.188 C 
ENDROOT
BRANCH   1   2
ATOM      2  O   UNL A   1      35.046  31.383  27.255  1.00  0.00    -0.376 OA
BRANCH   2   3
ATOM      3  C   UNL A   1      33.881  30.699  27.715  1.00  0.00     0.202 C 
BRANCH   3   4
ATOM      4  C   UNL A   1      32.590  30.820  26.894  1.00  0.00     0.261 C 
BRANCH   4   5
ATOM      5  O   UNL A   1      32.013  29.556  26.487  1.00  0.00    -0.460 OA
BRANCH   5   6
ATOM      6  C   UNL A   1      32.211  29.196  25.198  1.00  0.00     0.339 C 
ATOM      7  O   UNL A   1      33.232  29.373  24.549  1.00  0.00    -0.246 OA
BRANCH   6   8
ATOM      8  C   UNL A   1      31.100  28.391  24.641  1.00  0.00     0.072 A 
ATOM      9  C   UNL A   1      30.834  27.045  24.916  1.00  0.00     0.054 A 
ATOM     10  C   UNL A   1      29.726  26.426  24.299  1.00  0.00     0.015 A 
ATOM     11  C   UNL A   1      28.899  27.131  23.422  1.00  0.00     0.001 A 
ATOM     12  C   UNL A   1      30.258  29.089  23.747  1.00  0.00     0.016 A 
ATOM     13  C   UNL A   1      29.173  28.462  23.137  1.00  0.00     0.001 A 
BRANCH   9  14
ATOM     14  C   UNL A   1      31.717  26.141  25.682  1.00  0.00     0.255 C 
ATOM     15  N   UNL A   1      34.013  23.269  23.687  1.00  0.00    -0.332 N 
ATOM     16  C   UNL A   1      33.488  23.180  25.071  1.00  0.00     0.284 C 
ATOM     17  C   UNL A   1      33.507  24.464  22.978  1.00  0.00     0.284 C 
ATOM     18  H   UNL A   1      33.654  22.448  23.200  1.00  0.00     0.348 HD
ATOM     19  C   UNL A   1      33.513  24.496  25.866  1.00  0.00     0.181 C 
ATOM     20  C   UNL A   1      33.406  25.773  23.791  1.00  0.00     0.181 C 
ATOM     21  N   UNL A   1      32.824  25.539  25.110  1.00  0.00    -0.327 N 
ATOM     22  O   UNL A   1      31.425  25.993  26.870  1.00  0.00    -0.269 OA
BRANCH  15  23
ATOM     23  C   UNL A   1      35.471  23.182  23.618  1.00  0.00     0.258 C 
ATOM     24  C   UNL A   1      35.971  21.967  24.390  1.00  0.00     0.071 C 
ENDBRANCH  15  23
ENDBRANCH   9  14
ENDBRANCH   6   8
ENDBRANCH   5   6
ENDBRANCH   4   5
ENDBRANCH   3   4
ENDBRANCH   2   3
ENDBRANCH   1   2
BRANCH   1  25
ATOM     25  C   UNL A   1      34.765  33.093  29.138  1.00  0.00     0.188 C 
BRANCH  25  26
ATOM     26  O   UNL A   1      34.976  34.487  29.110  1.00  0.00    -0.376 OA
BRANCH  26  27
ATOM     27  C   UNL A   1      33.933  35.306  28.610  1.00  0.00     0.202 C 
BRANCH  27  28
ATOM     28  C   UNL A   1      32.913  35.995  29.546  1.00  0.00     0.261 C 
BRANCH  28  29
ATOM     29  O   UNL A   1      32.405  35.241  30.658  1.00  0.00    -0.460 OA
BRANCH  29  30
ATOM     30  C   UNL A   1      32.672  35.705  31.905  1.00  0.00     0.338 C 
ATOM     31  O   UNL A   1      31.978  36.435  32.580  1.00  0.00    -0.246 OA
BRANCH  30  32
ATOM     32  C   UNL A   1      33.862  34.977  32.417  1.00  0.00     0.060 A 
ATOM     33  C   UNL A   1      35.109  35.618  32.366  1.00  0.00     0.016 A 
ATOM     34  C   UNL A   1      33.748  33.706  32.982  1.00  0.00     0.016 A 
ATOM     35  C   UNL A   1      36.247  34.982  32.867  1.00  0.00     0.010 A 
ATOM     36  C   UNL A   1      34.896  33.055  33.453  1.00  0.00     0.010 A 
ATOM     37  C   UNL A   1      36.155  33.678  33.373  1.00  0.00    -0.014 A 
BRANCH  37  38
ATOM     38  C   UNL A   1      37.397  32.904  33.626  1.00  0.00     0.031 A 
ATOM     39  C   UNL A   1      38.144  33.158  34.907  1.00  0.00     0.074 A 
ATOM     40  C   UNL A   1      37.841  31.971  32.765  1.00  0.00     0.049 A 
ATOM     41  N   UNL A   1      39.250  32.616  35.353  1.00  0.00    -0.248 NA
ATOM     42  C   UNL A   1      37.561  34.164  35.809  1.00  0.00     0.031 C 
ATOM     43  C   UNL A   1      37.193  31.603  31.509  1.00  0.00     0.029 A 
ATOM     44  N   UNL A   1      38.952  31.165  32.822  1.00  0.00    -0.354 N 
ATOM     45  C   UNL A   1      39.494  33.217  36.582  1.00  0.00     0.074 A 
ATOM     46  C   UNL A   1      38.443  34.188  36.797  1.00  0.00     0.031 C 
ATOM     47  C   UNL A   1      37.925  30.647  30.908  1.00  0.00     0.029 A 
ATOM     48  C   UNL A   1      39.105  30.358  31.721  1.00  0.00     0.049 A 
ATOM     49  H   UNL A   1      39.580  31.165  33.580  1.00  0.00     0.167 HD
ATOM     50  C   UNL A   1      40.496  32.972  37.459  1.00  0.00     0.037 A 
ATOM     51  C   UNL A   1      40.096  29.501  31.401  1.00  0.00     0.037 A 
ATOM     52  C   UNL A   1      41.549  32.016  37.241  1.00  0.00     0.049 A 
ATOM     53  C   UNL A   1      41.248  29.305  32.359  1.00  0.00     0.074 A 
ATOM     54  C   UNL A   1      42.601  31.684  38.076  1.00  0.00     0.029 A 
ATOM     55  N   UNL A   1      41.692  31.246  36.095  1.00  0.00    -0.354 N 
ATOM     56  N   UNL A   1      41.451  29.845  33.536  1.00  0.00    -0.248 NA
ATOM     57  C   UNL A   1      42.304  28.371  31.942  1.00  0.00     0.031 C 
ATOM     58  C   UNL A   1      43.416  30.764  37.410  1.00  0.00     0.029 A 
ATOM     59  C   UNL A   1      42.834  30.465  36.189  1.00  0.00     0.049 A 
ATOM     60  H   UNL A   1      41.074  31.254  35.328  1.00  0.00     0.167 HD
ATOM     61  C   UNL A   1      42.636  29.296  34.013  1.00  0.00     0.074 A 
ATOM     62  C   UNL A   1      43.097  28.366  33.004  1.00  0.00     0.031 C 
ATOM     63  C   UNL A   1      43.282  29.538  35.180  1.00  0.00     0.037 A 
BRANCH  50  64
ATOM     64  C   UNL A   1      40.520  33.783  38.724  1.00  0.00     0.064 A 
ATOM     65  C   UNL A   1      39.775  33.413  39.856  1.00  0.00     0.173 A 
ATOM     66  C   UNL A   1      41.315  34.936  38.812  1.00  0.00     0.173 A 
ATOM     67  F   UNL A   1      38.986  32.327  39.820  1.00  0.00    -0.203 F 
ATOM     68  C   UNL A   1      39.803  34.183  41.015  1.00  0.00     0.198 A 
ATOM     69  C   UNL A   1      41.367  35.684  39.985  1.00  0.00     0.198 A 
ATOM     70  F   UNL A   1      42.049  35.333  37.762  1.00  0.00    -0.203 F 
ATOM     71  F   UNL A   1      39.041  33.841  42.063  1.00  0.00    -0.200 F 
ATOM     72  C   UNL A   1      40.604  35.314  41.081  1.00  0.00     0.200 A 
ATOM     73  F   UNL A   1      42.153  36.767  40.052  1.00  0.00    -0.200 F 
ATOM     74  F   UNL A   1      40.634  36.050  42.201  1.00  0.00    -0.200 F 
ENDBRANCH  50  64
BRANCH  51  75
ATOM     75  C   UNL A   1      40.054  28.761  30.111  1.00  0.00     0.064 A 
ATOM     76  C   UNL A   1      39.450  27.498  30.018  1.00  0.00     0.173 A 
ATOM     77  C   UNL A   1      40.643  29.286  28.951  1.00  0.00     0.173 A 
ATOM     78  F   UNL A   1      38.900  26.937  31.105  1.00  0.00    -0.203 F 
ATOM     79  C   UNL A   1      39.453  26.784  28.821  1.00  0.00     0.198 A 
ATOM     80  C   UNL A   1      40.617  28.586  27.747  1.00  0.00     0.198 A 
ATOM     81  F   UNL A   1      41.242  30.485  28.988  1.00  0.00    -0.203 F 
ATOM     82  F   UNL A   1      38.914  25.558  28.774  1.00  0.00    -0.200 F 
ATOM     83  C   UNL A   1      40.028  27.332  27.685  1.00  0.00     0.200 A 
ATOM     84  F   UNL A   1      41.167  29.122  26.649  1.00  0.00    -0.200 F 
ATOM     85  F   UNL A   1      40.028  26.646  26.533  1.00  0.00    -0.200 F 
ENDBRANCH  51  75
BRANCH  63  86
ATOM     86  C   UNL A   1      44.537  28.754  35.456  1.00  0.00     0.064 A 
ATOM     87  C   UNL A   1      45.798  29.194  35.024  1.00  0.00     0.173 A 
ATOM     88  C   UNL A   1      44.480  27.561  36.194  1.00  0.00     0.173 A 
ATOM     89  F   UNL A   1      45.911  30.322  34.306  1.00  0.00    -0.203 F 
ATOM     90  C   UNL A   1      46.947  28.451  35.287  1.00  0.00     0.198 A 
ATOM     91  C   UNL A   1      45.634  26.840  36.488  1.00  0.00     0.198 A 
ATOM     92  F   UNL A   1      43.303  27.099  36.642  1.00  0.00    -0.203 F 
ATOM     93  F   UNL A   1      48.130  28.860  34.812  1.00  0.00    -0.200 F 
ATOM     94  C   UNL A   1      46.865  27.280  36.026  1.00  0.00     0.200 A 
ATOM     95  F   UNL A   1      45.555  25.720  37.218  1.00  0.00    -0.200 F 
ATOM     96  F   UNL A   1      47.971  26.569  36.284  1.00  0.00    -0.200 F 
ENDBRANCH  63  86
ENDBRANCH  37  38
ENDBRANCH  30  32
ENDBRANCH  29  30
ENDBRANCH  28  29
ENDBRANCH  27  28
ENDBRANCH  26  27
ENDBRANCH  25  26
ENDBRANCH   1  25
TORSDOF 19
ENDMDL
MODEL 2
REMARK VINA RESULT:     -10.5      0.751      2.115
REMARK SMILES CC[NH+]1CCN(C(=O)c2ccccc2C(=O)OCCOCCOCCOC(=O)c2ccc(-c3c4nc(c(-c5c(F)c(F)c(F)c(F)c5F)c5ccc([nH]5)c(-c5c(F)c(F)c(F)c(F)c5F)c5nc(c(-c6c(F)c(F)c(F)c(F)c6F)c6ccc3[nH]6)C=C5)C=C4)cc2)CC1
REMARK SMILES IDX 21 1 20 2 19 3 18 4 17 5 15 6 16 7 14 8 9 9 10 10 11 11
REMARK SMILES IDX 13 12 12 13 7 14 3 15 4 16 93 17 5 19 92 20 6 21 8 22 2 23
REMARK SMILES IDX 1 24 22 25 23 26 24 27 25 28 26 29 27 30 28 31 29 32 30 33
REMARK SMILES IDX 91 34 31 35 90 36 32 37 33 38 34 39 84 40 35 41 89 42 83 43
REMARK SMILES IDX 85 44 36 45 88 46 82 47 81 48 37 50 69 51 49 52 68 53 50 54
REMARK SMILES IDX 53 55 67 56 86 57 51 58 52 59 66 61 87 62 54 63 38 64 39 65
REMARK SMILES IDX 47 66 40 67 41 68 45 69 48 70 42 71 43 72 46 73 44 74 70 75
REMARK SMILES IDX 71 76 79 77 72 78 73 79 77 80 80 81 74 82 75 83 78 84 76 85
REMARK SMILES IDX 55 86 56 87 64 88 57 89 58 90 62 91 65 92 59 93 60 94 63 95
REMARK SMILES IDX 61 96
REMARK H PARENT 3 18 85 49 53 60
REMARK Flexibility Score: inf
ROOT
ATOM      1  C   UNL A   1      34.471  32.262  27.822  1.00  0.00     0.188 C 
ENDROOT
BRANCH   1   2
ATOM      2  O   UNL A   1      33.718  31.061  27.948  1.00  0.00    -0.376 OA
BRANCH   2   3
ATOM      3  C   UNL A   1      34.374  29.828  27.663  1.00  0.00     0.202 C 
BRANCH   3   4
ATOM      4  C   UNL A   1      33.941  29.038  26.421  1.00  0.00     0.261 C 
BRANCH   4   5
ATOM      5  O   UNL A   1      33.326  27.759  26.702  1.00  0.00    -0.460 OA
BRANCH   5   6
ATOM      6  C   UNL A   1      31.988  27.769  26.908  1.00  0.00     0.339 C 
ATOM      7  O   UNL A   1      31.421  28.096  27.940  1.00  0.00    -0.246 OA
BRANCH   6   8
ATOM      8  C   UNL A   1      31.208  27.488  25.682  1.00  0.00     0.072 A 
ATOM      9  C   UNL A   1      30.617  26.266  25.339  1.00  0.00     0.054 A 
ATOM     10  C   UNL A   1      29.902  26.168  24.127  1.00  0.00     0.015 A 
ATOM     11  C   UNL A   1      29.778  27.264  23.269  1.00  0.00     0.001 A 
ATOM     12  C   UNL A   1      31.080  28.584  24.802  1.00  0.00     0.016 A 
ATOM     13  C   UNL A   1      30.378  28.470  23.602  1.00  0.00     0.001 A 
BRANCH   9  14
ATOM     14  C   UNL A   1      30.812  24.992  26.063  1.00  0.00     0.255 C 
ATOM     15  N   UNL A   1      33.270  22.019  24.445  1.00  0.00    -0.332 N 
ATOM     16  C   UNL A   1      32.103  21.817  25.339  1.00  0.00     0.284 C 
ATOM     17  C   UNL A   1      33.413  23.432  24.032  1.00  0.00     0.284 C 
ATOM     18  H   UNL A   1      33.075  21.471  23.607  1.00  0.00     0.348 HD
ATOM     19  C   UNL A   1      31.945  22.864  26.453  1.00  0.00     0.181 C 
ATOM     20  C   UNL A   1      33.138  24.509  25.104  1.00  0.00     0.181 C 
ATOM     21  N   UNL A   1      31.932  24.203  25.870  1.00  0.00    -0.327 N 
ATOM     22  O   UNL A   1      29.931  24.702  26.875  1.00  0.00    -0.269 OA
BRANCH  15  23
ATOM     23  C   UNL A   1      34.517  21.492  24.998  1.00  0.00     0.258 C 
ATOM     24  C   UNL A   1      35.717  22.061  24.250  1.00  0.00     0.071 C 
ENDBRANCH  15  23
ENDBRANCH   9  14
ENDBRANCH   6   8
ENDBRANCH   5   6
ENDBRANCH   4   5
ENDBRANCH   3   4
ENDBRANCH   2   3
ENDBRANCH   1   2
BRANCH   1  25
ATOM     25  C   UNL A   1      34.966  32.972  29.105  1.00  0.00     0.188 C 
BRANCH  25  26
ATOM     26  O   UNL A   1      35.087  34.369  28.954  1.00  0.00    -0.376 OA
BRANCH  26  27
ATOM     27  C   UNL A   1      33.984  35.077  28.418  1.00  0.00     0.202 C 
BRANCH  27  28
ATOM     28  C   UNL A   1      32.977  35.828  29.321  1.00  0.00     0.261 C 
BRANCH  28  29
ATOM     29  O   UNL A   1      32.473  35.144  30.479  1.00  0.00    -0.460 OA
BRANCH  29  30
ATOM     30  C   UNL A   1      32.760  35.674  31.695  1.00  0.00     0.338 C 
ATOM     31  O   UNL A   1      32.086  36.454  32.334  1.00  0.00    -0.246 OA
BRANCH  30  32
ATOM     32  C   UNL A   1      33.944  34.957  32.236  1.00  0.00     0.060 A 
ATOM     33  C   UNL A   1      35.198  35.583  32.157  1.00  0.00     0.016 A 
ATOM     34  C   UNL A   1      33.819  33.712  32.854  1.00  0.00     0.016 A 
ATOM     35  C   UNL A   1      36.330  34.957  32.683  1.00  0.00     0.010 A 
ATOM     36  C   UNL A   1      34.961  33.070  33.351  1.00  0.00     0.010 A 
ATOM     37  C   UNL A   1      36.225  33.677  33.244  1.00  0.00    -0.014 A 
BRANCH  37  38
ATOM     38  C   UNL A   1      37.460  32.902  33.529  1.00  0.00     0.031 A 
ATOM     39  C   UNL A   1      38.185  33.168  34.820  1.00  0.00     0.074 A 
ATOM     40  C   UNL A   1      37.917  31.958  32.686  1.00  0.00     0.049 A 
ATOM     41  N   UNL A   1      39.280  32.628  35.292  1.00  0.00    -0.248 NA
ATOM     42  C   UNL A   1      37.588  34.186  35.700  1.00  0.00     0.031 C 
ATOM     43  C   UNL A   1      37.292  31.578  31.423  1.00  0.00     0.029 A 
ATOM     44  N   UNL A   1      39.024  31.149  32.772  1.00  0.00    -0.354 N 
ATOM     45  C   UNL A   1      39.503  33.241  36.519  1.00  0.00     0.074 A 
ATOM     46  C   UNL A   1      38.452  34.217  36.703  1.00  0.00     0.031 C 
ATOM     47  C   UNL A   1      38.031  30.614  30.845  1.00  0.00     0.029 A 
ATOM     48  C   UNL A   1      39.195  30.330  31.683  1.00  0.00     0.049 A 
ATOM     49  H   UNL A   1      39.638  31.156  33.542  1.00  0.00     0.167 HD
ATOM     50  C   UNL A   1      40.489  33.003  37.417  1.00  0.00     0.037 A 
ATOM     51  C   UNL A   1      40.189  29.467  31.391  1.00  0.00     0.037 A 
ATOM     52  C   UNL A   1      41.542  32.041  37.229  1.00  0.00     0.049 A 
ATOM     53  C   UNL A   1      41.322  29.278  32.372  1.00  0.00     0.074 A 
ATOM     54  C   UNL A   1      42.578  31.716  38.087  1.00  0.00     0.029 A 
ATOM     55  N   UNL A   1      41.704  31.258  36.094  1.00  0.00    -0.354 N 
ATOM     56  N   UNL A   1      41.506  29.830  33.546  1.00  0.00    -0.248 NA
ATOM     57  C   UNL A   1      42.383  28.336  31.985  1.00  0.00     0.031 C 
ATOM     58  C   UNL A   1      43.402  30.785  37.446  1.00  0.00     0.029 A 
ATOM     59  C   UNL A   1      42.841  30.475  36.217  1.00  0.00     0.049 A 
ATOM     60  H   UNL A   1      41.101  31.259  35.316  1.00  0.00     0.167 HD
ATOM     61  C   UNL A   1      42.680  29.283  34.051  1.00  0.00     0.074 A 
ATOM     62  C   UNL A   1      43.156  28.340  33.060  1.00  0.00     0.031 C 
ATOM     63  C   UNL A   1      43.305  29.536  35.227  1.00  0.00     0.037 A 
BRANCH  50  64
ATOM     64  C   UNL A   1      40.492  33.827  38.673  1.00  0.00     0.064 A 
ATOM     65  C   UNL A   1      41.246  35.006  38.784  1.00  0.00     0.173 A 
ATOM     66  C   UNL A   1      39.712  33.443  39.775  1.00  0.00     0.173 A 
ATOM     67  F   UNL A   1      42.020  35.411  37.765  1.00  0.00    -0.203 F 
ATOM     68  C   UNL A   1      41.243  35.751  39.960  1.00  0.00     0.198 A 
ATOM     69  C   UNL A   1      39.685  34.209  40.937  1.00  0.00     0.198 A 
ATOM     70  F   UNL A   1      38.970  32.327  39.722  1.00  0.00    -0.203 F 
ATOM     71  F   UNL A   1      42.014  36.843  40.062  1.00  0.00    -0.200 F 
ATOM     72  C   UNL A   1      40.457  35.356  41.033  1.00  0.00     0.200 A 
ATOM     73  F   UNL A   1      38.914  33.834  41.966  1.00  0.00    -0.200 F 
ATOM     74  F   UNL A   1      40.451  36.079  42.161  1.00  0.00    -0.200 F 
ENDBRANCH  50  64
BRANCH  51  75
ATOM     75  C   UNL A   1      40.169  28.712  30.108  1.00  0.00     0.064 A 
ATOM     76  C   UNL A   1      40.762  29.235  28.950  1.00  0.00     0.173 A 
ATOM     77  C   UNL A   1      39.531  27.467  30.006  1.00  0.00     0.173 A 
ATOM     78  F   UNL A   1      41.358  30.435  28.986  1.00  0.00    -0.203 F 
ATOM     79  C   UNL A   1      40.702  28.550  27.737  1.00  0.00     0.198 A 
ATOM     80  C   UNL A   1      39.500  26.768  28.801  1.00  0.00     0.198 A 
ATOM     81  F   UNL A   1      38.940  26.926  31.082  1.00  0.00    -0.203 F 
ATOM     82  F   UNL A   1      41.233  29.097  26.635  1.00  0.00    -0.200 F 
ATOM     83  C   UNL A   1      40.079  27.314  27.666  1.00  0.00     0.200 A 
ATOM     84  F   UNL A   1      38.904  25.569  28.739  1.00  0.00    -0.200 F 
ATOM     85  F   UNL A   1      40.025  26.654  26.500  1.00  0.00    -0.200 F 
ENDBRANCH  51  75
BRANCH  63  86
ATOM     86  C   UNL A   1      44.553  28.751  35.534  1.00  0.00     0.064 A 
ATOM     87  C   UNL A   1      44.508  27.508  36.183  1.00  0.00     0.173 A 
ATOM     88  C   UNL A   1      45.810  29.238  35.143  1.00  0.00     0.173 A 
ATOM     89  F   UNL A   1      43.334  26.999  36.589  1.00  0.00    -0.203 F 
ATOM     90  C   UNL A   1      45.675  26.800  36.460  1.00  0.00     0.198 A 
ATOM     91  C   UNL A   1      46.972  28.511  35.388  1.00  0.00     0.198 A 
ATOM     92  F   UNL A   1      45.912  30.416  34.509  1.00  0.00    -0.203 F 
ATOM     93  F   UNL A   1      45.611  25.644  37.134  1.00  0.00    -0.200 F 
ATOM     94  C   UNL A   1      46.905  27.298  36.056  1.00  0.00     0.200 A 
ATOM     95  F   UNL A   1      48.156  28.985  34.979  1.00  0.00    -0.200 F 
ATOM     96  F   UNL A   1      48.026  26.613  36.318  1.00  0.00    -0.200 F 
ENDBRANCH  63  86
ENDBRANCH  37  38
ENDBRANCH  30  32
ENDBRANCH  29  30
ENDBRANCH  28  29
ENDBRANCH  27  28
ENDBRANCH  26  27
ENDBRANCH  25  26
ENDBRANCH   1  25
TORSDOF 19
ENDMDL
MODEL 3
REMARK VINA RESULT:     -10.5      3.790      9.070
REMARK SMILES CC[NH+]1CCN(C(=O)c2ccccc2C(=O)OCCOCCOCCOC(=O)c2ccc(-c3c4nc(c(-c5c(F)c(F)c(F)c(F)c5F)c5ccc([nH]5)c(-c5c(F)c(F)c(F)c(F)c5F)c5nc(c(-c6c(F)c(F)c(F)c(F)c6F)c6ccc3[nH]6)C=C5)C=C4)cc2)CC1
REMARK SMILES IDX 21 1 20 2 19 3 18 4 17 5 15 6 16 7 14 8 9 9 10 10 11 11
REMARK SMILES IDX 13 12 12 13 7 14 3 15 4 16 93 17 5 19 92 20 6 21 8 22 2 23
REMARK SMILES IDX 1 24 22 25 23 26 24 27 25 28 26 29 27 30 28 31 29 32 30 33
REMARK SMILES IDX 91 34 31 35 90 36 32 37 33 38 34 39 84 40 35 41 89 42 83 43
REMARK SMILES IDX 85 44 36 45 88 46 82 47 81 48 37 50 69 51 49 52 68 53 50 54
REMARK SMILES IDX 53 55 67 56 86 57 51 58 52 59 66 61 87 62 54 63 38 64 39 65
REMARK SMILES IDX 47 66 40 67 41 68 45 69 48 70 42 71 43 72 46 73 44 74 70 75
REMARK SMILES IDX 71 76 79 77 72 78 73 79 77 80 80 81 74 82 75 83 78 84 76 85
REMARK SMILES IDX 55 86 56 87 64 88 57 89 58 90 62 91 65 92 59 93 60 94 63 95
REMARK SMILES IDX 61 96
REMARK H PARENT 3 18 85 49 53 60
REMARK Flexibility Score: inf
ROOT
ATOM      1  C   UNL A   1      39.342  21.536  25.793  1.00  0.00     0.188 C 
ENDROOT
BRANCH   1   2
ATOM      2  O   UNL A   1      37.951  21.250  25.883  1.00  0.00    -0.376 OA
BRANCH   2   3
ATOM      3  C   UNL A   1      37.150  21.461  24.722  1.00  0.00     0.202 C 
BRANCH   3   4
ATOM      4  C   UNL A   1      36.993  22.891  24.190  1.00  0.00     0.261 C 
BRANCH   4   5
ATOM      5  O   UNL A   1      35.989  23.682  24.869  1.00  0.00    -0.460 OA
BRANCH   5   6
ATOM      6  C   UNL A   1      35.073  24.292  24.082  1.00  0.00     0.339 C 
ATOM      7  O   UNL A   1      34.993  24.199  22.866  1.00  0.00    -0.246 OA
BRANCH   6   8
ATOM      8  C   UNL A   1      34.022  24.998  24.850  1.00  0.00     0.072 A 
ATOM      9  C   UNL A   1      32.721  24.539  25.084  1.00  0.00     0.054 A 
ATOM     10  C   UNL A   1      31.840  25.340  25.842  1.00  0.00     0.015 A 
ATOM     11  C   UNL A   1      32.245  26.574  26.357  1.00  0.00     0.001 A 
ATOM     12  C   UNL A   1      34.414  26.250  25.370  1.00  0.00     0.016 A 
ATOM     13  C   UNL A   1      33.531  27.035  26.109  1.00  0.00     0.001 A 
BRANCH   9  14
ATOM     14  C   UNL A   1      32.112  23.345  24.462  1.00  0.00     0.255 C 
ATOM     15  N   UNL A   1      33.605  19.537  25.342  1.00  0.00    -0.332 N 
ATOM     16  C   UNL A   1      32.943  19.962  24.084  1.00  0.00     0.284 C 
ATOM     17  C   UNL A   1      33.837  20.675  26.257  1.00  0.00     0.284 C 
ATOM     18  H   UNL A   1      34.517  19.172  25.066  1.00  0.00     0.348 HD
ATOM     19  C   UNL A   1      31.766  20.936  24.262  1.00  0.00     0.181 C 
ATOM     20  C   UNL A   1      32.719  21.734  26.360  1.00  0.00     0.181 C 
ATOM     21  N   UNL A   1      32.199  22.092  25.042  1.00  0.00    -0.327 N 
ATOM     22  O   UNL A   1      31.492  23.548  23.416  1.00  0.00    -0.269 OA
BRANCH  15  23
ATOM     23  C   UNL A   1      32.911  18.440  26.015  1.00  0.00     0.258 C 
ATOM     24  C   UNL A   1      32.591  17.324  25.027  1.00  0.00     0.071 C 
ENDBRANCH  15  23
ENDBRANCH   9  14
ENDBRANCH   6   8
ENDBRANCH   5   6
ENDBRANCH   4   5
ENDBRANCH   3   4
ENDBRANCH   2   3
ENDBRANCH   1   2
BRANCH   1  25
ATOM     25  C   UNL A   1      40.344  20.615  26.531  1.00  0.00     0.188 C 
BRANCH  25  26
ATOM     26  O   UNL A   1      41.518  20.368  25.791  1.00  0.00    -0.376 OA
BRANCH  26  27
ATOM     27  C   UNL A   1      42.678  21.111  26.119  1.00  0.00     0.202 C 
BRANCH  27  28
ATOM     28  C   UNL A   1      43.470  21.907  25.055  1.00  0.00     0.261 C 
BRANCH  28  29
ATOM     29  O   UNL A   1      43.021  23.233  24.735  1.00  0.00    -0.460 OA
BRANCH  29  30
ATOM     30  C   UNL A   1      43.852  24.265  25.028  1.00  0.00     0.338 C 
ATOM     31  O   UNL A   1      44.883  24.560  24.462  1.00  0.00    -0.246 OA
BRANCH  30  32
ATOM     32  C   UNL A   1      43.170  25.130  26.024  1.00  0.00     0.060 A 
ATOM     33  C   UNL A   1      43.592  26.462  26.153  1.00  0.00     0.016 A 
ATOM     34  C   UNL A   1      42.100  24.657  26.785  1.00  0.00     0.016 A 
ATOM     35  C   UNL A   1      42.955  27.317  27.055  1.00  0.00     0.010 A 
ATOM     36  C   UNL A   1      41.484  25.506  27.714  1.00  0.00     0.010 A 
ATOM     37  C   UNL A   1      41.925  26.832  27.872  1.00  0.00    -0.014 A 
BRANCH  37  38
ATOM     38  C   UNL A   1      41.458  27.651  29.021  1.00  0.00     0.031 A 
ATOM     39  C   UNL A   1      42.212  27.549  30.319  1.00  0.00     0.074 A 
ATOM     40  C   UNL A   1      40.415  28.493  28.915  1.00  0.00     0.049 A 
ATOM     41  N   UNL A   1      41.999  28.155  31.460  1.00  0.00    -0.248 NA
ATOM     42  C   UNL A   1      43.367  26.636  30.328  1.00  0.00     0.031 C 
ATOM     43  C   UNL A   1      39.624  28.713  27.708  1.00  0.00     0.029 A 
ATOM     44  N   UNL A   1      39.842  29.321  29.851  1.00  0.00    -0.354 N 
ATOM     45  C   UNL A   1      42.989  27.695  32.320  1.00  0.00     0.074 A 
ATOM     46  C   UNL A   1      43.780  26.735  31.582  1.00  0.00     0.031 C 
ATOM     47  C   UNL A   1      38.659  29.610  27.979  1.00  0.00     0.029 A 
ATOM     48  C   UNL A   1      38.748  30.006  29.384  1.00  0.00     0.049 A 
ATOM     49  H   UNL A   1      40.183  29.413  30.770  1.00  0.00     0.167 HD
ATOM     50  C   UNL A   1      43.225  28.051  33.605  1.00  0.00     0.037 A 
ATOM     51  C   UNL A   1      37.905  30.841  30.025  1.00  0.00     0.037 A 
ATOM     52  C   UNL A   1      42.430  28.996  34.344  1.00  0.00     0.049 A 
ATOM     53  C   UNL A   1      38.140  31.159  31.483  1.00  0.00     0.074 A 
ATOM     54  C   UNL A   1      42.598  29.434  35.646  1.00  0.00     0.029 A 
ATOM     55  N   UNL A   1      41.305  29.640  33.848  1.00  0.00    -0.354 N 
ATOM     56  N   UNL A   1      39.099  30.752  32.279  1.00  0.00    -0.248 NA
ATOM     57  C   UNL A   1      37.174  32.062  32.128  1.00  0.00     0.031 C 
ATOM     58  C   UNL A   1      41.539  30.292  35.959  1.00  0.00     0.029 A 
ATOM     59  C   UNL A   1      40.750  30.447  34.830  1.00  0.00     0.049 A 
ATOM     60  H   UNL A   1      40.952  29.539  32.935  1.00  0.00     0.167 HD
ATOM     61  C   UNL A   1      38.873  31.370  33.503  1.00  0.00     0.074 A 
ATOM     62  C   UNL A   1      37.694  32.195  33.339  1.00  0.00     0.031 C 
ATOM     63  C   UNL A   1      39.578  31.267  34.657  1.00  0.00     0.037 A 
BRANCH  50  64
ATOM     64  C   UNL A   1      44.373  27.381  34.307  1.00  0.00     0.064 A 
ATOM     65  C   UNL A   1      45.645  27.971  34.374  1.00  0.00     0.173 A 
ATOM     66  C   UNL A   1      44.191  26.141  34.938  1.00  0.00     0.173 A 
ATOM     67  F   UNL A   1      45.876  29.149  33.774  1.00  0.00    -0.203 F 
ATOM     68  C   UNL A   1      46.698  27.330  35.021  1.00  0.00     0.198 A 
ATOM     69  C   UNL A   1      45.238  25.520  35.613  1.00  0.00     0.198 A 
ATOM     70  F   UNL A   1      42.995  25.535  34.907  1.00  0.00    -0.203 F 
ATOM     71  F   UNL A   1      47.918  27.886  35.025  1.00  0.00    -0.200 F 
ATOM     72  C   UNL A   1      46.493  26.109  35.646  1.00  0.00     0.200 A 
ATOM     73  F   UNL A   1      45.033  24.348  36.229  1.00  0.00    -0.200 F 
ATOM     74  F   UNL A   1      47.506  25.497  36.273  1.00  0.00    -0.200 F 
ENDBRANCH  50  64
BRANCH  51  75
ATOM     75  C   UNL A   1      36.750  31.437  29.300  1.00  0.00     0.064 A 
ATOM     76  C   UNL A   1      36.698  32.811  29.021  1.00  0.00     0.173 A 
ATOM     77  C   UNL A   1      35.660  30.652  28.897  1.00  0.00     0.173 A 
ATOM     78  F   UNL A   1      37.701  33.611  29.413  1.00  0.00    -0.203 F 
ATOM     79  C   UNL A   1      35.596  33.377  28.385  1.00  0.00     0.198 A 
ATOM     80  C   UNL A   1      34.572  31.213  28.231  1.00  0.00     0.198 A 
ATOM     81  F   UNL A   1      35.654  29.334  29.147  1.00  0.00    -0.203 F 
ATOM     82  F   UNL A   1      35.551  34.700  28.178  1.00  0.00    -0.200 F 
ATOM     83  C   UNL A   1      34.537  32.577  27.983  1.00  0.00     0.200 A 
ATOM     84  F   UNL A   1      33.555  30.435  27.837  1.00  0.00    -0.200 F 
ATOM     85  F   UNL A   1      33.478  33.121  27.368  1.00  0.00    -0.200 F 
ENDBRANCH  51  75
BRANCH  63  86
ATOM     86  C   UNL A   1      39.123  32.098  35.827  1.00  0.00     0.064 A 
ATOM     87  C   UNL A   1      39.540  33.426  36.002  1.00  0.00     0.173 A 
ATOM     88  C   UNL A   1      38.229  31.565  36.769  1.00  0.00     0.173 A 
ATOM     89  F   UNL A   1      40.403  33.983  35.138  1.00  0.00    -0.203 F 
ATOM     90  C   UNL A   1      39.109  34.176  37.094  1.00  0.00     0.198 A 
ATOM     91  C   UNL A   1      37.770  32.329  37.839  1.00  0.00     0.198 A 
ATOM     92  F   UNL A   1      37.788  30.304  36.645  1.00  0.00    -0.203 F 
ATOM     93  F   UNL A   1      39.569  35.422  37.272  1.00  0.00    -0.200 F 
ATOM     94  C   UNL A   1      38.219  33.630  38.006  1.00  0.00     0.200 A 
ATOM     95  F   UNL A   1      36.896  31.806  38.708  1.00  0.00    -0.200 F 
ATOM     96  F   UNL A   1      37.801  34.354  39.053  1.00  0.00    -0.200 F 
ENDBRANCH  63  86
ENDBRANCH  37  38
ENDBRANCH  30  32
ENDBRANCH  29  30
ENDBRANCH  28  29
ENDBRANCH  27  28
ENDBRANCH  26  27
ENDBRANCH  25  26
ENDBRANCH   1  25
TORSDOF 19
ENDMDL
