MODEL 1
REMARK VINA RESULT:     -11.9      0.000      0.000
REMARK SMILES C[C@@H](NC(=O)[C@H]1CC=CC[C@@H]1C(=O)OCCOCCOCCOC(=O)c1ccc(-c2c3nc(c(-c4c(F)c(F)c(F)c(F)c4F)c4ccc([nH]4)c(-c4c(F)c(F)c(F)c(F)c4F)c4nc(c(-c5c(F)c(F)c(F)c(F)c5F)c5ccc2[nH]5)C=C4)C=C3)cc1)c1ccc(-n2ccnc2)cc1
REMARK SMILES IDX 18 1 17 2 16 3 15 4 14 5 12 6 13 7 11 8 6 9 7 10 8 11 10 12
REMARK SMILES IDX 9 13 4 14 3 15 5 17 2 18 1 19 89 20 90 21 99 22 91 23 98 24
REMARK SMILES IDX 92 25 93 26 94 27 97 28 95 29 96 30 19 31 20 32 21 33 22 34
REMARK SMILES IDX 23 35 24 36 25 37 26 38 27 39 88 40 28 41 87 42 29 43 30 44
REMARK SMILES IDX 31 45 81 46 32 47 86 48 80 49 82 50 33 51 85 52 79 53 78 54
REMARK SMILES IDX 34 56 66 57 46 58 65 59 47 60 50 61 64 62 83 63 48 64 49 65
REMARK SMILES IDX 63 67 84 68 51 69 35 70 36 71 44 72 37 73 38 74 42 75 45 76
REMARK SMILES IDX 39 77 40 78 43 79 41 80 67 81 68 82 76 83 69 84 70 85 74 86
REMARK SMILES IDX 77 87 71 88 72 89 75 90 73 91 52 92 53 93 61 94 54 95 55 96
REMARK SMILES IDX 59 97 62 98 56 99 57 100 60 101 58 102
REMARK H PARENT 3 16 82 55 50 66
REMARK Flexibility Score: inf
ROOT
ATOM      1  C   UNL A   1      32.137  29.268  26.684  1.00  0.00     0.188 C 
ENDROOT
BRANCH   1   2
ATOM      2  O   UNL A   1      32.150  28.821  25.344  1.00  0.00    -0.376 OA
BRANCH   2   3
ATOM      3  C   UNL A   1      32.880  29.555  24.379  1.00  0.00     0.202 C 
BRANCH   3   4
ATOM      4  C   UNL A   1      33.542  28.827  23.218  1.00  0.00     0.261 C 
BRANCH   4   5
ATOM      5  O   UNL A   1      34.026  27.489  23.426  1.00  0.00    -0.463 OA
BRANCH   5   6
ATOM      6  C   UNL A   1      33.662  26.421  22.659  1.00  0.00     0.310 C 
ATOM      7  O   UNL A   1      33.652  26.380  21.441  1.00  0.00    -0.252 OA
BRANCH   6   8
ATOM      8  C   UNL A   1      33.146  25.335  23.582  1.00  0.00     0.115 C 
ATOM      9  C   UNL A   1      33.165  25.668  25.054  1.00  0.00     0.097 C 
ATOM     10  C   UNL A   1      34.455  25.151  25.747  1.00  0.00     0.041 C 
ATOM     11  C   UNL A   1      35.159  23.998  25.086  1.00  0.00    -0.030 C 
ATOM     12  C   UNL A   1      33.529  23.903  23.237  1.00  0.00     0.043 C 
ATOM     13  C   UNL A   1      34.740  23.426  23.953  1.00  0.00    -0.030 C 
BRANCH   9  14
ATOM     14  C   UNL A   1      31.843  25.320  25.772  1.00  0.00     0.224 C 
ATOM     15  N   UNL A   1      30.611  25.826  25.428  1.00  0.00    -0.349 N 
ATOM     16  H   UNL A   1      30.257  26.415  26.133  1.00  0.00     0.164 HD
ATOM     17  O   UNL A   1      31.888  24.784  26.888  1.00  0.00    -0.275 OA
BRANCH  15  18
ATOM     18  C   UNL A   1      29.653  25.728  24.264  1.00  0.00     0.109 C 
ATOM     19  C   UNL A   1      30.031  24.539  23.378  1.00  0.00     0.036 C 
BRANCH  18  20
ATOM     20  C   UNL A   1      29.256  26.996  23.496  1.00  0.00    -0.026 A 
ATOM     21  C   UNL A   1      30.184  27.756  22.750  1.00  0.00     0.008 A 
ATOM     22  C   UNL A   1      27.953  27.506  23.591  1.00  0.00     0.008 A 
ATOM     23  C   UNL A   1      29.907  29.081  22.372  1.00  0.00     0.027 A 
ATOM     24  C   UNL A   1      27.637  28.789  23.109  1.00  0.00     0.027 A 
ATOM     25  C   UNL A   1      28.649  29.632  22.621  1.00  0.00     0.046 A 
BRANCH  25  26
ATOM     26  N   UNL A   1      28.448  31.050  22.564  1.00  0.00    -0.306 N 
ATOM     27  C   UNL A   1      28.829  31.995  23.497  1.00  0.00     0.113 A 
ATOM     28  C   UNL A   1      28.008  31.782  21.476  1.00  0.00     0.204 A 
ATOM     29  C   UNL A   1      28.642  33.224  22.906  1.00  0.00     0.131 A 
ATOM     30  N   UNL A   1      28.109  33.081  21.660  1.00  0.00    -0.245 NA
ENDBRANCH  25  26
ENDBRANCH  18  20
ENDBRANCH  15  18
ENDBRANCH   9  14
ENDBRANCH   6   8
ENDBRANCH   5   6
ENDBRANCH   4   5
ENDBRANCH   3   4
ENDBRANCH   2   3
ENDBRANCH   1   2
BRANCH   1  31
ATOM     31  C   UNL A   1      33.473  29.758  27.255  1.00  0.00     0.188 C 
BRANCH  31  32
ATOM     32  O   UNL A   1      33.599  31.173  27.163  1.00  0.00    -0.376 OA
BRANCH  32  33
ATOM     33  C   UNL A   1      32.379  31.895  27.232  1.00  0.00     0.202 C 
BRANCH  33  34
ATOM     34  C   UNL A   1      32.492  33.428  27.254  1.00  0.00     0.261 C 
BRANCH  34  35
ATOM     35  O   UNL A   1      32.532  34.066  28.544  1.00  0.00    -0.460 OA
BRANCH  35  36
ATOM     36  C   UNL A   1      33.613  34.806  28.888  1.00  0.00     0.338 C 
ATOM     37  O   UNL A   1      33.647  35.998  29.088  1.00  0.00    -0.246 OA
BRANCH  36  38
ATOM     38  C   UNL A   1      34.718  33.852  29.213  1.00  0.00     0.060 A 
ATOM     39  C   UNL A   1      34.436  32.759  30.048  1.00  0.00     0.016 A 
ATOM     40  C   UNL A   1      35.971  33.945  28.594  1.00  0.00     0.016 A 
ATOM     41  C   UNL A   1      35.412  31.782  30.285  1.00  0.00     0.010 A 
ATOM     42  C   UNL A   1      36.960  32.989  28.863  1.00  0.00     0.010 A 
ATOM     43  C   UNL A   1      36.698  31.922  29.739  1.00  0.00    -0.014 A 
BRANCH  43  44
ATOM     44  C   UNL A   1      37.832  31.176  30.351  1.00  0.00     0.031 A 
ATOM     45  C   UNL A   1      38.148  31.497  31.790  1.00  0.00     0.074 A 
ATOM     46  C   UNL A   1      38.565  30.257  29.698  1.00  0.00     0.049 A 
ATOM     47  N   UNL A   1      39.080  31.020  32.574  1.00  0.00    -0.248 NA
ATOM     48  C   UNL A   1      37.279  32.499  32.431  1.00  0.00     0.031 C 
ATOM     49  C   UNL A   1      38.352  29.811  28.326  1.00  0.00     0.029 A 
ATOM     50  N   UNL A   1      39.651  29.526  30.125  1.00  0.00    -0.354 N 
ATOM     51  C   UNL A   1      38.901  31.656  33.795  1.00  0.00     0.074 A 
ATOM     52  C   UNL A   1      37.785  32.562  33.649  1.00  0.00     0.031 C 
ATOM     53  C   UNL A   1      39.276  28.879  28.023  1.00  0.00     0.029 A 
ATOM     54  C   UNL A   1      40.171  28.689  29.166  1.00  0.00     0.049 A 
ATOM     55  H   UNL A   1      40.022  29.596  31.034  1.00  0.00     0.167 HD
ATOM     56  C   UNL A   1      39.605  31.514  34.942  1.00  0.00     0.037 A 
ATOM     57  C   UNL A   1      41.253  27.884  29.207  1.00  0.00     0.037 A 
ATOM     58  C   UNL A   1      40.753  30.665  35.085  1.00  0.00     0.049 A 
ATOM     59  C   UNL A   1      42.097  27.827  30.462  1.00  0.00     0.074 A 
ATOM     60  C   UNL A   1      41.552  30.475  36.197  1.00  0.00     0.029 A 
ATOM     61  N   UNL A   1      41.285  29.886  34.068  1.00  0.00    -0.354 N 
ATOM     62  N   UNL A   1      41.908  28.413  31.621  1.00  0.00    -0.248 NA
ATOM     63  C   UNL A   1      43.318  27.005  30.405  1.00  0.00     0.031 C 
ATOM     64  C   UNL A   1      42.602  29.625  35.837  1.00  0.00     0.029 A 
ATOM     65  C   UNL A   1      42.421  29.238  34.518  1.00  0.00     0.049 A 
ATOM     66  H   UNL A   1      40.908  29.807  33.162  1.00  0.00     0.167 HD
ATOM     67  C   UNL A   1      42.963  28.011  32.433  1.00  0.00     0.074 A 
ATOM     68  C   UNL A   1      43.785  27.122  31.641  1.00  0.00     0.031 C 
ATOM     69  C   UNL A   1      43.226  28.347  33.721  1.00  0.00     0.037 A 
BRANCH  56  70
ATOM     70  C   UNL A   1      39.177  32.362  36.101  1.00  0.00     0.064 A 
ATOM     71  C   UNL A   1      39.686  33.655  36.296  1.00  0.00     0.173 A 
ATOM     72  C   UNL A   1      38.286  31.853  37.056  1.00  0.00     0.173 A 
ATOM     73  F   UNL A   1      40.567  34.173  35.425  1.00  0.00    -0.203 F 
ATOM     74  C   UNL A   1      39.346  34.394  37.426  1.00  0.00     0.198 A 
ATOM     75  C   UNL A   1      37.925  32.606  38.169  1.00  0.00     0.198 A 
ATOM     76  F   UNL A   1      37.780  30.618  36.920  1.00  0.00    -0.203 F 
ATOM     77  F   UNL A   1      39.897  35.599  37.628  1.00  0.00    -0.200 F 
ATOM     78  C   UNL A   1      38.463  33.870  38.359  1.00  0.00     0.200 A 
ATOM     79  F   UNL A   1      37.069  32.101  39.068  1.00  0.00    -0.200 F 
ATOM     80  F   UNL A   1      38.145  34.578  39.452  1.00  0.00    -0.200 F 
ENDBRANCH  56  70
BRANCH  57  81
ATOM     81  C   UNL A   1      41.632  27.067  28.021  1.00  0.00     0.064 A 
ATOM     82  C   UNL A   1      42.483  27.580  27.031  1.00  0.00     0.173 A 
ATOM     83  C   UNL A   1      41.113  25.778  27.826  1.00  0.00     0.173 A 
ATOM     84  F   UNL A   1      42.974  28.823  27.149  1.00  0.00    -0.203 F 
ATOM     85  C   UNL A   1      42.792  26.841  25.890  1.00  0.00     0.198 A 
ATOM     86  C   UNL A   1      41.444  25.030  26.697  1.00  0.00     0.198 A 
ATOM     87  F   UNL A   1      40.277  25.247  28.730  1.00  0.00    -0.203 F 
ATOM     88  F   UNL A   1      43.567  27.376  24.937  1.00  0.00    -0.200 F 
ATOM     89  C   UNL A   1      42.277  25.564  25.727  1.00  0.00     0.200 A 
ATOM     90  F   UNL A   1      40.946  23.795  26.544  1.00  0.00    -0.200 F 
ATOM     91  F   UNL A   1      42.574  24.854  24.629  1.00  0.00    -0.200 F 
ENDBRANCH  57  81
BRANCH  69  92
ATOM     92  C   UNL A   1      44.429  27.729  34.377  1.00  0.00     0.064 A 
ATOM     93  C   UNL A   1      45.676  28.370  34.391  1.00  0.00     0.173 A 
ATOM     94  C   UNL A   1      44.312  26.510  35.063  1.00  0.00     0.173 A 
ATOM     95  F   UNL A   1      45.845  29.532  33.743  1.00  0.00    -0.203 F 
ATOM     96  C   UNL A   1      46.765  27.804  35.049  1.00  0.00     0.198 A 
ATOM     97  C   UNL A   1      45.393  25.961  35.746  1.00  0.00     0.198 A 
ATOM     98  F   UNL A   1      43.138  25.860  35.091  1.00  0.00    -0.203 F 
ATOM     99  F   UNL A   1      47.958  28.413  35.017  1.00  0.00    -0.200 F 
ATOM    100  C   UNL A   1      46.621  26.606  35.734  1.00  0.00     0.200 A 
ATOM    101  F   UNL A   1      45.245  24.813  36.421  1.00  0.00    -0.200 F 
ATOM    102  F   UNL A   1      47.666  26.069  36.379  1.00  0.00    -0.200 F 
ENDBRANCH  69  92
ENDBRANCH  43  44
ENDBRANCH  36  38
ENDBRANCH  35  36
ENDBRANCH  34  35
ENDBRANCH  33  34
ENDBRANCH  32  33
ENDBRANCH  31  32
ENDBRANCH   1  31
TORSDOF 21
ENDMDL
MODEL 2
REMARK VINA RESULT:     -11.9      0.856      7.119
REMARK SMILES C[C@@H](NC(=O)[C@H]1CC=CC[C@@H]1C(=O)OCCOCCOCCOC(=O)c1ccc(-c2c3nc(c(-c4c(F)c(F)c(F)c(F)c4F)c4ccc([nH]4)c(-c4c(F)c(F)c(F)c(F)c4F)c4nc(c(-c5c(F)c(F)c(F)c(F)c5F)c5ccc2[nH]5)C=C4)C=C3)cc1)c1ccc(-n2ccnc2)cc1
REMARK SMILES IDX 18 1 17 2 16 3 15 4 14 5 12 6 13 7 11 8 6 9 7 10 8 11 10 12
REMARK SMILES IDX 9 13 4 14 3 15 5 17 2 18 1 19 89 20 90 21 99 22 91 23 98 24
REMARK SMILES IDX 92 25 93 26 94 27 97 28 95 29 96 30 19 31 20 32 21 33 22 34
REMARK SMILES IDX 23 35 24 36 25 37 26 38 27 39 88 40 28 41 87 42 29 43 30 44
REMARK SMILES IDX 31 45 81 46 32 47 86 48 80 49 82 50 33 51 85 52 79 53 78 54
REMARK SMILES IDX 34 56 66 57 46 58 65 59 47 60 50 61 64 62 83 63 48 64 49 65
REMARK SMILES IDX 63 67 84 68 51 69 35 70 36 71 44 72 37 73 38 74 42 75 45 76
REMARK SMILES IDX 39 77 40 78 43 79 41 80 67 81 68 82 76 83 69 84 70 85 74 86
REMARK SMILES IDX 77 87 71 88 72 89 75 90 73 91 52 92 53 93 61 94 54 95 55 96
REMARK SMILES IDX 59 97 62 98 56 99 57 100 60 101 58 102
REMARK H PARENT 3 16 82 55 50 66
REMARK Flexibility Score: inf
ROOT
ATOM      1  C   UNL A   1      32.141  29.268  26.726  1.00  0.00     0.188 C 
ENDROOT
BRANCH   1   2
ATOM      2  O   UNL A   1      32.062  28.884  25.370  1.00  0.00    -0.376 OA
BRANCH   2   3
ATOM      3  C   UNL A   1      32.740  29.652  24.394  1.00  0.00     0.202 C 
BRANCH   3   4
ATOM      4  C   UNL A   1      33.519  28.953  23.289  1.00  0.00     0.261 C 
BRANCH   4   5
ATOM      5  O   UNL A   1      33.984  27.610  23.512  1.00  0.00    -0.463 OA
BRANCH   5   6
ATOM      6  C   UNL A   1      33.649  26.549  22.723  1.00  0.00     0.310 C 
ATOM      7  O   UNL A   1      33.660  26.525  21.506  1.00  0.00    -0.252 OA
BRANCH   6   8
ATOM      8  C   UNL A   1      33.133  25.442  23.622  1.00  0.00     0.115 C 
ATOM      9  C   UNL A   1      33.145  25.744  25.100  1.00  0.00     0.097 C 
ATOM     10  C   UNL A   1      34.434  25.217  25.787  1.00  0.00     0.041 C 
ATOM     11  C   UNL A   1      35.145  24.081  25.105  1.00  0.00    -0.030 C 
ATOM     12  C   UNL A   1      33.522  24.019  23.249  1.00  0.00     0.043 C 
ATOM     13  C   UNL A   1      34.732  23.531  23.958  1.00  0.00    -0.030 C 
BRANCH   9  14
ATOM     14  C   UNL A   1      31.822  25.376  25.806  1.00  0.00     0.224 C 
ATOM     15  N   UNL A   1      30.586  25.864  25.450  1.00  0.00    -0.349 N 
ATOM     16  H   UNL A   1      30.217  26.448  26.151  1.00  0.00     0.164 HD
ATOM     17  O   UNL A   1      31.865  24.842  26.924  1.00  0.00    -0.275 OA
BRANCH  15  18
ATOM     18  C   UNL A   1      29.640  25.750  24.278  1.00  0.00     0.109 C 
ATOM     19  C   UNL A   1      30.042  24.563  23.400  1.00  0.00     0.036 C 
BRANCH  18  20
ATOM     20  C   UNL A   1      29.237  27.011  23.501  1.00  0.00    -0.026 A 
ATOM     21  C   UNL A   1      30.160  27.768  22.747  1.00  0.00     0.008 A 
ATOM     22  C   UNL A   1      27.932  27.516  23.595  1.00  0.00     0.008 A 
ATOM     23  C   UNL A   1      29.876  29.090  22.360  1.00  0.00     0.027 A 
ATOM     24  C   UNL A   1      27.609  28.794  23.104  1.00  0.00     0.027 A 
ATOM     25  C   UNL A   1      28.616  29.637  22.607  1.00  0.00     0.046 A 
BRANCH  25  26
ATOM     26  N   UNL A   1      28.409  31.054  22.539  1.00  0.00    -0.306 N 
ATOM     27  C   UNL A   1      28.777  32.007  23.470  1.00  0.00     0.113 A 
ATOM     28  C   UNL A   1      27.975  31.777  21.444  1.00  0.00     0.204 A 
ATOM     29  C   UNL A   1      28.589  33.230  22.870  1.00  0.00     0.131 A 
ATOM     30  N   UNL A   1      28.068  33.078  21.620  1.00  0.00    -0.245 NA
ENDBRANCH  25  26
ENDBRANCH  18  20
ENDBRANCH  15  18
ENDBRANCH   9  14
ENDBRANCH   6   8
ENDBRANCH   5   6
ENDBRANCH   4   5
ENDBRANCH   3   4
ENDBRANCH   2   3
ENDBRANCH   1   2
BRANCH   1  31
ATOM     31  C   UNL A   1      33.487  29.823  27.204  1.00  0.00     0.188 C 
BRANCH  31  32
ATOM     32  O   UNL A   1      33.353  31.122  27.769  1.00  0.00    -0.376 OA
BRANCH  32  33
ATOM     33  C   UNL A   1      32.283  31.900  27.251  1.00  0.00     0.202 C 
BRANCH  33  34
ATOM     34  C   UNL A   1      32.532  33.412  27.131  1.00  0.00     0.261 C 
BRANCH  34  35
ATOM     35  O   UNL A   1      32.154  34.232  28.251  1.00  0.00    -0.460 OA
BRANCH  35  36
ATOM     36  C   UNL A   1      33.040  35.129  28.749  1.00  0.00     0.338 C 
ATOM     37  O   UNL A   1      32.856  36.310  28.932  1.00  0.00    -0.246 OA
BRANCH  36  38
ATOM     38  C   UNL A   1      34.214  34.356  29.259  1.00  0.00     0.060 A 
ATOM     39  C   UNL A   1      33.988  33.330  30.190  1.00  0.00     0.016 A 
ATOM     40  C   UNL A   1      35.496  34.536  28.726  1.00  0.00     0.016 A 
ATOM     41  C   UNL A   1      35.044  32.509  30.607  1.00  0.00     0.010 A 
ATOM     42  C   UNL A   1      36.561  33.741  29.173  1.00  0.00     0.010 A 
ATOM     43  C   UNL A   1      36.348  32.747  30.142  1.00  0.00    -0.014 A 
BRANCH  43  44
ATOM     44  C   UNL A   1      37.502  32.213  30.915  1.00  0.00     0.031 A 
ATOM     45  C   UNL A   1      38.300  31.115  30.259  1.00  0.00     0.074 A 
ATOM     46  C   UNL A   1      37.856  32.653  32.136  1.00  0.00     0.049 A 
ATOM     47  N   UNL A   1      39.342  30.454  30.696  1.00  0.00    -0.248 NA
ATOM     48  C   UNL A   1      37.854  30.712  28.914  1.00  0.00     0.031 C 
ATOM     49  C   UNL A   1      37.211  33.733  32.876  1.00  0.00     0.029 A 
ATOM     50  N   UNL A   1      38.866  32.231  32.970  1.00  0.00    -0.354 N 
ATOM     51  C   UNL A   1      39.676  29.572  29.678  1.00  0.00     0.074 A 
ATOM     52  C   UNL A   1      38.723  29.766  28.609  1.00  0.00     0.031 C 
ATOM     53  C   UNL A   1      37.845  33.892  34.054  1.00  0.00     0.029 A 
ATOM     54  C   UNL A   1      38.915  32.901  34.170  1.00  0.00     0.049 A 
ATOM     55  H   UNL A   1      39.497  31.514  32.730  1.00  0.00     0.167 HD
ATOM     56  C   UNL A   1      40.679  28.665  29.630  1.00  0.00     0.037 A 
ATOM     57  C   UNL A   1      39.719  32.715  35.238  1.00  0.00     0.037 A 
ATOM     58  C   UNL A   1      41.595  28.416  30.707  1.00  0.00     0.049 A 
ATOM     59  C   UNL A   1      40.760  31.618  35.211  1.00  0.00     0.074 A 
ATOM     60  C   UNL A   1      42.627  27.499  30.767  1.00  0.00     0.029 A 
ATOM     61  N   UNL A   1      41.566  29.072  31.929  1.00  0.00    -0.354 N 
ATOM     62  N   UNL A   1      41.087  30.802  34.237  1.00  0.00    -0.248 NA
ATOM     63  C   UNL A   1      41.536  31.406  36.445  1.00  0.00     0.031 C 
ATOM     64  C   UNL A   1      43.187  27.558  32.047  1.00  0.00     0.029 A 
ATOM     65  C   UNL A   1      42.542  28.556  32.763  1.00  0.00     0.049 A 
ATOM     66  H   UNL A   1      40.943  29.797  32.167  1.00  0.00     0.167 HD
ATOM     67  C   UNL A   1      42.116  30.006  34.728  1.00  0.00     0.074 A 
ATOM     68  C   UNL A   1      42.370  30.442  36.084  1.00  0.00     0.031 C 
ATOM     69  C   UNL A   1      42.791  29.005  34.109  1.00  0.00     0.037 A 
BRANCH  56  70
ATOM     70  C   UNL A   1      40.775  27.834  28.387  1.00  0.00     0.064 A 
ATOM     71  C   UNL A   1      40.122  26.596  28.276  1.00  0.00     0.173 A 
ATOM     72  C   UNL A   1      41.570  28.258  27.314  1.00  0.00     0.173 A 
ATOM     73  F   UNL A   1      39.376  26.133  29.291  1.00  0.00    -0.203 F 
ATOM     74  C   UNL A   1      40.294  25.796  27.150  1.00  0.00     0.198 A 
ATOM     75  C   UNL A   1      41.715  27.470  26.176  1.00  0.00     0.198 A 
ATOM     76  F   UNL A   1      42.221  29.430  27.375  1.00  0.00    -0.203 F 
ATOM     77  F   UNL A   1      39.718  24.587  27.094  1.00  0.00    -0.200 F 
ATOM     78  C   UNL A   1      41.087  26.236  26.100  1.00  0.00     0.200 A 
ATOM     79  F   UNL A   1      42.478  27.897  25.161  1.00  0.00    -0.200 F 
ATOM     80  F   UNL A   1      41.261  25.461  25.021  1.00  0.00    -0.200 F 
ENDBRANCH  56  70
BRANCH  57  81
ATOM     81  C   UNL A   1      39.575  33.571  36.449  1.00  0.00     0.064 A 
ATOM     82  C   UNL A   1      38.770  33.171  37.526  1.00  0.00     0.173 A 
ATOM     83  C   UNL A   1      40.195  34.827  36.534  1.00  0.00     0.173 A 
ATOM     84  F   UNL A   1      38.122  31.997  37.478  1.00  0.00    -0.203 F 
ATOM     85  C   UNL A   1      38.584  33.995  38.635  1.00  0.00     0.198 A 
ATOM     86  C   UNL A   1      40.030  35.638  37.656  1.00  0.00     0.198 A 
ATOM     87  F   UNL A   1      40.958  35.268  35.524  1.00  0.00    -0.203 F 
ATOM     88  F   UNL A   1      37.770  33.609  39.627  1.00  0.00    -0.200 F 
ATOM     89  C   UNL A   1      39.220  35.226  38.701  1.00  0.00     0.200 A 
ATOM     90  F   UNL A   1      40.647  36.827  37.717  1.00  0.00    -0.200 F 
ATOM     91  F   UNL A   1      39.040  36.019  39.768  1.00  0.00    -0.200 F 
ENDBRANCH  57  81
BRANCH  69  92
ATOM     92  C   UNL A   1      43.897  28.329  34.870  1.00  0.00     0.064 A 
ATOM     93  C   UNL A   1      43.681  27.151  35.600  1.00  0.00     0.173 A 
ATOM     94  C   UNL A   1      45.207  28.829  34.807  1.00  0.00     0.173 A 
ATOM     95  F   UNL A   1      42.447  26.636  35.701  1.00  0.00    -0.203 F 
ATOM     96  C   UNL A   1      44.731  26.512  36.255  1.00  0.00     0.198 A 
ATOM     97  C   UNL A   1      46.260  28.172  35.436  1.00  0.00     0.198 A 
ATOM     98  F   UNL A   1      45.472  29.947  34.111  1.00  0.00    -0.203 F 
ATOM     99  F   UNL A   1      44.496  25.410  36.981  1.00  0.00    -0.200 F 
ATOM    100  C   UNL A   1      46.020  27.017  36.165  1.00  0.00     0.200 A 
ATOM    101  F   UNL A   1      47.507  28.652  35.332  1.00  0.00    -0.200 F 
ATOM    102  F   UNL A   1      47.032  26.393  36.784  1.00  0.00    -0.200 F 
ENDBRANCH  69  92
ENDBRANCH  43  44
ENDBRANCH  36  38
ENDBRANCH  35  36
ENDBRANCH  34  35
ENDBRANCH  33  34
ENDBRANCH  32  33
ENDBRANCH  31  32
ENDBRANCH   1  31
TORSDOF 21
ENDMDL
MODEL 3
REMARK VINA RESULT:     -11.8      4.387      7.513
REMARK SMILES C[C@@H](NC(=O)[C@H]1CC=CC[C@@H]1C(=O)OCCOCCOCCOC(=O)c1ccc(-c2c3nc(c(-c4c(F)c(F)c(F)c(F)c4F)c4ccc([nH]4)c(-c4c(F)c(F)c(F)c(F)c4F)c4nc(c(-c5c(F)c(F)c(F)c(F)c5F)c5ccc2[nH]5)C=C4)C=C3)cc1)c1ccc(-n2ccnc2)cc1
REMARK SMILES IDX 18 1 17 2 16 3 15 4 14 5 12 6 13 7 11 8 6 9 7 10 8 11 10 12
REMARK SMILES IDX 9 13 4 14 3 15 5 17 2 18 1 19 89 20 90 21 99 22 91 23 98 24
REMARK SMILES IDX 92 25 93 26 94 27 97 28 95 29 96 30 19 31 20 32 21 33 22 34
REMARK SMILES IDX 23 35 24 36 25 37 26 38 27 39 88 40 28 41 87 42 29 43 30 44
REMARK SMILES IDX 31 45 81 46 32 47 86 48 80 49 82 50 33 51 85 52 79 53 78 54
REMARK SMILES IDX 34 56 66 57 46 58 65 59 47 60 50 61 64 62 83 63 48 64 49 65
REMARK SMILES IDX 63 67 84 68 51 69 35 70 36 71 44 72 37 73 38 74 42 75 45 76
REMARK SMILES IDX 39 77 40 78 43 79 41 80 67 81 68 82 76 83 69 84 70 85 74 86
REMARK SMILES IDX 77 87 71 88 72 89 75 90 73 91 52 92 53 93 61 94 54 95 55 96
REMARK SMILES IDX 59 97 62 98 56 99 57 100 60 101 58 102
REMARK H PARENT 3 16 82 55 50 66
REMARK Flexibility Score: inf
ROOT
ATOM      1  C   UNL A   1      33.947  32.784  28.826  1.00  0.00     0.188 C 
ENDROOT
BRANCH   1   2
ATOM      2  O   UNL A   1      34.833  32.310  27.835  1.00  0.00    -0.376 OA
BRANCH   2   3
ATOM      3  C   UNL A   1      34.880  30.923  27.558  1.00  0.00     0.202 C 
BRANCH   3   4
ATOM      4  C   UNL A   1      33.632  30.207  27.065  1.00  0.00     0.261 C 
BRANCH   4   5
ATOM      5  O   UNL A   1      33.349  28.887  27.562  1.00  0.00    -0.463 OA
BRANCH   5   6
ATOM      6  C   UNL A   1      32.203  28.200  27.284  1.00  0.00     0.310 C 
ATOM      7  O   UNL A   1      31.176  28.218  27.938  1.00  0.00    -0.252 OA
BRANCH   6   8
ATOM      8  C   UNL A   1      32.472  27.304  26.090  1.00  0.00     0.115 C 
ATOM      9  C   UNL A   1      32.038  27.854  24.753  1.00  0.00     0.097 C 
ATOM     10  C   UNL A   1      30.621  27.359  24.357  1.00  0.00     0.041 C 
ATOM     11  C   UNL A   1      30.157  26.073  24.984  1.00  0.00    -0.030 C 
ATOM     12  C   UNL A   1      32.236  25.813  26.285  1.00  0.00     0.043 C 
ATOM     13  C   UNL A   1      30.887  25.367  25.852  1.00  0.00    -0.030 C 
BRANCH   9  14
ATOM     14  C   UNL A   1      33.119  27.711  23.659  1.00  0.00     0.224 C 
ATOM     15  N   UNL A   1      33.654  26.514  23.243  1.00  0.00    -0.349 N 
ATOM     16  H   UNL A   1      34.605  26.444  23.488  1.00  0.00     0.164 HD
ATOM     17  O   UNL A   1      33.760  28.713  23.314  1.00  0.00    -0.275 OA
BRANCH  15  18
ATOM     18  C   UNL A   1      33.184  25.278  22.514  1.00  0.00     0.109 C 
ATOM     19  C   UNL A   1      32.012  25.630  21.596  1.00  0.00     0.036 C 
BRANCH  18  20
ATOM     20  C   UNL A   1      33.019  23.959  23.282  1.00  0.00    -0.026 A 
ATOM     21  C   UNL A   1      34.115  23.253  23.826  1.00  0.00     0.008 A 
ATOM     22  C   UNL A   1      31.760  23.350  23.387  1.00  0.00     0.008 A 
ATOM     23  C   UNL A   1      34.004  21.899  24.187  1.00  0.00     0.027 A 
ATOM     24  C   UNL A   1      31.626  22.032  23.859  1.00  0.00     0.027 A 
ATOM     25  C   UNL A   1      32.765  21.257  24.131  1.00  0.00     0.046 A 
BRANCH  25  26
ATOM     26  N   UNL A   1      32.682  19.827  24.160  1.00  0.00    -0.306 N 
ATOM     27  C   UNL A   1      32.481  18.971  23.093  1.00  0.00     0.113 A 
ATOM     28  C   UNL A   1      32.978  19.000  25.228  1.00  0.00     0.204 A 
ATOM     29  C   UNL A   1      32.712  17.700  23.566  1.00  0.00     0.131 A 
ATOM     30  N   UNL A   1      32.996  17.726  24.898  1.00  0.00    -0.245 NA
ENDBRANCH  25  26
ENDBRANCH  18  20
ENDBRANCH  15  18
ENDBRANCH   9  14
ENDBRANCH   6   8
ENDBRANCH   5   6
ENDBRANCH   4   5
ENDBRANCH   3   4
ENDBRANCH   2   3
ENDBRANCH   1   2
BRANCH   1  31
ATOM     31  C   UNL A   1      33.842  34.306  28.981  1.00  0.00     0.188 C 
BRANCH  31  32
ATOM     32  O   UNL A   1      33.053  34.670  30.108  1.00  0.00    -0.376 OA
BRANCH  32  33
ATOM     33  C   UNL A   1      33.763  35.291  31.169  1.00  0.00     0.202 C 
BRANCH  33  34
ATOM     34  C   UNL A   1      34.355  34.355  32.236  1.00  0.00     0.261 C 
BRANCH  34  35
ATOM     35  O   UNL A   1      35.552  33.635  31.889  1.00  0.00    -0.460 OA
BRANCH  35  36
ATOM     36  C   UNL A   1      36.062  32.732  32.761  1.00  0.00     0.338 C 
ATOM     37  O   UNL A   1      35.662  32.491  33.877  1.00  0.00    -0.246 OA
BRANCH  36  38
ATOM     38  C   UNL A   1      37.063  31.911  32.014  1.00  0.00     0.060 A 
ATOM     39  C   UNL A   1      37.953  31.109  32.745  1.00  0.00     0.016 A 
ATOM     40  C   UNL A   1      37.036  31.818  30.617  1.00  0.00     0.016 A 
ATOM     41  C   UNL A   1      38.829  30.241  32.081  1.00  0.00     0.010 A 
ATOM     42  C   UNL A   1      37.940  30.979  29.951  1.00  0.00     0.010 A 
ATOM     43  C   UNL A   1      38.866  30.212  30.678  1.00  0.00    -0.014 A 
BRANCH  43  44
ATOM     44  C   UNL A   1      40.074  29.674  29.994  1.00  0.00     0.031 A 
ATOM     45  C   UNL A   1      41.230  30.628  29.821  1.00  0.00     0.074 A 
ATOM     46  C   UNL A   1      40.179  28.413  29.538  1.00  0.00     0.049 A 
ATOM     47  N   UNL A   1      42.396  30.445  29.257  1.00  0.00    -0.248 NA
ATOM     48  C   UNL A   1      41.035  31.980  30.372  1.00  0.00     0.031 C 
ATOM     49  C   UNL A   1      39.168  27.370  29.669  1.00  0.00     0.029 A 
ATOM     50  N   UNL A   1      41.210  27.800  28.863  1.00  0.00    -0.354 N 
ATOM     51  C   UNL A   1      43.069  31.651  29.395  1.00  0.00     0.074 A 
ATOM     52  C   UNL A   1      42.183  32.563  30.080  1.00  0.00     0.031 C 
ATOM     53  C   UNL A   1      39.631  26.241  29.097  1.00  0.00     0.029 A 
ATOM     54  C   UNL A   1      40.955  26.492  28.524  1.00  0.00     0.049 A 
ATOM     55  H   UNL A   1      42.055  28.255  28.642  1.00  0.00     0.167 HD
ATOM     56  C   UNL A   1      44.313  31.985  28.981  1.00  0.00     0.037 A 
ATOM     57  C   UNL A   1      41.697  25.615  27.816  1.00  0.00     0.037 A 
ATOM     58  C   UNL A   1      45.181  31.111  28.244  1.00  0.00     0.049 A 
ATOM     59  C   UNL A   1      43.037  26.044  27.261  1.00  0.00     0.074 A 
ATOM     60  C   UNL A   1      46.448  31.366  27.754  1.00  0.00     0.029 A 
ATOM     61  N   UNL A   1      44.855  29.817  27.865  1.00  0.00    -0.354 N 
ATOM     62  N   UNL A   1      43.679  27.179  27.415  1.00  0.00    -0.248 NA
ATOM     63  C   UNL A   1      43.750  25.071  26.417  1.00  0.00     0.031 C 
ATOM     64  C   UNL A   1      46.866  30.247  27.028  1.00  0.00     0.029 A 
ATOM     65  C   UNL A   1      45.884  29.273  27.118  1.00  0.00     0.049 A 
ATOM     66  H   UNL A   1      44.015  29.357  28.094  1.00  0.00     0.167 HD
ATOM     67  C   UNL A   1      44.873  27.045  26.716  1.00  0.00     0.074 A 
ATOM     68  C   UNL A   1      44.876  25.716  26.144  1.00  0.00     0.031 C 
ATOM     69  C   UNL A   1      45.879  27.943  26.562  1.00  0.00     0.037 A 
BRANCH  56  70
ATOM     70  C   UNL A   1      44.760  33.387  29.263  1.00  0.00     0.064 A 
ATOM     71  C   UNL A   1      45.438  33.721  30.446  1.00  0.00     0.173 A 
ATOM     72  C   UNL A   1      44.463  34.417  28.360  1.00  0.00     0.173 A 
ATOM     73  F   UNL A   1      45.716  32.773  31.355  1.00  0.00    -0.203 F 
ATOM     74  C   UNL A   1      45.767  35.043  30.732  1.00  0.00     0.198 A 
ATOM     75  C   UNL A   1      44.821  35.734  28.636  1.00  0.00     0.198 A 
ATOM     76  F   UNL A   1      43.809  34.151  27.220  1.00  0.00    -0.203 F 
ATOM     77  F   UNL A   1      46.351  35.349  31.899  1.00  0.00    -0.200 F 
ATOM     78  C   UNL A   1      45.462  36.047  29.825  1.00  0.00     0.200 A 
ATOM     79  F   UNL A   1      44.529  36.703  27.757  1.00  0.00    -0.200 F 
ATOM     80  F   UNL A   1      45.769  37.321  30.106  1.00  0.00    -0.200 F 
ENDBRANCH  56  70
BRANCH  57  81
ATOM     81  C   UNL A   1      41.198  24.235  27.564  1.00  0.00     0.064 A 
ATOM     82  C   UNL A   1      41.835  23.120  28.131  1.00  0.00     0.173 A 
ATOM     83  C   UNL A   1      40.108  23.995  26.713  1.00  0.00     0.173 A 
ATOM     84  F   UNL A   1      42.907  23.291  28.920  1.00  0.00    -0.203 F 
ATOM     85  C   UNL A   1      41.409  21.823  27.850  1.00  0.00     0.198 A 
ATOM     86  C   UNL A   1      39.666  22.698  26.455  1.00  0.00     0.198 A 
ATOM     87  F   UNL A   1      39.477  25.022  26.127  1.00  0.00    -0.203 F 
ATOM     88  F   UNL A   1      42.067  20.776  28.366  1.00  0.00    -0.200 F 
ATOM     89  C   UNL A   1      40.320  21.614  27.017  1.00  0.00     0.200 A 
ATOM     90  F   UNL A   1      38.613  22.500  25.649  1.00  0.00    -0.200 F 
ATOM     91  F   UNL A   1      39.911  20.366  26.746  1.00  0.00    -0.200 F 
ENDBRANCH  57  81
BRANCH  69  92
ATOM     92  C   UNL A   1      47.087  27.517  25.777  1.00  0.00     0.064 A 
ATOM     93  C   UNL A   1      47.157  27.669  24.385  1.00  0.00     0.173 A 
ATOM     94  C   UNL A   1      48.220  27.016  26.439  1.00  0.00     0.173 A 
ATOM     95  F   UNL A   1      46.100  28.134  23.703  1.00  0.00    -0.203 F 
ATOM     96  C   UNL A   1      48.307  27.316  23.683  1.00  0.00     0.198 A 
ATOM     97  C   UNL A   1      49.378  26.693  25.739  1.00  0.00     0.198 A 
ATOM     98  F   UNL A   1      48.211  26.862  27.772  1.00  0.00    -0.203 F 
ATOM     99  F   UNL A   1      48.339  27.431  22.348  1.00  0.00    -0.200 F 
ATOM    100  C   UNL A   1      49.420  26.838  24.360  1.00  0.00     0.200 A 
ATOM    101  F   UNL A   1      50.457  26.249  26.399  1.00  0.00    -0.200 F 
ATOM    102  F   UNL A   1      50.530  26.512  23.685  1.00  0.00    -0.200 F 
ENDBRANCH  69  92
ENDBRANCH  43  44
ENDBRANCH  36  38
ENDBRANCH  35  36
ENDBRANCH  34  35
ENDBRANCH  33  34
ENDBRANCH  32  33
ENDBRANCH  31  32
ENDBRANCH   1  31
TORSDOF 21
ENDMDL
