MODEL 1
REMARK VINA RESULT:     -10.2      0.000      0.000
REMARK SMILES CC(C)[C@H](CO)NS(=O)(=O)c1ccc(C(=O)OCCOCCOCCOC(=O)c2ccc(-c3c4nc(c(-c5c(F)c(F)c(F)c(F)c5F)c5ccc([nH]5)c(-c5c(F)c(F)c(F)c(F)c5F)c5nc(c(-c6c(F)c(F)c(F)c(F)c6F)c6ccc3[nH]6)C=C5)C=C4)cc2)cn1
REMARK SMILES IDX 20 1 19 2 18 3 17 4 15 5 16 6 14 7 11 8 12 9 93 10 13 11
REMARK SMILES IDX 92 12 8 13 9 14 10 15 7 16 4 18 2 19 1 20 3 21 5 22 6 23
REMARK SMILES IDX 21 25 22 26 23 27 24 28 25 29 26 30 27 31 28 32 29 33 30 34
REMARK SMILES IDX 91 35 31 36 90 37 32 38 33 39 34 40 84 41 35 42 89 43 83 44
REMARK SMILES IDX 85 45 36 46 88 47 82 48 81 49 37 51 69 52 49 53 68 54 50 55
REMARK SMILES IDX 53 56 67 57 86 58 51 59 52 60 66 62 87 63 54 64 38 65 39 66
REMARK SMILES IDX 47 67 40 68 41 69 45 70 48 71 42 72 43 73 46 74 44 75 70 76
REMARK SMILES IDX 71 77 79 78 72 79 73 80 77 81 80 82 74 83 75 84 78 85 76 86
REMARK SMILES IDX 55 87 56 88 64 89 57 90 58 91 62 92 65 93 59 94 60 95 63 96
REMARK SMILES IDX 61 97
REMARK H PARENT 7 17 6 24 85 50 53 61
REMARK Flexibility Score: inf
ROOT
ATOM      1  O   UNL A   1      41.289  21.073  27.065  1.00  0.00    -0.376 OA
ENDROOT
BRANCH   1   2
ATOM      2  C   UNL A   1      40.000  21.661  26.974  1.00  0.00     0.202 C 
BRANCH   2   3
ATOM      3  C   UNL A   1      39.098  21.388  25.763  1.00  0.00     0.261 C 
BRANCH   3   4
ATOM      4  O   UNL A   1      37.778  21.947  25.842  1.00  0.00    -0.460 OA
BRANCH   4   5
ATOM      5  C   UNL A   1      36.793  21.158  25.348  1.00  0.00     0.339 C 
ATOM      6  O   UNL A   1      36.920  20.059  24.833  1.00  0.00    -0.246 OA
BRANCH   5   7
ATOM      7  C   UNL A   1      35.473  21.723  25.664  1.00  0.00     0.078 A 
ATOM      8  C   UNL A   1      32.925  22.640  26.062  1.00  0.00     0.170 A 
ATOM      9  C   UNL A   1      33.980  23.399  26.537  1.00  0.00     0.043 A 
ATOM     10  N   UNL A   1      33.087  21.449  25.417  1.00  0.00    -0.243 NA
ATOM     11  C   UNL A   1      35.282  22.917  26.359  1.00  0.00     0.020 A 
ATOM     12  C   UNL A   1      34.356  21.034  25.213  1.00  0.00     0.128 A 
BRANCH   8  13
ATOM     13  S   UNL A   1      31.200  23.136  26.165  1.00  0.00     0.258 S 
ATOM     14  O   UNL A   1      31.088  24.035  27.292  1.00  0.00    -0.205 OA
ATOM     15  O   UNL A   1      30.412  21.921  26.094  1.00  0.00    -0.205 OA
BRANCH  13  16
ATOM     16  N   UNL A   1      30.756  23.992  24.785  1.00  0.00    -0.204 NA
ATOM     17  H   UNL A   1      30.945  23.361  24.006  1.00  0.00     0.141 HD
BRANCH  16  18
ATOM     18  C   UNL A   1      31.299  25.300  24.365  1.00  0.00     0.098 C 
BRANCH  18  19
ATOM     19  C   UNL A   1      30.350  26.514  24.614  1.00  0.00     0.003 C 
ATOM     20  C   UNL A   1      30.935  27.892  24.270  1.00  0.00     0.009 C 
ATOM     21  C   UNL A   1      28.962  26.402  23.989  1.00  0.00     0.009 C 
ENDBRANCH  18  19
BRANCH  18  22
ATOM     22  C   UNL A   1      31.654  25.196  22.854  1.00  0.00     0.176 C 
BRANCH  22  23
ATOM     23  O   UNL A   1      32.770  26.017  22.527  1.00  0.00    -0.395 OA
ATOM     24  H   UNL A   1      33.310  26.157  23.321  1.00  0.00     0.210 HD
ENDBRANCH  22  23
ENDBRANCH  18  22
ENDBRANCH  16  18
ENDBRANCH  13  16
ENDBRANCH   8  13
ENDBRANCH   5   7
ENDBRANCH   4   5
ENDBRANCH   3   4
ENDBRANCH   2   3
ENDBRANCH   1   2
BRANCH   1  25
ATOM     25  C   UNL A   1      41.853  20.406  25.946  1.00  0.00     0.188 C 
BRANCH  25  26
ATOM     26  C   UNL A   1      42.805  19.206  26.137  1.00  0.00     0.188 C 
BRANCH  26  27
ATOM     27  O   UNL A   1      44.067  19.303  25.526  1.00  0.00    -0.376 OA
BRANCH  27  28
ATOM     28  C   UNL A   1      44.478  20.484  24.859  1.00  0.00     0.202 C 
BRANCH  28  29
ATOM     29  C   UNL A   1      45.292  21.646  25.463  1.00  0.00     0.261 C 
BRANCH  29  30
ATOM     30  O   UNL A   1      44.596  22.662  26.181  1.00  0.00    -0.460 OA
BRANCH  30  31
ATOM     31  C   UNL A   1      44.360  23.808  25.495  1.00  0.00     0.338 C 
ATOM     32  O   UNL A   1      44.548  24.021  24.317  1.00  0.00    -0.246 OA
BRANCH  31  33
ATOM     33  C   UNL A   1      43.668  24.747  26.400  1.00  0.00     0.060 A 
ATOM     34  C   UNL A   1      44.118  26.071  26.461  1.00  0.00     0.016 A 
ATOM     35  C   UNL A   1      42.605  24.316  27.197  1.00  0.00     0.016 A 
ATOM     36  C   UNL A   1      43.517  26.968  27.344  1.00  0.00     0.010 A 
ATOM     37  C   UNL A   1      42.016  25.211  28.093  1.00  0.00     0.010 A 
ATOM     38  C   UNL A   1      42.488  26.532  28.190  1.00  0.00    -0.014 A 
BRANCH  38  39
ATOM     39  C   UNL A   1      42.011  27.408  29.287  1.00  0.00     0.031 A 
ATOM     40  C   UNL A   1      42.734  27.370  30.604  1.00  0.00     0.074 A 
ATOM     41  C   UNL A   1      40.959  28.227  29.116  1.00  0.00     0.049 A 
ATOM     42  N   UNL A   1      42.467  28.000  31.720  1.00  0.00    -0.248 NA
ATOM     43  C   UNL A   1      43.917  26.498  30.673  1.00  0.00     0.031 C 
ATOM     44  C   UNL A   1      40.203  28.384  27.876  1.00  0.00     0.029 A 
ATOM     45  N   UNL A   1      40.342  29.077  30.000  1.00  0.00    -0.354 N 
ATOM     46  C   UNL A   1      43.444  27.600  32.621  1.00  0.00     0.074 A 
ATOM     47  C   UNL A   1      44.293  26.650  31.934  1.00  0.00     0.031 C 
ATOM     48  C   UNL A   1      39.212  29.269  28.082  1.00  0.00     0.029 A 
ATOM     49  C   UNL A   1      39.247  29.715  29.474  1.00  0.00     0.049 A 
ATOM     50  H   UNL A   1      40.656  29.216  30.922  1.00  0.00     0.167 HD
ATOM     51  C   UNL A   1      43.624  27.997  33.902  1.00  0.00     0.037 A 
ATOM     52  C   UNL A   1      38.363  30.546  30.059  1.00  0.00     0.037 A 
ATOM     53  C   UNL A   1      42.778  28.939  34.586  1.00  0.00     0.049 A 
ATOM     54  C   UNL A   1      38.539  30.912  31.512  1.00  0.00     0.074 A 
ATOM     55  C   UNL A   1      42.886  29.417  35.881  1.00  0.00     0.029 A 
ATOM     56  N   UNL A   1      41.659  29.541  34.030  1.00  0.00    -0.354 N 
ATOM     57  N   UNL A   1      39.479  30.551  32.351  1.00  0.00    -0.248 NA
ATOM     58  C   UNL A   1      37.527  31.804  32.098  1.00  0.00     0.031 C 
ATOM     59  C   UNL A   1      41.803  30.266  36.125  1.00  0.00     0.029 A 
ATOM     60  C   UNL A   1      41.051  30.363  34.965  1.00  0.00     0.049 A 
ATOM     61  H   UNL A   1      41.342  29.404  33.107  1.00  0.00     0.167 HD
ATOM     62  C   UNL A   1      39.193  31.195  33.549  1.00  0.00     0.074 A 
ATOM     63  C   UNL A   1      37.995  31.977  33.326  1.00  0.00     0.031 C 
ATOM     64  C   UNL A   1      39.864  31.145  34.726  1.00  0.00     0.037 A 
BRANCH  51  65
ATOM     65  C   UNL A   1      44.767  27.389  34.660  1.00  0.00     0.064 A 
ATOM     66  C   UNL A   1      46.033  27.993  34.696  1.00  0.00     0.173 A 
ATOM     67  C   UNL A   1      44.586  26.200  35.383  1.00  0.00     0.173 A 
ATOM     68  F   UNL A   1      46.262  29.122  34.009  1.00  0.00    -0.203 F 
ATOM     69  C   UNL A   1      47.081  27.415  35.408  1.00  0.00     0.198 A 
ATOM     70  C   UNL A   1      45.628  25.641  36.117  1.00  0.00     0.198 A 
ATOM     71  F   UNL A   1      43.394  25.583  35.384  1.00  0.00    -0.203 F 
ATOM     72  F   UNL A   1      48.294  27.985  35.390  1.00  0.00    -0.200 F 
ATOM     73  C   UNL A   1      46.876  26.245  36.123  1.00  0.00     0.200 A 
ATOM     74  F   UNL A   1      45.426  24.516  36.816  1.00  0.00    -0.200 F 
ATOM     75  F   UNL A   1      47.884  25.695  36.813  1.00  0.00    -0.200 F 
ENDBRANCH  51  65
BRANCH  52  76
ATOM     76  C   UNL A   1      37.218  31.085  29.279  1.00  0.00     0.064 A 
ATOM     77  C   UNL A   1      37.200  32.418  28.846  1.00  0.00     0.173 A 
ATOM     78  C   UNL A   1      36.105  30.286  28.977  1.00  0.00     0.173 A 
ATOM     79  F   UNL A   1      38.226  33.230  29.140  1.00  0.00    -0.203 F 
ATOM     80  C   UNL A   1      36.106  32.937  28.157  1.00  0.00     0.198 A 
ATOM     81  C   UNL A   1      35.024  30.798  28.263  1.00  0.00     0.198 A 
ATOM     82  F   UNL A   1      36.068  29.006  29.375  1.00  0.00    -0.203 F 
ATOM     83  F   UNL A   1      36.091  34.229  27.803  1.00  0.00    -0.200 F 
ATOM     84  C   UNL A   1      35.020  32.125  27.861  1.00  0.00     0.200 A 
ATOM     85  F   UNL A   1      33.980  30.009  27.975  1.00  0.00    -0.200 F 
ATOM     86  F   UNL A   1      33.967  32.625  27.202  1.00  0.00    -0.200 F 
ENDBRANCH  52  76
BRANCH  64  87
ATOM     87  C   UNL A   1      39.347  31.989  35.855  1.00  0.00     0.064 A 
ATOM     88  C   UNL A   1      39.764  33.316  36.039  1.00  0.00     0.173 A 
ATOM     89  C   UNL A   1      38.382  31.477  36.739  1.00  0.00     0.173 A 
ATOM     90  F   UNL A   1      40.693  33.848  35.230  1.00  0.00    -0.203 F 
ATOM     91  C   UNL A   1      39.254  34.090  37.078  1.00  0.00     0.198 A 
ATOM     92  C   UNL A   1      37.852  32.264  37.758  1.00  0.00     0.198 A 
ATOM     93  F   UNL A   1      37.941  30.218  36.602  1.00  0.00    -0.203 F 
ATOM     94  F   UNL A   1      39.702  35.340  37.261  1.00  0.00    -0.200 F 
ATOM     95  C   UNL A   1      38.294  33.566  37.932  1.00  0.00     0.200 A 
ATOM     96  F   UNL A   1      36.913  31.762  38.571  1.00  0.00    -0.200 F 
ATOM     97  F   UNL A   1      37.798  34.316  38.925  1.00  0.00    -0.200 F 
ENDBRANCH  64  87
ENDBRANCH  38  39
ENDBRANCH  31  33
ENDBRANCH  30  31
ENDBRANCH  29  30
ENDBRANCH  28  29
ENDBRANCH  27  28
ENDBRANCH  26  27
ENDBRANCH  25  26
ENDBRANCH   1  25
TORSDOF 23
ENDMDL
MODEL 2
REMARK VINA RESULT:      -9.9      1.241      2.493
REMARK SMILES CC(C)[C@H](CO)NS(=O)(=O)c1ccc(C(=O)OCCOCCOCCOC(=O)c2ccc(-c3c4nc(c(-c5c(F)c(F)c(F)c(F)c5F)c5ccc([nH]5)c(-c5c(F)c(F)c(F)c(F)c5F)c5nc(c(-c6c(F)c(F)c(F)c(F)c6F)c6ccc3[nH]6)C=C5)C=C4)cc2)cn1
REMARK SMILES IDX 20 1 19 2 18 3 17 4 15 5 16 6 14 7 11 8 12 9 93 10 13 11
REMARK SMILES IDX 92 12 8 13 9 14 10 15 7 16 4 18 2 19 1 20 3 21 5 22 6 23
REMARK SMILES IDX 21 25 22 26 23 27 24 28 25 29 26 30 27 31 28 32 29 33 30 34
REMARK SMILES IDX 91 35 31 36 90 37 32 38 33 39 34 40 84 41 35 42 89 43 83 44
REMARK SMILES IDX 85 45 36 46 88 47 82 48 81 49 37 51 69 52 49 53 68 54 50 55
REMARK SMILES IDX 53 56 67 57 86 58 51 59 52 60 66 62 87 63 54 64 38 65 39 66
REMARK SMILES IDX 47 67 40 68 41 69 45 70 48 71 42 72 43 73 46 74 44 75 70 76
REMARK SMILES IDX 71 77 79 78 72 79 73 80 77 81 80 82 74 83 75 84 78 85 76 86
REMARK SMILES IDX 55 87 56 88 64 89 57 90 58 91 62 92 65 93 59 94 60 95 63 96
REMARK SMILES IDX 61 97
REMARK H PARENT 7 17 6 24 85 50 53 61
REMARK Flexibility Score: inf
ROOT
ATOM      1  O   UNL A   1      39.508  20.230  25.754  1.00  0.00    -0.376 OA
ENDROOT
BRANCH   1   2
ATOM      2  C   UNL A   1      38.863  21.491  25.860  1.00  0.00     0.202 C 
BRANCH   2   3
ATOM      3  C   UNL A   1      37.475  21.714  25.243  1.00  0.00     0.261 C 
BRANCH   3   4
ATOM      4  O   UNL A   1      37.180  23.069  24.870  1.00  0.00    -0.460 OA
BRANCH   4   5
ATOM      5  C   UNL A   1      36.419  23.202  23.758  1.00  0.00     0.339 C 
ATOM      6  O   UNL A   1      36.684  22.809  22.634  1.00  0.00    -0.246 OA
BRANCH   5   7
ATOM      7  C   UNL A   1      35.098  23.751  24.099  1.00  0.00     0.078 A 
ATOM      8  C   UNL A   1      32.722  24.793  24.970  1.00  0.00     0.170 A 
ATOM      9  C   UNL A   1      32.723  24.036  23.813  1.00  0.00     0.043 A 
ATOM     10  N   UNL A   1      33.846  25.061  25.695  1.00  0.00    -0.243 NA
ATOM     11  C   UNL A   1      33.943  23.526  23.350  1.00  0.00     0.020 A 
ATOM     12  C   UNL A   1      35.000  24.512  25.255  1.00  0.00     0.128 A 
BRANCH   8  13
ATOM     13  S   UNL A   1      31.241  25.479  25.724  1.00  0.00     0.258 S 
ATOM     14  O   UNL A   1      31.668  26.229  26.884  1.00  0.00    -0.205 OA
ATOM     15  O   UNL A   1      30.292  24.389  25.844  1.00  0.00    -0.205 OA
BRANCH  13  16
ATOM     16  N   UNL A   1      30.494  26.556  24.668  1.00  0.00    -0.204 NA
ATOM     17  H   UNL A   1      29.972  25.972  24.013  1.00  0.00     0.141 HD
BRANCH  16  18
ATOM     18  C   UNL A   1      31.177  27.562  23.830  1.00  0.00     0.098 C 
BRANCH  18  19
ATOM     19  C   UNL A   1      32.286  28.381  24.561  1.00  0.00     0.003 C 
ATOM     20  C   UNL A   1      33.605  28.544  23.793  1.00  0.00     0.009 C 
ATOM     21  C   UNL A   1      31.854  29.747  25.086  1.00  0.00     0.009 C 
ENDBRANCH  18  19
BRANCH  18  22
ATOM     22  C   UNL A   1      30.089  28.517  23.263  1.00  0.00     0.176 C 
BRANCH  22  23
ATOM     23  O   UNL A   1      30.287  28.762  21.874  1.00  0.00    -0.395 OA
ATOM     24  H   UNL A   1      31.234  28.710  21.669  1.00  0.00     0.210 HD
ENDBRANCH  22  23
ENDBRANCH  18  22
ENDBRANCH  16  18
ENDBRANCH  13  16
ENDBRANCH   8  13
ENDBRANCH   5   7
ENDBRANCH   4   5
ENDBRANCH   3   4
ENDBRANCH   2   3
ENDBRANCH   1   2
BRANCH   1  25
ATOM     25  C   UNL A   1      40.777  20.022  26.354  1.00  0.00     0.188 C 
BRANCH  25  26
ATOM     26  C   UNL A   1      41.934  21.017  26.128  1.00  0.00     0.188 C 
BRANCH  26  27
ATOM     27  O   UNL A   1      43.016  20.558  25.358  1.00  0.00    -0.376 OA
BRANCH  27  28
ATOM     28  C   UNL A   1      44.335  21.027  25.580  1.00  0.00     0.202 C 
BRANCH  28  29
ATOM     29  C   UNL A   1      45.003  22.245  24.910  1.00  0.00     0.261 C 
BRANCH  29  30
ATOM     30  O   UNL A   1      44.919  23.510  25.561  1.00  0.00    -0.460 OA
BRANCH  30  31
ATOM     31  C   UNL A   1      43.781  24.213  25.335  1.00  0.00     0.338 C 
ATOM     32  O   UNL A   1      43.024  24.116  24.393  1.00  0.00    -0.246 OA
BRANCH  31  33
ATOM     33  C   UNL A   1      43.509  25.038  26.528  1.00  0.00     0.060 A 
ATOM     34  C   UNL A   1      42.710  24.501  27.544  1.00  0.00     0.016 A 
ATOM     35  C   UNL A   1      44.016  26.335  26.627  1.00  0.00     0.016 A 
ATOM     36  C   UNL A   1      42.393  25.275  28.659  1.00  0.00     0.010 A 
ATOM     37  C   UNL A   1      43.683  27.115  27.737  1.00  0.00     0.010 A 
ATOM     38  C   UNL A   1      42.848  26.599  28.744  1.00  0.00    -0.014 A 
BRANCH  38  39
ATOM     39  C   UNL A   1      42.324  27.496  29.801  1.00  0.00     0.031 A 
ATOM     40  C   UNL A   1      43.016  27.519  31.134  1.00  0.00     0.074 A 
ATOM     41  C   UNL A   1      41.255  28.281  29.580  1.00  0.00     0.049 A 
ATOM     42  N   UNL A   1      42.707  28.177  32.223  1.00  0.00    -0.248 NA
ATOM     43  C   UNL A   1      44.220  26.682  31.258  1.00  0.00     0.031 C 
ATOM     44  C   UNL A   1      40.524  28.378  28.319  1.00  0.00     0.029 A 
ATOM     45  N   UNL A   1      40.596  29.142  30.422  1.00  0.00    -0.354 N 
ATOM     46  C   UNL A   1      43.674  27.832  33.158  1.00  0.00     0.074 A 
ATOM     47  C   UNL A   1      44.562  26.884  32.521  1.00  0.00     0.031 C 
ATOM     48  C   UNL A   1      39.505  29.243  28.473  1.00  0.00     0.029 A 
ATOM     49  C   UNL A   1      39.497  29.734  29.851  1.00  0.00     0.049 A 
ATOM     50  H   UNL A   1      40.885  29.319  31.346  1.00  0.00     0.167 HD
ATOM     51  C   UNL A   1      43.813  28.274  34.429  1.00  0.00     0.037 A 
ATOM     52  C   UNL A   1      38.579  30.559  30.389  1.00  0.00     0.037 A 
ATOM     53  C   UNL A   1      42.927  29.215  35.063  1.00  0.00     0.049 A 
ATOM     54  C   UNL A   1      38.711  30.975  31.833  1.00  0.00     0.074 A 
ATOM     55  C   UNL A   1      42.993  29.736  36.344  1.00  0.00     0.029 A 
ATOM     56  N   UNL A   1      41.806  29.768  34.463  1.00  0.00    -0.354 N 
ATOM     57  N   UNL A   1      39.640  30.666  32.704  1.00  0.00    -0.248 NA
ATOM     58  C   UNL A   1      37.663  31.858  32.366  1.00  0.00     0.031 C 
ATOM     59  C   UNL A   1      41.883  30.564  36.536  1.00  0.00     0.029 A 
ATOM     60  C   UNL A   1      41.155  30.604  35.357  1.00  0.00     0.049 A 
ATOM     61  H   UNL A   1      41.515  29.594  33.538  1.00  0.00     0.167 HD
ATOM     62  C   UNL A   1      39.310  31.340  33.874  1.00  0.00     0.074 A 
ATOM     63  C   UNL A   1      38.098  32.083  33.599  1.00  0.00     0.031 C 
ATOM     64  C   UNL A   1      39.955  31.346  35.066  1.00  0.00     0.037 A 
BRANCH  51  65
ATOM     65  C   UNL A   1      44.953  27.722  35.232  1.00  0.00     0.064 A 
ATOM     66  C   UNL A   1      44.831  26.533  35.968  1.00  0.00     0.173 A 
ATOM     67  C   UNL A   1      46.195  28.376  35.242  1.00  0.00     0.173 A 
ATOM     68  F   UNL A   1      43.660  25.879  36.003  1.00  0.00    -0.203 F 
ATOM     69  C   UNL A   1      45.902  26.035  36.705  1.00  0.00     0.198 A 
ATOM     70  C   UNL A   1      47.272  27.858  35.957  1.00  0.00     0.198 A 
ATOM     71  F   UNL A   1      46.366  29.514  34.553  1.00  0.00    -0.203 F 
ATOM     72  F   UNL A   1      45.748  24.923  37.438  1.00  0.00    -0.200 F 
ATOM     73  C   UNL A   1      47.122  26.693  36.693  1.00  0.00     0.200 A 
ATOM     74  F   UNL A   1      48.454  28.489  35.935  1.00  0.00    -0.200 F 
ATOM     75  F   UNL A   1      48.154  26.207  37.396  1.00  0.00    -0.200 F 
ENDBRANCH  51  65
BRANCH  52  76
ATOM     76  C   UNL A   1      37.438  31.042  29.567  1.00  0.00     0.064 A 
ATOM     77  C   UNL A   1      36.375  30.192  29.232  1.00  0.00     0.173 A 
ATOM     78  C   UNL A   1      37.403  32.356  29.075  1.00  0.00     0.173 A 
ATOM     79  F   UNL A   1      36.381  28.918  29.651  1.00  0.00    -0.203 F 
ATOM     80  C   UNL A   1      35.330  30.630  28.421  1.00  0.00     0.198 A 
ATOM     81  C   UNL A   1      36.343  32.801  28.288  1.00  0.00     0.198 A 
ATOM     82  F   UNL A   1      38.398  33.207  29.359  1.00  0.00    -0.203 F 
ATOM     83  F   UNL A   1      34.356  29.780  28.070  1.00  0.00    -0.200 F 
ATOM     84  C   UNL A   1      35.312  31.937  27.954  1.00  0.00     0.200 A 
ATOM     85  F   UNL A   1      36.327  34.065  27.843  1.00  0.00    -0.200 F 
ATOM     86  F   UNL A   1      34.309  32.356  27.171  1.00  0.00    -0.200 F 
ENDBRANCH  52  76
BRANCH  64  87
ATOM     87  C   UNL A   1      39.390  32.211  36.156  1.00  0.00     0.064 A 
ATOM     88  C   UNL A   1      38.378  31.754  37.014  1.00  0.00     0.173 A 
ATOM     89  C   UNL A   1      39.902  33.500  36.375  1.00  0.00     0.173 A 
ATOM     90  F   UNL A   1      37.846  30.535  36.840  1.00  0.00    -0.203 F 
ATOM     91  C   UNL A   1      37.884  32.564  38.034  1.00  0.00     0.198 A 
ATOM     92  C   UNL A   1      39.427  34.295  37.414  1.00  0.00     0.198 A 
ATOM     93  F   UNL A   1      40.876  33.982  35.589  1.00  0.00    -0.203 F 
ATOM     94  F   UNL A   1      36.887  32.122  38.813  1.00  0.00    -0.200 F 
ATOM     95  C   UNL A   1      38.413  33.829  38.238  1.00  0.00     0.200 A 
ATOM     96  F   UNL A   1      39.950  35.512  37.620  1.00  0.00    -0.200 F 
ATOM     97  F   UNL A   1      37.943  34.603  39.226  1.00  0.00    -0.200 F 
ENDBRANCH  64  87
ENDBRANCH  38  39
ENDBRANCH  31  33
ENDBRANCH  30  31
ENDBRANCH  29  30
ENDBRANCH  28  29
ENDBRANCH  27  28
ENDBRANCH  26  27
ENDBRANCH  25  26
ENDBRANCH   1  25
TORSDOF 23
ENDMDL
MODEL 3
REMARK VINA RESULT:      -9.7      2.269      7.902
REMARK SMILES CC(C)[C@H](CO)NS(=O)(=O)c1ccc(C(=O)OCCOCCOCCOC(=O)c2ccc(-c3c4nc(c(-c5c(F)c(F)c(F)c(F)c5F)c5ccc([nH]5)c(-c5c(F)c(F)c(F)c(F)c5F)c5nc(c(-c6c(F)c(F)c(F)c(F)c6F)c6ccc3[nH]6)C=C5)C=C4)cc2)cn1
REMARK SMILES IDX 20 1 19 2 18 3 17 4 15 5 16 6 14 7 11 8 12 9 93 10 13 11
REMARK SMILES IDX 92 12 8 13 9 14 10 15 7 16 4 18 2 19 1 20 3 21 5 22 6 23
REMARK SMILES IDX 21 25 22 26 23 27 24 28 25 29 26 30 27 31 28 32 29 33 30 34
REMARK SMILES IDX 91 35 31 36 90 37 32 38 33 39 34 40 84 41 35 42 89 43 83 44
REMARK SMILES IDX 85 45 36 46 88 47 82 48 81 49 37 51 69 52 49 53 68 54 50 55
REMARK SMILES IDX 53 56 67 57 86 58 51 59 52 60 66 62 87 63 54 64 38 65 39 66
REMARK SMILES IDX 47 67 40 68 41 69 45 70 48 71 42 72 43 73 46 74 44 75 70 76
REMARK SMILES IDX 71 77 79 78 72 79 73 80 77 81 80 82 74 83 75 84 78 85 76 86
REMARK SMILES IDX 55 87 56 88 64 89 57 90 58 91 62 92 65 93 59 94 60 95 63 96
REMARK SMILES IDX 61 97
REMARK H PARENT 7 17 6 24 85 50 53 61
REMARK Flexibility Score: inf
ROOT
ATOM      1  O   UNL A   1      44.109  19.709  24.134  1.00  0.00    -0.376 OA
ENDROOT
BRANCH   1   2
ATOM      2  C   UNL A   1      43.559  19.224  25.350  1.00  0.00     0.202 C 
BRANCH   2   3
ATOM      3  C   UNL A   1      42.856  20.176  26.326  1.00  0.00     0.261 C 
BRANCH   3   4
ATOM      4  O   UNL A   1      41.663  20.798  25.825  1.00  0.00    -0.460 OA
BRANCH   4   5
ATOM      5  C   UNL A   1      40.598  20.748  26.661  1.00  0.00     0.339 C 
ATOM      6  O   UNL A   1      40.615  20.536  27.862  1.00  0.00    -0.246 OA
BRANCH   5   7
ATOM      7  C   UNL A   1      39.373  21.160  25.960  1.00  0.00     0.078 A 
ATOM      8  C   UNL A   1      37.086  22.127  24.808  1.00  0.00     0.170 A 
ATOM      9  C   UNL A   1      37.362  20.776  24.691  1.00  0.00     0.043 A 
ATOM     10  N   UNL A   1      37.902  23.007  25.456  1.00  0.00    -0.243 NA
ATOM     11  C   UNL A   1      38.545  20.286  25.256  1.00  0.00     0.020 A 
ATOM     12  C   UNL A   1      39.010  22.497  26.036  1.00  0.00     0.128 A 
BRANCH   8  13
ATOM     13  S   UNL A   1      35.591  22.907  24.185  1.00  0.00     0.258 S 
ATOM     14  O   UNL A   1      35.849  23.271  22.809  1.00  0.00    -0.205 OA
ATOM     15  O   UNL A   1      35.202  23.904  25.163  1.00  0.00    -0.205 OA
BRANCH  13  16
ATOM     16  N   UNL A   1      34.314  21.810  24.191  1.00  0.00    -0.204 NA
ATOM     17  H   UNL A   1      33.485  22.365  24.403  1.00  0.00     0.141 HD
BRANCH  16  18
ATOM     18  C   UNL A   1      34.207  20.610  25.045  1.00  0.00     0.098 C 
BRANCH  18  19
ATOM     19  C   UNL A   1      33.299  19.477  24.475  1.00  0.00     0.003 C 
ATOM     20  C   UNL A   1      32.509  19.836  23.208  1.00  0.00     0.009 C 
ATOM     21  C   UNL A   1      33.985  18.131  24.258  1.00  0.00     0.009 C 
ENDBRANCH  18  19
BRANCH  18  22
ATOM     22  C   UNL A   1      33.682  21.072  26.435  1.00  0.00     0.176 C 
BRANCH  22  23
ATOM     23  O   UNL A   1      33.284  19.961  27.232  1.00  0.00    -0.395 OA
ATOM     24  H   UNL A   1      32.316  19.923  27.271  1.00  0.00     0.210 HD
ENDBRANCH  22  23
ENDBRANCH  18  22
ENDBRANCH  16  18
ENDBRANCH  13  16
ENDBRANCH   8  13
ENDBRANCH   5   7
ENDBRANCH   4   5
ENDBRANCH   3   4
ENDBRANCH   2   3
ENDBRANCH   1   2
BRANCH   1  25
ATOM     25  C   UNL A   1      45.107  20.718  24.150  1.00  0.00     0.188 C 
BRANCH  25  26
ATOM     26  C   UNL A   1      44.798  22.146  23.656  1.00  0.00     0.188 C 
BRANCH  26  27
ATOM     27  O   UNL A   1      45.792  23.115  23.874  1.00  0.00    -0.376 OA
BRANCH  27  28
ATOM     28  C   UNL A   1      46.136  23.542  25.181  1.00  0.00     0.202 C 
BRANCH  28  29
ATOM     29  C   UNL A   1      45.386  24.583  26.036  1.00  0.00     0.261 C 
BRANCH  29  30
ATOM     30  O   UNL A   1      44.024  24.333  26.374  1.00  0.00    -0.460 OA
BRANCH  30  31
ATOM     31  C   UNL A   1      43.114  25.145  25.781  1.00  0.00     0.338 C 
ATOM     32  O   UNL A   1      42.718  25.104  24.636  1.00  0.00    -0.246 OA
BRANCH  31  33
ATOM     33  C   UNL A   1      42.541  26.024  26.818  1.00  0.00     0.060 A 
ATOM     34  C   UNL A   1      43.019  27.335  26.923  1.00  0.00     0.016 A 
ATOM     35  C   UNL A   1      41.562  25.548  27.694  1.00  0.00     0.016 A 
ATOM     36  C   UNL A   1      42.533  28.173  27.926  1.00  0.00     0.010 A 
ATOM     37  C   UNL A   1      41.090  26.383  28.709  1.00  0.00     0.010 A 
ATOM     38  C   UNL A   1      41.593  27.689  28.847  1.00  0.00    -0.014 A 
BRANCH  38  39
ATOM     39  C   UNL A   1      41.254  28.489  30.048  1.00  0.00     0.031 A 
ATOM     40  C   UNL A   1      40.082  29.427  29.980  1.00  0.00     0.074 A 
ATOM     41  C   UNL A   1      41.969  28.381  31.181  1.00  0.00     0.049 A 
ATOM     42  N   UNL A   1      39.632  30.265  30.879  1.00  0.00    -0.248 NA
ATOM     43  C   UNL A   1      39.316  29.423  28.724  1.00  0.00     0.031 C 
ATOM     44  C   UNL A   1      43.100  27.479  31.384  1.00  0.00     0.029 A 
ATOM     45  N   UNL A   1      41.848  29.048  32.375  1.00  0.00    -0.354 N 
ATOM     46  C   UNL A   1      38.535  30.887  30.298  1.00  0.00     0.074 A 
ATOM     47  C   UNL A   1      38.404  30.354  28.959  1.00  0.00     0.031 C 
ATOM     48  C   UNL A   1      43.580  27.657  32.627  1.00  0.00     0.029 A 
ATOM     49  C   UNL A   1      42.810  28.707  33.293  1.00  0.00     0.049 A 
ATOM     50  H   UNL A   1      41.140  29.707  32.555  1.00  0.00     0.167 HD
ATOM     51  C   UNL A   1      37.706  31.811  30.837  1.00  0.00     0.037 A 
ATOM     52  C   UNL A   1      43.051  29.204  34.521  1.00  0.00     0.037 A 
ATOM     53  C   UNL A   1      37.838  32.342  32.167  1.00  0.00     0.049 A 
ATOM     54  C   UNL A   1      42.160  30.291  35.069  1.00  0.00     0.074 A 
ATOM     55  C   UNL A   1      37.038  33.272  32.810  1.00  0.00     0.029 A 
ATOM     56  N   UNL A   1      38.844  31.996  33.058  1.00  0.00    -0.354 N 
ATOM     57  N   UNL A   1      41.110  30.857  34.526  1.00  0.00    -0.248 NA
ATOM     58  C   UNL A   1      42.491  30.808  36.406  1.00  0.00     0.031 C 
ATOM     59  C   UNL A   1      37.590  33.527  34.069  1.00  0.00     0.029 A 
ATOM     60  C   UNL A   1      38.702  32.715  34.234  1.00  0.00     0.049 A 
ATOM     61  H   UNL A   1      39.553  31.337  32.881  1.00  0.00     0.167 HD
ATOM     62  C   UNL A   1      40.635  31.768  35.462  1.00  0.00     0.074 A 
ATOM     63  C   UNL A   1      41.508  31.674  36.614  1.00  0.00     0.031 C 
ATOM     64  C   UNL A   1      39.572  32.604  35.377  1.00  0.00     0.037 A 
BRANCH  51  65
ATOM     65  C   UNL A   1      36.594  32.329  29.973  1.00  0.00     0.064 A 
ATOM     66  C   UNL A   1      35.532  31.507  29.565  1.00  0.00     0.173 A 
ATOM     67  C   UNL A   1      36.577  33.673  29.570  1.00  0.00     0.173 A 
ATOM     68  F   UNL A   1      35.510  30.211  29.910  1.00  0.00    -0.203 F 
ATOM     69  C   UNL A   1      34.507  32.007  28.765  1.00  0.00     0.198 A 
ATOM     70  C   UNL A   1      35.536  34.176  28.795  1.00  0.00     0.198 A 
ATOM     71  F   UNL A   1      37.567  34.501  29.934  1.00  0.00    -0.203 F 
ATOM     72  F   UNL A   1      33.527  31.193  28.349  1.00  0.00    -0.200 F 
ATOM     73  C   UNL A   1      34.506  33.341  28.388  1.00  0.00     0.200 A 
ATOM     74  F   UNL A   1      35.530  35.468  28.439  1.00  0.00    -0.200 F 
ATOM     75  F   UNL A   1      33.515  33.822  27.624  1.00  0.00    -0.200 F 
ENDBRANCH  51  65
BRANCH  52  76
ATOM     76  C   UNL A   1      44.195  28.692  35.321  1.00  0.00     0.064 A 
ATOM     77  C   UNL A   1      45.475  29.250  35.194  1.00  0.00     0.173 A 
ATOM     78  C   UNL A   1      44.037  27.616  36.207  1.00  0.00     0.173 A 
ATOM     79  F   UNL A   1      45.682  30.258  34.334  1.00  0.00    -0.203 F 
ATOM     80  C   UNL A   1      46.557  28.739  35.907  1.00  0.00     0.198 A 
ATOM     81  C   UNL A   1      45.115  27.125  36.942  1.00  0.00     0.198 A 
ATOM     82  F   UNL A   1      42.836  27.041  36.360  1.00  0.00    -0.203 F 
ATOM     83  F   UNL A   1      47.780  29.254  35.724  1.00  0.00    -0.200 F 
ATOM     84  C   UNL A   1      46.375  27.680  36.785  1.00  0.00     0.200 A 
ATOM     85  F   UNL A   1      44.933  26.105  37.792  1.00  0.00    -0.200 F 
ATOM     86  F   UNL A   1      47.417  27.187  37.467  1.00  0.00    -0.200 F 
ENDBRANCH  52  76
BRANCH  64  87
ATOM     87  C   UNL A   1      39.262  33.456  36.574  1.00  0.00     0.064 A 
ATOM     88  C   UNL A   1      38.460  32.991  37.626  1.00  0.00     0.173 A 
ATOM     89  C   UNL A   1      39.817  34.741  36.692  1.00  0.00     0.173 A 
ATOM     90  F   UNL A   1      37.895  31.776  37.557  1.00  0.00    -0.203 F 
ATOM     91  C   UNL A   1      38.204  33.789  38.738  1.00  0.00     0.198 A 
ATOM     92  C   UNL A   1      39.585  35.523  37.820  1.00  0.00     0.198 A 
ATOM     93  F   UNL A   1      40.600  35.230  35.718  1.00  0.00    -0.203 F 
ATOM     94  F   UNL A   1      37.397  33.340  39.710  1.00  0.00    -0.200 F 
ATOM     95  C   UNL A   1      38.772  35.050  38.838  1.00  0.00     0.200 A 
ATOM     96  F   UNL A   1      40.147  36.735  37.921  1.00  0.00    -0.200 F 
ATOM     97  F   UNL A   1      38.532  35.812  39.914  1.00  0.00    -0.200 F 
ENDBRANCH  64  87
ENDBRANCH  38  39
ENDBRANCH  31  33
ENDBRANCH  30  31
ENDBRANCH  29  30
ENDBRANCH  28  29
ENDBRANCH  27  28
ENDBRANCH  26  27
ENDBRANCH  25  26
ENDBRANCH   1  25
TORSDOF 23
ENDMDL
