MODEL 1
REMARK VINA RESULT:     -11.8      0.000      0.000
REMARK SMILES O=C(OCCOCCOCCOC(=O)c1ccc(-c2c3nc(c(-c4c(F)c(F)c(F)c(F)c4F)c4ccc([nH]4)c(-c4c(F)c(F)c(F)c(F)c4F)c4nc(c(-c5c(F)c(F)c(F)c(F)c5F)c5ccc2[nH]5)C=C4)C=C3)cc1)C1=Cc2cc(S(F)(F)(F)(F)F)ccc2O[C@@H]1C(F)(F)F
REMARK SMILES IDX 8 1 7 2 6 3 5 4 4 5 3 6 2 7 1 8 78 9 79 10 93 11 80 12 92 13
REMARK SMILES IDX 81 14 91 15 82 16 90 17 89 18 94 19 95 20 96 21 97 22 83 23
REMARK SMILES IDX 84 24 85 25 86 26 87 27 88 28 9 29 10 30 11 31 12 32 13 33
REMARK SMILES IDX 14 34 15 35 16 36 77 37 17 38 76 39 18 40 19 41 20 42 70 43
REMARK SMILES IDX 21 44 75 45 69 46 71 47 22 48 74 49 68 50 67 51 23 53 55 54
REMARK SMILES IDX 35 55 54 56 36 57 39 58 53 59 72 60 37 61 38 62 52 64 73 65
REMARK SMILES IDX 40 66 24 67 25 68 33 69 26 70 27 71 31 72 34 73 28 74 29 75
REMARK SMILES IDX 32 76 30 77 56 78 57 79 65 80 58 81 59 82 63 83 66 84 60 85
REMARK SMILES IDX 61 86 64 87 62 88 41 89 42 90 50 91 43 92 44 93 48 94 51 95
REMARK SMILES IDX 45 96 46 97 49 98 47 99
REMARK H PARENT 71 52 39 63
REMARK Flexibility Score: inf
ROOT
ATOM      1  C   UNL A   1      34.488  32.879  28.921  1.00  0.00     0.188 C 
ENDROOT
BRANCH   1   2
ATOM      2  C   UNL A   1      34.133  31.771  27.943  1.00  0.00     0.188 C 
BRANCH   2   3
ATOM      3  O   UNL A   1      35.292  31.001  27.659  1.00  0.00    -0.376 OA
BRANCH   3   4
ATOM      4  C   UNL A   1      34.943  29.627  27.594  1.00  0.00     0.202 C 
BRANCH   4   5
ATOM      5  C   UNL A   1      33.568  29.483  26.960  1.00  0.00     0.261 C 
BRANCH   5   6
ATOM      6  O   UNL A   1      33.074  28.173  27.193  1.00  0.00    -0.460 OA
BRANCH   6   7
ATOM      7  C   UNL A   1      31.876  27.743  26.563  1.00  0.00     0.338 C 
ATOM      8  O   UNL A   1      30.880  27.387  27.267  1.00  0.00    -0.246 OA
BRANCH   7   9
ATOM      9  C   UNL A   1      31.786  27.708  25.046  1.00  0.00     0.087 C 
ATOM     10  C   UNL A   1      32.393  26.707  24.351  1.00  0.00     0.027 C 
ATOM     11  C   UNL A   1      31.018  28.790  24.305  1.00  0.00     0.316 C 
ATOM     12  C   UNL A   1      33.161  25.625  25.091  1.00  0.00     0.019 A 
ATOM     13  O   UNL A   1      31.460  25.623  26.752  1.00  0.00    -0.475 OA
ATOM     14  C   UNL A   1      34.382  25.206  24.591  1.00  0.00     0.036 A 
ATOM     15  C   UNL A   1      32.631  25.065  26.173  1.00  0.00     0.128 A 
ATOM     16  C   UNL A   1      34.838  23.984  25.138  1.00  0.00     0.107 A 
ATOM     17  C   UNL A   1      33.206  23.952  26.738  1.00  0.00     0.048 A 
ATOM     18  C   UNL A   1      34.383  23.449  26.256  1.00  0.00     0.028 A 
BRANCH  11  19
ATOM     19  C   UNL A   1      29.888  28.156  23.511  1.00  0.00     0.430 C 
ATOM     20  F   UNL A   1      29.448  27.076  24.150  1.00  0.00    -0.167 F 
ATOM     21  F   UNL A   1      28.892  29.029  23.381  1.00  0.00    -0.167 F 
ATOM     22  F   UNL A   1      30.332  27.809  22.307  1.00  0.00    -0.167 F 
ENDBRANCH  11  19
BRANCH  16  23
ATOM     23  S   UNL A   1      36.135  23.092  24.245  1.00  0.00     0.310 S 
ATOM     24  F   UNL A   1      36.371  22.096  25.456  1.00  0.00    -0.094 F 
ATOM     25  F   UNL A   1      37.202  24.043  24.908  1.00  0.00    -0.094 F 
ATOM     26  F   UNL A   1      37.251  22.327  23.479  1.00  0.00    -0.094 F 
ATOM     27  F   UNL A   1      35.068  22.063  23.701  1.00  0.00    -0.094 F 
ATOM     28  F   UNL A   1      35.005  23.788  25.104  1.00  0.00    -0.094 F 
ENDBRANCH  16  23
ENDBRANCH   7   9
ENDBRANCH   6   7
ENDBRANCH   5   6
ENDBRANCH   4   5
ENDBRANCH   3   4
ENDBRANCH   2   3
ENDBRANCH   1   2
BRANCH   1  29
ATOM     29  O   UNL A   1      33.388  33.770  29.047  1.00  0.00    -0.376 OA
BRANCH  29  30
ATOM     30  C   UNL A   1      33.830  35.101  28.826  1.00  0.00     0.202 C 
BRANCH  30  31
ATOM     31  C   UNL A   1      32.871  36.072  29.497  1.00  0.00     0.261 C 
BRANCH  31  32
ATOM     32  O   UNL A   1      32.272  35.444  30.620  1.00  0.00    -0.460 OA
BRANCH  32  33
ATOM     33  C   UNL A   1      32.783  35.682  31.923  1.00  0.00     0.338 C 
ATOM     34  O   UNL A   1      32.209  36.517  32.689  1.00  0.00    -0.246 OA
BRANCH  33  35
ATOM     35  C   UNL A   1      34.019  34.937  32.403  1.00  0.00     0.060 A 
ATOM     36  C   UNL A   1      33.856  33.659  32.915  1.00  0.00     0.016 A 
ATOM     37  C   UNL A   1      35.225  35.473  32.260  1.00  0.00     0.016 A 
ATOM     38  C   UNL A   1      35.020  33.134  33.522  1.00  0.00     0.010 A 
ATOM     39  C   UNL A   1      36.336  34.838  32.760  1.00  0.00     0.010 A 
ATOM     40  C   UNL A   1      36.241  33.600  33.333  1.00  0.00    -0.014 A 
BRANCH  40  41
ATOM     41  C   UNL A   1      37.473  32.803  33.728  1.00  0.00     0.031 A 
ATOM     42  C   UNL A   1      38.143  33.137  34.907  1.00  0.00     0.074 A 
ATOM     43  C   UNL A   1      37.918  31.851  32.828  1.00  0.00     0.049 A 
ATOM     44  N   UNL A   1      39.268  32.602  35.383  1.00  0.00    -0.248 NA
ATOM     45  C   UNL A   1      37.690  34.173  35.847  1.00  0.00     0.031 C 
ATOM     46  C   UNL A   1      37.244  31.501  31.641  1.00  0.00     0.029 A 
ATOM     47  N   UNL A   1      39.060  31.083  32.906  1.00  0.00    -0.354 N 
ATOM     48  C   UNL A   1      39.591  33.168  36.548  1.00  0.00     0.074 A 
ATOM     49  C   UNL A   1      38.584  34.191  36.859  1.00  0.00     0.031 C 
ATOM     50  C   UNL A   1      37.974  30.548  31.007  1.00  0.00     0.029 A 
ATOM     51  C   UNL A   1      39.116  30.282  31.786  1.00  0.00     0.049 A 
ATOM     52  H   UNL A   1      39.721  31.104  33.634  1.00  0.00     0.167 HD
ATOM     53  C   UNL A   1      40.685  32.870  37.362  1.00  0.00     0.037 A 
ATOM     54  C   UNL A   1      40.101  29.368  31.445  1.00  0.00     0.037 A 
ATOM     55  C   UNL A   1      41.646  31.924  37.043  1.00  0.00     0.049 A 
ATOM     56  C   UNL A   1      41.226  29.111  32.232  1.00  0.00     0.074 A 
ATOM     57  C   UNL A   1      42.750  31.606  37.856  1.00  0.00     0.029 A 
ATOM     58  N   UNL A   1      41.716  31.141  35.911  1.00  0.00    -0.354 N 
ATOM     59  N   UNL A   1      41.528  29.649  33.415  1.00  0.00    -0.248 NA
ATOM     60  C   UNL A   1      42.291  28.169  31.866  1.00  0.00     0.031 C 
ATOM     61  C   UNL A   1      43.481  30.651  37.220  1.00  0.00     0.029 A 
ATOM     62  C   UNL A   1      42.845  30.358  35.999  1.00  0.00     0.049 A 
ATOM     63  H   UNL A   1      41.069  31.141  35.169  1.00  0.00     0.167 HD
ATOM     64  C   UNL A   1      42.676  29.143  33.871  1.00  0.00     0.074 A 
ATOM     65  C   UNL A   1      43.187  28.189  32.877  1.00  0.00     0.031 C 
ATOM     66  C   UNL A   1      43.314  29.435  35.078  1.00  0.00     0.037 A 
BRANCH  53  67
ATOM     67  C   UNL A   1      40.829  33.624  38.674  1.00  0.00     0.064 A 
ATOM     68  C   UNL A   1      41.661  34.726  38.800  1.00  0.00     0.173 A 
ATOM     69  C   UNL A   1      40.096  33.194  39.693  1.00  0.00     0.173 A 
ATOM     70  F   UNL A   1      42.214  35.341  37.758  1.00  0.00    -0.203 F 
ATOM     71  C   UNL A   1      41.869  35.135  40.139  1.00  0.00     0.198 A 
ATOM     72  C   UNL A   1      40.255  33.733  40.946  1.00  0.00     0.198 A 
ATOM     73  F   UNL A   1      39.198  32.232  39.499  1.00  0.00    -0.203 F 
ATOM     74  F   UNL A   1      42.908  35.928  40.388  1.00  0.00    -0.200 F 
ATOM     75  C   UNL A   1      41.104  34.785  41.157  1.00  0.00     0.200 A 
ATOM     76  F   UNL A   1      39.575  33.226  41.970  1.00  0.00    -0.200 F 
ATOM     77  F   UNL A   1      41.157  35.421  42.324  1.00  0.00    -0.200 F 
ENDBRANCH  53  67
BRANCH  54  78
ATOM     78  C   UNL A   1      39.947  28.603  30.141  1.00  0.00     0.064 A 
ATOM     79  C   UNL A   1      39.296  27.381  30.107  1.00  0.00     0.173 A 
ATOM     80  C   UNL A   1      40.510  29.115  29.053  1.00  0.00     0.173 A 
ATOM     81  F   UNL A   1      38.510  26.949  31.089  1.00  0.00    -0.203 F 
ATOM     82  C   UNL A   1      39.543  26.633  28.931  1.00  0.00     0.198 A 
ATOM     83  C   UNL A   1      40.594  28.377  27.897  1.00  0.00     0.198 A 
ATOM     84  F   UNL A   1      40.993  30.353  29.082  1.00  0.00    -0.203 F 
ATOM     85  F   UNL A   1      39.269  25.332  28.956  1.00  0.00    -0.200 F 
ATOM     86  C   UNL A   1      40.025  27.137  27.810  1.00  0.00     0.200 A 
ATOM     87  F   UNL A   1      41.241  28.876  26.847  1.00  0.00    -0.200 F 
ATOM     88  F   UNL A   1      39.960  26.475  26.658  1.00  0.00    -0.200 F 
ENDBRANCH  54  78
BRANCH  66  89
ATOM     89  C   UNL A   1      44.602  28.696  35.400  1.00  0.00     0.064 A 
ATOM     90  C   UNL A   1      44.496  27.473  36.043  1.00  0.00     0.173 A 
ATOM     91  C   UNL A   1      45.778  29.157  34.987  1.00  0.00     0.173 A 
ATOM     92  F   UNL A   1      43.334  26.859  36.246  1.00  0.00    -0.203 F 
ATOM     93  C   UNL A   1      45.736  26.937  36.464  1.00  0.00     0.198 A 
ATOM     94  C   UNL A   1      46.941  28.507  35.322  1.00  0.00     0.198 A 
ATOM     95  F   UNL A   1      45.828  30.258  34.243  1.00  0.00    -0.203 F 
ATOM     96  F   UNL A   1      45.714  25.977  37.384  1.00  0.00    -0.200 F 
ATOM     97  C   UNL A   1      46.913  27.324  36.007  1.00  0.00     0.200 A 
ATOM     98  F   UNL A   1      48.111  29.034  34.974  1.00  0.00    -0.200 F 
ATOM     99  F   UNL A   1      48.013  26.601  36.203  1.00  0.00    -0.200 F 
ENDBRANCH  66  89
ENDBRANCH  40  41
ENDBRANCH  33  35
ENDBRANCH  32  33
ENDBRANCH  31  32
ENDBRANCH  30  31
ENDBRANCH  29  30
ENDBRANCH   1  29
TORSDOF 19
ENDMDL
MODEL 2
REMARK VINA RESULT:     -11.8      0.556      7.020
REMARK SMILES O=C(OCCOCCOCCOC(=O)c1ccc(-c2c3nc(c(-c4c(F)c(F)c(F)c(F)c4F)c4ccc([nH]4)c(-c4c(F)c(F)c(F)c(F)c4F)c4nc(c(-c5c(F)c(F)c(F)c(F)c5F)c5ccc2[nH]5)C=C4)C=C3)cc1)C1=Cc2cc(S(F)(F)(F)(F)F)ccc2O[C@@H]1C(F)(F)F
REMARK SMILES IDX 8 1 7 2 6 3 5 4 4 5 3 6 2 7 1 8 78 9 79 10 93 11 80 12 92 13
REMARK SMILES IDX 81 14 91 15 82 16 90 17 89 18 94 19 95 20 96 21 97 22 83 23
REMARK SMILES IDX 84 24 85 25 86 26 87 27 88 28 9 29 10 30 11 31 12 32 13 33
REMARK SMILES IDX 14 34 15 35 16 36 77 37 17 38 76 39 18 40 19 41 20 42 70 43
REMARK SMILES IDX 21 44 75 45 69 46 71 47 22 48 74 49 68 50 67 51 23 53 55 54
REMARK SMILES IDX 35 55 54 56 36 57 39 58 53 59 72 60 37 61 38 62 52 64 73 65
REMARK SMILES IDX 40 66 24 67 25 68 33 69 26 70 27 71 31 72 34 73 28 74 29 75
REMARK SMILES IDX 32 76 30 77 56 78 57 79 65 80 58 81 59 82 63 83 66 84 60 85
REMARK SMILES IDX 61 86 64 87 62 88 41 89 42 90 50 91 43 92 44 93 48 94 51 95
REMARK SMILES IDX 45 96 46 97 49 98 47 99
REMARK H PARENT 71 52 39 63
REMARK Flexibility Score: inf
ROOT
ATOM      1  C   UNL A   1      34.276  33.441  29.245  1.00  0.00     0.188 C 
ENDROOT
BRANCH   1   2
ATOM      2  C   UNL A   1      34.090  32.649  27.961  1.00  0.00     0.188 C 
BRANCH   2   3
ATOM      3  O   UNL A   1      34.076  31.261  28.259  1.00  0.00    -0.376 OA
BRANCH   3   4
ATOM      4  C   UNL A   1      33.372  30.566  27.241  1.00  0.00     0.202 C 
BRANCH   4   5
ATOM      5  C   UNL A   1      34.123  29.292  26.885  1.00  0.00     0.261 C 
BRANCH   5   6
ATOM      6  O   UNL A   1      33.324  28.165  27.214  1.00  0.00    -0.460 OA
BRANCH   6   7
ATOM      7  C   UNL A   1      32.057  27.987  26.597  1.00  0.00     0.338 C 
ATOM      8  O   UNL A   1      31.028  27.772  27.311  1.00  0.00    -0.246 OA
BRANCH   7   9
ATOM      9  C   UNL A   1      31.933  28.055  25.084  1.00  0.00     0.087 C 
ATOM     10  C   UNL A   1      32.463  27.067  24.313  1.00  0.00     0.027 C 
ATOM     11  C   UNL A   1      31.216  29.226  24.432  1.00  0.00     0.316 C 
ATOM     12  C   UNL A   1      33.180  25.896  24.964  1.00  0.00     0.019 A 
ATOM     13  O   UNL A   1      31.519  25.888  26.665  1.00  0.00    -0.475 OA
ATOM     14  C   UNL A   1      34.363  25.439  24.408  1.00  0.00     0.036 A 
ATOM     15  C   UNL A   1      32.641  25.301  26.022  1.00  0.00     0.128 A 
ATOM     16  C   UNL A   1      34.756  24.160  24.866  1.00  0.00     0.107 A 
ATOM     17  C   UNL A   1      33.160  24.122  26.501  1.00  0.00     0.048 A 
ATOM     18  C   UNL A   1      34.294  23.582  25.960  1.00  0.00     0.028 A 
BRANCH  11  19
ATOM     19  C   UNL A   1      30.032  28.711  23.628  1.00  0.00     0.430 C 
ATOM     20  F   UNL A   1      29.529  27.633  24.221  1.00  0.00    -0.167 F 
ATOM     21  F   UNL A   1      29.098  29.656  23.561  1.00  0.00    -0.167 F 
ATOM     22  F   UNL A   1      30.433  28.396  22.400  1.00  0.00    -0.167 F 
ENDBRANCH  11  19
BRANCH  16  23
ATOM     23  S   UNL A   1      35.977  23.252  23.887  1.00  0.00     0.310 S 
ATOM     24  F   UNL A   1      35.824  21.954  24.783  1.00  0.00    -0.094 F 
ATOM     25  F   UNL A   1      37.093  23.731  24.890  1.00  0.00    -0.094 F 
ATOM     26  F   UNL A   1      37.028  22.473  23.047  1.00  0.00    -0.094 F 
ATOM     27  F   UNL A   1      34.828  22.669  22.974  1.00  0.00    -0.094 F 
ATOM     28  F   UNL A   1      34.885  23.946  24.794  1.00  0.00    -0.094 F 
ENDBRANCH  16  23
ENDBRANCH   7   9
ENDBRANCH   6   7
ENDBRANCH   5   6
ENDBRANCH   4   5
ENDBRANCH   3   4
ENDBRANCH   2   3
ENDBRANCH   1   2
BRANCH   1  29
ATOM     29  O   UNL A   1      33.102  34.197  29.509  1.00  0.00    -0.376 OA
BRANCH  29  30
ATOM     30  C   UNL A   1      33.278  35.524  29.036  1.00  0.00     0.202 C 
BRANCH  30  31
ATOM     31  C   UNL A   1      32.553  36.491  29.958  1.00  0.00     0.261 C 
BRANCH  31  32
ATOM     32  O   UNL A   1      32.060  35.789  31.088  1.00  0.00    -0.460 OA
BRANCH  32  33
ATOM     33  C   UNL A   1      32.738  35.880  32.332  1.00  0.00     0.338 C 
ATOM     34  O   UNL A   1      32.283  36.630  33.251  1.00  0.00    -0.246 OA
BRANCH  33  35
ATOM     35  C   UNL A   1      34.010  35.081  32.565  1.00  0.00     0.060 A 
ATOM     36  C   UNL A   1      35.218  35.648  32.190  1.00  0.00     0.016 A 
ATOM     37  C   UNL A   1      33.963  33.906  33.182  1.00  0.00     0.016 A 
ATOM     38  C   UNL A   1      36.313  34.755  32.251  1.00  0.00     0.010 A 
ATOM     39  C   UNL A   1      35.099  33.146  33.327  1.00  0.00     0.010 A 
ATOM     40  C   UNL A   1      36.318  33.619  32.924  1.00  0.00    -0.014 A 
BRANCH  40  41
ATOM     41  C   UNL A   1      37.607  32.877  33.235  1.00  0.00     0.031 A 
ATOM     42  C   UNL A   1      38.022  31.856  32.378  1.00  0.00     0.074 A 
ATOM     43  C   UNL A   1      38.242  33.196  34.422  1.00  0.00     0.049 A 
ATOM     44  N   UNL A   1      39.080  31.057  32.517  1.00  0.00    -0.248 NA
ATOM     45  C   UNL A   1      37.329  31.492  31.134  1.00  0.00     0.031 C 
ATOM     46  C   UNL A   1      37.836  34.230  35.289  1.00  0.00     0.029 A 
ATOM     47  N   UNL A   1      39.353  32.597  34.975  1.00  0.00    -0.354 N 
ATOM     48  C   UNL A   1      39.163  30.216  31.484  1.00  0.00     0.074 A 
ATOM     49  C   UNL A   1      38.034  30.480  30.582  1.00  0.00     0.031 C 
ATOM     50  C   UNL A   1      38.680  34.245  36.353  1.00  0.00     0.029 A 
ATOM     51  C   UNL A   1      39.630  33.223  36.171  1.00  0.00     0.049 A 
ATOM     52  H   UNL A   1      39.860  31.850  34.584  1.00  0.00     0.167 HD
ATOM     53  C   UNL A   1      40.136  29.241  31.258  1.00  0.00     0.037 A 
ATOM     54  C   UNL A   1      40.648  32.931  37.065  1.00  0.00     0.037 A 
ATOM     55  C   UNL A   1      41.179  28.980  32.131  1.00  0.00     0.049 A 
ATOM     56  C   UNL A   1      41.587  31.917  36.867  1.00  0.00     0.074 A 
ATOM     57  C   UNL A   1      42.173  28.006  31.914  1.00  0.00     0.029 A 
ATOM     58  N   UNL A   1      41.442  29.589  33.339  1.00  0.00    -0.354 N 
ATOM     59  N   UNL A   1      41.692  31.104  35.815  1.00  0.00    -0.248 NA
ATOM     60  C   UNL A   1      42.650  31.579  37.822  1.00  0.00     0.031 C 
ATOM     61  C   UNL A   1      43.018  28.021  32.980  1.00  0.00     0.029 A 
ATOM     62  C   UNL A   1      42.565  29.004  33.880  1.00  0.00     0.049 A 
ATOM     63  H   UNL A   1      40.918  30.317  33.743  1.00  0.00     0.167 HD
ATOM     64  C   UNL A   1      42.727  30.276  35.975  1.00  0.00     0.074 A 
ATOM     65  C   UNL A   1      43.353  30.565  37.273  1.00  0.00     0.031 C 
ATOM     66  C   UNL A   1      43.177  29.295  35.089  1.00  0.00     0.037 A 
BRANCH  53  67
ATOM     67  C   UNL A   1      40.047  28.421  29.981  1.00  0.00     0.064 A 
ATOM     68  C   UNL A   1      39.349  27.225  29.923  1.00  0.00     0.173 A 
ATOM     69  C   UNL A   1      40.649  28.920  28.908  1.00  0.00     0.173 A 
ATOM     70  F   UNL A   1      38.528  26.816  30.887  1.00  0.00    -0.203 F 
ATOM     71  C   UNL A   1      39.589  26.479  28.745  1.00  0.00     0.198 A 
ATOM     72  C   UNL A   1      40.728  28.190  27.747  1.00  0.00     0.198 A 
ATOM     73  F   UNL A   1      41.180  30.138  28.958  1.00  0.00    -0.203 F 
ATOM     74  F   UNL A   1      39.265  25.189  28.754  1.00  0.00    -0.200 F 
ATOM     75  C   UNL A   1      40.112  26.974  27.638  1.00  0.00     0.200 A 
ATOM     76  F   UNL A   1      41.413  28.672  26.715  1.00  0.00    -0.200 F 
ATOM     77  F   UNL A   1      40.044  26.324  26.479  1.00  0.00    -0.200 F 
ENDBRANCH  53  67
BRANCH  54  78
ATOM     78  C   UNL A   1      40.745  33.763  38.334  1.00  0.00     0.064 A 
ATOM     79  C   UNL A   1      39.949  33.480  39.432  1.00  0.00     0.173 A 
ATOM     80  C   UNL A   1      41.572  34.801  38.331  1.00  0.00     0.173 A 
ATOM     81  F   UNL A   1      39.303  32.327  39.583  1.00  0.00    -0.203 F 
ATOM     82  C   UNL A   1      39.886  34.530  40.379  1.00  0.00     0.198 A 
ATOM     83  C   UNL A   1      41.550  35.715  39.357  1.00  0.00     0.198 A 
ATOM     84  F   UNL A   1      42.429  34.958  37.327  1.00  0.00    -0.203 F 
ATOM     85  F   UNL A   1      38.892  34.507  41.262  1.00  0.00    -0.200 F 
ATOM     86  C   UNL A   1      40.745  35.530  40.447  1.00  0.00     0.200 A 
ATOM     87  F   UNL A   1      42.324  36.795  39.290  1.00  0.00    -0.200 F 
ATOM     88  F   UNL A   1      40.823  36.316  41.517  1.00  0.00    -0.200 F 
ENDBRANCH  54  78
BRANCH  66  89
ATOM     89  C   UNL A   1      44.411  28.497  35.476  1.00  0.00     0.064 A 
ATOM     90  C   UNL A   1      45.645  29.012  35.116  1.00  0.00     0.173 A 
ATOM     91  C   UNL A   1      44.312  27.402  36.221  1.00  0.00     0.173 A 
ATOM     92  F   UNL A   1      45.801  30.226  34.595  1.00  0.00    -0.203 F 
ATOM     93  C   UNL A   1      46.726  28.129  35.352  1.00  0.00     0.198 A 
ATOM     94  C   UNL A   1      45.428  26.661  36.526  1.00  0.00     0.198 A 
ATOM     95  F   UNL A   1      43.122  27.018  36.673  1.00  0.00    -0.203 F 
ATOM     96  F   UNL A   1      47.873  28.374  34.724  1.00  0.00    -0.200 F 
ATOM     97  C   UNL A   1      46.675  27.081  36.152  1.00  0.00     0.200 A 
ATOM     98  F   UNL A   1      45.295  25.521  37.197  1.00  0.00    -0.200 F 
ATOM     99  F   UNL A   1      47.777  26.465  36.571  1.00  0.00    -0.200 F 
ENDBRANCH  66  89
ENDBRANCH  40  41
ENDBRANCH  33  35
ENDBRANCH  32  33
ENDBRANCH  31  32
ENDBRANCH  30  31
ENDBRANCH  29  30
ENDBRANCH   1  29
TORSDOF 19
ENDMDL
MODEL 3
REMARK VINA RESULT:     -11.7      2.974      8.342
REMARK SMILES O=C(OCCOCCOCCOC(=O)c1ccc(-c2c3nc(c(-c4c(F)c(F)c(F)c(F)c4F)c4ccc([nH]4)c(-c4c(F)c(F)c(F)c(F)c4F)c4nc(c(-c5c(F)c(F)c(F)c(F)c5F)c5ccc2[nH]5)C=C4)C=C3)cc1)C1=Cc2cc(S(F)(F)(F)(F)F)ccc2O[C@@H]1C(F)(F)F
REMARK SMILES IDX 8 1 7 2 6 3 5 4 4 5 3 6 2 7 1 8 78 9 79 10 93 11 80 12 92 13
REMARK SMILES IDX 81 14 91 15 82 16 90 17 89 18 94 19 95 20 96 21 97 22 83 23
REMARK SMILES IDX 84 24 85 25 86 26 87 27 88 28 9 29 10 30 11 31 12 32 13 33
REMARK SMILES IDX 14 34 15 35 16 36 77 37 17 38 76 39 18 40 19 41 20 42 70 43
REMARK SMILES IDX 21 44 75 45 69 46 71 47 22 48 74 49 68 50 67 51 23 53 55 54
REMARK SMILES IDX 35 55 54 56 36 57 39 58 53 59 72 60 37 61 38 62 52 64 73 65
REMARK SMILES IDX 40 66 24 67 25 68 33 69 26 70 27 71 31 72 34 73 28 74 29 75
REMARK SMILES IDX 32 76 30 77 56 78 57 79 65 80 58 81 59 82 63 83 66 84 60 85
REMARK SMILES IDX 61 86 64 87 62 88 41 89 42 90 50 91 43 92 44 93 48 94 51 95
REMARK SMILES IDX 45 96 46 97 49 98 47 99
REMARK H PARENT 71 52 39 63
REMARK Flexibility Score: inf
ROOT
ATOM      1  C   UNL A   1      32.215  27.186  23.422  1.00  0.00     0.188 C 
ENDROOT
BRANCH   1   2
ATOM      2  C   UNL A   1      31.258  26.571  22.413  1.00  0.00     0.188 C 
BRANCH   2   3
ATOM      3  O   UNL A   1      31.991  26.105  21.290  1.00  0.00    -0.376 OA
BRANCH   3   4
ATOM      4  C   UNL A   1      33.188  25.483  21.730  1.00  0.00     0.202 C 
BRANCH   4   5
ATOM      5  C   UNL A   1      33.010  23.972  21.713  1.00  0.00     0.261 C 
BRANCH   5   6
ATOM      6  O   UNL A   1      33.707  23.401  22.811  1.00  0.00    -0.460 OA
BRANCH   6   7
ATOM      7  C   UNL A   1      33.316  23.714  24.140  1.00  0.00     0.338 C 
ATOM      8  O   UNL A   1      34.038  24.481  24.850  1.00  0.00    -0.246 OA
BRANCH   7   9
ATOM      9  C   UNL A   1      32.034  23.131  24.712  1.00  0.00     0.087 C 
ATOM     10  C   UNL A   1      31.975  21.813  25.044  1.00  0.00     0.027 C 
ATOM     11  C   UNL A   1      30.819  24.021  24.914  1.00  0.00     0.316 C 
ATOM     12  C   UNL A   1      33.191  20.923  24.843  1.00  0.00     0.019 A 
ATOM     13  O   UNL A   1      34.564  22.709  25.601  1.00  0.00    -0.475 OA
ATOM     14  C   UNL A   1      33.014  19.655  24.316  1.00  0.00     0.036 A 
ATOM     15  C   UNL A   1      34.390  21.352  25.217  1.00  0.00     0.128 A 
ATOM     16  C   UNL A   1      34.128  18.800  24.492  1.00  0.00     0.107 A 
ATOM     17  C   UNL A   1      35.466  20.497  25.235  1.00  0.00     0.048 A 
ATOM     18  C   UNL A   1      35.348  19.211  24.784  1.00  0.00     0.028 A 
BRANCH  11  19
ATOM     19  C   UNL A   1      30.435  24.029  26.386  1.00  0.00     0.430 C 
ATOM     20  F   UNL A   1      29.584  25.024  26.617  1.00  0.00    -0.167 F 
ATOM     21  F   UNL A   1      29.859  22.872  26.700  1.00  0.00    -0.167 F 
ATOM     22  F   UNL A   1      31.526  24.196  27.127  1.00  0.00    -0.167 F 
ENDBRANCH  11  19
BRANCH  16  23
ATOM     23  S   UNL A   1      33.863  17.020  24.302  1.00  0.00     0.310 S 
ATOM     24  F   UNL A   1      32.481  17.241  23.557  1.00  0.00    -0.094 F 
ATOM     25  F   UNL A   1      33.057  17.028  25.656  1.00  0.00    -0.094 F 
ATOM     26  F   UNL A   1      33.634  15.491  24.142  1.00  0.00    -0.094 F 
ATOM     27  F   UNL A   1      34.552  17.058  22.882  1.00  0.00    -0.094 F 
ATOM     28  F   UNL A   1      34.005  18.591  24.397  1.00  0.00    -0.094 F 
ENDBRANCH  16  23
ENDBRANCH   7   9
ENDBRANCH   6   7
ENDBRANCH   5   6
ENDBRANCH   4   5
ENDBRANCH   3   4
ENDBRANCH   2   3
ENDBRANCH   1   2
BRANCH   1  29
ATOM     29  O   UNL A   1      32.113  28.601  23.370  1.00  0.00    -0.376 OA
BRANCH  29  30
ATOM     30  C   UNL A   1      31.070  29.033  24.231  1.00  0.00     0.202 C 
BRANCH  30  31
ATOM     31  C   UNL A   1      31.620  29.230  25.635  1.00  0.00     0.261 C 
BRANCH  31  32
ATOM     32  O   UNL A   1      32.748  30.090  25.585  1.00  0.00    -0.460 OA
BRANCH  32  33
ATOM     33  C   UNL A   1      33.035  30.948  26.679  1.00  0.00     0.338 C 
ATOM     34  O   UNL A   1      32.224  31.875  26.990  1.00  0.00    -0.246 OA
BRANCH  33  35
ATOM     35  C   UNL A   1      34.314  30.757  27.479  1.00  0.00     0.060 A 
ATOM     36  C   UNL A   1      34.611  29.487  27.946  1.00  0.00     0.016 A 
ATOM     37  C   UNL A   1      35.155  31.770  27.655  1.00  0.00     0.016 A 
ATOM     38  C   UNL A   1      35.700  29.449  28.848  1.00  0.00     0.010 A 
ATOM     39  C   UNL A   1      36.273  31.622  28.439  1.00  0.00     0.010 A 
ATOM     40  C   UNL A   1      36.596  30.409  28.983  1.00  0.00    -0.014 A 
BRANCH  40  41
ATOM     41  C   UNL A   1      37.916  30.179  29.701  1.00  0.00     0.031 A 
ATOM     42  C   UNL A   1      38.882  29.373  29.097  1.00  0.00     0.074 A 
ATOM     43  C   UNL A   1      38.035  30.708  30.974  1.00  0.00     0.049 A 
ATOM     44  N   UNL A   1      40.063  29.006  29.595  1.00  0.00    -0.248 NA
ATOM     45  C   UNL A   1      38.742  28.781  27.758  1.00  0.00     0.031 C 
ATOM     46  C   UNL A   1      37.070  31.530  31.588  1.00  0.00     0.029 A 
ATOM     47  N   UNL A   1      39.077  30.548  31.861  1.00  0.00    -0.354 N 
ATOM     48  C   UNL A   1      40.720  28.248  28.715  1.00  0.00     0.074 A 
ATOM     49  C   UNL A   1      39.876  28.087  27.523  1.00  0.00     0.031 C 
ATOM     50  C   UNL A   1      37.516  31.850  32.830  1.00  0.00     0.029 A 
ATOM     51  C   UNL A   1      38.770  31.236  33.015  1.00  0.00     0.049 A 
ATOM     52  H   UNL A   1      39.899  30.032  31.699  1.00  0.00     0.167 HD
ATOM     53  C   UNL A   1      41.990  27.686  28.859  1.00  0.00     0.037 A 
ATOM     54  C   UNL A   1      39.525  31.331  34.174  1.00  0.00     0.037 A 
ATOM     55  C   UNL A   1      42.764  27.818  30.000  1.00  0.00     0.049 A 
ATOM     56  C   UNL A   1      40.770  30.720  34.339  1.00  0.00     0.074 A 
ATOM     57  C   UNL A   1      44.049  27.265  30.158  1.00  0.00     0.029 A 
ATOM     58  N   UNL A   1      42.445  28.484  31.163  1.00  0.00    -0.354 N 
ATOM     59  N   UNL A   1      41.442  29.995  33.444  1.00  0.00    -0.248 NA
ATOM     60  C   UNL A   1      41.564  30.787  35.572  1.00  0.00     0.031 C 
ATOM     61  C   UNL A   1      44.495  27.585  31.403  1.00  0.00     0.029 A 
ATOM     62  C   UNL A   1      43.496  28.343  32.041  1.00  0.00     0.049 A 
ATOM     63  H   UNL A   1      41.611  28.977  31.336  1.00  0.00     0.167 HD
ATOM     64  C   UNL A   1      42.607  29.594  33.959  1.00  0.00     0.074 A 
ATOM     65  C   UNL A   1      42.698  30.092  35.339  1.00  0.00     0.031 C 
ATOM     66  C   UNL A   1      43.599  28.837  33.333  1.00  0.00     0.037 A 
BRANCH  53  67
ATOM     67  C   UNL A   1      42.556  26.885  27.697  1.00  0.00     0.064 A 
ATOM     68  C   UNL A   1      42.337  25.522  27.568  1.00  0.00     0.173 A 
ATOM     69  C   UNL A   1      43.251  27.560  26.790  1.00  0.00     0.173 A 
ATOM     70  F   UNL A   1      41.448  24.858  28.302  1.00  0.00    -0.203 F 
ATOM     71  C   UNL A   1      43.145  24.903  26.586  1.00  0.00     0.198 A 
ATOM     72  C   UNL A   1      43.904  26.901  25.777  1.00  0.00     0.198 A 
ATOM     73  F   UNL A   1      43.316  28.886  26.862  1.00  0.00    -0.203 F 
ATOM     74  F   UNL A   1      43.273  23.580  26.635  1.00  0.00    -0.200 F 
ATOM     75  C   UNL A   1      43.781  25.547  25.624  1.00  0.00     0.200 A 
ATOM     76  F   UNL A   1      44.668  27.588  24.933  1.00  0.00    -0.200 F 
ATOM     77  F   UNL A   1      44.275  24.913  24.564  1.00  0.00    -0.200 F 
ENDBRANCH  53  67
BRANCH  54  78
ATOM     78  C   UNL A   1      38.965  32.145  35.328  1.00  0.00     0.064 A 
ATOM     79  C   UNL A   1      39.189  33.510  35.410  1.00  0.00     0.173 A 
ATOM     80  C   UNL A   1      38.309  31.496  36.282  1.00  0.00     0.173 A 
ATOM     81  F   UNL A   1      39.611  34.239  34.381  1.00  0.00    -0.203 F 
ATOM     82  C   UNL A   1      38.931  34.057  36.689  1.00  0.00     0.198 A 
ATOM     83  C   UNL A   1      37.967  32.132  37.451  1.00  0.00     0.198 A 
ATOM     84  F   UNL A   1      37.978  30.221  36.104  1.00  0.00    -0.203 F 
ATOM     85  F   UNL A   1      39.446  35.251  36.967  1.00  0.00    -0.200 F 
ATOM     86  C   UNL A   1      38.211  33.466  37.625  1.00  0.00     0.200 A 
ATOM     87  F   UNL A   1      37.389  31.439  38.430  1.00  0.00    -0.200 F 
ATOM     88  F   UNL A   1      37.750  34.132  38.681  1.00  0.00    -0.200 F 
ENDBRANCH  54  78
BRANCH  66  89
ATOM     89  C   UNL A   1      44.866  28.535  34.114  1.00  0.00     0.064 A 
ATOM     90  C   UNL A   1      45.892  29.465  34.056  1.00  0.00     0.173 A 
ATOM     91  C   UNL A   1      44.946  27.472  34.906  1.00  0.00     0.173 A 
ATOM     92  F   UNL A   1      45.757  30.658  33.483  1.00  0.00    -0.203 F 
ATOM     93  C   UNL A   1      47.095  29.030  34.660  1.00  0.00     0.198 A 
ATOM     94  C   UNL A   1      46.111  27.182  35.573  1.00  0.00     0.198 A 
ATOM     95  F   UNL A   1      43.887  26.680  35.053  1.00  0.00    -0.203 F 
ATOM     96  F   UNL A   1      48.213  29.679  34.347  1.00  0.00    -0.200 F 
ATOM     97  C   UNL A   1      47.185  28.027  35.513  1.00  0.00     0.200 A 
ATOM     98  F   UNL A   1      46.197  26.064  36.289  1.00  0.00    -0.200 F 
ATOM     99  F   UNL A   1      48.262  27.847  36.272  1.00  0.00    -0.200 F 
ENDBRANCH  66  89
ENDBRANCH  40  41
ENDBRANCH  33  35
ENDBRANCH  32  33
ENDBRANCH  31  32
ENDBRANCH  30  31
ENDBRANCH  29  30
ENDBRANCH   1  29
TORSDOF 19
ENDMDL
