MODEL 1
REMARK VINA RESULT:     -11.0      0.000      0.000
REMARK SMILES C[C@H](C(=O)OCCOCCOCCOC(=O)c1ccc(-c2c3nc(c(-c4c(F)c(F)c(F)c(F)c4F)c4ccc([nH]4)c(-c4c(F)c(F)c(F)c(F)c4F)c4nc(c(-c5c(F)c(F)c(F)c(F)c5F)c5ccc2[nH]5)C=C4)C=C3)cc1)N1C(=O)/C(=C/c2ccccc2F)SC1=S
REMARK SMILES IDX 9 1 8 2 7 3 6 4 5 5 3 6 4 7 2 8 1 9 80 10 81 11 93 12 82 13
REMARK SMILES IDX 83 14 92 15 94 16 84 17 85 18 86 19 90 20 87 21 89 22 91 23
REMARK SMILES IDX 88 24 10 25 11 26 12 27 13 28 14 29 15 30 16 31 17 32 18 33
REMARK SMILES IDX 79 34 19 35 78 36 20 37 21 38 22 39 72 40 23 41 77 42 71 43
REMARK SMILES IDX 73 44 24 45 76 46 70 47 69 48 25 50 57 51 37 52 56 53 38 54
REMARK SMILES IDX 41 55 55 56 74 57 39 58 40 59 54 61 75 62 42 63 26 64 27 65
REMARK SMILES IDX 35 66 28 67 29 68 33 69 36 70 30 71 31 72 34 73 32 74 58 75
REMARK SMILES IDX 59 76 67 77 60 78 61 79 65 80 68 81 62 82 63 83 66 84 64 85
REMARK SMILES IDX 43 86 44 87 52 88 45 89 46 90 50 91 53 92 47 93 48 94 51 95
REMARK SMILES IDX 49 96
REMARK H PARENT 73 49 41 60
REMARK Flexibility Score: inf
ROOT
ATOM      1  C   UNL A   1      33.693  32.147  27.641  1.00  0.00     0.188 C 
ENDROOT
BRANCH   1   2
ATOM      2  O   UNL A   1      33.390  30.754  27.663  1.00  0.00    -0.376 OA
BRANCH   2   3
ATOM      3  C   UNL A   1      34.388  29.825  27.262  1.00  0.00     0.202 C 
BRANCH   3   4
ATOM      4  C   UNL A   1      34.024  28.892  26.103  1.00  0.00     0.261 C 
BRANCH   4   5
ATOM      5  O   UNL A   1      32.674  28.398  26.187  1.00  0.00    -0.462 OA
BRANCH   5   6
ATOM      6  C   UNL A   1      31.785  28.833  25.266  1.00  0.00     0.329 C 
ATOM      7  O   UNL A   1      31.575  30.017  25.024  1.00  0.00    -0.250 OA
BRANCH   6   8
ATOM      8  C   UNL A   1      30.952  27.706  24.627  1.00  0.00     0.199 C 
ATOM      9  C   UNL A   1      29.980  27.893  23.469  1.00  0.00     0.044 C 
BRANCH   8  10
ATOM     10  N   UNL A   1      31.760  26.503  24.435  1.00  0.00    -0.279 N 
ATOM     11  C   UNL A   1      31.374  25.382  25.143  1.00  0.00     0.266 C 
ATOM     12  C   UNL A   1      32.754  26.327  23.492  1.00  0.00     0.149 C 
ATOM     13  O   UNL A   1      30.387  25.279  25.859  1.00  0.00    -0.268 OA
ATOM     14  C   UNL A   1      32.293  24.268  24.857  1.00  0.00     0.081 C 
ATOM     15  S   UNL A   1      33.414  24.707  23.635  1.00  0.00    -0.054 SA
ATOM     16  S   UNL A   1      33.323  27.376  22.329  1.00  0.00    -0.052 S 
ATOM     17  C   UNL A   1      32.217  23.125  25.543  1.00  0.00     0.032 C 
BRANCH  17  18
ATOM     18  C   UNL A   1      33.232  22.087  25.422  1.00  0.00     0.012 A 
ATOM     19  C   UNL A   1      33.028  20.980  24.599  1.00  0.00     0.011 A 
ATOM     20  C   UNL A   1      34.457  22.246  26.082  1.00  0.00     0.130 A 
ATOM     21  C   UNL A   1      34.055  20.051  24.433  1.00  0.00     0.001 A 
ATOM     22  C   UNL A   1      35.483  21.329  25.912  1.00  0.00     0.040 A 
ATOM     23  F   UNL A   1      34.667  23.313  26.869  1.00  0.00    -0.206 F 
ATOM     24  C   UNL A   1      35.282  20.228  25.083  1.00  0.00     0.003 A 
ENDBRANCH  17  18
ENDBRANCH   8  10
ENDBRANCH   6   8
ENDBRANCH   5   6
ENDBRANCH   4   5
ENDBRANCH   3   4
ENDBRANCH   2   3
ENDBRANCH   1   2
BRANCH   1  25
ATOM     25  C   UNL A   1      32.554  33.189  27.536  1.00  0.00     0.188 C 
BRANCH  25  26
ATOM     26  O   UNL A   1      32.710  34.236  28.469  1.00  0.00    -0.376 OA
BRANCH  26  27
ATOM     27  C   UNL A   1      34.015  34.463  28.945  1.00  0.00     0.202 C 
BRANCH  27  28
ATOM     28  C   UNL A   1      34.138  34.582  30.471  1.00  0.00     0.261 C 
BRANCH  28  29
ATOM     29  O   UNL A   1      35.314  34.003  31.075  1.00  0.00    -0.460 OA
BRANCH  29  30
ATOM     30  C   UNL A   1      35.204  32.768  31.610  1.00  0.00     0.338 C 
ATOM     31  O   UNL A   1      34.265  32.335  32.262  1.00  0.00    -0.246 OA
BRANCH  30  32
ATOM     32  C   UNL A   1      36.337  31.933  31.139  1.00  0.00     0.060 A 
ATOM     33  C   UNL A   1      37.191  31.338  32.079  1.00  0.00     0.016 A 
ATOM     34  C   UNL A   1      36.572  31.751  29.774  1.00  0.00     0.016 A 
ATOM     35  C   UNL A   1      38.299  30.590  31.658  1.00  0.00     0.010 A 
ATOM     36  C   UNL A   1      37.693  31.020  29.354  1.00  0.00     0.010 A 
ATOM     37  C   UNL A   1      38.582  30.460  30.290  1.00  0.00    -0.014 A 
BRANCH  37  38
ATOM     38  C   UNL A   1      39.883  29.901  29.829  1.00  0.00     0.031 A 
ATOM     39  C   UNL A   1      41.077  30.818  29.764  1.00  0.00     0.074 A 
ATOM     40  C   UNL A   1      40.020  28.613  29.463  1.00  0.00     0.049 A 
ATOM     41  N   UNL A   1      42.278  30.598  29.288  1.00  0.00    -0.248 NA
ATOM     42  C   UNL A   1      40.884  32.172  30.305  1.00  0.00     0.031 C 
ATOM     43  C   UNL A   1      38.969  27.602  29.519  1.00  0.00     0.029 A 
ATOM     44  N   UNL A   1      41.105  27.943  28.946  1.00  0.00    -0.354 N 
ATOM     45  C   UNL A   1      42.977  31.787  29.462  1.00  0.00     0.074 A 
ATOM     46  C   UNL A   1      42.059  32.732  30.059  1.00  0.00     0.031 C 
ATOM     47  C   UNL A   1      39.453  26.443  29.037  1.00  0.00     0.029 A 
ATOM     48  C   UNL A   1      40.834  26.641  28.597  1.00  0.00     0.049 A 
ATOM     49  H   UNL A   1      41.992  28.357  28.837  1.00  0.00     0.167 HD
ATOM     50  C   UNL A   1      44.268  32.066  29.157  1.00  0.00     0.037 A 
ATOM     51  C   UNL A   1      41.600  25.728  27.964  1.00  0.00     0.037 A 
ATOM     52  C   UNL A   1      45.183  31.130  28.557  1.00  0.00     0.049 A 
ATOM     53  C   UNL A   1      43.008  26.089  27.552  1.00  0.00     0.074 A 
ATOM     54  C   UNL A   1      46.512  31.319  28.219  1.00  0.00     0.029 A 
ATOM     55  N   UNL A   1      44.861  29.830  28.196  1.00  0.00    -0.354 N 
ATOM     56  N   UNL A   1      43.666  27.209  27.731  1.00  0.00    -0.248 NA
ATOM     57  C   UNL A   1      43.781  25.053  26.848  1.00  0.00     0.031 C 
ATOM     58  C   UNL A   1      46.977  30.156  27.597  1.00  0.00     0.029 A 
ATOM     59  C   UNL A   1      45.959  29.216  27.612  1.00  0.00     0.049 A 
ATOM     60  H   UNL A   1      43.983  29.406  28.333  1.00  0.00     0.167 HD
ATOM     61  C   UNL A   1      44.933  27.001  27.196  1.00  0.00     0.074 A 
ATOM     62  C   UNL A   1      44.959  25.644  26.697  1.00  0.00     0.031 C 
ATOM     63  C   UNL A   1      45.981  27.859  27.128  1.00  0.00     0.037 A 
BRANCH  50  64
ATOM     64  C   UNL A   1      44.761  33.457  29.439  1.00  0.00     0.064 A 
ATOM     65  C   UNL A   1      45.374  33.792  30.656  1.00  0.00     0.173 A 
ATOM     66  C   UNL A   1      44.645  34.461  28.465  1.00  0.00     0.173 A 
ATOM     67  F   UNL A   1      45.499  32.874  31.626  1.00  0.00    -0.203 F 
ATOM     68  C   UNL A   1      45.824  35.088  30.899  1.00  0.00     0.198 A 
ATOM     69  C   UNL A   1      45.127  35.746  28.699  1.00  0.00     0.198 A 
ATOM     70  F   UNL A   1      44.072  34.193  27.282  1.00  0.00    -0.203 F 
ATOM     71  F   UNL A   1      46.357  35.399  32.088  1.00  0.00    -0.200 F 
ATOM     72  C   UNL A   1      45.706  36.061  29.918  1.00  0.00     0.200 A 
ATOM     73  F   UNL A   1      45.026  36.681  27.742  1.00  0.00    -0.200 F 
ATOM     74  F   UNL A   1      46.145  37.306  30.150  1.00  0.00    -0.200 F 
ENDBRANCH  50  64
BRANCH  51  75
ATOM     75  C   UNL A   1      41.050  24.381  27.650  1.00  0.00     0.064 A 
ATOM     76  C   UNL A   1      41.555  23.227  28.265  1.00  0.00     0.173 A 
ATOM     77  C   UNL A   1      40.034  24.215  26.695  1.00  0.00     0.173 A 
ATOM     78  F   UNL A   1      42.552  23.327  29.158  1.00  0.00    -0.203 F 
ATOM     79  C   UNL A   1      41.083  21.960  27.925  1.00  0.00     0.198 A 
ATOM     80  C   UNL A   1      39.539  22.951  26.380  1.00  0.00     0.198 A 
ATOM     81  F   UNL A   1      39.522  25.283  26.067  1.00  0.00    -0.203 F 
ATOM     82  F   UNL A   1      41.627  20.872  28.485  1.00  0.00    -0.200 F 
ATOM     83  C   UNL A   1      40.070  21.824  26.987  1.00  0.00     0.200 A 
ATOM     84  F   UNL A   1      38.555  22.826  25.480  1.00  0.00    -0.200 F 
ATOM     85  F   UNL A   1      39.617  20.606  26.659  1.00  0.00    -0.200 F 
ENDBRANCH  51  75
BRANCH  63  86
ATOM     86  C   UNL A   1      47.268  27.347  26.537  1.00  0.00     0.064 A 
ATOM     87  C   UNL A   1      48.251  26.726  27.323  1.00  0.00     0.173 A 
ATOM     88  C   UNL A   1      47.500  27.440  25.156  1.00  0.00     0.173 A 
ATOM     89  F   UNL A   1      48.087  26.620  28.650  1.00  0.00    -0.203 F 
ATOM     90  C   UNL A   1      49.426  26.244  26.752  1.00  0.00     0.198 A 
ATOM     91  C   UNL A   1      48.660  26.926  24.583  1.00  0.00     0.198 A 
ATOM     92  F   UNL A   1      46.590  28.016  24.354  1.00  0.00    -0.203 F 
ATOM     93  F   UNL A   1      50.373  25.700  27.529  1.00  0.00    -0.200 F 
ATOM     94  C   UNL A   1      49.626  26.336  25.382  1.00  0.00     0.200 A 
ATOM     95  F   UNL A   1      48.841  26.999  23.257  1.00  0.00    -0.200 F 
ATOM     96  F   UNL A   1      50.754  25.861  24.834  1.00  0.00    -0.200 F 
ENDBRANCH  63  86
ENDBRANCH  37  38
ENDBRANCH  30  32
ENDBRANCH  29  30
ENDBRANCH  28  29
ENDBRANCH  27  28
ENDBRANCH  26  27
ENDBRANCH  25  26
ENDBRANCH   1  25
TORSDOF 19
ENDMDL
MODEL 2
REMARK VINA RESULT:     -10.7      2.812      3.950
REMARK SMILES C[C@H](C(=O)OCCOCCOCCOC(=O)c1ccc(-c2c3nc(c(-c4c(F)c(F)c(F)c(F)c4F)c4ccc([nH]4)c(-c4c(F)c(F)c(F)c(F)c4F)c4nc(c(-c5c(F)c(F)c(F)c(F)c5F)c5ccc2[nH]5)C=C4)C=C3)cc1)N1C(=O)/C(=C/c2ccccc2F)SC1=S
REMARK SMILES IDX 9 1 8 2 7 3 6 4 5 5 3 6 4 7 2 8 1 9 80 10 81 11 93 12 82 13
REMARK SMILES IDX 83 14 92 15 94 16 84 17 85 18 86 19 90 20 87 21 89 22 91 23
REMARK SMILES IDX 88 24 10 25 11 26 12 27 13 28 14 29 15 30 16 31 17 32 18 33
REMARK SMILES IDX 79 34 19 35 78 36 20 37 21 38 22 39 72 40 23 41 77 42 71 43
REMARK SMILES IDX 73 44 24 45 76 46 70 47 69 48 25 50 57 51 37 52 56 53 38 54
REMARK SMILES IDX 41 55 55 56 74 57 39 58 40 59 54 61 75 62 42 63 26 64 27 65
REMARK SMILES IDX 35 66 28 67 29 68 33 69 36 70 30 71 31 72 34 73 32 74 58 75
REMARK SMILES IDX 59 76 67 77 60 78 61 79 65 80 68 81 62 82 63 83 66 84 64 85
REMARK SMILES IDX 43 86 44 87 52 88 45 89 46 90 50 91 53 92 47 93 48 94 51 95
REMARK SMILES IDX 49 96
REMARK H PARENT 73 49 41 60
REMARK Flexibility Score: inf
ROOT
ATOM      1  C   UNL A   1      31.027  28.391  24.468  1.00  0.00     0.188 C 
ENDROOT
BRANCH   1   2
ATOM      2  O   UNL A   1      30.392  27.361  23.713  1.00  0.00    -0.376 OA
BRANCH   2   3
ATOM      3  C   UNL A   1      30.850  27.088  22.396  1.00  0.00     0.202 C 
BRANCH   3   4
ATOM      4  C   UNL A   1      31.829  25.921  22.243  1.00  0.00     0.261 C 
BRANCH   4   5
ATOM      5  O   UNL A   1      33.025  26.089  23.027  1.00  0.00    -0.462 OA
BRANCH   5   6
ATOM      6  C   UNL A   1      33.791  24.998  23.252  1.00  0.00     0.329 C 
ATOM      7  O   UNL A   1      34.404  24.399  22.375  1.00  0.00    -0.250 OA
BRANCH   6   8
ATOM      8  C   UNL A   1      33.728  24.485  24.704  1.00  0.00     0.199 C 
ATOM      9  C   UNL A   1      32.670  24.888  25.724  1.00  0.00     0.044 C 
BRANCH   8  10
ATOM     10  N   UNL A   1      33.982  23.047  24.762  1.00  0.00    -0.279 N 
ATOM     11  C   UNL A   1      32.991  22.226  24.261  1.00  0.00     0.266 C 
ATOM     12  C   UNL A   1      35.176  22.439  25.102  1.00  0.00     0.149 C 
ATOM     13  O   UNL A   1      31.957  22.585  23.714  1.00  0.00    -0.268 OA
ATOM     14  C   UNL A   1      33.388  20.816  24.408  1.00  0.00     0.081 C 
ATOM     15  S   UNL A   1      34.994  20.697  24.999  1.00  0.00    -0.054 SA
ATOM     16  S   UNL A   1      36.635  23.117  25.534  1.00  0.00    -0.052 S 
ATOM     17  C   UNL A   1      32.527  19.831  24.137  1.00  0.00     0.032 C 
BRANCH  17  18
ATOM     18  C   UNL A   1      32.823  18.442  24.462  1.00  0.00     0.012 A 
ATOM     19  C   UNL A   1      32.644  17.957  25.758  1.00  0.00     0.011 A 
ATOM     20  C   UNL A   1      33.219  17.568  23.442  1.00  0.00     0.130 A 
ATOM     21  C   UNL A   1      32.849  16.602  26.017  1.00  0.00     0.001 A 
ATOM     22  C   UNL A   1      33.414  16.219  23.695  1.00  0.00     0.040 A 
ATOM     23  F   UNL A   1      33.384  18.023  22.190  1.00  0.00    -0.206 F 
ATOM     24  C   UNL A   1      33.226  15.734  24.986  1.00  0.00     0.003 A 
ENDBRANCH  17  18
ENDBRANCH   8  10
ENDBRANCH   6   8
ENDBRANCH   5   6
ENDBRANCH   4   5
ENDBRANCH   3   4
ENDBRANCH   2   3
ENDBRANCH   1   2
BRANCH   1  25
ATOM     25  C   UNL A   1      30.664  29.874  24.218  1.00  0.00     0.188 C 
BRANCH  25  26
ATOM     26  O   UNL A   1      31.046  30.698  25.298  1.00  0.00    -0.376 OA
BRANCH  26  27
ATOM     27  C   UNL A   1      31.790  30.085  26.324  1.00  0.00     0.202 C 
BRANCH  27  28
ATOM     28  C   UNL A   1      33.002  30.887  26.816  1.00  0.00     0.261 C 
BRANCH  28  29
ATOM     29  O   UNL A   1      33.880  30.229  27.752  1.00  0.00    -0.460 OA
BRANCH  29  30
ATOM     30  C   UNL A   1      34.716  30.998  28.481  1.00  0.00     0.338 C 
ATOM     31  O   UNL A   1      34.436  32.043  29.052  1.00  0.00    -0.246 OA
BRANCH  30  32
ATOM     32  C   UNL A   1      36.013  30.293  28.639  1.00  0.00     0.060 A 
ATOM     33  C   UNL A   1      36.299  29.643  29.849  1.00  0.00     0.016 A 
ATOM     34  C   UNL A   1      36.954  30.287  27.608  1.00  0.00     0.016 A 
ATOM     35  C   UNL A   1      37.538  29.017  30.041  1.00  0.00     0.010 A 
ATOM     36  C   UNL A   1      38.200  29.679  27.809  1.00  0.00     0.010 A 
ATOM     37  C   UNL A   1      38.515  29.066  29.036  1.00  0.00    -0.014 A 
BRANCH  37  38
ATOM     38  C   UNL A   1      39.917  28.643  29.312  1.00  0.00     0.031 A 
ATOM     39  C   UNL A   1      40.821  29.592  30.055  1.00  0.00     0.074 A 
ATOM     40  C   UNL A   1      40.397  27.451  28.910  1.00  0.00     0.049 A 
ATOM     41  N   UNL A   1      42.103  29.502  30.309  1.00  0.00    -0.248 NA
ATOM     42  C   UNL A   1      40.190  30.814  30.576  1.00  0.00     0.031 C 
ATOM     43  C   UNL A   1      39.628  26.416  28.228  1.00  0.00     0.029 A 
ATOM     44  N   UNL A   1      41.665  26.923  29.004  1.00  0.00    -0.354 N 
ATOM     45  C   UNL A   1      42.433  30.657  31.007  1.00  0.00     0.074 A 
ATOM     46  C   UNL A   1      41.224  31.446  31.111  1.00  0.00     0.031 C 
ATOM     47  C   UNL A   1      40.443  25.383  27.945  1.00  0.00     0.029 A 
ATOM     48  C   UNL A   1      41.800  25.702  28.388  1.00  0.00     0.049 A 
ATOM     49  H   UNL A   1      42.404  27.377  29.470  1.00  0.00     0.167 HD
ATOM     50  C   UNL A   1      43.631  31.028  31.521  1.00  0.00     0.037 A 
ATOM     51  C   UNL A   1      42.898  24.948  28.174  1.00  0.00     0.037 A 
ATOM     52  C   UNL A   1      44.838  30.249  31.414  1.00  0.00     0.049 A 
ATOM     53  C   UNL A   1      44.242  25.422  28.677  1.00  0.00     0.074 A 
ATOM     54  C   UNL A   1      46.098  30.539  31.910  1.00  0.00     0.029 A 
ATOM     55  N   UNL A   1      44.938  29.031  30.759  1.00  0.00    -0.354 N 
ATOM     56  N   UNL A   1      44.543  26.508  29.347  1.00  0.00    -0.248 NA
ATOM     57  C   UNL A   1      45.400  24.560  28.391  1.00  0.00     0.031 C 
ATOM     58  C   UNL A   1      46.973  29.527  31.501  1.00  0.00     0.029 A 
ATOM     59  C   UNL A   1      46.245  28.571  30.812  1.00  0.00     0.049 A 
ATOM     60  H   UNL A   1      44.191  28.562  30.320  1.00  0.00     0.167 HD
ATOM     61  C   UNL A   1      45.910  26.443  29.591  1.00  0.00     0.074 A 
ATOM     62  C   UNL A   1      46.380  25.205  29.010  1.00  0.00     0.031 C 
ATOM     63  C   UNL A   1      46.704  27.330  30.242  1.00  0.00     0.037 A 
BRANCH  50  64
ATOM     64  C   UNL A   1      43.704  32.356  32.220  1.00  0.00     0.064 A 
ATOM     65  C   UNL A   1      43.497  32.476  33.602  1.00  0.00     0.173 A 
ATOM     66  C   UNL A   1      44.016  33.520  31.500  1.00  0.00     0.173 A 
ATOM     67  F   UNL A   1      43.184  31.397  34.336  1.00  0.00    -0.203 F 
ATOM     68  C   UNL A   1      43.568  33.717  34.233  1.00  0.00     0.198 A 
ATOM     69  C   UNL A   1      44.120  34.752  32.139  1.00  0.00     0.198 A 
ATOM     70  F   UNL A   1      44.229  33.460  30.177  1.00  0.00    -0.203 F 
ATOM     71  F   UNL A   1      43.313  33.816  35.544  1.00  0.00    -0.200 F 
ATOM     72  C   UNL A   1      43.887  34.852  33.502  1.00  0.00     0.200 A 
ATOM     73  F   UNL A   1      44.444  35.845  31.433  1.00  0.00    -0.200 F 
ATOM     74  F   UNL A   1      43.961  36.043  34.110  1.00  0.00    -0.200 F 
ENDBRANCH  50  64
BRANCH  51  75
ATOM     75  C   UNL A   1      42.790  23.667  27.422  1.00  0.00     0.064 A 
ATOM     76  C   UNL A   1      42.363  22.489  28.050  1.00  0.00     0.173 A 
ATOM     77  C   UNL A   1      43.152  23.586  26.067  1.00  0.00     0.173 A 
ATOM     78  F   UNL A   1      42.040  22.504  29.352  1.00  0.00    -0.203 F 
ATOM     79  C   UNL A   1      42.321  21.277  27.361  1.00  0.00     0.198 A 
ATOM     80  C   UNL A   1      43.078  22.382  25.371  1.00  0.00     0.198 A 
ATOM     81  F   UNL A   1      43.578  24.680  25.420  1.00  0.00    -0.203 F 
ATOM     82  F   UNL A   1      41.967  20.156  28.003  1.00  0.00    -0.200 F 
ATOM     83  C   UNL A   1      42.672  21.226  26.021  1.00  0.00     0.200 A 
ATOM     84  F   UNL A   1      43.410  22.339  24.074  1.00  0.00    -0.200 F 
ATOM     85  F   UNL A   1      42.633  20.061  25.359  1.00  0.00    -0.200 F 
ENDBRANCH  51  75
BRANCH  63  86
ATOM     86  C   UNL A   1      48.158  26.977  30.410  1.00  0.00     0.064 A 
ATOM     87  C   UNL A   1      48.613  26.192  31.480  1.00  0.00     0.173 A 
ATOM     88  C   UNL A   1      49.102  27.395  29.459  1.00  0.00     0.173 A 
ATOM     89  F   UNL A   1      47.756  25.775  32.425  1.00  0.00    -0.203 F 
ATOM     90  C   UNL A   1      49.961  25.863  31.606  1.00  0.00     0.198 A 
ATOM     91  C   UNL A   1      50.443  27.035  29.569  1.00  0.00     0.198 A 
ATOM     92  F   UNL A   1      48.722  28.140  28.409  1.00  0.00    -0.203 F 
ATOM     93  F   UNL A   1      50.380  25.156  32.664  1.00  0.00    -0.200 F 
ATOM     94  C   UNL A   1      50.873  26.277  30.647  1.00  0.00     0.200 A 
ATOM     95  F   UNL A   1      51.318  27.420  28.630  1.00  0.00    -0.200 F 
ATOM     96  F   UNL A   1      52.168  25.950  30.765  1.00  0.00    -0.200 F 
ENDBRANCH  63  86
ENDBRANCH  37  38
ENDBRANCH  30  32
ENDBRANCH  29  30
ENDBRANCH  28  29
ENDBRANCH  27  28
ENDBRANCH  26  27
ENDBRANCH  25  26
ENDBRANCH   1  25
TORSDOF 19
ENDMDL
MODEL 3
REMARK VINA RESULT:     -10.7      3.509      9.240
REMARK SMILES C[C@H](C(=O)OCCOCCOCCOC(=O)c1ccc(-c2c3nc(c(-c4c(F)c(F)c(F)c(F)c4F)c4ccc([nH]4)c(-c4c(F)c(F)c(F)c(F)c4F)c4nc(c(-c5c(F)c(F)c(F)c(F)c5F)c5ccc2[nH]5)C=C4)C=C3)cc1)N1C(=O)/C(=C/c2ccccc2F)SC1=S
REMARK SMILES IDX 9 1 8 2 7 3 6 4 5 5 3 6 4 7 2 8 1 9 80 10 81 11 93 12 82 13
REMARK SMILES IDX 83 14 92 15 94 16 84 17 85 18 86 19 90 20 87 21 89 22 91 23
REMARK SMILES IDX 88 24 10 25 11 26 12 27 13 28 14 29 15 30 16 31 17 32 18 33
REMARK SMILES IDX 79 34 19 35 78 36 20 37 21 38 22 39 72 40 23 41 77 42 71 43
REMARK SMILES IDX 73 44 24 45 76 46 70 47 69 48 25 50 57 51 37 52 56 53 38 54
REMARK SMILES IDX 41 55 55 56 74 57 39 58 40 59 54 61 75 62 42 63 26 64 27 65
REMARK SMILES IDX 35 66 28 67 29 68 33 69 36 70 30 71 31 72 34 73 32 74 58 75
REMARK SMILES IDX 59 76 67 77 60 78 61 79 65 80 68 81 62 82 63 83 66 84 64 85
REMARK SMILES IDX 43 86 44 87 52 88 45 89 46 90 50 91 53 92 47 93 48 94 51 95
REMARK SMILES IDX 49 96
REMARK H PARENT 73 49 41 60
REMARK Flexibility Score: inf
ROOT
ATOM      1  C   UNL A   1      35.677  22.178  25.806  1.00  0.00     0.188 C 
ENDROOT
BRANCH   1   2
ATOM      2  O   UNL A   1      35.130  21.968  24.506  1.00  0.00    -0.376 OA
BRANCH   2   3
ATOM      3  C   UNL A   1      35.371  22.935  23.493  1.00  0.00     0.202 C 
BRANCH   3   4
ATOM      4  C   UNL A   1      34.408  24.124  23.441  1.00  0.00     0.261 C 
BRANCH   4   5
ATOM      5  O   UNL A   1      33.114  23.819  23.995  1.00  0.00    -0.462 OA
BRANCH   5   6
ATOM      6  C   UNL A   1      32.048  24.506  23.527  1.00  0.00     0.329 C 
ATOM      7  O   UNL A   1      31.738  24.562  22.341  1.00  0.00    -0.250 OA
BRANCH   6   8
ATOM      8  C   UNL A   1      31.318  25.329  24.605  1.00  0.00     0.199 C 
ATOM      9  C   UNL A   1      31.657  25.312  26.091  1.00  0.00     0.044 C 
BRANCH   8  10
ATOM     10  N   UNL A   1      31.075  26.695  24.146  1.00  0.00    -0.279 N 
ATOM     11  C   UNL A   1      29.755  27.066  23.985  1.00  0.00     0.266 C 
ATOM     12  C   UNL A   1      32.019  27.698  24.026  1.00  0.00     0.149 C 
ATOM     13  O   UNL A   1      28.772  26.389  24.254  1.00  0.00    -0.268 OA
ATOM     14  C   UNL A   1      29.681  28.455  23.503  1.00  0.00     0.081 C 
ATOM     15  S   UNL A   1      31.241  29.166  23.463  1.00  0.00    -0.054 SA
ATOM     16  S   UNL A   1      33.653  27.673  24.351  1.00  0.00    -0.052 S 
ATOM     17  C   UNL A   1      28.515  28.987  23.126  1.00  0.00     0.032 C 
BRANCH  17  18
ATOM     18  C   UNL A   1      28.441  30.281  22.461  1.00  0.00     0.012 A 
ATOM     19  C   UNL A   1      28.183  30.368  21.093  1.00  0.00     0.011 A 
ATOM     20  C   UNL A   1      28.555  31.451  23.222  1.00  0.00     0.130 A 
ATOM     21  C   UNL A   1      28.027  31.623  20.504  1.00  0.00     0.001 A 
ATOM     22  C   UNL A   1      28.393  32.698  22.641  1.00  0.00     0.040 A 
ATOM     23  F   UNL A   1      28.794  31.377  24.541  1.00  0.00    -0.206 F 
ATOM     24  C   UNL A   1      28.126  32.785  21.277  1.00  0.00     0.003 A 
ENDBRANCH  17  18
ENDBRANCH   8  10
ENDBRANCH   6   8
ENDBRANCH   5   6
ENDBRANCH   4   5
ENDBRANCH   3   4
ENDBRANCH   2   3
ENDBRANCH   1   2
BRANCH   1  25
ATOM     25  C   UNL A   1      36.638  23.363  26.064  1.00  0.00     0.188 C 
BRANCH  25  26
ATOM     26  O   UNL A   1      37.984  23.008  25.836  1.00  0.00    -0.376 OA
BRANCH  26  27
ATOM     27  C   UNL A   1      38.262  21.633  25.727  1.00  0.00     0.202 C 
BRANCH  27  28
ATOM     28  C   UNL A   1      39.644  21.206  26.241  1.00  0.00     0.261 C 
BRANCH  28  29
ATOM     29  O   UNL A   1      40.093  19.884  25.877  1.00  0.00    -0.460 OA
BRANCH  29  30
ATOM     30  C   UNL A   1      41.381  19.565  26.124  1.00  0.00     0.338 C 
ATOM     31  O   UNL A   1      41.899  18.464  25.999  1.00  0.00    -0.246 OA
BRANCH  30  32
ATOM     32  C   UNL A   1      42.142  20.807  26.414  1.00  0.00     0.060 A 
ATOM     33  C   UNL A   1      42.398  21.161  27.746  1.00  0.00     0.016 A 
ATOM     34  C   UNL A   1      42.584  21.632  25.377  1.00  0.00     0.016 A 
ATOM     35  C   UNL A   1      43.066  22.356  28.045  1.00  0.00     0.010 A 
ATOM     36  C   UNL A   1      43.234  22.836  25.679  1.00  0.00     0.010 A 
ATOM     37  C   UNL A   1      43.453  23.225  27.014  1.00  0.00    -0.014 A 
BRANCH  37  38
ATOM     38  C   UNL A   1      43.922  24.606  27.313  1.00  0.00     0.031 A 
ATOM     39  C   UNL A   1      42.916  25.619  27.795  1.00  0.00     0.074 A 
ATOM     40  C   UNL A   1      45.207  24.976  27.157  1.00  0.00     0.049 A 
ATOM     41  N   UNL A   1      43.055  26.904  28.008  1.00  0.00    -0.248 NA
ATOM     42  C   UNL A   1      41.563  25.108  28.069  1.00  0.00     0.031 C 
ATOM     43  C   UNL A   1      46.296  24.096  26.746  1.00  0.00     0.029 A 
ATOM     44  N   UNL A   1      45.805  26.206  27.307  1.00  0.00    -0.354 N 
ATOM     45  C   UNL A   1      41.809  27.356  28.426  1.00  0.00     0.074 A 
ATOM     46  C   UNL A   1      40.920  26.214  28.410  1.00  0.00     0.031 C 
ATOM     47  C   UNL A   1      47.429  24.817  26.657  1.00  0.00     0.029 A 
ATOM     48  C   UNL A   1      47.136  26.218  26.962  1.00  0.00     0.049 A 
ATOM     49  H   UNL A   1      45.326  27.003  27.632  1.00  0.00     0.167 HD
ATOM     50  C   UNL A   1      41.438  28.605  28.796  1.00  0.00     0.037 A 
ATOM     51  C   UNL A   1      48.006  27.245  26.868  1.00  0.00     0.037 A 
ATOM     52  C   UNL A   1      42.319  29.746  28.808  1.00  0.00     0.049 A 
ATOM     53  C   UNL A   1      47.549  28.646  27.199  1.00  0.00     0.074 A 
ATOM     54  C   UNL A   1      42.035  31.050  29.175  1.00  0.00     0.029 A 
ATOM     55  N   UNL A   1      43.651  29.719  28.426  1.00  0.00    -0.354 N 
ATOM     56  N   UNL A   1      46.374  29.063  27.607  1.00  0.00    -0.248 NA
ATOM     57  C   UNL A   1      48.543  29.721  27.056  1.00  0.00     0.031 C 
ATOM     58  C   UNL A   1      43.179  31.826  28.955  1.00  0.00     0.029 A 
ATOM     59  C   UNL A   1      44.195  30.991  28.520  1.00  0.00     0.049 A 
ATOM     60  H   UNL A   1      44.139  28.917  28.130  1.00  0.00     0.167 HD
ATOM     61  C   UNL A   1      46.498  30.434  27.800  1.00  0.00     0.074 A 
ATOM     62  C   UNL A   1      47.866  30.780  27.479  1.00  0.00     0.031 C 
ATOM     63  C   UNL A   1      45.562  31.327  28.210  1.00  0.00     0.037 A 
BRANCH  50  64
ATOM     64  C   UNL A   1      40.004  28.815  29.190  1.00  0.00     0.064 A 
ATOM     65  C   UNL A   1      39.019  29.148  28.247  1.00  0.00     0.173 A 
ATOM     66  C   UNL A   1      39.603  28.650  30.525  1.00  0.00     0.173 A 
ATOM     67  F   UNL A   1      39.350  29.330  26.959  1.00  0.00    -0.203 F 
ATOM     68  C   UNL A   1      37.694  29.340  28.632  1.00  0.00     0.198 A 
ATOM     69  C   UNL A   1      38.272  28.809  30.899  1.00  0.00     0.198 A 
ATOM     70  F   UNL A   1      40.502  28.326  31.466  1.00  0.00    -0.203 F 
ATOM     71  F   UNL A   1      36.781  29.712  27.723  1.00  0.00    -0.200 F 
ATOM     72  C   UNL A   1      37.320  29.163  29.955  1.00  0.00     0.200 A 
ATOM     73  F   UNL A   1      37.911  28.621  32.177  1.00  0.00    -0.200 F 
ATOM     74  F   UNL A   1      36.045  29.341  30.323  1.00  0.00    -0.200 F 
ENDBRANCH  50  64
BRANCH  51  75
ATOM     75  C   UNL A   1      49.403  27.001  26.414  1.00  0.00     0.064 A 
ATOM     76  C   UNL A   1      49.741  27.025  25.054  1.00  0.00     0.173 A 
ATOM     77  C   UNL A   1      50.423  26.699  27.331  1.00  0.00     0.173 A 
ATOM     78  F   UNL A   1      48.796  27.274  24.134  1.00  0.00    -0.203 F 
ATOM     79  C   UNL A   1      51.036  26.736  24.626  1.00  0.00     0.198 A 
ATOM     80  C   UNL A   1      51.725  26.443  26.904  1.00  0.00     0.198 A 
ATOM     81  F   UNL A   1      50.153  26.651  28.643  1.00  0.00    -0.203 F 
ATOM     82  F   UNL A   1      51.315  26.707  23.315  1.00  0.00    -0.200 F 
ATOM     83  C   UNL A   1      52.028  26.452  25.551  1.00  0.00     0.200 A 
ATOM     84  F   UNL A   1      52.682  26.178  27.803  1.00  0.00    -0.200 F 
ATOM     85  F   UNL A   1      53.273  26.173  25.139  1.00  0.00    -0.200 F 
ENDBRANCH  51  75
BRANCH  63  86
ATOM     86  C   UNL A   1      45.990  32.759  28.388  1.00  0.00     0.064 A 
ATOM     87  C   UNL A   1      46.517  33.233  29.599  1.00  0.00     0.173 A 
ATOM     88  C   UNL A   1      45.911  33.659  27.314  1.00  0.00     0.173 A 
ATOM     89  F   UNL A   1      46.605  32.418  30.662  1.00  0.00    -0.203 F 
ATOM     90  C   UNL A   1      46.923  34.558  29.734  1.00  0.00     0.198 A 
ATOM     91  C   UNL A   1      46.350  34.975  27.442  1.00  0.00     0.198 A 
ATOM     92  F   UNL A   1      45.424  33.259  26.129  1.00  0.00    -0.203 F 
ATOM     93  F   UNL A   1      47.377  35.001  30.915  1.00  0.00    -0.200 F 
ATOM     94  C   UNL A   1      46.847  35.425  28.655  1.00  0.00     0.200 A 
ATOM     95  F   UNL A   1      46.294  35.804  26.391  1.00  0.00    -0.200 F 
ATOM     96  F   UNL A   1      47.249  36.698  28.785  1.00  0.00    -0.200 F 
ENDBRANCH  63  86
ENDBRANCH  37  38
ENDBRANCH  30  32
ENDBRANCH  29  30
ENDBRANCH  28  29
ENDBRANCH  27  28
ENDBRANCH  26  27
ENDBRANCH  25  26
ENDBRANCH   1  25
TORSDOF 19
ENDMDL
