MODEL 1
REMARK VINA RESULT:     -13.7      0.000      0.000
REMARK SMILES O=C(OCCOCCOCCOC(=O)c1ccc(-c2c3nc(c(-c4c(F)c(F)c(F)c(F)c4F)c4ccc([nH]4)c(-c4c(F)c(F)c(F)c(F)c4F)c4nc(c(-c5c(F)c(F)c(F)c(F)c5F)c5ccc2[nH]5)C=C4)C=C3)cc1)C1=Cc2cc(Cl)cc(-c3ccc(Cl)cc3)c2O[C@@H]1C(F)(F)F
REMARK SMILES IDX 8 1 7 2 6 3 5 4 4 5 3 6 2 7 1 8 78 9 79 10 95 11 80 12 94 13
REMARK SMILES IDX 81 14 93 15 82 16 85 17 83 18 84 19 96 20 97 21 98 22 99 23
REMARK SMILES IDX 86 24 87 25 92 26 88 27 91 28 89 29 90 30 9 31 10 32 11 33
REMARK SMILES IDX 12 34 13 35 14 36 15 37 16 38 77 39 17 40 76 41 18 42 19 43
REMARK SMILES IDX 20 44 70 45 21 46 75 47 69 48 71 49 22 50 74 51 68 52 67 53
REMARK SMILES IDX 23 55 55 56 35 57 54 58 36 59 39 60 53 61 72 62 37 63 38 64
REMARK SMILES IDX 52 66 73 67 40 68 24 69 25 70 33 71 26 72 27 73 31 74 34 75
REMARK SMILES IDX 28 76 29 77 32 78 30 79 56 80 57 81 65 82 58 83 59 84 63 85
REMARK SMILES IDX 66 86 60 87 61 88 64 89 62 90 41 91 42 92 50 93 43 94 44 95
REMARK SMILES IDX 48 96 51 97 45 98 46 99 49 100 47 101
REMARK H PARENT 71 54 39 65
REMARK Flexibility Score: inf
ROOT
ATOM      1  C   UNL A   1      36.722  21.399  24.627  1.00  0.00     0.188 C 
ENDROOT
BRANCH   1   2
ATOM      2  C   UNL A   1      35.543  20.719  25.340  1.00  0.00     0.188 C 
BRANCH   2   3
ATOM      3  O   UNL A   1      34.492  19.877  24.626  1.00  0.00    -0.376 OA
BRANCH   3   4
ATOM      4  C   UNL A   1      32.820  20.356  24.253  1.00  0.00     0.202 C 
BRANCH   4   5
ATOM      5  C   UNL A   1      31.726  21.755  25.512  1.00  0.00     0.261 C 
BRANCH   5   6
ATOM      6  O   UNL A   1      30.784  22.865  25.013  1.00  0.00    -0.460 OA
BRANCH   6   7
ATOM      7  C   UNL A   1      30.817  23.954  25.796  1.00  0.00     0.338 C 
ATOM      8  O   UNL A   1      30.023  24.312  26.631  1.00  0.00    -0.246 OA
BRANCH   7   9
ATOM      9  C   UNL A   1      31.722  24.712  24.955  1.00  0.00     0.087 C 
ATOM     10  C   UNL A   1      31.110  25.565  23.963  1.00  0.00     0.027 C 
ATOM     11  C   UNL A   1      32.798  25.313  26.418  1.00  0.00     0.316 C 
ATOM     12  C   UNL A   1      30.996  27.338  24.116  1.00  0.00     0.019 A 
ATOM     13  O   UNL A   1      32.551  27.250  26.701  1.00  0.00    -0.475 OA
ATOM     14  C   UNL A   1      30.205  27.975  23.193  1.00  0.00     0.032 A 
ATOM     15  C   UNL A   1      31.625  28.228  25.461  1.00  0.00     0.135 A 
ATOM     16  C   UNL A   1      30.023  29.340  23.403  1.00  0.00     0.042 A 
ATOM     17  C   UNL A   1      31.445  29.602  25.546  1.00  0.00     0.026 A 
ATOM     18  Cl  UNL A   1      29.008  30.191  22.288  1.00  0.00    -0.084 Cl
ATOM     19  C   UNL A   1      30.617  30.092  24.480  1.00  0.00     0.033 A 
BRANCH  11  20
ATOM     20  C   UNL A   1      34.133  24.374  25.836  1.00  0.00     0.430 C 
ATOM     21  F   UNL A   1      34.034  23.609  24.737  1.00  0.00    -0.167 F 
ATOM     22  F   UNL A   1      35.197  25.198  25.650  1.00  0.00    -0.167 F 
ATOM     23  F   UNL A   1      34.559  23.474  26.781  1.00  0.00    -0.167 F 
ENDBRANCH  11  20
BRANCH  17  24
ATOM     24  C   UNL A   1      31.992  30.643  26.412  1.00  0.00    -0.015 A 
ATOM     25  C   UNL A   1      31.403  31.911  26.501  1.00  0.00     0.010 A 
ATOM     26  C   UNL A   1      33.300  30.498  26.928  1.00  0.00     0.010 A 
ATOM     27  C   UNL A   1      32.050  32.961  27.170  1.00  0.00     0.021 A 
ATOM     28  C   UNL A   1      33.935  31.534  27.626  1.00  0.00     0.021 A 
ATOM     29  C   UNL A   1      33.295  32.758  27.762  1.00  0.00     0.041 A 
ATOM     30  Cl  UNL A   1      34.049  34.023  28.650  1.00  0.00    -0.084 Cl
ENDBRANCH  17  24
ENDBRANCH   7   9
ENDBRANCH   6   7
ENDBRANCH   5   6
ENDBRANCH   4   5
ENDBRANCH   3   4
ENDBRANCH   2   3
ENDBRANCH   1   2
BRANCH   1  31
ATOM     31  O   UNL A   1      38.025  21.106  25.044  1.00  0.00    -0.376 OA
BRANCH  31  32
ATOM     32  C   UNL A   1      38.303  19.728  25.163  1.00  0.00     0.202 C 
BRANCH  32  33
ATOM     33  C   UNL A   1      39.641  19.270  25.748  1.00  0.00     0.261 C 
BRANCH  33  34
ATOM     34  O   UNL A   1      40.036  19.961  26.943  1.00  0.00    -0.460 OA
BRANCH  34  35
ATOM     35  C   UNL A   1      41.328  20.356  27.002  1.00  0.00     0.338 C 
ATOM     36  O   UNL A   1      42.321  19.729  26.679  1.00  0.00    -0.246 OA
BRANCH  35  37
ATOM     37  C   UNL A   1      41.357  21.784  27.363  1.00  0.00     0.060 A 
ATOM     38  C   UNL A   1      40.627  22.710  26.601  1.00  0.00     0.016 A 
ATOM     39  C   UNL A   1      42.160  22.201  28.421  1.00  0.00     0.016 A 
ATOM     40  C   UNL A   1      40.691  24.066  26.906  1.00  0.00     0.010 A 
ATOM     41  C   UNL A   1      42.265  23.563  28.693  1.00  0.00     0.010 A 
ATOM     42  C   UNL A   1      41.552  24.497  27.919  1.00  0.00    -0.014 A 
BRANCH  42  43
ATOM     43  C   UNL A   1      41.921  25.925  27.992  1.00  0.00     0.031 A 
ATOM     44  C   UNL A   1      43.229  26.331  27.377  1.00  0.00     0.074 A 
ATOM     45  C   UNL A   1      41.126  26.824  28.591  1.00  0.00     0.049 A 
ATOM     46  N   UNL A   1      43.825  27.494  27.376  1.00  0.00    -0.248 NA
ATOM     47  C   UNL A   1      43.971  25.272  26.670  1.00  0.00     0.031 C 
ATOM     48  C   UNL A   1      39.817  26.540  29.173  1.00  0.00     0.029 A 
ATOM     49  N   UNL A   1      41.319  28.162  28.819  1.00  0.00    -0.354 N 
ATOM     50  C   UNL A   1      45.008  27.304  26.678  1.00  0.00     0.074 A 
ATOM     51  C   UNL A   1      45.067  25.911  26.298  1.00  0.00     0.031 C 
ATOM     52  C   UNL A   1      39.329  27.672  29.712  1.00  0.00     0.029 A 
ATOM     53  C   UNL A   1      40.309  28.745  29.543  1.00  0.00     0.049 A 
ATOM     54  H   UNL A   1      42.106  28.657  28.494  1.00  0.00     0.167 HD
ATOM     55  C   UNL A   1      45.960  28.217  26.376  1.00  0.00     0.037 A 
ATOM     56  C   UNL A   1      40.213  29.995  30.034  1.00  0.00     0.037 A 
ATOM     57  C   UNL A   1      45.900  29.593  26.787  1.00  0.00     0.049 A 
ATOM     58  C   UNL A   1      41.336  30.971  29.770  1.00  0.00     0.074 A 
ATOM     59  C   UNL A   1      46.807  30.607  26.540  1.00  0.00     0.029 A 
ATOM     60  N   UNL A   1      44.879  30.143  27.551  1.00  0.00    -0.354 N 
ATOM     61  N   UNL A   1      42.443  30.800  29.086  1.00  0.00    -0.248 NA
ATOM     62  C   UNL A   1      41.195  32.315  30.346  1.00  0.00     0.031 C 
ATOM     63  C   UNL A   1      46.373  31.750  27.217  1.00  0.00     0.029 A 
ATOM     64  C   UNL A   1      45.152  31.475  27.814  1.00  0.00     0.049 A 
ATOM     65  H   UNL A   1      44.080  29.658  27.860  1.00  0.00     0.167 HD
ATOM     66  C   UNL A   1      43.108  32.020  29.118  1.00  0.00     0.074 A 
ATOM     67  C   UNL A   1      42.274  32.927  29.878  1.00  0.00     0.031 C 
ATOM     68  C   UNL A   1      44.301  32.362  28.567  1.00  0.00     0.037 A 
BRANCH  55  69
ATOM     69  C   UNL A   1      47.159  27.740  25.610  1.00  0.00     0.064 A 
ATOM     70  C   UNL A   1      47.201  27.767  24.207  1.00  0.00     0.173 A 
ATOM     71  C   UNL A   1      48.287  27.256  26.290  1.00  0.00     0.173 A 
ATOM     72  F   UNL A   1      46.143  28.203  23.507  1.00  0.00    -0.203 F 
ATOM     73  C   UNL A   1      48.313  27.298  23.514  1.00  0.00     0.198 A 
ATOM     74  C   UNL A   1      49.413  26.824  25.595  1.00  0.00     0.198 A 
ATOM     75  F   UNL A   1      48.300  27.205  27.630  1.00  0.00    -0.203 F 
ATOM     76  F   UNL A   1      48.307  27.277  22.174  1.00  0.00    -0.200 F 
ATOM     77  C   UNL A   1      49.421  26.835  24.208  1.00  0.00     0.200 A 
ATOM     78  F   UNL A   1      50.488  26.391  26.268  1.00  0.00    -0.200 F 
ATOM     79  F   UNL A   1      50.496  26.391  23.540  1.00  0.00    -0.200 F 
ENDBRANCH  55  69
BRANCH  56  80
ATOM     80  C   UNL A   1      39.026  30.398  30.835  1.00  0.00     0.064 A 
ATOM     81  C   UNL A   1      37.899  30.965  30.224  1.00  0.00     0.173 A 
ATOM     82  C   UNL A   1      39.002  30.250  32.231  1.00  0.00     0.173 A 
ATOM     83  F   UNL A   1      37.880  31.154  28.897  1.00  0.00    -0.203 F 
ATOM     84  C   UNL A   1      36.808  31.395  30.979  1.00  0.00     0.198 A 
ATOM     85  C   UNL A   1      37.896  30.646  32.980  1.00  0.00     0.198 A 
ATOM     86  F   UNL A   1      40.055  29.719  32.870  1.00  0.00    -0.203 F 
ATOM     87  F   UNL A   1      35.772  31.992  30.374  1.00  0.00    -0.200 F 
ATOM     88  C   UNL A   1      36.805  31.229  32.356  1.00  0.00     0.200 A 
ATOM     89  F   UNL A   1      37.893  30.473  34.309  1.00  0.00    -0.200 F 
ATOM     90  F   UNL A   1      35.757  31.642  33.080  1.00  0.00    -0.200 F 
ENDBRANCH  56  80
BRANCH  68  91
ATOM     91  C   UNL A   1      44.754  33.788  28.720  1.00  0.00     0.064 A 
ATOM     92  C   UNL A   1      44.395  34.786  27.803  1.00  0.00     0.173 A 
ATOM     93  C   UNL A   1      45.514  34.169  29.839  1.00  0.00     0.173 A 
ATOM     94  F   UNL A   1      43.679  34.476  26.712  1.00  0.00    -0.203 F 
ATOM     95  C   UNL A   1      44.804  36.104  27.983  1.00  0.00     0.198 A 
ATOM     96  C   UNL A   1      45.886  35.495  30.037  1.00  0.00     0.198 A 
ATOM     97  F   UNL A   1      45.875  33.257  30.755  1.00  0.00    -0.203 F 
ATOM     98  F   UNL A   1      44.497  37.031  27.064  1.00  0.00    -0.200 F 
ATOM     99  C   UNL A   1      45.540  36.460  29.105  1.00  0.00     0.200 A 
ATOM    100  F   UNL A   1      46.575  35.839  31.134  1.00  0.00    -0.200 F 
ATOM    101  F   UNL A   1      45.920  37.733  29.284  1.00  0.00    -0.200 F 
ENDBRANCH  68  91
ENDBRANCH  42  43
ENDBRANCH  35  37
ENDBRANCH  34  35
ENDBRANCH  33  34
ENDBRANCH  32  33
ENDBRANCH  31  32
ENDBRANCH   1  31
TORSDOF 19
ENDMDL
MODEL 2
REMARK VINA RESULT:     -13.2      5.050     10.900
REMARK SMILES O=C(OCCOCCOCCOC(=O)c1ccc(-c2c3nc(c(-c4c(F)c(F)c(F)c(F)c4F)c4ccc([nH]4)c(-c4c(F)c(F)c(F)c(F)c4F)c4nc(c(-c5c(F)c(F)c(F)c(F)c5F)c5ccc2[nH]5)C=C4)C=C3)cc1)C1=Cc2cc(Cl)cc(-c3ccc(Cl)cc3)c2O[C@@H]1C(F)(F)F
REMARK SMILES IDX 8 1 7 2 6 3 5 4 4 5 3 6 2 7 1 8 78 9 79 10 95 11 80 12 94 13
REMARK SMILES IDX 81 14 93 15 82 16 85 17 83 18 84 19 96 20 97 21 98 22 99 23
REMARK SMILES IDX 86 24 87 25 92 26 88 27 91 28 89 29 90 30 9 31 10 32 11 33
REMARK SMILES IDX 12 34 13 35 14 36 15 37 16 38 77 39 17 40 76 41 18 42 19 43
REMARK SMILES IDX 20 44 70 45 21 46 75 47 69 48 71 49 22 50 74 51 68 52 67 53
REMARK SMILES IDX 23 55 55 56 35 57 54 58 36 59 39 60 53 61 72 62 37 63 38 64
REMARK SMILES IDX 52 66 73 67 40 68 24 69 25 70 33 71 26 72 27 73 31 74 34 75
REMARK SMILES IDX 28 76 29 77 32 78 30 79 56 80 57 81 65 82 58 83 59 84 63 85
REMARK SMILES IDX 66 86 60 87 61 88 64 89 62 90 41 91 42 92 50 93 43 94 44 95
REMARK SMILES IDX 48 96 51 97 45 98 46 99 49 100 47 101
REMARK H PARENT 71 54 39 65
REMARK Flexibility Score: inf
ROOT
ATOM      1  C   UNL A   1      31.780  30.580  26.987  1.00  0.00     0.188 C 
ENDROOT
BRANCH   1   2
ATOM      2  C   UNL A   1      31.326  30.446  25.525  1.00  0.00     0.188 C 
BRANCH   2   3
ATOM      3  O   UNL A   1      30.254  31.322  24.887  1.00  0.00    -0.376 OA
BRANCH   3   4
ATOM      4  C   UNL A   1      29.223  30.901  23.501  1.00  0.00     0.202 C 
BRANCH   4   5
ATOM      5  C   UNL A   1      29.791  29.346  22.086  1.00  0.00     0.261 C 
BRANCH   5   6
ATOM      6  O   UNL A   1      29.835  27.836  22.380  1.00  0.00    -0.460 OA
BRANCH   6   7
ATOM      7  C   UNL A   1      31.034  27.297  22.110  1.00  0.00     0.338 C 
ATOM      8  O   UNL A   1      31.353  26.580  21.194  1.00  0.00    -0.246 OA
BRANCH   7   9
ATOM      9  C   UNL A   1      31.552  27.408  23.459  1.00  0.00     0.087 C 
ATOM     10  C   UNL A   1      30.781  26.760  24.495  1.00  0.00     0.027 C 
ATOM     11  C   UNL A   1      33.339  26.946  22.959  1.00  0.00     0.316 C 
ATOM     12  C   UNL A   1      31.251  25.222  25.264  1.00  0.00     0.019 A 
ATOM     13  O   UNL A   1      33.813  25.167  23.668  1.00  0.00    -0.475 OA
ATOM     14  C   UNL A   1      30.310  24.639  26.075  1.00  0.00     0.032 A 
ATOM     15  C   UNL A   1      32.693  24.351  24.866  1.00  0.00     0.135 A 
ATOM     16  C   UNL A   1      30.643  23.378  26.565  1.00  0.00     0.042 A 
ATOM     17  C   UNL A   1      32.966  23.126  25.460  1.00  0.00     0.026 A 
ATOM     18  Cl  UNL A   1      29.480  22.579  27.569  1.00  0.00    -0.084 Cl
ATOM     19  C   UNL A   1      31.882  22.692  26.295  1.00  0.00     0.033 A 
BRANCH  11  20
ATOM     20  C   UNL A   1      33.874  28.546  23.353  1.00  0.00     0.430 C 
ATOM     21  F   UNL A   1      33.195  29.635  22.961  1.00  0.00    -0.167 F 
ATOM     22  F   UNL A   1      34.024  28.635  24.700  1.00  0.00    -0.167 F 
ATOM     23  F   UNL A   1      35.129  28.789  22.853  1.00  0.00    -0.167 F 
ENDBRANCH  11  20
BRANCH  17  24
ATOM     24  C   UNL A   1      34.139  22.255  25.493  1.00  0.00    -0.015 A 
ATOM     25  C   UNL A   1      35.433  22.770  25.640  1.00  0.00     0.010 A 
ATOM     26  C   UNL A   1      34.019  20.916  25.058  1.00  0.00     0.010 A 
ATOM     27  C   UNL A   1      36.559  21.951  25.462  1.00  0.00     0.021 A 
ATOM     28  C   UNL A   1      35.138  20.086  24.912  1.00  0.00     0.021 A 
ATOM     29  C   UNL A   1      36.406  20.605  25.137  1.00  0.00     0.041 A 
ATOM     30  Cl  UNL A   1      37.784  19.585  25.000  1.00  0.00    -0.084 Cl
ENDBRANCH  17  24
ENDBRANCH   7   9
ENDBRANCH   6   7
ENDBRANCH   5   6
ENDBRANCH   4   5
ENDBRANCH   3   4
ENDBRANCH   2   3
ENDBRANCH   1   2
BRANCH   1  31
ATOM     31  O   UNL A   1      33.147  30.694  27.263  1.00  0.00    -0.376 OA
BRANCH  31  32
ATOM     32  C   UNL A   1      33.580  32.010  27.532  1.00  0.00     0.202 C 
BRANCH  32  33
ATOM     33  C   UNL A   1      32.554  33.143  27.626  1.00  0.00     0.261 C 
BRANCH  33  34
ATOM     34  O   UNL A   1      33.121  34.462  27.592  1.00  0.00    -0.460 OA
BRANCH  34  35
ATOM     35  C   UNL A   1      33.141  35.132  28.767  1.00  0.00     0.338 C 
ATOM     36  O   UNL A   1      32.310  35.909  29.203  1.00  0.00    -0.246 OA
BRANCH  35  37
ATOM     37  C   UNL A   1      34.274  34.632  29.563  1.00  0.00     0.060 A 
ATOM     38  C   UNL A   1      35.573  34.683  29.035  1.00  0.00     0.016 A 
ATOM     39  C   UNL A   1      34.028  34.058  30.808  1.00  0.00     0.016 A 
ATOM     40  C   UNL A   1      36.641  34.165  29.762  1.00  0.00     0.010 A 
ATOM     41  C   UNL A   1      35.088  33.493  31.512  1.00  0.00     0.010 A 
ATOM     42  C   UNL A   1      36.390  33.522  30.978  1.00  0.00    -0.014 A 
BRANCH  42  43
ATOM     43  C   UNL A   1      37.426  32.645  31.557  1.00  0.00     0.031 A 
ATOM     44  C   UNL A   1      37.925  32.983  32.932  1.00  0.00     0.074 A 
ATOM     45  C   UNL A   1      37.910  31.592  30.881  1.00  0.00     0.049 A 
ATOM     46  N   UNL A   1      38.883  32.432  33.630  1.00  0.00    -0.248 NA
ATOM     47  C   UNL A   1      37.254  34.107  33.608  1.00  0.00     0.031 C 
ATOM     48  C   UNL A   1      37.457  31.151  29.565  1.00  0.00     0.029 A 
ATOM     49  N   UNL A   1      38.907  30.710  31.213  1.00  0.00    -0.354 N 
ATOM     50  C   UNL A   1      38.930  33.144  34.820  1.00  0.00     0.074 A 
ATOM     51  C   UNL A   1      37.934  34.187  34.740  1.00  0.00     0.031 C 
ATOM     52  C   UNL A   1      38.191  30.088  29.189  1.00  0.00     0.029 A 
ATOM     53  C   UNL A   1      39.186  29.802  30.223  1.00  0.00     0.049 A 
ATOM     54  H   UNL A   1      39.378  30.728  32.078  1.00  0.00     0.167 HD
ATOM     55  C   UNL A   1      39.735  32.939  35.888  1.00  0.00     0.037 A 
ATOM     56  C   UNL A   1      40.156  28.870  30.158  1.00  0.00     0.037 A 
ATOM     57  C   UNL A   1      40.742  31.914  35.940  1.00  0.00     0.049 A 
ATOM     58  C   UNL A   1      41.107  28.725  31.323  1.00  0.00     0.074 A 
ATOM     59  C   UNL A   1      41.615  31.615  36.969  1.00  0.00     0.029 A 
ATOM     60  N   UNL A   1      41.021  31.032  34.905  1.00  0.00    -0.354 N 
ATOM     61  N   UNL A   1      41.136  29.380  32.460  1.00  0.00    -0.248 NA
ATOM     62  C   UNL A   1      42.162  27.710  31.195  1.00  0.00     0.031 C 
ATOM     63  C   UNL A   1      42.472  30.602  36.529  1.00  0.00     0.029 A 
ATOM     64  C   UNL A   1      42.079  30.211  35.259  1.00  0.00     0.049 A 
ATOM     65  H   UNL A   1      40.540  30.996  34.047  1.00  0.00     0.167 HD
ATOM     66  C   UNL A   1      42.181  28.832  33.194  1.00  0.00     0.074 A 
ATOM     67  C   UNL A   1      42.755  27.783  32.378  1.00  0.00     0.031 C 
ATOM     68  C   UNL A   1      42.628  29.165  34.432  1.00  0.00     0.037 A 
BRANCH  55  69
ATOM     69  C   UNL A   1      39.586  33.870  37.056  1.00  0.00     0.064 A 
ATOM     70  C   UNL A   1      40.224  35.120  37.094  1.00  0.00     0.173 A 
ATOM     71  C   UNL A   1      38.784  33.510  38.150  1.00  0.00     0.173 A 
ATOM     72  F   UNL A   1      41.017  35.505  36.082  1.00  0.00    -0.203 F 
ATOM     73  C   UNL A   1      40.093  35.958  38.197  1.00  0.00     0.198 A 
ATOM     74  C   UNL A   1      38.624  34.368  39.235  1.00  0.00     0.198 A 
ATOM     75  F   UNL A   1      38.153  32.327  38.167  1.00  0.00    -0.203 F 
ATOM     76  F   UNL A   1      40.760  37.120  38.238  1.00  0.00    -0.200 F 
ATOM     77  C   UNL A   1      39.286  35.586  39.262  1.00  0.00     0.200 A 
ATOM     78  F   UNL A   1      37.832  34.013  40.256  1.00  0.00    -0.200 F 
ATOM     79  F   UNL A   1      39.152  36.398  40.320  1.00  0.00    -0.200 F 
ENDBRANCH  55  69
BRANCH  56  80
ATOM     80  C   UNL A   1      40.292  28.011  28.951  1.00  0.00     0.064 A 
ATOM     81  C   UNL A   1      39.652  26.766  28.872  1.00  0.00     0.173 A 
ATOM     82  C   UNL A   1      41.085  28.403  27.862  1.00  0.00     0.173 A 
ATOM     83  F   UNL A   1      38.904  26.332  29.897  1.00  0.00    -0.203 F 
ATOM     84  C   UNL A   1      39.823  25.934  27.766  1.00  0.00     0.198 A 
ATOM     85  C   UNL A   1      41.226  27.587  26.741  1.00  0.00     0.198 A 
ATOM     86  F   UNL A   1      41.725  29.581  27.884  1.00  0.00    -0.203 F 
ATOM     87  F   UNL A   1      39.251  24.723  27.747  1.00  0.00    -0.200 F 
ATOM     88  C   UNL A   1      40.605  26.349  26.698  1.00  0.00     0.200 A 
ATOM     89  F   UNL A   1      41.973  27.997  25.706  1.00  0.00    -0.200 F 
ATOM     90  F   UNL A   1      40.769  25.550  25.636  1.00  0.00    -0.200 F 
ENDBRANCH  56  80
BRANCH  68  91
ATOM     91  C   UNL A   1      43.758  28.355  35.004  1.00  0.00     0.064 A 
ATOM     92  C   UNL A   1      45.097  28.756  34.884  1.00  0.00     0.173 A 
ATOM     93  C   UNL A   1      43.488  27.187  35.737  1.00  0.00     0.173 A 
ATOM     94  F   UNL A   1      45.412  29.858  34.188  1.00  0.00    -0.203 F 
ATOM     95  C   UNL A   1      46.123  28.003  35.447  1.00  0.00     0.198 A 
ATOM     96  C   UNL A   1      44.514  26.459  36.333  1.00  0.00     0.198 A 
ATOM     97  F   UNL A   1      42.225  26.763  35.894  1.00  0.00    -0.203 F 
ATOM     98  F   UNL A   1      47.399  28.376  35.272  1.00  0.00    -0.200 F 
ATOM     99  C   UNL A   1      45.830  26.862  36.180  1.00  0.00     0.200 A 
ATOM    100  F   UNL A   1      44.225  25.371  37.061  1.00  0.00    -0.200 F 
ATOM    101  F   UNL A   1      46.820  26.146  36.734  1.00  0.00    -0.200 F 
ENDBRANCH  68  91
ENDBRANCH  42  43
ENDBRANCH  35  37
ENDBRANCH  34  35
ENDBRANCH  33  34
ENDBRANCH  32  33
ENDBRANCH  31  32
ENDBRANCH   1  31
TORSDOF 19
ENDMDL
MODEL 3
REMARK VINA RESULT:     -13.2      4.870     10.892
REMARK SMILES O=C(OCCOCCOCCOC(=O)c1ccc(-c2c3nc(c(-c4c(F)c(F)c(F)c(F)c4F)c4ccc([nH]4)c(-c4c(F)c(F)c(F)c(F)c4F)c4nc(c(-c5c(F)c(F)c(F)c(F)c5F)c5ccc2[nH]5)C=C4)C=C3)cc1)C1=Cc2cc(Cl)cc(-c3ccc(Cl)cc3)c2O[C@@H]1C(F)(F)F
REMARK SMILES IDX 8 1 7 2 6 3 5 4 4 5 3 6 2 7 1 8 78 9 79 10 95 11 80 12 94 13
REMARK SMILES IDX 81 14 93 15 82 16 85 17 83 18 84 19 96 20 97 21 98 22 99 23
REMARK SMILES IDX 86 24 87 25 92 26 88 27 91 28 89 29 90 30 9 31 10 32 11 33
REMARK SMILES IDX 12 34 13 35 14 36 15 37 16 38 77 39 17 40 76 41 18 42 19 43
REMARK SMILES IDX 20 44 70 45 21 46 75 47 69 48 71 49 22 50 74 51 68 52 67 53
REMARK SMILES IDX 23 55 55 56 35 57 54 58 36 59 39 60 53 61 72 62 37 63 38 64
REMARK SMILES IDX 52 66 73 67 40 68 24 69 25 70 33 71 26 72 27 73 31 74 34 75
REMARK SMILES IDX 28 76 29 77 32 78 30 79 56 80 57 81 65 82 58 83 59 84 63 85
REMARK SMILES IDX 66 86 60 87 61 88 64 89 62 90 41 91 42 92 50 93 43 94 44 95
REMARK SMILES IDX 48 96 51 97 45 98 46 99 49 100 47 101
REMARK H PARENT 71 54 39 65
REMARK Flexibility Score: inf
ROOT
ATOM      1  C   UNL A   1      31.814  30.051  26.545  1.00  0.00     0.188 C 
ENDROOT
BRANCH   1   2
ATOM      2  C   UNL A   1      31.719  30.049  25.011  1.00  0.00     0.188 C 
BRANCH   2   3
ATOM      3  O   UNL A   1      30.402  29.991  24.244  1.00  0.00    -0.376 OA
BRANCH   3   4
ATOM      4  C   UNL A   1      29.786  28.621  23.293  1.00  0.00     0.202 C 
BRANCH   4   5
ATOM      5  C   UNL A   1      31.129  27.195  22.342  1.00  0.00     0.261 C 
BRANCH   5   6
ATOM      6  O   UNL A   1      31.103  25.669  22.535  1.00  0.00    -0.460 OA
BRANCH   6   7
ATOM      7  C   UNL A   1      32.325  25.121  22.448  1.00  0.00     0.338 C 
ATOM      8  O   UNL A   1      32.907  24.720  21.471  1.00  0.00    -0.246 OA
BRANCH   7   9
ATOM      9  C   UNL A   1      32.404  24.717  23.838  1.00  0.00     0.087 C 
ATOM     10  C   UNL A   1      31.962  23.376  24.140  1.00  0.00     0.027 C 
ATOM     11  C   UNL A   1      34.186  25.372  24.070  1.00  0.00     0.316 C 
ATOM     12  C   UNL A   1      33.069  22.021  24.483  1.00  0.00     0.019 A 
ATOM     13  O   UNL A   1      35.447  23.870  24.286  1.00  0.00    -0.475 OA
ATOM     14  C   UNL A   1      32.499  20.775  24.543  1.00  0.00     0.032 A 
ATOM     15  C   UNL A   1      34.793  22.174  24.510  1.00  0.00     0.135 A 
ATOM     16  C   UNL A   1      33.393  19.716  24.684  1.00  0.00     0.042 A 
ATOM     17  C   UNL A   1      35.598  21.064  24.723  1.00  0.00     0.026 A 
ATOM     18  Cl  UNL A   1      32.734  18.115  24.734  1.00  0.00    -0.084 Cl
ATOM     19  C   UNL A   1      34.824  19.856  24.788  1.00  0.00     0.033 A 
BRANCH  11  20
ATOM     20  C   UNL A   1      33.609  26.585  25.164  1.00  0.00     0.430 C 
ATOM     21  F   UNL A   1      32.303  26.875  25.275  1.00  0.00    -0.167 F 
ATOM     22  F   UNL A   1      34.056  26.293  26.413  1.00  0.00    -0.167 F 
ATOM     23  F   UNL A   1      34.157  27.812  24.884  1.00  0.00    -0.167 F 
ENDBRANCH  11  20
BRANCH  17  24
ATOM     24  C   UNL A   1      37.023  20.882  24.988  1.00  0.00    -0.015 A 
ATOM     25  C   UNL A   1      37.618  19.614  24.977  1.00  0.00     0.010 A 
ATOM     26  C   UNL A   1      37.759  21.937  25.573  1.00  0.00     0.010 A 
ATOM     27  C   UNL A   1      38.931  19.429  25.435  1.00  0.00     0.021 A 
ATOM     28  C   UNL A   1      39.082  21.765  25.999  1.00  0.00     0.021 A 
ATOM     29  C   UNL A   1      39.670  20.511  25.908  1.00  0.00     0.041 A 
ATOM     30  Cl  UNL A   1      41.307  20.297  26.391  1.00  0.00    -0.084 Cl
ENDBRANCH  17  24
ENDBRANCH   7   9
ENDBRANCH   6   7
ENDBRANCH   5   6
ENDBRANCH   4   5
ENDBRANCH   3   4
ENDBRANCH   2   3
ENDBRANCH   1   2
BRANCH   1  31
ATOM     31  O   UNL A   1      33.076  30.130  27.144  1.00  0.00    -0.376 OA
BRANCH  31  32
ATOM     32  C   UNL A   1      33.552  31.445  27.329  1.00  0.00     0.202 C 
BRANCH  32  33
ATOM     33  C   UNL A   1      32.637  32.506  27.947  1.00  0.00     0.261 C 
BRANCH  33  34
ATOM     34  O   UNL A   1      32.901  33.847  27.509  1.00  0.00    -0.460 OA
BRANCH  34  35
ATOM     35  C   UNL A   1      33.141  34.755  28.483  1.00  0.00     0.338 C 
ATOM     36  O   UNL A   1      32.463  35.717  28.796  1.00  0.00    -0.246 OA
BRANCH  35  37
ATOM     37  C   UNL A   1      34.298  34.294  29.267  1.00  0.00     0.060 A 
ATOM     38  C   UNL A   1      35.591  34.400  28.730  1.00  0.00     0.016 A 
ATOM     39  C   UNL A   1      34.085  33.702  30.509  1.00  0.00     0.016 A 
ATOM     40  C   UNL A   1      36.684  33.919  29.445  1.00  0.00     0.010 A 
ATOM     41  C   UNL A   1      35.172  33.174  31.202  1.00  0.00     0.010 A 
ATOM     42  C   UNL A   1      36.467  33.258  30.658  1.00  0.00    -0.014 A 
BRANCH  42  43
ATOM     43  C   UNL A   1      37.542  32.418  31.223  1.00  0.00     0.031 A 
ATOM     44  C   UNL A   1      38.029  32.759  32.601  1.00  0.00     0.074 A 
ATOM     45  C   UNL A   1      38.070  31.397  30.531  1.00  0.00     0.049 A 
ATOM     46  N   UNL A   1      39.011  32.239  33.290  1.00  0.00    -0.248 NA
ATOM     47  C   UNL A   1      37.312  33.843  33.295  1.00  0.00     0.031 C 
ATOM     48  C   UNL A   1      37.633  30.956  29.210  1.00  0.00     0.029 A 
ATOM     49  N   UNL A   1      39.104  30.555  30.849  1.00  0.00    -0.354 N 
ATOM     50  C   UNL A   1      39.031  32.936  34.490  1.00  0.00     0.074 A 
ATOM     51  C   UNL A   1      37.990  33.937  34.426  1.00  0.00     0.031 C 
ATOM     52  C   UNL A   1      38.411  29.930  28.818  1.00  0.00     0.029 A 
ATOM     53  C   UNL A   1      39.419  29.673  29.846  1.00  0.00     0.049 A 
ATOM     54  H   UNL A   1      39.575  30.580  31.713  1.00  0.00     0.167 HD
ATOM     55  C   UNL A   1      39.846  32.751  35.554  1.00  0.00     0.037 A 
ATOM     56  C   UNL A   1      40.428  28.785  29.766  1.00  0.00     0.037 A 
ATOM     57  C   UNL A   1      40.896  31.769  35.590  1.00  0.00     0.049 A 
ATOM     58  C   UNL A   1      41.387  28.665  30.927  1.00  0.00     0.074 A 
ATOM     59  C   UNL A   1      41.783  31.494  36.613  1.00  0.00     0.029 A 
ATOM     60  N   UNL A   1      41.211  30.915  34.542  1.00  0.00    -0.354 N 
ATOM     61  N   UNL A   1      41.390  29.304  32.073  1.00  0.00    -0.248 NA
ATOM     62  C   UNL A   1      42.485  27.698  30.783  1.00  0.00     0.031 C 
ATOM     63  C   UNL A   1      42.683  30.525  36.157  1.00  0.00     0.029 A 
ATOM     64  C   UNL A   1      42.304  30.135  34.882  1.00  0.00     0.049 A 
ATOM     65  H   UNL A   1      40.730  30.871  33.684  1.00  0.00     0.167 HD
ATOM     66  C   UNL A   1      42.460  28.791  32.797  1.00  0.00     0.074 A 
ATOM     67  C   UNL A   1      43.077  27.779  31.966  1.00  0.00     0.031 C 
ATOM     68  C   UNL A   1      42.895  29.125  34.040  1.00  0.00     0.037 A 
BRANCH  55  69
ATOM     69  C   UNL A   1      39.660  33.657  36.735  1.00  0.00     0.064 A 
ATOM     70  C   UNL A   1      38.856  33.296  37.828  1.00  0.00     0.173 A 
ATOM     71  C   UNL A   1      40.302  34.904  36.779  1.00  0.00     0.173 A 
ATOM     72  F   UNL A   1      38.204  32.123  37.829  1.00  0.00    -0.203 F 
ATOM     73  C   UNL A   1      38.677  34.162  38.903  1.00  0.00     0.198 A 
ATOM     74  C   UNL A   1      40.152  35.751  37.873  1.00  0.00     0.198 A 
ATOM     75  F   UNL A   1      41.079  35.301  35.761  1.00  0.00    -0.203 F 
ATOM     76  F   UNL A   1      37.856  33.821  39.907  1.00  0.00    -0.200 F 
ATOM     77  C   UNL A   1      39.331  35.384  38.929  1.00  0.00     0.200 A 
ATOM     78  F   UNL A   1      40.797  36.925  37.903  1.00  0.00    -0.200 F 
ATOM     79  F   UNL A   1      39.165  36.213  39.969  1.00  0.00    -0.200 F 
ENDBRANCH  55  69
BRANCH  56  80
ATOM     80  C   UNL A   1      40.598  27.950  28.547  1.00  0.00     0.064 A 
ATOM     81  C   UNL A   1      40.022  26.674  28.456  1.00  0.00     0.173 A 
ATOM     82  C   UNL A   1      41.363  28.395  27.457  1.00  0.00     0.173 A 
ATOM     83  F   UNL A   1      39.304  26.190  29.480  1.00  0.00    -0.203 F 
ATOM     84  C   UNL A   1      40.226  25.867  27.337  1.00  0.00     0.198 A 
ATOM     85  C   UNL A   1      41.536  27.602  26.324  1.00  0.00     0.198 A 
ATOM     86  F   UNL A   1      41.942  29.603  27.491  1.00  0.00    -0.203 F 
ATOM     87  F   UNL A   1      39.715  24.629  27.306  1.00  0.00    -0.200 F 
ATOM     88  C   UNL A   1      40.978  26.334  26.270  1.00  0.00     0.200 A 
ATOM     89  F   UNL A   1      42.253  28.062  25.290  1.00  0.00    -0.200 F 
ATOM     90  F   UNL A   1      41.174  25.559  25.196  1.00  0.00    -0.200 F 
ENDBRANCH  56  80
BRANCH  68  91
ATOM     91  C   UNL A   1      44.061  28.357  34.598  1.00  0.00     0.064 A 
ATOM     92  C   UNL A   1      45.385  28.785  34.428  1.00  0.00     0.173 A 
ATOM     93  C   UNL A   1      43.840  27.202  35.368  1.00  0.00     0.173 A 
ATOM     94  F   UNL A   1      45.654  29.876  33.694  1.00  0.00    -0.203 F 
ATOM     95  C   UNL A   1      46.445  28.071  34.979  1.00  0.00     0.198 A 
ATOM     96  C   UNL A   1      44.899  26.515  35.952  1.00  0.00     0.198 A 
ATOM     97  F   UNL A   1      42.592  26.754  35.574  1.00  0.00    -0.203 F 
ATOM     98  F   UNL A   1      47.706  28.468  34.756  1.00  0.00    -0.200 F 
ATOM     99  C   UNL A   1      46.201  26.943  35.749  1.00  0.00     0.200 A 
ATOM    100  F   UNL A   1      44.658  25.440  36.716  1.00  0.00    -0.200 F 
ATOM    101  F   UNL A   1      47.223  26.265  36.292  1.00  0.00    -0.200 F 
ENDBRANCH  68  91
ENDBRANCH  42  43
ENDBRANCH  35  37
ENDBRANCH  34  35
ENDBRANCH  33  34
ENDBRANCH  32  33
ENDBRANCH  31  32
ENDBRANCH   1  31
TORSDOF 19
ENDMDL
