MODEL 1
REMARK VINA RESULT:     -11.2      0.000      0.000
REMARK SMILES Cc1cc(N2CC[NH+]([C@@H](C(=O)OCCOCCOCCOC(=O)c3ccc(-c4c5nc(c(-c6c(F)c(F)c(F)c(F)c6F)c6ccc([nH]6)c(-c6c(F)c(F)c(F)c(F)c6F)c6nc(c(-c7c(F)c(F)c(F)c(F)c7F)c7ccc4[nH]7)C=C6)C=C5)cc3)c3c[nH]c4ccccc34)CC2)nc2ccccc12
REMARK SMILES IDX 16 1 15 2 14 3 13 4 12 5 10 6 11 7 9 8 8 9 5 10 6 11 97 12
REMARK SMILES IDX 7 13 96 14 4 16 1 17 2 18 3 19 104 20 99 21 103 22 98 23
REMARK SMILES IDX 100 24 102 25 101 26 87 27 88 28 95 29 89 30 90 31 94 32
REMARK SMILES IDX 91 34 93 35 92 36 17 37 18 38 19 39 20 40 21 41 22 42 23 43
REMARK SMILES IDX 24 44 25 45 86 46 26 47 85 48 27 49 28 50 29 51 79 52 30 53
REMARK SMILES IDX 84 54 78 55 80 56 31 57 83 58 77 59 76 60 32 62 64 63 44 64
REMARK SMILES IDX 63 65 45 66 48 67 62 68 81 69 46 70 47 71 61 73 82 74 49 75
REMARK SMILES IDX 33 76 34 77 42 78 35 79 36 80 40 81 43 82 37 83 38 84 41 85
REMARK SMILES IDX 39 86 65 87 66 88 74 89 67 90 68 91 72 92 75 93 69 94 70 95
REMARK SMILES IDX 73 96 71 97 50 98 51 99 59 100 52 101 53 102 57 103 60 104
REMARK SMILES IDX 54 105 55 106 58 107 56 108
REMARK H PARENT 8 15 89 33 80 61 48 72
REMARK Flexibility Score: inf
ROOT
ATOM      1  C   UNL A   1      37.870  33.976  34.682  1.00  0.00     0.188 C 
ENDROOT
BRANCH   1   2
ATOM      2  O   UNL A   1      36.886  34.904  34.254  1.00  0.00    -0.376 OA
BRANCH   2   3
ATOM      3  C   UNL A   1      35.524  34.491  34.338  1.00  0.00     0.202 C 
BRANCH   3   4
ATOM      4  C   UNL A   1      34.629  34.765  33.121  1.00  0.00     0.261 C 
BRANCH   4   5
ATOM      5  O   UNL A   1      35.305  34.513  31.879  1.00  0.00    -0.459 OA
BRANCH   5   6
ATOM      6  C   UNL A   1      34.641  33.879  30.883  1.00  0.00     0.370 C 
ATOM      7  O   UNL A   1      33.545  34.243  30.460  1.00  0.00    -0.245 OA
BRANCH   6   8
ATOM      8  C   UNL A   1      35.389  32.638  30.371  1.00  0.00     0.328 C 
BRANCH   8   9
ATOM      9  N   UNL A   1      36.384  31.979  31.346  1.00  0.00    -0.316 N 
ATOM     10  N   UNL A   1      38.689  30.070  30.707  1.00  0.00    -0.345 N 
ATOM     11  C   UNL A   1      37.293  29.633  30.923  1.00  0.00     0.179 C 
ATOM     12  C   UNL A   1      38.828  31.517  30.471  1.00  0.00     0.179 C 
ATOM     13  C   UNL A   1      36.401  30.582  31.755  1.00  0.00     0.285 C 
ATOM     14  C   UNL A   1      37.811  32.400  31.306  1.00  0.00     0.285 C 
ATOM     15  H   UNL A   1      35.789  32.433  32.039  1.00  0.00     0.349 HD
BRANCH  10  16
ATOM     16  C   UNL A   1      39.432  29.194  29.852  1.00  0.00     0.129 A 
ATOM     17  C   UNL A   1      39.317  25.573  28.734  1.00  0.00     0.045 C 
ATOM     18  C   UNL A   1      39.628  27.040  28.743  1.00  0.00    -0.038 A 
ATOM     19  C   UNL A   1      39.019  27.880  29.705  1.00  0.00     0.051 A 
ATOM     20  C   UNL A   1      40.525  27.577  27.793  1.00  0.00     0.003 A 
ATOM     21  C   UNL A   1      40.942  28.886  28.022  1.00  0.00     0.073 A 
ATOM     22  C   UNL A   1      40.991  26.877  26.638  1.00  0.00     0.010 A 
ATOM     23  N   UNL A   1      40.488  29.606  29.101  1.00  0.00    -0.231 NA
ATOM     24  C   UNL A   1      41.798  29.444  27.046  1.00  0.00     0.029 A 
ATOM     25  C   UNL A   1      41.770  27.494  25.658  1.00  0.00     0.001 A 
ATOM     26  C   UNL A   1      42.158  28.801  25.852  1.00  0.00     0.002 A 
ENDBRANCH  10  16
ENDBRANCH   8   9
BRANCH   8  27
ATOM     27  C   UNL A   1      35.233  32.221  28.794  1.00  0.00     0.046 A 
ATOM     28  C   UNL A   1      34.963  33.249  27.885  1.00  0.00     0.094 A 
ATOM     29  C   UNL A   1      34.754  31.121  27.914  1.00  0.00     0.009 A 
ATOM     30  N   UNL A   1      33.564  33.156  27.862  1.00  0.00    -0.361 N 
ATOM     31  C   UNL A   1      33.186  31.829  27.468  1.00  0.00     0.046 A 
ATOM     32  C   UNL A   1      34.987  29.409  27.417  1.00  0.00     0.011 A 
ATOM     33  H   UNL A   1      32.941  33.885  28.081  1.00  0.00     0.166 HD
ATOM     34  C   UNL A   1      31.765  30.654  26.660  1.00  0.00     0.026 A 
ATOM     35  C   UNL A   1      33.735  28.354  26.685  1.00  0.00     0.001 A 
ATOM     36  C   UNL A   1      32.139  28.928  26.321  1.00  0.00     0.002 A 
ENDBRANCH   8  27
ENDBRANCH   6   8
ENDBRANCH   5   6
ENDBRANCH   4   5
ENDBRANCH   3   4
ENDBRANCH   2   3
ENDBRANCH   1   2
BRANCH   1  37
ATOM     37  C   UNL A   1      37.395  32.541  34.911  1.00  0.00     0.188 C 
BRANCH  37  38
ATOM     38  O   UNL A   1      37.740  32.001  36.146  1.00  0.00    -0.376 OA
BRANCH  38  39
ATOM     39  C   UNL A   1      38.501  30.818  36.122  1.00  0.00     0.202 C 
BRANCH  39  40
ATOM     40  C   UNL A   1      39.231  30.320  34.874  1.00  0.00     0.261 C 
BRANCH  40  41
ATOM     41  O   UNL A   1      40.087  29.243  35.238  1.00  0.00    -0.460 OA
BRANCH  41  42
ATOM     42  C   UNL A   1      41.364  29.187  35.633  1.00  0.00     0.338 C 
ATOM     43  O   UNL A   1      41.895  29.609  36.633  1.00  0.00    -0.246 OA
BRANCH  42  44
ATOM     44  C   UNL A   1      41.951  28.403  34.525  1.00  0.00     0.060 A 
ATOM     45  C   UNL A   1      42.988  26.970  34.617  1.00  0.00     0.016 A 
ATOM     46  C   UNL A   1      41.815  29.229  32.943  1.00  0.00     0.016 A 
ATOM     47  C   UNL A   1      43.955  26.366  33.216  1.00  0.00     0.010 A 
ATOM     48  C   UNL A   1      42.874  28.537  31.379  1.00  0.00     0.010 A 
ATOM     49  C   UNL A   1      43.931  27.124  31.611  1.00  0.00    -0.014 A 
BRANCH  49  50
ATOM     50  C   UNL A   1      44.934  26.992  30.544  1.00  0.00     0.031 A 
ATOM     51  C   UNL A   1      44.824  25.857  29.576  1.00  0.00     0.074 A 
ATOM     52  C   UNL A   1      46.120  27.616  30.669  1.00  0.00     0.049 A 
ATOM     53  N   UNL A   1      45.440  25.671  28.442  1.00  0.00    -0.248 NA
ATOM     54  C   UNL A   1      43.953  24.736  29.953  1.00  0.00     0.031 C 
ATOM     55  C   UNL A   1      46.540  28.443  31.802  1.00  0.00     0.029 A 
ATOM     56  N   UNL A   1      47.214  27.620  29.847  1.00  0.00    -0.354 N 
ATOM     57  C   UNL A   1      44.935  24.479  27.940  1.00  0.00     0.074 A 
ATOM     58  C   UNL A   1      44.088  23.900  28.943  1.00  0.00     0.031 C 
ATOM     59  C   UNL A   1      47.771  28.922  31.580  1.00  0.00     0.029 A 
ATOM     60  C   UNL A   1      48.204  28.474  30.268  1.00  0.00     0.049 A 
ATOM     61  H   UNL A   1      47.284  27.068  29.036  1.00  0.00     0.167 HD
ATOM     62  C   UNL A   1      45.129  23.950  26.713  1.00  0.00     0.037 A 
ATOM     63  C   UNL A   1      49.298  28.901  29.617  1.00  0.00     0.037 A 
ATOM     64  C   UNL A   1      46.123  24.481  25.828  1.00  0.00     0.049 A 
ATOM     65  C   UNL A   1      49.478  28.417  28.209  1.00  0.00     0.074 A 
ATOM     66  C   UNL A   1      46.411  24.144  24.524  1.00  0.00     0.029 A 
ATOM     67  N   UNL A   1      47.046  25.447  26.215  1.00  0.00    -0.354 N 
ATOM     68  N   UNL A   1      48.793  27.506  27.554  1.00  0.00    -0.248 NA
ATOM     69  C   UNL A   1      50.543  29.050  27.430  1.00  0.00     0.031 C 
ATOM     70  C   UNL A   1      47.559  24.854  24.148  1.00  0.00     0.029 A 
ATOM     71  C   UNL A   1      47.927  25.703  25.185  1.00  0.00     0.049 A 
ATOM     72  H   UNL A   1      47.068  25.885  27.097  1.00  0.00     0.167 HD
ATOM     73  C   UNL A   1      49.322  27.472  26.275  1.00  0.00     0.074 A 
ATOM     74  C   UNL A   1      50.372  28.477  26.248  1.00  0.00     0.031 C 
ATOM     75  C   UNL A   1      48.977  26.693  25.217  1.00  0.00     0.037 A 
BRANCH  62  76
ATOM     76  C   UNL A   1      44.249  22.798  26.315  1.00  0.00     0.064 A 
ATOM     77  C   UNL A   1      42.848  22.945  26.246  1.00  0.00     0.173 A 
ATOM     78  C   UNL A   1      44.777  21.533  26.028  1.00  0.00     0.173 A 
ATOM     79  F   UNL A   1      42.276  24.130  26.516  1.00  0.00    -0.203 F 
ATOM     80  C   UNL A   1      42.017  21.864  25.963  1.00  0.00     0.198 A 
ATOM     81  C   UNL A   1      43.944  20.462  25.703  1.00  0.00     0.198 A 
ATOM     82  F   UNL A   1      46.100  21.323  26.081  1.00  0.00    -0.203 F 
ATOM     83  F   UNL A   1      40.686  22.019  25.989  1.00  0.00    -0.200 F 
ATOM     84  C   UNL A   1      42.566  20.625  25.687  1.00  0.00     0.200 A 
ATOM     85  F   UNL A   1      44.476  19.264  25.423  1.00  0.00    -0.200 F 
ATOM     86  F   UNL A   1      41.768  19.582  25.419  1.00  0.00    -0.200 F 
ENDBRANCH  62  76
BRANCH  63  87
ATOM     87  C   UNL A   1      50.162  29.940  30.236  1.00  0.00     0.064 A 
ATOM     88  C   UNL A   1      49.845  31.303  30.137  1.00  0.00     0.173 A 
ATOM     89  C   UNL A   1      51.280  29.590  31.008  1.00  0.00     0.173 A 
ATOM     90  F   UNL A   1      48.779  31.694  29.423  1.00  0.00    -0.203 F 
ATOM     91  C   UNL A   1      50.630  32.276  30.757  1.00  0.00     0.198 A 
ATOM     92  C   UNL A   1      52.046  30.561  31.651  1.00  0.00     0.198 A 
ATOM     93  F   UNL A   1      51.606  28.298  31.166  1.00  0.00    -0.203 F 
ATOM     94  F   UNL A   1      50.324  33.572  30.611  1.00  0.00    -0.200 F 
ATOM     95  C   UNL A   1      51.727  31.903  31.517  1.00  0.00     0.200 A 
ATOM     96  F   UNL A   1      53.090  30.194  32.408  1.00  0.00    -0.200 F 
ATOM     97  F   UNL A   1      52.476  32.836  32.120  1.00  0.00    -0.200 F 
ENDBRANCH  63  87
BRANCH  75  98
ATOM     98  C   UNL A   1      49.729  26.928  23.943  1.00  0.00     0.064 A 
ATOM     99  C   UNL A   1      49.132  27.531  22.827  1.00  0.00     0.173 A 
ATOM    100  C   UNL A   1      51.076  26.546  23.847  1.00  0.00     0.173 A 
ATOM    101  F   UNL A   1      47.846  27.912  22.870  1.00  0.00    -0.203 F 
ATOM    102  C   UNL A   1      49.836  27.677  21.638  1.00  0.00     0.198 A 
ATOM    103  C   UNL A   1      51.793  26.748  22.675  1.00  0.00     0.198 A 
ATOM    104  F   UNL A   1      51.699  25.983  24.894  1.00  0.00    -0.203 F 
ATOM    105  F   UNL A   1      49.217  28.165  20.554  1.00  0.00    -0.200 F 
ATOM    106  C   UNL A   1      51.166  27.292  21.564  1.00  0.00     0.200 A 
ATOM    107  F   UNL A   1      53.086  26.404  22.617  1.00  0.00    -0.200 F 
ATOM    108  F   UNL A   1      51.842  27.434  20.417  1.00  0.00    -0.200 F 
ENDBRANCH  75  98
ENDBRANCH  49  50
ENDBRANCH  42  44
ENDBRANCH  41  42
ENDBRANCH  40  41
ENDBRANCH  39  40
ENDBRANCH  38  39
ENDBRANCH  37  38
ENDBRANCH   1  37
TORSDOF 20
ENDMDL
MODEL 2
REMARK VINA RESULT:     -11.1      4.261      6.445
REMARK SMILES Cc1cc(N2CC[NH+]([C@@H](C(=O)OCCOCCOCCOC(=O)c3ccc(-c4c5nc(c(-c6c(F)c(F)c(F)c(F)c6F)c6ccc([nH]6)c(-c6c(F)c(F)c(F)c(F)c6F)c6nc(c(-c7c(F)c(F)c(F)c(F)c7F)c7ccc4[nH]7)C=C6)C=C5)cc3)c3c[nH]c4ccccc34)CC2)nc2ccccc12
REMARK SMILES IDX 16 1 15 2 14 3 13 4 12 5 10 6 11 7 9 8 8 9 5 10 6 11 97 12
REMARK SMILES IDX 7 13 96 14 4 16 1 17 2 18 3 19 104 20 99 21 103 22 98 23
REMARK SMILES IDX 100 24 102 25 101 26 87 27 88 28 95 29 89 30 90 31 94 32
REMARK SMILES IDX 91 34 93 35 92 36 17 37 18 38 19 39 20 40 21 41 22 42 23 43
REMARK SMILES IDX 24 44 25 45 86 46 26 47 85 48 27 49 28 50 29 51 79 52 30 53
REMARK SMILES IDX 84 54 78 55 80 56 31 57 83 58 77 59 76 60 32 62 64 63 44 64
REMARK SMILES IDX 63 65 45 66 48 67 62 68 81 69 46 70 47 71 61 73 82 74 49 75
REMARK SMILES IDX 33 76 34 77 42 78 35 79 36 80 40 81 43 82 37 83 38 84 41 85
REMARK SMILES IDX 39 86 65 87 66 88 74 89 67 90 68 91 72 92 75 93 69 94 70 95
REMARK SMILES IDX 73 96 71 97 50 98 51 99 59 100 52 101 53 102 57 103 60 104
REMARK SMILES IDX 54 105 55 106 58 107 56 108
REMARK H PARENT 8 15 89 33 80 61 48 72
REMARK Flexibility Score: inf
ROOT
ATOM      1  C   UNL A   1      34.354  31.917  28.315  1.00  0.00     0.188 C 
ENDROOT
BRANCH   1   2
ATOM      2  O   UNL A   1      33.452  30.955  27.793  1.00  0.00    -0.376 OA
BRANCH   2   3
ATOM      3  C   UNL A   1      33.958  30.060  26.804  1.00  0.00     0.202 C 
BRANCH   3   4
ATOM      4  C   UNL A   1      34.175  28.598  27.222  1.00  0.00     0.261 C 
BRANCH   4   5
ATOM      5  O   UNL A   1      33.032  27.774  26.942  1.00  0.00    -0.459 OA
BRANCH   5   6
ATOM      6  C   UNL A   1      33.099  26.879  25.928  1.00  0.00     0.370 C 
ATOM      7  O   UNL A   1      34.140  26.327  25.577  1.00  0.00    -0.245 OA
BRANCH   6   8
ATOM      8  C   UNL A   1      31.739  26.659  25.244  1.00  0.00     0.328 C 
BRANCH   8   9
ATOM      9  N   UNL A   1      30.965  25.386  25.637  1.00  0.00    -0.316 N 
ATOM     10  N   UNL A   1      31.869  22.470  25.417  1.00  0.00    -0.345 N 
ATOM     11  C   UNL A   1      31.227  23.219  24.316  1.00  0.00     0.179 C 
ATOM     12  C   UNL A   1      32.365  23.328  26.508  1.00  0.00     0.179 C 
ATOM     13  C   UNL A   1      30.355  24.426  24.729  1.00  0.00     0.285 C 
ATOM     14  C   UNL A   1      31.446  24.586  26.797  1.00  0.00     0.285 C 
ATOM     15  H   UNL A   1      30.224  26.061  25.820  1.00  0.00     0.349 HD
BRANCH  10  16
ATOM     16  C   UNL A   1      32.736  21.424  24.963  1.00  0.00     0.129 A 
ATOM     17  C   UNL A   1      36.437  20.604  25.014  1.00  0.00     0.045 C 
ATOM     18  C   UNL A   1      34.950  20.423  24.931  1.00  0.00    -0.038 A 
ATOM     19  C   UNL A   1      34.094  21.513  25.216  1.00  0.00     0.051 A 
ATOM     20  C   UNL A   1      34.411  19.169  24.569  1.00  0.00     0.003 A 
ATOM     21  C   UNL A   1      33.048  19.152  24.280  1.00  0.00     0.073 A 
ATOM     22  C   UNL A   1      35.161  17.955  24.510  1.00  0.00     0.010 A 
ATOM     23  N   UNL A   1      32.284  20.291  24.361  1.00  0.00    -0.231 NA
ATOM     24  C   UNL A   1      32.496  17.890  23.969  1.00  0.00     0.029 A 
ATOM     25  C   UNL A   1      34.560  16.718  24.279  1.00  0.00     0.001 A 
ATOM     26  C   UNL A   1      33.205  16.682  24.030  1.00  0.00     0.002 A 
ENDBRANCH  10  16
ENDBRANCH   8   9
BRANCH   8  27
ATOM     27  C   UNL A   1      31.301  27.664  24.027  1.00  0.00     0.046 A 
ATOM     28  C   UNL A   1      32.283  28.520  23.520  1.00  0.00     0.094 A 
ATOM     29  C   UNL A   1      30.146  28.449  23.513  1.00  0.00     0.009 A 
ATOM     30  N   UNL A   1      32.013  29.649  24.307  1.00  0.00    -0.361 N 
ATOM     31  C   UNL A   1      30.648  30.045  24.113  1.00  0.00     0.046 A 
ATOM     32  C   UNL A   1      28.475  28.373  22.853  1.00  0.00     0.011 A 
ATOM     33  H   UNL A   1      32.658  30.098  24.899  1.00  0.00     0.166 HD
ATOM     34  C   UNL A   1      29.300  31.538  24.200  1.00  0.00     0.026 A 
ATOM     35  C   UNL A   1      27.268  29.699  22.912  1.00  0.00     0.001 A 
ATOM     36  C   UNL A   1      27.633  31.255  23.584  1.00  0.00     0.002 A 
ENDBRANCH   8  27
ENDBRANCH   6   8
ENDBRANCH   5   6
ENDBRANCH   4   5
ENDBRANCH   3   4
ENDBRANCH   2   3
ENDBRANCH   1   2
BRANCH   1  37
ATOM     37  C   UNL A   1      35.830  31.719  27.970  1.00  0.00     0.188 C 
BRANCH  37  38
ATOM     38  O   UNL A   1      36.528  30.885  28.839  1.00  0.00    -0.376 OA
BRANCH  38  39
ATOM     39  C   UNL A   1      35.941  30.662  30.098  1.00  0.00     0.202 C 
BRANCH  39  40
ATOM     40  C   UNL A   1      36.552  29.740  31.153  1.00  0.00     0.261 C 
BRANCH  40  41
ATOM     41  O   UNL A   1      36.463  30.369  32.426  1.00  0.00    -0.460 OA
BRANCH  41  42
ATOM     42  C   UNL A   1      36.811  31.583  32.869  1.00  0.00     0.338 C 
ATOM     43  O   UNL A   1      36.175  32.404  33.487  1.00  0.00    -0.246 OA
BRANCH  42  44
ATOM     44  C   UNL A   1      38.227  31.625  32.446  1.00  0.00     0.060 A 
ATOM     45  C   UNL A   1      38.916  32.315  30.967  1.00  0.00     0.016 A 
ATOM     46  C   UNL A   1      39.279  30.570  33.437  1.00  0.00     0.016 A 
ATOM     47  C   UNL A   1      40.587  31.939  30.394  1.00  0.00     0.010 A 
ATOM     48  C   UNL A   1      41.149  30.175  32.808  1.00  0.00     0.010 A 
ATOM     49  C   UNL A   1      41.707  30.877  31.271  1.00  0.00    -0.014 A 
BRANCH  49  50
ATOM     50  C   UNL A   1      42.892  30.190  30.737  1.00  0.00     0.031 A 
ATOM     51  C   UNL A   1      42.734  28.834  30.125  1.00  0.00     0.074 A 
ATOM     52  C   UNL A   1      44.117  30.574  31.140  1.00  0.00     0.049 A 
ATOM     53  N   UNL A   1      43.574  28.149  29.399  1.00  0.00    -0.248 NA
ATOM     54  C   UNL A   1      41.492  28.107  30.415  1.00  0.00     0.031 C 
ATOM     55  C   UNL A   1      44.411  31.643  32.095  1.00  0.00     0.029 A 
ATOM     56  N   UNL A   1      45.354  30.078  30.825  1.00  0.00    -0.354 N 
ATOM     57  C   UNL A   1      42.902  26.980  29.065  1.00  0.00     0.074 A 
ATOM     58  C   UNL A   1      41.660  26.963  29.782  1.00  0.00     0.031 C 
ATOM     59  C   UNL A   1      45.737  31.765  32.245  1.00  0.00     0.029 A 
ATOM     60  C   UNL A   1      46.383  30.814  31.357  1.00  0.00     0.049 A 
ATOM     61  H   UNL A   1      45.490  29.276  30.272  1.00  0.00     0.167 HD
ATOM     62  C   UNL A   1      43.283  26.032  28.183  1.00  0.00     0.037 A 
ATOM     63  C   UNL A   1      47.698  30.765  31.086  1.00  0.00     0.037 A 
ATOM     64  C   UNL A   1      44.608  26.016  27.639  1.00  0.00     0.049 A 
ATOM     65  C   UNL A   1      48.134  29.797  30.027  1.00  0.00     0.074 A 
ATOM     66  C   UNL A   1      45.156  25.198  26.675  1.00  0.00     0.029 A 
ATOM     67  N   UNL A   1      45.623  26.857  28.088  1.00  0.00    -0.354 N 
ATOM     68  N   UNL A   1      47.431  28.869  29.417  1.00  0.00    -0.248 NA
ATOM     69  C   UNL A   1      49.522  29.899  29.578  1.00  0.00     0.031 C 
ATOM     70  C   UNL A   1      46.522  25.495  26.597  1.00  0.00     0.029 A 
ATOM     71  C   UNL A   1      46.805  26.562  27.442  1.00  0.00     0.049 A 
ATOM     72  H   UNL A   1      45.513  27.561  28.768  1.00  0.00     0.167 HD
ATOM     73  C   UNL A   1      48.282  28.290  28.489  1.00  0.00     0.074 A 
ATOM     74  C   UNL A   1      49.546  28.997  28.608  1.00  0.00     0.031 C 
ATOM     75  C   UNL A   1      48.047  27.275  27.616  1.00  0.00     0.037 A 
BRANCH  62  76
ATOM     76  C   UNL A   1      42.254  25.008  27.789  1.00  0.00     0.064 A 
ATOM     77  C   UNL A   1      41.191  25.344  26.925  1.00  0.00     0.173 A 
ATOM     78  C   UNL A   1      42.292  23.698  28.282  1.00  0.00     0.173 A 
ATOM     79  F   UNL A   1      41.091  26.585  26.422  1.00  0.00    -0.203 F 
ATOM     80  C   UNL A   1      40.185  24.431  26.622  1.00  0.00     0.198 A 
ATOM     81  C   UNL A   1      41.305  22.773  27.943  1.00  0.00     0.198 A 
ATOM     82  F   UNL A   1      43.272  23.315  29.112  1.00  0.00    -0.203 F 
ATOM     83  F   UNL A   1      39.143  24.808  25.867  1.00  0.00    -0.200 F 
ATOM     84  C   UNL A   1      40.245  23.144  27.127  1.00  0.00     0.200 A 
ATOM     85  F   UNL A   1      41.370  21.523  28.421  1.00  0.00    -0.200 F 
ATOM     86  F   UNL A   1      39.275  22.264  26.841  1.00  0.00    -0.200 F 
ENDBRANCH  62  76
BRANCH  63  87
ATOM     87  C   UNL A   1      48.611  31.764  31.700  1.00  0.00     0.064 A 
ATOM     88  C   UNL A   1      48.790  33.034  31.129  1.00  0.00     0.173 A 
ATOM     89  C   UNL A   1      49.265  31.502  32.912  1.00  0.00     0.173 A 
ATOM     90  F   UNL A   1      48.178  33.343  29.976  1.00  0.00    -0.203 F 
ATOM     91  C   UNL A   1      49.612  33.988  31.729  1.00  0.00     0.198 A 
ATOM     92  C   UNL A   1      50.062  32.467  33.527  1.00  0.00     0.198 A 
ATOM     93  F   UNL A   1      49.099  30.317  33.520  1.00  0.00    -0.203 F 
ATOM     94  F   UNL A   1      49.793  35.178  31.140  1.00  0.00    -0.200 F 
ATOM     95  C   UNL A   1      50.243  33.706  32.930  1.00  0.00     0.200 A 
ATOM     96  F   UNL A   1      50.648  32.199  34.702  1.00  0.00    -0.200 F 
ATOM     97  F   UNL A   1      51.025  34.625  33.512  1.00  0.00    -0.200 F 
ENDBRANCH  63  87
BRANCH  75  98
ATOM     98  C   UNL A   1      49.180  26.902  26.711  1.00  0.00     0.064 A 
ATOM     99  C   UNL A   1      49.274  27.386  25.398  1.00  0.00     0.173 A 
ATOM    100  C   UNL A   1      50.191  26.046  27.174  1.00  0.00     0.173 A 
ATOM    101  F   UNL A   1      48.330  28.206  24.910  1.00  0.00    -0.203 F 
ATOM    102  C   UNL A   1      50.302  26.971  24.560  1.00  0.00     0.198 A 
ATOM    103  C   UNL A   1      51.248  25.680  26.351  1.00  0.00     0.198 A 
ATOM    104  F   UNL A   1      50.158  25.570  28.428  1.00  0.00    -0.203 F 
ATOM    105  F   UNL A   1      50.318  27.368  23.280  1.00  0.00    -0.200 F 
ATOM    106  C   UNL A   1      51.291  26.125  25.038  1.00  0.00     0.200 A 
ATOM    107  F   UNL A   1      52.219  24.887  26.825  1.00  0.00    -0.200 F 
ATOM    108  F   UNL A   1      52.280  25.726  24.228  1.00  0.00    -0.200 F 
ENDBRANCH  75  98
ENDBRANCH  49  50
ENDBRANCH  42  44
ENDBRANCH  41  42
ENDBRANCH  40  41
ENDBRANCH  39  40
ENDBRANCH  38  39
ENDBRANCH  37  38
ENDBRANCH   1  37
TORSDOF 20
ENDMDL
MODEL 3
REMARK VINA RESULT:     -11.0      6.605     10.988
REMARK SMILES Cc1cc(N2CC[NH+]([C@@H](C(=O)OCCOCCOCCOC(=O)c3ccc(-c4c5nc(c(-c6c(F)c(F)c(F)c(F)c6F)c6ccc([nH]6)c(-c6c(F)c(F)c(F)c(F)c6F)c6nc(c(-c7c(F)c(F)c(F)c(F)c7F)c7ccc4[nH]7)C=C6)C=C5)cc3)c3c[nH]c4ccccc34)CC2)nc2ccccc12
REMARK SMILES IDX 16 1 15 2 14 3 13 4 12 5 10 6 11 7 9 8 8 9 5 10 6 11 97 12
REMARK SMILES IDX 7 13 96 14 4 16 1 17 2 18 3 19 104 20 99 21 103 22 98 23
REMARK SMILES IDX 100 24 102 25 101 26 87 27 88 28 95 29 89 30 90 31 94 32
REMARK SMILES IDX 91 34 93 35 92 36 17 37 18 38 19 39 20 40 21 41 22 42 23 43
REMARK SMILES IDX 24 44 25 45 86 46 26 47 85 48 27 49 28 50 29 51 79 52 30 53
REMARK SMILES IDX 84 54 78 55 80 56 31 57 83 58 77 59 76 60 32 62 64 63 44 64
REMARK SMILES IDX 63 65 45 66 48 67 62 68 81 69 46 70 47 71 61 73 82 74 49 75
REMARK SMILES IDX 33 76 34 77 42 78 35 79 36 80 40 81 43 82 37 83 38 84 41 85
REMARK SMILES IDX 39 86 65 87 66 88 74 89 67 90 68 91 72 92 75 93 69 94 70 95
REMARK SMILES IDX 73 96 71 97 50 98 51 99 59 100 52 101 53 102 57 103 60 104
REMARK SMILES IDX 54 105 55 106 58 107 56 108
REMARK H PARENT 8 15 89 33 80 61 48 72
REMARK Flexibility Score: inf
ROOT
ATOM      1  C   UNL A   1      34.446  31.937  28.492  1.00  0.00     0.188 C 
ENDROOT
BRANCH   1   2
ATOM      2  O   UNL A   1      33.561  30.945  27.997  1.00  0.00    -0.376 OA
BRANCH   2   3
ATOM      3  C   UNL A   1      33.991  30.202  26.858  1.00  0.00     0.202 C 
BRANCH   3   4
ATOM      4  C   UNL A   1      34.298  28.711  27.065  1.00  0.00     0.261 C 
BRANCH   4   5
ATOM      5  O   UNL A   1      33.139  27.884  26.877  1.00  0.00    -0.459 OA
BRANCH   5   6
ATOM      6  C   UNL A   1      33.170  26.910  25.936  1.00  0.00     0.370 C 
ATOM      7  O   UNL A   1      34.187  26.286  25.640  1.00  0.00    -0.245 OA
BRANCH   6   8
ATOM      8  C   UNL A   1      31.806  26.701  25.256  1.00  0.00     0.328 C 
BRANCH   8   9
ATOM      9  N   UNL A   1      31.019  25.440  25.660  1.00  0.00    -0.316 N 
ATOM     10  N   UNL A   1      31.890  22.513  25.459  1.00  0.00    -0.345 N 
ATOM     11  C   UNL A   1      31.255  23.260  24.354  1.00  0.00     0.179 C 
ATOM     12  C   UNL A   1      32.397  23.372  26.543  1.00  0.00     0.179 C 
ATOM     13  C   UNL A   1      30.397  24.480  24.759  1.00  0.00     0.285 C 
ATOM     14  C   UNL A   1      31.494  24.643  26.824  1.00  0.00     0.285 C 
ATOM     15  H   UNL A   1      30.286  26.125  25.839  1.00  0.00     0.349 HD
BRANCH  10  16
ATOM     16  C   UNL A   1      32.745  21.454  25.011  1.00  0.00     0.129 A 
ATOM     17  C   UNL A   1      36.445  20.627  24.999  1.00  0.00     0.045 C 
ATOM     18  C   UNL A   1      34.956  20.447  24.954  1.00  0.00    -0.038 A 
ATOM     19  C   UNL A   1      34.109  21.546  25.231  1.00  0.00     0.051 A 
ATOM     20  C   UNL A   1      34.407  19.186  24.635  1.00  0.00     0.003 A 
ATOM     21  C   UNL A   1      33.038  19.165  24.378  1.00  0.00     0.073 A 
ATOM     22  C   UNL A   1      35.154  17.969  24.589  1.00  0.00     0.010 A 
ATOM     23  N   UNL A   1      32.278  20.307  24.448  1.00  0.00    -0.231 NA
ATOM     24  C   UNL A   1      32.477  17.897  24.110  1.00  0.00     0.029 A 
ATOM     25  C   UNL A   1      34.545  16.728  24.402  1.00  0.00     0.001 A 
ATOM     26  C   UNL A   1      33.185  16.689  24.184  1.00  0.00     0.002 A 
ENDBRANCH  10  16
ENDBRANCH   8   9
BRANCH   8  27
ATOM     27  C   UNL A   1      31.377  27.702  24.033  1.00  0.00     0.046 A 
ATOM     28  C   UNL A   1      32.350  28.587  23.559  1.00  0.00     0.094 A 
ATOM     29  C   UNL A   1      30.217  28.461  23.492  1.00  0.00     0.009 A 
ATOM     30  N   UNL A   1      32.030  29.703  24.345  1.00  0.00    -0.361 N 
ATOM     31  C   UNL A   1      30.661  30.066  24.114  1.00  0.00     0.046 A 
ATOM     32  C   UNL A   1      28.568  28.347  22.785  1.00  0.00     0.011 A 
ATOM     33  H   UNL A   1      32.646  30.165  24.957  1.00  0.00     0.166 HD
ATOM     34  C   UNL A   1      29.273  31.523  24.172  1.00  0.00     0.026 A 
ATOM     35  C   UNL A   1      27.325  29.641  22.817  1.00  0.00     0.001 A 
ATOM     36  C   UNL A   1      27.632  31.202  23.509  1.00  0.00     0.002 A 
ENDBRANCH   8  27
ENDBRANCH   6   8
ENDBRANCH   5   6
ENDBRANCH   4   5
ENDBRANCH   3   4
ENDBRANCH   2   3
ENDBRANCH   1   2
BRANCH   1  37
ATOM     37  C   UNL A   1      35.821  32.011  27.830  1.00  0.00     0.188 C 
BRANCH  37  38
ATOM     38  O   UNL A   1      36.804  31.232  28.434  1.00  0.00    -0.376 OA
BRANCH  38  39
ATOM     39  C   UNL A   1      36.846  31.257  29.840  1.00  0.00     0.202 C 
BRANCH  39  40
ATOM     40  C   UNL A   1      38.148  31.186  30.638  1.00  0.00     0.261 C 
BRANCH  40  41
ATOM     41  O   UNL A   1      38.028  32.011  31.791  1.00  0.00    -0.460 OA
BRANCH  41  42
ATOM     42  C   UNL A   1      37.634  33.277  31.969  1.00  0.00     0.338 C 
ATOM     43  O   UNL A   1      36.694  33.727  32.581  1.00  0.00    -0.246 OA
BRANCH  42  44
ATOM     44  C   UNL A   1      38.710  33.996  31.254  1.00  0.00     0.060 A 
ATOM     45  C   UNL A   1      38.785  34.451  29.544  1.00  0.00     0.016 A 
ATOM     46  C   UNL A   1      40.217  34.118  32.212  1.00  0.00     0.016 A 
ATOM     47  C   UNL A   1      40.315  34.955  28.728  1.00  0.00     0.010 A 
ATOM     48  C   UNL A   1      41.914  34.704  31.304  1.00  0.00     0.010 A 
ATOM     49  C   UNL A   1      41.876  35.076  29.564  1.00  0.00    -0.014 A 
BRANCH  49  50
ATOM     50  C   UNL A   1      43.217  35.076  28.961  1.00  0.00     0.031 A 
ATOM     51  C   UNL A   1      43.739  36.333  28.341  1.00  0.00     0.074 A 
ATOM     52  C   UNL A   1      43.789  33.907  28.619  1.00  0.00     0.049 A 
ATOM     53  N   UNL A   1      44.951  36.631  27.963  1.00  0.00    -0.248 NA
ATOM     54  C   UNL A   1      42.761  37.385  28.035  1.00  0.00     0.031 C 
ATOM     55  C   UNL A   1      43.194  32.579  28.784  1.00  0.00     0.029 A 
ATOM     56  N   UNL A   1      44.991  33.645  28.019  1.00  0.00    -0.354 N 
ATOM     57  C   UNL A   1      44.879  37.936  27.493  1.00  0.00     0.074 A 
ATOM     58  C   UNL A   1      43.499  38.326  27.479  1.00  0.00     0.031 C 
ATOM     59  C   UNL A   1      44.050  31.642  28.355  1.00  0.00     0.029 A 
ATOM     60  C   UNL A   1      45.272  32.304  27.932  1.00  0.00     0.049 A 
ATOM     61  H   UNL A   1      45.594  34.347  27.686  1.00  0.00     0.167 HD
ATOM     62  C   UNL A   1      45.901  38.750  27.156  1.00  0.00     0.037 A 
ATOM     63  C   UNL A   1      46.425  31.691  27.619  1.00  0.00     0.037 A 
ATOM     64  C   UNL A   1      47.235  38.246  27.020  1.00  0.00     0.049 A 
ATOM     65  C   UNL A   1      47.608  32.573  27.350  1.00  0.00     0.074 A 
ATOM     66  C   UNL A   1      48.411  38.919  26.773  1.00  0.00     0.029 A 
ATOM     67  N   UNL A   1      47.542  36.889  27.064  1.00  0.00    -0.354 N 
ATOM     68  N   UNL A   1      47.652  33.881  27.229  1.00  0.00    -0.248 NA
ATOM     69  C   UNL A   1      48.906  31.910  27.227  1.00  0.00     0.031 C 
ATOM     70  C   UNL A   1      49.417  37.961  26.593  1.00  0.00     0.029 A 
ATOM     71  C   UNL A   1      48.886  36.697  26.822  1.00  0.00     0.049 A 
ATOM     72  H   UNL A   1      46.893  36.169  27.243  1.00  0.00     0.167 HD
ATOM     73  C   UNL A   1      48.986  34.206  27.042  1.00  0.00     0.074 A 
ATOM     74  C   UNL A   1      49.715  32.949  27.092  1.00  0.00     0.031 C 
ATOM     75  C   UNL A   1      49.561  35.422  26.852  1.00  0.00     0.037 A 
BRANCH  62  76
ATOM     76  C   UNL A   1      45.580  40.205  26.948  1.00  0.00     0.064 A 
ATOM     77  C   UNL A   1      45.673  40.792  25.669  1.00  0.00     0.173 A 
ATOM     78  C   UNL A   1      45.207  41.036  28.011  1.00  0.00     0.173 A 
ATOM     79  F   UNL A   1      46.033  40.053  24.607  1.00  0.00    -0.203 F 
ATOM     80  C   UNL A   1      45.462  42.155  25.479  1.00  0.00     0.198 A 
ATOM     81  C   UNL A   1      44.955  42.393  27.810  1.00  0.00     0.198 A 
ATOM     82  F   UNL A   1      45.105  40.542  29.254  1.00  0.00    -0.203 F 
ATOM     83  F   UNL A   1      45.642  42.698  24.266  1.00  0.00    -0.200 F 
ATOM     84  C   UNL A   1      45.098  42.954  26.548  1.00  0.00     0.200 A 
ATOM     85  F   UNL A   1      44.589  43.164  28.843  1.00  0.00    -0.200 F 
ATOM     86  F   UNL A   1      44.899  44.267  26.369  1.00  0.00    -0.200 F 
ENDBRANCH  62  76
BRANCH  63  87
ATOM     87  C   UNL A   1      46.522  30.211  27.722  1.00  0.00     0.064 A 
ATOM     88  C   UNL A   1      46.474  29.398  26.580  1.00  0.00     0.173 A 
ATOM     89  C   UNL A   1      46.744  29.582  28.956  1.00  0.00     0.173 A 
ATOM     90  F   UNL A   1      46.277  29.948  25.372  1.00  0.00    -0.203 F 
ATOM     91  C   UNL A   1      46.611  28.012  26.672  1.00  0.00     0.198 A 
ATOM     92  C   UNL A   1      46.911  28.201  29.043  1.00  0.00     0.198 A 
ATOM     93  F   UNL A   1      46.836  30.317  30.074  1.00  0.00    -0.203 F 
ATOM     94  F   UNL A   1      46.522  27.258  25.567  1.00  0.00    -0.200 F 
ATOM     95  C   UNL A   1      46.835  27.416  27.902  1.00  0.00     0.200 A 
ATOM     96  F   UNL A   1      47.155  27.632  30.231  1.00  0.00    -0.200 F 
ATOM     97  F   UNL A   1      46.976  26.087  27.990  1.00  0.00    -0.200 F 
ENDBRANCH  63  87
BRANCH  75  98
ATOM     98  C   UNL A   1      51.053  35.438  26.715  1.00  0.00     0.064 A 
ATOM     99  C   UNL A   1      51.686  35.348  25.468  1.00  0.00     0.173 A 
ATOM    100  C   UNL A   1      51.858  35.551  27.859  1.00  0.00     0.173 A 
ATOM    101  F   UNL A   1      50.958  35.236  24.345  1.00  0.00    -0.203 F 
ATOM    102  C   UNL A   1      53.072  35.300  25.377  1.00  0.00     0.198 A 
ATOM    103  C   UNL A   1      53.243  35.562  27.758  1.00  0.00     0.198 A 
ATOM    104  F   UNL A   1      51.300  35.660  29.075  1.00  0.00    -0.203 F 
ATOM    105  F   UNL A   1      53.655  35.115  24.185  1.00  0.00    -0.200 F 
ATOM    106  C   UNL A   1      53.849  35.414  26.520  1.00  0.00     0.200 A 
ATOM    107  F   UNL A   1      53.991  35.704  28.861  1.00  0.00    -0.200 F 
ATOM    108  F   UNL A   1      55.184  35.368  26.430  1.00  0.00    -0.200 F 
ENDBRANCH  75  98
ENDBRANCH  49  50
ENDBRANCH  42  44
ENDBRANCH  41  42
ENDBRANCH  40  41
ENDBRANCH  39  40
ENDBRANCH  38  39
ENDBRANCH  37  38
ENDBRANCH   1  37
TORSDOF 20
ENDMDL
