MODEL 1
REMARK VINA RESULT:     -11.3      0.000      0.000
REMARK SMILES C[C@H]1[C@H](C(=O)OCCOCCOCCOC(=O)c2ccc(-c3c4nc(c(-c5c(F)c(F)c(F)c(F)c5F)c5ccc([nH]5)c(-c5c(F)c(F)c(F)c(F)c5F)c5nc(c(-c6c(F)c(F)c(F)c(F)c6F)c6ccc3[nH]6)C=C5)C=C4)cc2)CCN1C(=O)Nc1ccc(F)cc1
REMARK SMILES IDX 10 1 9 2 8 3 7 4 6 5 4 6 5 7 3 8 1 9 2 10 83 11 81 12 82 13
REMARK SMILES IDX 84 14 85 15 86 16 87 18 88 19 93 20 89 21 92 22 90 23 91 24
REMARK SMILES IDX 11 25 12 26 13 27 14 28 15 29 16 30 17 31 18 32 19 33 80 34
REMARK SMILES IDX 20 35 79 36 21 37 22 38 23 39 73 40 24 41 78 42 72 43 74 44
REMARK SMILES IDX 25 45 77 46 71 47 70 48 26 50 58 51 38 52 57 53 39 54 42 55
REMARK SMILES IDX 56 56 75 57 40 58 41 59 55 61 76 62 43 63 27 64 28 65 36 66
REMARK SMILES IDX 29 67 30 68 34 69 37 70 31 71 32 72 35 73 33 74 59 75 60 76
REMARK SMILES IDX 68 77 61 78 62 79 66 80 69 81 63 82 64 83 67 84 65 85 44 86
REMARK SMILES IDX 45 87 53 88 46 89 47 90 51 91 54 92 48 93 49 94 52 95 50 96
REMARK H PARENT 86 17 74 49 42 60
REMARK Flexibility Score: inf
ROOT
ATOM      1  C   UNL A   1      34.000  31.855  27.735  1.00  0.00     0.188 C 
ENDROOT
BRANCH   1   2
ATOM      2  O   UNL A   1      32.799  31.278  27.250  1.00  0.00    -0.376 OA
BRANCH   2   3
ATOM      3  C   UNL A   1      32.815  30.014  26.610  1.00  0.00     0.202 C 
BRANCH   3   4
ATOM      4  C   UNL A   1      31.848  29.789  25.447  1.00  0.00     0.261 C 
BRANCH   4   5
ATOM      5  O   UNL A   1      31.226  28.488  25.415  1.00  0.00    -0.463 OA
BRANCH   5   6
ATOM      6  C   UNL A   1      31.297  27.829  24.231  1.00  0.00     0.311 C 
ATOM      7  O   UNL A   1      30.992  28.318  23.148  1.00  0.00    -0.252 OA
BRANCH   6   8
ATOM      8  C   UNL A   1      31.679  26.366  24.350  1.00  0.00     0.123 C 
ATOM      9  C   UNL A   1      33.291  25.552  26.082  1.00  0.00     0.032 C 
ATOM     10  C   UNL A   1      31.802  25.711  25.751  1.00  0.00     0.098 C 
ATOM     11  N   UNL A   1      31.110  24.421  25.643  1.00  0.00    -0.321 N 
ATOM     12  C   UNL A   1      30.661  25.520  23.598  1.00  0.00     0.039 C 
ATOM     13  C   UNL A   1      30.754  24.166  24.257  1.00  0.00     0.122 C 
BRANCH  11  14
ATOM     14  C   UNL A   1      30.905  23.408  26.537  1.00  0.00     0.322 C 
ATOM     15  O   UNL A   1      29.997  23.488  27.375  1.00  0.00    -0.248 OA
ATOM     16  N   UNL A   1      31.506  22.205  26.458  1.00  0.00    -0.308 N 
ATOM     17  H   UNL A   1      30.909  21.489  26.774  1.00  0.00     0.171 HD
BRANCH  16  18
ATOM     18  C   UNL A   1      32.740  21.687  26.052  1.00  0.00     0.043 A 
ATOM     19  C   UNL A   1      33.864  22.137  26.767  1.00  0.00     0.029 A 
ATOM     20  C   UNL A   1      32.920  20.868  24.941  1.00  0.00     0.029 A 
ATOM     21  C   UNL A   1      35.150  21.736  26.407  1.00  0.00     0.041 A 
ATOM     22  C   UNL A   1      34.216  20.496  24.560  1.00  0.00     0.041 A 
ATOM     23  C   UNL A   1      35.316  20.927  25.295  1.00  0.00     0.123 A 
ATOM     24  F   UNL A   1      36.552  20.586  24.907  1.00  0.00    -0.207 F 
ENDBRANCH  16  18
ENDBRANCH  11  14
ENDBRANCH   6   8
ENDBRANCH   5   6
ENDBRANCH   4   5
ENDBRANCH   3   4
ENDBRANCH   2   3
ENDBRANCH   1   2
BRANCH   1  25
ATOM     25  C   UNL A   1      34.122  33.366  27.970  1.00  0.00     0.188 C 
BRANCH  25  26
ATOM     26  O   UNL A   1      33.175  34.064  28.755  1.00  0.00    -0.376 OA
BRANCH  26  27
ATOM     27  C   UNL A   1      33.654  35.036  29.675  1.00  0.00     0.202 C 
BRANCH  27  28
ATOM     28  C   UNL A   1      34.257  34.492  30.969  1.00  0.00     0.261 C 
BRANCH  28  29
ATOM     29  O   UNL A   1      35.358  33.609  30.696  1.00  0.00    -0.460 OA
BRANCH  29  30
ATOM     30  C   UNL A   1      35.562  32.634  31.608  1.00  0.00     0.338 C 
ATOM     31  O   UNL A   1      34.901  32.382  32.607  1.00  0.00    -0.246 OA
BRANCH  30  32
ATOM     32  C   UNL A   1      36.642  31.759  31.148  1.00  0.00     0.060 A 
ATOM     33  C   UNL A   1      37.329  30.977  32.090  1.00  0.00     0.016 A 
ATOM     34  C   UNL A   1      37.030  31.785  29.812  1.00  0.00     0.016 A 
ATOM     35  C   UNL A   1      38.432  30.227  31.697  1.00  0.00     0.010 A 
ATOM     36  C   UNL A   1      38.150  31.056  29.426  1.00  0.00     0.010 A 
ATOM     37  C   UNL A   1      38.868  30.298  30.370  1.00  0.00    -0.014 A 
BRANCH  37  38
ATOM     38  C   UNL A   1      40.162  29.720  29.957  1.00  0.00     0.031 A 
ATOM     39  C   UNL A   1      41.348  30.631  29.870  1.00  0.00     0.074 A 
ATOM     40  C   UNL A   1      40.242  28.435  29.577  1.00  0.00     0.049 A 
ATOM     41  N   UNL A   1      42.493  30.450  29.270  1.00  0.00    -0.248 NA
ATOM     42  C   UNL A   1      41.214  31.935  30.541  1.00  0.00     0.031 C 
ATOM     43  C   UNL A   1      39.166  27.454  29.688  1.00  0.00     0.029 A 
ATOM     44  N   UNL A   1      41.268  27.752  28.975  1.00  0.00    -0.354 N 
ATOM     45  C   UNL A   1      43.203  31.629  29.456  1.00  0.00     0.074 A 
ATOM     46  C   UNL A   1      42.362  32.518  30.226  1.00  0.00     0.031 C 
ATOM     47  C   UNL A   1      39.571  26.301  29.128  1.00  0.00     0.029 A 
ATOM     48  C   UNL A   1      40.909  26.491  28.569  1.00  0.00     0.049 A 
ATOM     49  H   UNL A   1      42.168  28.129  28.846  1.00  0.00     0.167 HD
ATOM     50  C   UNL A   1      44.443  31.935  29.008  1.00  0.00     0.037 A 
ATOM     51  C   UNL A   1      41.567  25.619  27.782  1.00  0.00     0.037 A 
ATOM     52  C   UNL A   1      45.257  31.031  28.240  1.00  0.00     0.049 A 
ATOM     53  C   UNL A   1      42.913  26.010  27.227  1.00  0.00     0.074 A 
ATOM     54  C   UNL A   1      46.529  31.229  27.736  1.00  0.00     0.029 A 
ATOM     55  N   UNL A   1      44.867  29.755  27.861  1.00  0.00    -0.354 N 
ATOM     56  N   UNL A   1      43.583  27.126  27.390  1.00  0.00    -0.248 NA
ATOM     57  C   UNL A   1      43.590  25.026  26.372  1.00  0.00     0.031 C 
ATOM     58  C   UNL A   1      46.889  30.090  27.009  1.00  0.00     0.029 A 
ATOM     59  C   UNL A   1      45.867  29.159  27.112  1.00  0.00     0.049 A 
ATOM     60  H   UNL A   1      44.006  29.334  28.090  1.00  0.00     0.167 HD
ATOM     61  C   UNL A   1      44.773  26.965  26.694  1.00  0.00     0.074 A 
ATOM     62  C   UNL A   1      44.732  25.643  26.102  1.00  0.00     0.031 C 
ATOM     63  C   UNL A   1      45.810  27.829  26.561  1.00  0.00     0.037 A 
BRANCH  50  64
ATOM     64  C   UNL A   1      44.968  33.309  29.296  1.00  0.00     0.064 A 
ATOM     65  C   UNL A   1      44.781  34.378  28.406  1.00  0.00     0.173 A 
ATOM     66  C   UNL A   1      45.647  33.570  30.497  1.00  0.00     0.173 A 
ATOM     67  F   UNL A   1      44.153  34.180  27.238  1.00  0.00    -0.203 F 
ATOM     68  C   UNL A   1      45.275  35.648  28.696  1.00  0.00     0.198 A 
ATOM     69  C   UNL A   1      46.114  34.846  30.798  1.00  0.00     0.198 A 
ATOM     70  F   UNL A   1      45.854  32.584  31.384  1.00  0.00    -0.203 F 
ATOM     71  F   UNL A   1      45.126  36.642  27.809  1.00  0.00    -0.200 F 
ATOM     72  C   UNL A   1      45.934  35.882  29.894  1.00  0.00     0.200 A 
ATOM     73  F   UNL A   1      46.740  35.073  31.960  1.00  0.00    -0.200 F 
ATOM     74  F   UNL A   1      46.403  37.106  30.175  1.00  0.00    -0.200 F 
ENDBRANCH  50  64
BRANCH  51  75
ATOM     75  C   UNL A   1      40.947  24.311  27.446  1.00  0.00     0.064 A 
ATOM     76  C   UNL A   1      41.425  23.122  28.014  1.00  0.00     0.173 A 
ATOM     77  C   UNL A   1      39.867  24.220  26.555  1.00  0.00     0.173 A 
ATOM     78  F   UNL A   1      42.470  23.156  28.853  1.00  0.00    -0.203 F 
ATOM     79  C   UNL A   1      40.855  21.892  27.694  1.00  0.00     0.198 A 
ATOM     80  C   UNL A   1      39.279  22.992  26.258  1.00  0.00     0.198 A 
ATOM     81  F   UNL A   1      39.373  25.327  25.981  1.00  0.00    -0.203 F 
ATOM     82  F   UNL A   1      41.359  20.767  28.221  1.00  0.00    -0.200 F 
ATOM     83  C   UNL A   1      39.778  21.828  26.823  1.00  0.00     0.200 A 
ATOM     84  F   UNL A   1      38.231  22.936  25.425  1.00  0.00    -0.200 F 
ATOM     85  F   UNL A   1      39.227  20.645  26.521  1.00  0.00    -0.200 F 
ENDBRANCH  51  75
BRANCH  63  86
ATOM     86  C   UNL A   1      47.017  27.354  25.808  1.00  0.00     0.064 A 
ATOM     87  C   UNL A   1      47.203  27.643  24.450  1.00  0.00     0.173 A 
ATOM     88  C   UNL A   1      48.044  26.678  26.487  1.00  0.00     0.173 A 
ATOM     89  F   UNL A   1      46.245  28.274  23.756  1.00  0.00    -0.203 F 
ATOM     90  C   UNL A   1      48.372  27.264  23.794  1.00  0.00     0.198 A 
ATOM     91  C   UNL A   1      49.222  26.326  25.836  1.00  0.00     0.198 A 
ATOM     92  F   UNL A   1      47.914  26.387  27.791  1.00  0.00    -0.203 F 
ATOM     93  F   UNL A   1      48.521  27.524  22.488  1.00  0.00    -0.200 F 
ATOM     94  C   UNL A   1      49.384  26.617  24.490  1.00  0.00     0.200 A 
ATOM     95  F   UNL A   1      50.203  25.716  26.515  1.00  0.00    -0.200 F 
ATOM     96  F   UNL A   1      50.516  26.273  23.863  1.00  0.00    -0.200 F 
ENDBRANCH  63  86
ENDBRANCH  37  38
ENDBRANCH  30  32
ENDBRANCH  29  30
ENDBRANCH  28  29
ENDBRANCH  27  28
ENDBRANCH  26  27
ENDBRANCH  25  26
ENDBRANCH   1  25
TORSDOF 19
ENDMDL
MODEL 2
REMARK VINA RESULT:     -11.3      4.466      8.570
REMARK SMILES C[C@H]1[C@H](C(=O)OCCOCCOCCOC(=O)c2ccc(-c3c4nc(c(-c5c(F)c(F)c(F)c(F)c5F)c5ccc([nH]5)c(-c5c(F)c(F)c(F)c(F)c5F)c5nc(c(-c6c(F)c(F)c(F)c(F)c6F)c6ccc3[nH]6)C=C5)C=C4)cc2)CCN1C(=O)Nc1ccc(F)cc1
REMARK SMILES IDX 10 1 9 2 8 3 7 4 6 5 4 6 5 7 3 8 1 9 2 10 83 11 81 12 82 13
REMARK SMILES IDX 84 14 85 15 86 16 87 18 88 19 93 20 89 21 92 22 90 23 91 24
REMARK SMILES IDX 11 25 12 26 13 27 14 28 15 29 16 30 17 31 18 32 19 33 80 34
REMARK SMILES IDX 20 35 79 36 21 37 22 38 23 39 73 40 24 41 78 42 72 43 74 44
REMARK SMILES IDX 25 45 77 46 71 47 70 48 26 50 58 51 38 52 57 53 39 54 42 55
REMARK SMILES IDX 56 56 75 57 40 58 41 59 55 61 76 62 43 63 27 64 28 65 36 66
REMARK SMILES IDX 29 67 30 68 34 69 37 70 31 71 32 72 35 73 33 74 59 75 60 76
REMARK SMILES IDX 68 77 61 78 62 79 66 80 69 81 63 82 64 83 67 84 65 85 44 86
REMARK SMILES IDX 45 87 53 88 46 89 47 90 51 91 54 92 48 93 49 94 52 95 50 96
REMARK H PARENT 86 17 74 49 42 60
REMARK Flexibility Score: inf
ROOT
ATOM      1  C   UNL A   1      30.510  29.186  22.267  1.00  0.00     0.188 C 
ENDROOT
BRANCH   1   2
ATOM      2  O   UNL A   1      30.292  27.822  21.950  1.00  0.00    -0.376 OA
BRANCH   2   3
ATOM      3  C   UNL A   1      31.134  26.816  22.486  1.00  0.00     0.202 C 
BRANCH   3   4
ATOM      4  C   UNL A   1      32.601  26.805  22.055  1.00  0.00     0.261 C 
BRANCH   4   5
ATOM      5  O   UNL A   1      33.543  26.513  23.108  1.00  0.00    -0.463 OA
BRANCH   5   6
ATOM      6  C   UNL A   1      33.947  25.221  23.198  1.00  0.00     0.311 C 
ATOM      7  O   UNL A   1      33.998  24.445  22.249  1.00  0.00    -0.252 OA
BRANCH   6   8
ATOM      8  C   UNL A   1      34.233  24.751  24.611  1.00  0.00     0.123 C 
ATOM      9  C   UNL A   1      32.474  24.749  26.391  1.00  0.00     0.032 C 
ATOM     10  C   UNL A   1      33.195  23.873  25.359  1.00  0.00     0.098 C 
ATOM     11  N   UNL A   1      33.970  22.793  25.981  1.00  0.00    -0.321 N 
ATOM     12  C   UNL A   1      35.522  23.942  24.617  1.00  0.00     0.039 C 
ATOM     13  C   UNL A   1      35.391  23.055  25.831  1.00  0.00     0.122 C 
BRANCH  11  14
ATOM     14  C   UNL A   1      33.609  21.739  26.771  1.00  0.00     0.322 C 
ATOM     15  O   UNL A   1      33.738  21.806  28.001  1.00  0.00    -0.248 OA
ATOM     16  N   UNL A   1      32.921  20.669  26.325  1.00  0.00    -0.308 N 
ATOM     17  H   UNL A   1      32.312  20.325  27.019  1.00  0.00     0.171 HD
BRANCH  16  18
ATOM     18  C   UNL A   1      32.829  19.909  25.155  1.00  0.00     0.043 A 
ATOM     19  C   UNL A   1      32.370  20.588  24.012  1.00  0.00     0.029 A 
ATOM     20  C   UNL A   1      33.047  18.536  25.093  1.00  0.00     0.029 A 
ATOM     21  C   UNL A   1      32.179  19.914  22.807  1.00  0.00     0.041 A 
ATOM     22  C   UNL A   1      32.819  17.855  23.889  1.00  0.00     0.041 A 
ATOM     23  C   UNL A   1      32.393  18.546  22.760  1.00  0.00     0.123 A 
ATOM     24  F   UNL A   1      32.153  17.881  21.622  1.00  0.00    -0.207 F 
ENDBRANCH  16  18
ENDBRANCH  11  14
ENDBRANCH   6   8
ENDBRANCH   5   6
ENDBRANCH   4   5
ENDBRANCH   3   4
ENDBRANCH   2   3
ENDBRANCH   1   2
BRANCH   1  25
ATOM     25  C   UNL A   1      29.856  29.834  23.495  1.00  0.00     0.188 C 
BRANCH  25  26
ATOM     26  O   UNL A   1      30.609  30.130  24.655  1.00  0.00    -0.376 OA
BRANCH  26  27
ATOM     27  C   UNL A   1      31.559  29.171  25.099  1.00  0.00     0.202 C 
BRANCH  27  28
ATOM     28  C   UNL A   1      33.027  29.573  24.966  1.00  0.00     0.261 C 
BRANCH  28  29
ATOM     29  O   UNL A   1      33.684  29.564  26.245  1.00  0.00    -0.460 OA
BRANCH  29  30
ATOM     30  C   UNL A   1      33.739  30.755  26.879  1.00  0.00     0.338 C 
ATOM     31  O   UNL A   1      32.947  31.686  26.811  1.00  0.00    -0.246 OA
BRANCH  30  32
ATOM     32  C   UNL A   1      34.843  30.741  27.841  1.00  0.00     0.060 A 
ATOM     33  C   UNL A   1      35.751  31.811  27.847  1.00  0.00     0.016 A 
ATOM     34  C   UNL A   1      35.027  29.633  28.663  1.00  0.00     0.016 A 
ATOM     35  C   UNL A   1      36.871  31.765  28.670  1.00  0.00     0.010 A 
ATOM     36  C   UNL A   1      36.162  29.577  29.465  1.00  0.00     0.010 A 
ATOM     37  C   UNL A   1      37.099  30.628  29.451  1.00  0.00    -0.014 A 
BRANCH  37  38
ATOM     38  C   UNL A   1      38.382  30.424  30.152  1.00  0.00     0.031 A 
ATOM     39  C   UNL A   1      39.378  29.485  29.544  1.00  0.00     0.074 A 
ATOM     40  C   UNL A   1      38.599  30.990  31.350  1.00  0.00     0.049 A 
ATOM     41  N   UNL A   1      40.423  28.918  30.084  1.00  0.00    -0.248 NA
ATOM     42  C   UNL A   1      39.153  29.125  28.134  1.00  0.00     0.031 C 
ATOM     43  C   UNL A   1      37.724  31.966  31.993  1.00  0.00     0.029 A 
ATOM     44  N   UNL A   1      39.606  30.783  32.257  1.00  0.00    -0.354 N 
ATOM     45  C   UNL A   1      40.960  28.105  29.095  1.00  0.00     0.074 A 
ATOM     46  C   UNL A   1      40.127  28.252  27.921  1.00  0.00     0.031 C 
ATOM     47  C   UNL A   1      38.208  32.243  33.216  1.00  0.00     0.029 A 
ATOM     48  C   UNL A   1      39.388  31.414  33.456  1.00  0.00     0.049 A 
ATOM     49  H   UNL A   1      40.402  30.235  32.068  1.00  0.00     0.167 HD
ATOM     50  C   UNL A   1      42.045  27.300  29.174  1.00  0.00     0.037 A 
ATOM     51  C   UNL A   1      40.037  31.285  34.629  1.00  0.00     0.037 A 
ATOM     52  C   UNL A   1      42.853  27.170  30.357  1.00  0.00     0.049 A 
ATOM     53  C   UNL A   1      41.195  30.323  34.720  1.00  0.00     0.074 A 
ATOM     54  C   UNL A   1      43.977  26.390  30.554  1.00  0.00     0.029 A 
ATOM     55  N   UNL A   1      42.612  27.838  31.549  1.00  0.00    -0.354 N 
ATOM     56  N   UNL A   1      41.698  29.545  33.792  1.00  0.00    -0.248 NA
ATOM     57  C   UNL A   1      41.868  30.216  36.021  1.00  0.00     0.031 C 
ATOM     58  C   UNL A   1      44.388  26.549  31.881  1.00  0.00     0.029 A 
ATOM     59  C   UNL A   1      43.556  27.474  32.493  1.00  0.00     0.049 A 
ATOM     60  H   UNL A   1      41.878  28.477  31.701  1.00  0.00     0.167 HD
ATOM     61  C   UNL A   1      42.768  28.886  34.383  1.00  0.00     0.074 A 
ATOM     62  C   UNL A   1      42.838  29.353  35.752  1.00  0.00     0.031 C 
ATOM     63  C   UNL A   1      43.619  27.980  33.841  1.00  0.00     0.037 A 
BRANCH  50  64
ATOM     64  C   UNL A   1      42.388  26.471  27.973  1.00  0.00     0.064 A 
ATOM     65  C   UNL A   1      43.333  26.893  27.025  1.00  0.00     0.173 A 
ATOM     66  C   UNL A   1      41.780  25.221  27.780  1.00  0.00     0.173 A 
ATOM     67  F   UNL A   1      43.932  28.086  27.154  1.00  0.00    -0.203 F 
ATOM     68  C   UNL A   1      43.639  26.104  25.918  1.00  0.00     0.198 A 
ATOM     69  C   UNL A   1      42.110  24.422  26.688  1.00  0.00     0.198 A 
ATOM     70  F   UNL A   1      40.869  24.769  28.655  1.00  0.00    -0.203 F 
ATOM     71  F   UNL A   1      44.510  26.548  25.001  1.00  0.00    -0.200 F 
ATOM     72  C   UNL A   1      43.033  24.867  25.755  1.00  0.00     0.200 A 
ATOM     73  F   UNL A   1      41.531  23.223  26.538  1.00  0.00    -0.200 F 
ATOM     74  F   UNL A   1      43.333  24.107  24.692  1.00  0.00    -0.200 F 
ENDBRANCH  50  64
BRANCH  51  75
ATOM     75  C   UNL A   1      39.583  32.057  35.815  1.00  0.00     0.064 A 
ATOM     76  C   UNL A   1      40.174  33.285  36.141  1.00  0.00     0.173 A 
ATOM     77  C   UNL A   1      38.553  31.589  36.644  1.00  0.00     0.173 A 
ATOM     78  F   UNL A   1      41.179  33.763  35.392  1.00  0.00    -0.203 F 
ATOM     79  C   UNL A   1      39.761  34.009  37.258  1.00  0.00     0.198 A 
ATOM     80  C   UNL A   1      38.121  32.327  37.744  1.00  0.00     0.198 A 
ATOM     81  F   UNL A   1      37.956  30.418  36.378  1.00  0.00    -0.203 F 
ATOM     82  F   UNL A   1      40.373  35.160  37.570  1.00  0.00    -0.200 F 
ATOM     83  C   UNL A   1      38.731  33.533  38.054  1.00  0.00     0.200 A 
ATOM     84  F   UNL A   1      37.117  31.869  38.504  1.00  0.00    -0.200 F 
ATOM     85  F   UNL A   1      38.330  34.233  39.124  1.00  0.00    -0.200 F 
ENDBRANCH  51  75
BRANCH  63  86
ATOM     86  C   UNL A   1      44.745  27.486  34.699  1.00  0.00     0.064 A 
ATOM     87  C   UNL A   1      45.947  28.194  34.824  1.00  0.00     0.173 A 
ATOM     88  C   UNL A   1      44.575  26.330  35.478  1.00  0.00     0.173 A 
ATOM     89  F   UNL A   1      46.161  29.297  34.091  1.00  0.00    -0.203 F 
ATOM     90  C   UNL A   1      46.945  27.758  35.693  1.00  0.00     0.198 A 
ATOM     91  C   UNL A   1      45.562  25.913  36.365  1.00  0.00     0.198 A 
ATOM     92  F   UNL A   1      43.438  25.622  35.397  1.00  0.00    -0.203 F 
ATOM     93  F   UNL A   1      48.099  28.434  35.779  1.00  0.00    -0.200 F 
ATOM     94  C   UNL A   1      46.747  26.625  36.470  1.00  0.00     0.200 A 
ATOM     95  F   UNL A   1      45.362  24.828  37.126  1.00  0.00    -0.200 F 
ATOM     96  F   UNL A   1      47.699  26.221  37.321  1.00  0.00    -0.200 F 
ENDBRANCH  63  86
ENDBRANCH  37  38
ENDBRANCH  30  32
ENDBRANCH  29  30
ENDBRANCH  28  29
ENDBRANCH  27  28
ENDBRANCH  26  27
ENDBRANCH  25  26
ENDBRANCH   1  25
TORSDOF 19
ENDMDL
MODEL 3
REMARK VINA RESULT:     -10.8      4.532      8.666
REMARK SMILES C[C@H]1[C@H](C(=O)OCCOCCOCCOC(=O)c2ccc(-c3c4nc(c(-c5c(F)c(F)c(F)c(F)c5F)c5ccc([nH]5)c(-c5c(F)c(F)c(F)c(F)c5F)c5nc(c(-c6c(F)c(F)c(F)c(F)c6F)c6ccc3[nH]6)C=C5)C=C4)cc2)CCN1C(=O)Nc1ccc(F)cc1
REMARK SMILES IDX 10 1 9 2 8 3 7 4 6 5 4 6 5 7 3 8 1 9 2 10 83 11 81 12 82 13
REMARK SMILES IDX 84 14 85 15 86 16 87 18 88 19 93 20 89 21 92 22 90 23 91 24
REMARK SMILES IDX 11 25 12 26 13 27 14 28 15 29 16 30 17 31 18 32 19 33 80 34
REMARK SMILES IDX 20 35 79 36 21 37 22 38 23 39 73 40 24 41 78 42 72 43 74 44
REMARK SMILES IDX 25 45 77 46 71 47 70 48 26 50 58 51 38 52 57 53 39 54 42 55
REMARK SMILES IDX 56 56 75 57 40 58 41 59 55 61 76 62 43 63 27 64 28 65 36 66
REMARK SMILES IDX 29 67 30 68 34 69 37 70 31 71 32 72 35 73 33 74 59 75 60 76
REMARK SMILES IDX 68 77 61 78 62 79 66 80 69 81 63 82 64 83 67 84 65 85 44 86
REMARK SMILES IDX 45 87 53 88 46 89 47 90 51 91 54 92 48 93 49 94 52 95 50 96
REMARK H PARENT 86 17 74 49 42 60
REMARK Flexibility Score: inf
ROOT
ATOM      1  C   UNL A   1      30.588  29.057  22.303  1.00  0.00     0.188 C 
ENDROOT
BRANCH   1   2
ATOM      2  O   UNL A   1      30.418  27.677  22.030  1.00  0.00    -0.376 OA
BRANCH   2   3
ATOM      3  C   UNL A   1      30.999  26.699  22.875  1.00  0.00     0.202 C 
BRANCH   3   4
ATOM      4  C   UNL A   1      30.144  26.134  24.010  1.00  0.00     0.261 C 
BRANCH   4   5
ATOM      5  O   UNL A   1      30.379  24.744  24.315  1.00  0.00    -0.463 OA
BRANCH   5   6
ATOM      6  C   UNL A   1      31.044  24.498  25.472  1.00  0.00     0.311 C 
ATOM      7  O   UNL A   1      31.241  25.334  26.348  1.00  0.00    -0.252 OA
BRANCH   6   8
ATOM      8  C   UNL A   1      31.647  23.109  25.566  1.00  0.00     0.123 C 
ATOM      9  C   UNL A   1      31.937  21.649  23.554  1.00  0.00     0.032 C 
ATOM     10  C   UNL A   1      32.656  22.630  24.489  1.00  0.00     0.098 C 
ATOM     11  N   UNL A   1      33.752  21.997  25.233  1.00  0.00    -0.321 N 
ATOM     12  C   UNL A   1      32.379  22.970  26.893  1.00  0.00     0.039 C 
ATOM     13  C   UNL A   1      33.397  21.886  26.637  1.00  0.00     0.122 C 
BRANCH  11  14
ATOM     14  C   UNL A   1      34.904  21.383  24.829  1.00  0.00     0.322 C 
ATOM     15  O   UNL A   1      35.869  22.056  24.443  1.00  0.00    -0.248 OA
ATOM     16  N   UNL A   1      35.154  20.070  25.003  1.00  0.00    -0.308 N 
ATOM     17  H   UNL A   1      36.111  19.912  25.175  1.00  0.00     0.171 HD
BRANCH  16  18
ATOM     18  C   UNL A   1      34.438  18.870  25.009  1.00  0.00     0.043 A 
ATOM     19  C   UNL A   1      35.153  17.721  24.626  1.00  0.00     0.029 A 
ATOM     20  C   UNL A   1      33.071  18.774  25.251  1.00  0.00     0.029 A 
ATOM     21  C   UNL A   1      34.522  16.482  24.534  1.00  0.00     0.041 A 
ATOM     22  C   UNL A   1      32.432  17.533  25.123  1.00  0.00     0.041 A 
ATOM     23  C   UNL A   1      33.160  16.401  24.771  1.00  0.00     0.123 A 
ATOM     24  F   UNL A   1      32.535  15.225  24.625  1.00  0.00    -0.207 F 
ENDBRANCH  16  18
ENDBRANCH  11  14
ENDBRANCH   6   8
ENDBRANCH   5   6
ENDBRANCH   4   5
ENDBRANCH   3   4
ENDBRANCH   2   3
ENDBRANCH   1   2
BRANCH   1  25
ATOM     25  C   UNL A   1      29.843  29.740  23.458  1.00  0.00     0.188 C 
BRANCH  25  26
ATOM     26  O   UNL A   1      30.538  30.235  24.586  1.00  0.00    -0.376 OA
BRANCH  26  27
ATOM     27  C   UNL A   1      31.462  29.373  25.235  1.00  0.00     0.202 C 
BRANCH  27  28
ATOM     28  C   UNL A   1      32.941  29.688  25.013  1.00  0.00     0.261 C 
BRANCH  28  29
ATOM     29  O   UNL A   1      33.666  29.670  26.254  1.00  0.00    -0.460 OA
BRANCH  29  30
ATOM     30  C   UNL A   1      33.715  30.846  26.917  1.00  0.00     0.338 C 
ATOM     31  O   UNL A   1      32.920  31.775  26.869  1.00  0.00    -0.246 OA
BRANCH  30  32
ATOM     32  C   UNL A   1      34.817  30.813  27.881  1.00  0.00     0.060 A 
ATOM     33  C   UNL A   1      35.723  31.885  27.912  1.00  0.00     0.016 A 
ATOM     34  C   UNL A   1      35.001  29.688  28.680  1.00  0.00     0.016 A 
ATOM     35  C   UNL A   1      36.841  31.824  28.737  1.00  0.00     0.010 A 
ATOM     36  C   UNL A   1      36.134  29.617  29.483  1.00  0.00     0.010 A 
ATOM     37  C   UNL A   1      37.069  30.670  29.494  1.00  0.00    -0.014 A 
BRANCH  37  38
ATOM     38  C   UNL A   1      38.351  30.454  30.194  1.00  0.00     0.031 A 
ATOM     39  C   UNL A   1      39.339  29.509  29.582  1.00  0.00     0.074 A 
ATOM     40  C   UNL A   1      38.573  31.015  31.393  1.00  0.00     0.049 A 
ATOM     41  N   UNL A   1      40.380  28.932  30.120  1.00  0.00    -0.248 NA
ATOM     42  C   UNL A   1      39.110  29.155  28.171  1.00  0.00     0.031 C 
ATOM     43  C   UNL A   1      37.707  31.996  32.039  1.00  0.00     0.029 A 
ATOM     44  N   UNL A   1      39.579  30.796  32.299  1.00  0.00    -0.354 N 
ATOM     45  C   UNL A   1      40.909  28.117  29.128  1.00  0.00     0.074 A 
ATOM     46  C   UNL A   1      40.077  28.275  27.955  1.00  0.00     0.031 C 
ATOM     47  C   UNL A   1      38.193  32.265  33.263  1.00  0.00     0.029 A 
ATOM     48  C   UNL A   1      39.367  31.426  33.500  1.00  0.00     0.049 A 
ATOM     49  H   UNL A   1      40.371  30.243  32.108  1.00  0.00     0.167 HD
ATOM     50  C   UNL A   1      41.987  27.303  29.204  1.00  0.00     0.037 A 
ATOM     51  C   UNL A   1      40.016  31.288  34.672  1.00  0.00     0.037 A 
ATOM     52  C   UNL A   1      42.795  27.163  30.386  1.00  0.00     0.049 A 
ATOM     53  C   UNL A   1      41.166  30.317  34.759  1.00  0.00     0.074 A 
ATOM     54  C   UNL A   1      43.913  26.373  30.580  1.00  0.00     0.029 A 
ATOM     55  N   UNL A   1      42.560  27.830  31.580  1.00  0.00    -0.354 N 
ATOM     56  N   UNL A   1      41.662  29.537  33.829  1.00  0.00    -0.248 NA
ATOM     57  C   UNL A   1      41.839  30.200  36.060  1.00  0.00     0.031 C 
ATOM     58  C   UNL A   1      44.326  26.524  31.908  1.00  0.00     0.029 A 
ATOM     59  C   UNL A   1      43.502  27.455  32.523  1.00  0.00     0.049 A 
ATOM     60  H   UNL A   1      41.831  28.474  31.734  1.00  0.00     0.167 HD
ATOM     61  C   UNL A   1      42.727  28.867  34.417  1.00  0.00     0.074 A 
ATOM     62  C   UNL A   1      42.802  29.330  35.788  1.00  0.00     0.031 C 
ATOM     63  C   UNL A   1      43.570  27.957  33.872  1.00  0.00     0.037 A 
BRANCH  50  64
ATOM     64  C   UNL A   1      42.323  26.475  28.000  1.00  0.00     0.064 A 
ATOM     65  C   UNL A   1      41.718  25.231  27.763  1.00  0.00     0.173 A 
ATOM     66  C   UNL A   1      43.245  26.946  27.052  1.00  0.00     0.173 A 
ATOM     67  F   UNL A   1      40.842  24.727  28.644  1.00  0.00    -0.203 F 
ATOM     68  C   UNL A   1      42.043  24.480  26.635  1.00  0.00     0.198 A 
ATOM     69  C   UNL A   1      43.545  26.207  25.911  1.00  0.00     0.198 A 
ATOM     70  F   UNL A   1      43.852  28.129  27.230  1.00  0.00    -0.203 F 
ATOM     71  F   UNL A   1      41.488  23.273  26.453  1.00  0.00    -0.200 F 
ATOM     72  C   UNL A   1      42.949  24.972  25.707  1.00  0.00     0.200 A 
ATOM     73  F   UNL A   1      44.412  26.688  25.011  1.00  0.00    -0.200 F 
ATOM     74  F   UNL A   1      43.255  24.251  24.619  1.00  0.00    -0.200 F 
ENDBRANCH  50  64
BRANCH  51  75
ATOM     75  C   UNL A   1      39.569  32.061  35.861  1.00  0.00     0.064 A 
ATOM     76  C   UNL A   1      38.521  31.596  36.666  1.00  0.00     0.173 A 
ATOM     77  C   UNL A   1      40.177  33.274  36.217  1.00  0.00     0.173 A 
ATOM     78  F   UNL A   1      37.893  30.453  36.353  1.00  0.00    -0.203 F 
ATOM     79  C   UNL A   1      38.090  32.321  37.775  1.00  0.00     0.198 A 
ATOM     80  C   UNL A   1      39.764  33.983  37.342  1.00  0.00     0.198 A 
ATOM     81  F   UNL A   1      41.183  33.764  35.477  1.00  0.00    -0.203 F 
ATOM     82  F   UNL A   1      37.057  31.874  38.504  1.00  0.00    -0.200 F 
ATOM     83  C   UNL A   1      38.716  33.510  38.116  1.00  0.00     0.200 A 
ATOM     84  F   UNL A   1      40.380  35.126  37.675  1.00  0.00    -0.200 F 
ATOM     85  F   UNL A   1      38.304  34.204  39.187  1.00  0.00    -0.200 F 
ENDBRANCH  51  75
BRANCH  63  86
ATOM     86  C   UNL A   1      44.693  27.450  34.728  1.00  0.00     0.064 A 
ATOM     87  C   UNL A   1      45.913  28.130  34.827  1.00  0.00     0.173 A 
ATOM     88  C   UNL A   1      44.502  26.314  35.530  1.00  0.00     0.173 A 
ATOM     89  F   UNL A   1      46.146  29.213  34.071  1.00  0.00    -0.203 F 
ATOM     90  C   UNL A   1      46.909  27.686  35.694  1.00  0.00     0.198 A 
ATOM     91  C   UNL A   1      45.488  25.889  36.415  1.00  0.00     0.198 A 
ATOM     92  F   UNL A   1      43.347  25.634  35.475  1.00  0.00    -0.203 F 
ATOM     93  F   UNL A   1      48.080  28.334  35.755  1.00  0.00    -0.200 F 
ATOM     94  C   UNL A   1      46.691  26.574  36.494  1.00  0.00     0.200 A 
ATOM     95  F   UNL A   1      45.268  24.824  37.199  1.00  0.00    -0.200 F 
ATOM     96  F   UNL A   1      47.642  26.161  37.343  1.00  0.00    -0.200 F 
ENDBRANCH  63  86
ENDBRANCH  37  38
ENDBRANCH  30  32
ENDBRANCH  29  30
ENDBRANCH  28  29
ENDBRANCH  27  28
ENDBRANCH  26  27
ENDBRANCH  25  26
ENDBRANCH   1  25
TORSDOF 19
ENDMDL
