MODEL 1
REMARK VINA RESULT:     -13.4      0.000      0.000
REMARK SMILES Cc1ccc(S(=O)(=O)N2c3ccc(C(=O)OCCOCCOCCOC(=O)c4ccc(-c5c6nc(c(-c7c(F)c(F)c(F)c(F)c7F)c7ccc([nH]7)c(-c7c(F)c(F)c(F)c(F)c7F)c7nc(c(-c8c(F)c(F)c(F)c(F)c8F)c8ccc5[nH]8)C=C7)C=C6)cc4)cc3C[C@H]2C)cc1
REMARK SMILES IDX 20 1 19 2 18 3 17 4 16 5 14 6 15 7 13 8 9 9 10 10 94 11
REMARK SMILES IDX 11 12 92 13 93 14 95 15 12 16 91 17 6 18 7 19 8 20 5 21 1 22
REMARK SMILES IDX 2 23 3 24 97 25 4 26 96 27 21 28 22 29 23 30 24 31 25 32
REMARK SMILES IDX 26 33 27 34 28 35 29 36 90 37 30 38 89 39 31 40 32 41 33 42
REMARK SMILES IDX 83 43 34 44 88 45 82 46 84 47 35 48 87 49 81 50 80 51 36 53
REMARK SMILES IDX 68 54 48 55 67 56 49 57 52 58 66 59 85 60 50 61 51 62 65 64
REMARK SMILES IDX 86 65 53 66 37 67 38 68 46 69 39 70 40 71 44 72 47 73 41 74
REMARK SMILES IDX 42 75 45 76 43 77 69 78 70 79 78 80 71 81 72 82 76 83 79 84
REMARK SMILES IDX 73 85 74 86 77 87 75 88 54 89 55 90 63 91 56 92 57 93 61 94
REMARK SMILES IDX 64 95 58 96 59 97 62 98 60 99
REMARK H PARENT 84 52 52 63
REMARK Flexibility Score: inf
ROOT
ATOM      1  C   UNL A   1      43.488  18.901  25.405  1.00  0.00     0.188 C 
ENDROOT
BRANCH   1   2
ATOM      2  O   UNL A   1      42.077  19.203  25.342  1.00  0.00    -0.376 OA
BRANCH   2   3
ATOM      3  C   UNL A   1      41.279  19.507  26.485  1.00  0.00     0.202 C 
BRANCH   3   4
ATOM      4  C   UNL A   1      40.622  21.038  26.826  1.00  0.00     0.261 C 
BRANCH   4   5
ATOM      5  O   UNL A   1      39.603  22.038  25.967  1.00  0.00    -0.460 OA
BRANCH   5   6
ATOM      6  C   UNL A   1      38.623  23.020  26.212  1.00  0.00     0.338 C 
ATOM      7  O   UNL A   1      38.570  23.846  27.113  1.00  0.00    -0.246 OA
BRANCH   6   8
ATOM      8  C   UNL A   1      37.433  23.298  25.355  1.00  0.00     0.060 A 
ATOM      9  N   UNL A   1      33.307  23.411  24.309  1.00  0.00    -0.263 N 
ATOM     10  C   UNL A   1      34.716  23.260  24.604  1.00  0.00     0.055 A 
ATOM     11  C   UNL A   1      33.061  24.911  24.495  1.00  0.00     0.101 C 
ATOM     12  C   UNL A   1      35.519  22.159  24.341  1.00  0.00     0.028 A 
ATOM     13  C   UNL A   1      35.219  24.371  25.261  1.00  0.00    -0.021 A 
ATOM     14  C   UNL A   1      34.125  25.369  25.526  1.00  0.00     0.063 C 
ATOM     15  C   UNL A   1      33.277  25.607  23.142  1.00  0.00     0.032 C 
ATOM     16  C   UNL A   1      36.876  22.181  24.719  1.00  0.00     0.018 A 
ATOM     17  C   UNL A   1      36.546  24.372  25.687  1.00  0.00     0.021 A 
BRANCH   9  18
ATOM     18  S   UNL A   1      32.308  22.419  25.334  1.00  0.00     0.264 S 
ATOM     19  O   UNL A   1      30.919  22.692  25.024  1.00  0.00    -0.201 OA
ATOM     20  O   UNL A   1      32.809  22.506  26.692  1.00  0.00    -0.201 OA
BRANCH  18  21
ATOM     21  C   UNL A   1      32.602  20.729  24.839  1.00  0.00     0.088 A 
ATOM     22  C   UNL A   1      33.199  16.709  23.414  1.00  0.00     0.044 C 
ATOM     23  C   UNL A   1      32.997  18.110  23.913  1.00  0.00    -0.051 A 
ATOM     24  C   UNL A   1      32.519  19.098  23.047  1.00  0.00     0.005 A 
ATOM     25  C   UNL A   1      33.243  18.438  25.253  1.00  0.00     0.005 A 
ATOM     26  C   UNL A   1      32.327  20.403  23.505  1.00  0.00     0.022 A 
ATOM     27  C   UNL A   1      33.042  19.742  25.719  1.00  0.00     0.022 A 
ENDBRANCH  18  21
ENDBRANCH   9  18
ENDBRANCH   6   8
ENDBRANCH   5   6
ENDBRANCH   4   5
ENDBRANCH   3   4
ENDBRANCH   2   3
ENDBRANCH   1   2
BRANCH   1  28
ATOM     28  C   UNL A   1      44.425  19.418  24.312  1.00  0.00     0.188 C 
BRANCH  28  29
ATOM     29  O   UNL A   1      44.496  20.829  24.405  1.00  0.00    -0.376 OA
BRANCH  29  30
ATOM     30  C   UNL A   1      45.528  21.341  25.227  1.00  0.00     0.202 C 
BRANCH  30  31
ATOM     31  C   UNL A   1      44.996  22.377  26.231  1.00  0.00     0.261 C 
BRANCH  31  32
ATOM     32  O   UNL A   1      43.609  22.687  25.937  1.00  0.00    -0.460 OA
BRANCH  32  33
ATOM     33  C   UNL A   1      43.334  23.918  25.396  1.00  0.00     0.338 C 
ATOM     34  O   UNL A   1      44.064  24.513  24.615  1.00  0.00    -0.246 OA
BRANCH  33  35
ATOM     35  C   UNL A   1      42.153  24.551  26.093  1.00  0.00     0.060 A 
ATOM     36  C   UNL A   1      41.463  25.696  25.663  1.00  0.00     0.016 A 
ATOM     37  C   UNL A   1      42.011  24.258  27.407  1.00  0.00     0.016 A 
ATOM     38  C   UNL A   1      40.786  26.593  26.606  1.00  0.00     0.010 A 
ATOM     39  C   UNL A   1      41.605  25.322  28.228  1.00  0.00     0.010 A 
ATOM     40  C   UNL A   1      40.898  26.486  27.997  1.00  0.00    -0.014 A 
BRANCH  40  41
ATOM     41  C   UNL A   1      40.669  27.597  29.116  1.00  0.00     0.031 A 
ATOM     42  C   UNL A   1      39.562  28.723  29.385  1.00  0.00     0.074 A 
ATOM     43  C   UNL A   1      41.627  27.684  30.068  1.00  0.00     0.049 A 
ATOM     44  N   UNL A   1      39.826  30.015  29.512  1.00  0.00    -0.248 NA
ATOM     45  C   UNL A   1      38.115  28.543  29.645  1.00  0.00     0.031 C 
ATOM     46  C   UNL A   1      41.624  28.527  31.265  1.00  0.00     0.029 A 
ATOM     47  N   UNL A   1      42.910  27.124  30.050  1.00  0.00    -0.354 N 
ATOM     48  C   UNL A   1      38.634  30.693  29.813  1.00  0.00     0.074 A 
ATOM     49  C   UNL A   1      37.585  29.759  29.706  1.00  0.00     0.031 C 
ATOM     50  C   UNL A   1      42.893  28.708  31.655  1.00  0.00     0.029 A 
ATOM     51  C   UNL A   1      43.748  28.056  30.681  1.00  0.00     0.049 A 
ATOM     52  H   UNL A   1      43.172  26.254  29.671  1.00  0.00     0.167 HD
ATOM     53  C   UNL A   1      38.485  31.933  30.348  1.00  0.00     0.037 A 
ATOM     54  C   UNL A   1      44.817  28.603  30.044  1.00  0.00     0.037 A 
ATOM     55  C   UNL A   1      39.714  32.350  30.937  1.00  0.00     0.049 A 
ATOM     56  C   UNL A   1      44.819  30.110  30.041  1.00  0.00     0.074 A 
ATOM     57  C   UNL A   1      40.214  32.169  32.213  1.00  0.00     0.029 A 
ATOM     58  N   UNL A   1      40.771  32.654  30.113  1.00  0.00    -0.354 N 
ATOM     59  N   UNL A   1      43.775  30.846  30.294  1.00  0.00    -0.248 NA
ATOM     60  C   UNL A   1      45.996  30.906  29.717  1.00  0.00     0.031 C 
ATOM     61  C   UNL A   1      41.611  32.361  32.152  1.00  0.00     0.029 A 
ATOM     62  C   UNL A   1      41.927  32.713  30.853  1.00  0.00     0.049 A 
ATOM     63  H   UNL A   1      40.709  32.805  29.142  1.00  0.00     0.167 HD
ATOM     64  C   UNL A   1      44.094  32.171  30.114  1.00  0.00     0.074 A 
ATOM     65  C   UNL A   1      45.505  32.155  29.793  1.00  0.00     0.031 C 
ATOM     66  C   UNL A   1      43.148  33.150  30.220  1.00  0.00     0.037 A 
BRANCH  53  67
ATOM     67  C   UNL A   1      37.114  32.509  30.646  1.00  0.00     0.064 A 
ATOM     68  C   UNL A   1      36.436  33.362  29.757  1.00  0.00     0.173 A 
ATOM     69  C   UNL A   1      36.469  32.285  31.885  1.00  0.00     0.173 A 
ATOM     70  F   UNL A   1      36.915  33.607  28.532  1.00  0.00    -0.203 F 
ATOM     71  C   UNL A   1      35.262  34.032  30.123  1.00  0.00     0.198 A 
ATOM     72  C   UNL A   1      35.315  32.983  32.263  1.00  0.00     0.198 A 
ATOM     73  F   UNL A   1      36.994  31.431  32.777  1.00  0.00    -0.203 F 
ATOM     74  F   UNL A   1      34.679  34.874  29.257  1.00  0.00    -0.200 F 
ATOM     75  C   UNL A   1      34.722  33.872  31.386  1.00  0.00     0.200 A 
ATOM     76  F   UNL A   1      34.807  32.830  33.495  1.00  0.00    -0.200 F 
ATOM     77  F   UNL A   1      33.647  34.581  31.760  1.00  0.00    -0.200 F 
ENDBRANCH  53  67
BRANCH  54  78
ATOM     78  C   UNL A   1      45.422  27.727  29.000  1.00  0.00     0.064 A 
ATOM     79  C   UNL A   1      44.925  27.821  27.682  1.00  0.00     0.173 A 
ATOM     80  C   UNL A   1      46.649  27.074  29.175  1.00  0.00     0.173 A 
ATOM     81  F   UNL A   1      43.758  28.444  27.450  1.00  0.00    -0.203 F 
ATOM     82  C   UNL A   1      45.668  27.388  26.586  1.00  0.00     0.198 A 
ATOM     83  C   UNL A   1      47.384  26.621  28.071  1.00  0.00     0.198 A 
ATOM     84  F   UNL A   1      47.207  26.994  30.390  1.00  0.00    -0.203 F 
ATOM     85  F   UNL A   1      45.216  27.610  25.343  1.00  0.00    -0.200 F 
ATOM     86  C   UNL A   1      46.906  26.805  26.780  1.00  0.00     0.200 A 
ATOM     87  F   UNL A   1      48.619  26.126  28.248  1.00  0.00    -0.200 F 
ATOM     88  F   UNL A   1      47.673  26.493  25.726  1.00  0.00    -0.200 F 
ENDBRANCH  54  78
BRANCH  66  89
ATOM     89  C   UNL A   1      43.211  34.605  29.790  1.00  0.00     0.064 A 
ATOM     90  C   UNL A   1      43.345  35.687  30.668  1.00  0.00     0.173 A 
ATOM     91  C   UNL A   1      43.311  34.940  28.407  1.00  0.00     0.173 A 
ATOM     92  F   UNL A   1      43.360  35.517  31.994  1.00  0.00    -0.203 F 
ATOM     93  C   UNL A   1      43.532  36.996  30.208  1.00  0.00     0.198 A 
ATOM     94  C   UNL A   1      43.573  36.233  27.957  1.00  0.00     0.198 A 
ATOM     95  F   UNL A   1      43.185  34.022  27.438  1.00  0.00    -0.203 F 
ATOM     96  F   UNL A   1      43.609  37.999  31.093  1.00  0.00    -0.200 F 
ATOM     97  C   UNL A   1      43.669  37.266  28.859  1.00  0.00     0.200 A 
ATOM     98  F   UNL A   1      43.750  36.459  26.647  1.00  0.00    -0.200 F 
ATOM     99  F   UNL A   1      43.905  38.513  28.433  1.00  0.00    -0.200 F 
ENDBRANCH  66  89
ENDBRANCH  40  41
ENDBRANCH  33  35
ENDBRANCH  32  33
ENDBRANCH  31  32
ENDBRANCH  30  31
ENDBRANCH  29  30
ENDBRANCH  28  29
ENDBRANCH   1  28
TORSDOF 19
ENDMDL
MODEL 2
REMARK VINA RESULT:     -13.1      2.271      3.749
REMARK SMILES Cc1ccc(S(=O)(=O)N2c3ccc(C(=O)OCCOCCOCCOC(=O)c4ccc(-c5c6nc(c(-c7c(F)c(F)c(F)c(F)c7F)c7ccc([nH]7)c(-c7c(F)c(F)c(F)c(F)c7F)c7nc(c(-c8c(F)c(F)c(F)c(F)c8F)c8ccc5[nH]8)C=C7)C=C6)cc4)cc3C[C@H]2C)cc1
REMARK SMILES IDX 20 1 19 2 18 3 17 4 16 5 14 6 15 7 13 8 9 9 10 10 94 11
REMARK SMILES IDX 11 12 92 13 93 14 95 15 12 16 91 17 6 18 7 19 8 20 5 21 1 22
REMARK SMILES IDX 2 23 3 24 97 25 4 26 96 27 21 28 22 29 23 30 24 31 25 32
REMARK SMILES IDX 26 33 27 34 28 35 29 36 90 37 30 38 89 39 31 40 32 41 33 42
REMARK SMILES IDX 83 43 34 44 88 45 82 46 84 47 35 48 87 49 81 50 80 51 36 53
REMARK SMILES IDX 68 54 48 55 67 56 49 57 52 58 66 59 85 60 50 61 51 62 65 64
REMARK SMILES IDX 86 65 53 66 37 67 38 68 46 69 39 70 40 71 44 72 47 73 41 74
REMARK SMILES IDX 42 75 45 76 43 77 69 78 70 79 78 80 71 81 72 82 76 83 79 84
REMARK SMILES IDX 73 85 74 86 77 87 75 88 54 89 55 90 63 91 56 92 57 93 61 94
REMARK SMILES IDX 64 95 58 96 59 97 62 98 60 99
REMARK H PARENT 84 52 52 63
REMARK Flexibility Score: inf
ROOT
ATOM      1  C   UNL A   1      41.300  19.243  26.025  1.00  0.00     0.188 C 
ENDROOT
BRANCH   1   2
ATOM      2  O   UNL A   1      40.221  20.155  26.325  1.00  0.00    -0.376 OA
BRANCH   2   3
ATOM      3  C   UNL A   1      39.092  20.355  25.477  1.00  0.00     0.202 C 
BRANCH   3   4
ATOM      4  C   UNL A   1      37.958  21.611  25.655  1.00  0.00     0.261 C 
BRANCH   4   5
ATOM      5  O   UNL A   1      36.298  21.612  25.789  1.00  0.00    -0.460 OA
BRANCH   5   6
ATOM      6  C   UNL A   1      35.176  22.115  25.100  1.00  0.00     0.338 C 
ATOM      7  O   UNL A   1      34.220  21.507  24.638  1.00  0.00    -0.246 OA
BRANCH   6   8
ATOM      8  C   UNL A   1      34.892  23.556  24.833  1.00  0.00     0.060 A 
ATOM      9  N   UNL A   1      32.543  26.947  23.779  1.00  0.00    -0.263 N 
ATOM     10  C   UNL A   1      33.377  25.788  24.014  1.00  0.00     0.055 A 
ATOM     11  C   UNL A   1      32.370  27.553  25.174  1.00  0.00     0.101 C 
ATOM     12  C   UNL A   1      34.048  25.026  23.068  1.00  0.00     0.028 A 
ATOM     13  C   UNL A   1      33.410  25.451  25.357  1.00  0.00    -0.021 A 
ATOM     14  C   UNL A   1      32.512  26.359  26.152  1.00  0.00     0.063 C 
ATOM     15  C   UNL A   1      33.493  28.578  25.398  1.00  0.00     0.032 C 
ATOM     16  C   UNL A   1      34.804  23.911  23.480  1.00  0.00     0.018 A 
ATOM     17  C   UNL A   1      34.109  24.315  25.761  1.00  0.00     0.021 A 
BRANCH   9  18
ATOM     18  S   UNL A   1      31.033  26.532  23.018  1.00  0.00     0.264 S 
ATOM     19  O   UNL A   1      30.340  25.580  23.863  1.00  0.00    -0.201 OA
ATOM     20  O   UNL A   1      31.282  26.255  21.617  1.00  0.00    -0.201 OA
BRANCH  18  21
ATOM     21  C   UNL A   1      30.041  28.016  23.027  1.00  0.00     0.088 A 
ATOM     22  C   UNL A   1      27.432  31.443  23.054  1.00  0.00     0.044 C 
ATOM     23  C   UNL A   1      28.345  30.252  23.049  1.00  0.00    -0.051 A 
ATOM     24  C   UNL A   1      27.819  28.967  23.219  1.00  0.00     0.005 A 
ATOM     25  C   UNL A   1      29.722  30.402  22.836  1.00  0.00     0.005 A 
ATOM     26  C   UNL A   1      28.661  27.855  23.213  1.00  0.00     0.022 A 
ATOM     27  C   UNL A   1      30.569  29.289  22.819  1.00  0.00     0.022 A 
ENDBRANCH  18  21
ENDBRANCH   9  18
ENDBRANCH   6   8
ENDBRANCH   5   6
ENDBRANCH   4   5
ENDBRANCH   3   4
ENDBRANCH   2   3
ENDBRANCH   1   2
BRANCH   1  28
ATOM     28  C   UNL A   1      42.751  19.706  26.178  1.00  0.00     0.188 C 
BRANCH  28  29
ATOM     29  O   UNL A   1      43.038  20.640  25.153  1.00  0.00    -0.376 OA
BRANCH  29  30
ATOM     30  C   UNL A   1      43.849  21.737  25.530  1.00  0.00     0.202 C 
BRANCH  30  31
ATOM     31  C   UNL A   1      43.162  23.081  25.236  1.00  0.00     0.261 C 
BRANCH  31  32
ATOM     32  O   UNL A   1      41.753  23.004  25.578  1.00  0.00    -0.460 OA
BRANCH  32  33
ATOM     33  C   UNL A   1      41.396  23.297  26.871  1.00  0.00     0.338 C 
ATOM     34  O   UNL A   1      41.513  22.528  27.816  1.00  0.00    -0.246 OA
BRANCH  33  35
ATOM     35  C   UNL A   1      40.600  24.579  26.923  1.00  0.00     0.060 A 
ATOM     36  C   UNL A   1      41.053  25.845  26.519  1.00  0.00     0.016 A 
ATOM     37  C   UNL A   1      39.553  24.594  27.783  1.00  0.00     0.016 A 
ATOM     38  C   UNL A   1      40.539  27.081  27.119  1.00  0.00     0.010 A 
ATOM     39  C   UNL A   1      39.362  25.792  28.488  1.00  0.00     0.010 A 
ATOM     40  C   UNL A   1      39.692  27.109  28.235  1.00  0.00    -0.014 A 
BRANCH  40  41
ATOM     41  C   UNL A   1      39.448  28.282  29.285  1.00  0.00     0.031 A 
ATOM     42  C   UNL A   1      38.400  29.487  29.414  1.00  0.00     0.074 A 
ATOM     43  C   UNL A   1      40.328  28.351  30.311  1.00  0.00     0.049 A 
ATOM     44  N   UNL A   1      38.738  30.764  29.512  1.00  0.00    -0.248 NA
ATOM     45  C   UNL A   1      36.927  29.410  29.557  1.00  0.00     0.031 C 
ATOM     46  C   UNL A   1      40.282  29.246  31.469  1.00  0.00     0.029 A 
ATOM     47  N   UNL A   1      41.568  27.711  30.424  1.00  0.00    -0.354 N 
ATOM     48  C   UNL A   1      37.573  31.529  29.683  1.00  0.00     0.074 A 
ATOM     49  C   UNL A   1      36.477  30.659  29.525  1.00  0.00     0.031 C 
ATOM     50  C   UNL A   1      41.524  29.363  31.958  1.00  0.00     0.029 A 
ATOM     51  C   UNL A   1      42.411  28.615  31.087  1.00  0.00     0.049 A 
ATOM     52  H   UNL A   1      41.801  26.810  30.103  1.00  0.00     0.167 HD
ATOM     53  C   UNL A   1      37.464  32.799  30.154  1.00  0.00     0.037 A 
ATOM     54  C   UNL A   1      43.562  29.064  30.521  1.00  0.00     0.037 A 
ATOM     55  C   UNL A   1      38.666  33.163  30.829  1.00  0.00     0.049 A 
ATOM     56  C   UNL A   1      43.666  30.566  30.459  1.00  0.00     0.074 A 
ATOM     57  C   UNL A   1      39.046  33.008  32.149  1.00  0.00     0.029 A 
ATOM     58  N   UNL A   1      39.805  33.363  30.086  1.00  0.00    -0.354 N 
ATOM     59  N   UNL A   1      42.655  31.378  30.594  1.00  0.00    -0.248 NA
ATOM     60  C   UNL A   1      44.916  31.271  30.206  1.00  0.00     0.031 C 
ATOM     61  C   UNL A   1      40.453  33.108  32.199  1.00  0.00     0.029 A 
ATOM     62  C   UNL A   1      40.897  33.381  30.919  1.00  0.00     0.049 A 
ATOM     63  H   UNL A   1      39.833  33.473  29.108  1.00  0.00     0.167 HD
ATOM     64  C   UNL A   1      43.077  32.670  30.389  1.00  0.00     0.074 A 
ATOM     65  C   UNL A   1      44.505  32.551  30.190  1.00  0.00     0.031 C 
ATOM     66  C   UNL A   1      42.193  33.711  30.375  1.00  0.00     0.037 A 
BRANCH  53  67
ATOM     67  C   UNL A   1      36.115  33.473  30.311  1.00  0.00     0.064 A 
ATOM     68  C   UNL A   1      35.426  34.062  29.236  1.00  0.00     0.173 A 
ATOM     69  C   UNL A   1      35.504  33.624  31.578  1.00  0.00     0.173 A 
ATOM     70  F   UNL A   1      35.873  33.940  27.979  1.00  0.00    -0.203 F 
ATOM     71  C   UNL A   1      34.278  34.840  29.427  1.00  0.00     0.198 A 
ATOM     72  C   UNL A   1      34.376  34.432  31.773  1.00  0.00     0.198 A 
ATOM     73  F   UNL A   1      36.039  33.040  32.662  1.00  0.00    -0.203 F 
ATOM     74  F   UNL A   1      33.686  35.422  28.373  1.00  0.00    -0.200 F 
ATOM     75  C   UNL A   1      33.774  35.055  30.696  1.00  0.00     0.200 A 
ATOM     76  F   UNL A   1      33.905  34.645  33.011  1.00  0.00    -0.200 F 
ATOM     77  F   UNL A   1      32.726  35.870  30.882  1.00  0.00    -0.200 F 
ENDBRANCH  53  67
BRANCH  54  78
ATOM     78  C   UNL A   1      44.191  28.106  29.568  1.00  0.00     0.064 A 
ATOM     79  C   UNL A   1      43.965  28.294  28.188  1.00  0.00     0.173 A 
ATOM     80  C   UNL A   1      45.239  27.250  29.933  1.00  0.00     0.173 A 
ATOM     81  F   UNL A   1      42.981  29.110  27.777  1.00  0.00    -0.203 F 
ATOM     82  C   UNL A   1      44.811  27.749  27.225  1.00  0.00     0.198 A 
ATOM     83  C   UNL A   1      46.076  26.686  28.960  1.00  0.00     0.198 A 
ATOM     84  F   UNL A   1      45.546  27.065  31.223  1.00  0.00    -0.203 F 
ATOM     85  F   UNL A   1      44.637  28.055  25.931  1.00  0.00    -0.200 F 
ATOM     86  C   UNL A   1      45.878  26.960  27.613  1.00  0.00     0.200 A 
ATOM     87  F   UNL A   1      47.157  25.985  29.334  1.00  0.00    -0.200 F 
ATOM     88  F   UNL A   1      46.760  26.529  26.700  1.00  0.00    -0.200 F 
ENDBRANCH  54  78
BRANCH  66  89
ATOM     89  C   UNL A   1      42.388  35.139  29.895  1.00  0.00     0.064 A 
ATOM     90  C   UNL A   1      43.215  36.080  30.520  1.00  0.00     0.173 A 
ATOM     91  C   UNL A   1      41.850  35.553  28.641  1.00  0.00     0.173 A 
ATOM     92  F   UNL A   1      43.861  35.802  31.657  1.00  0.00    -0.203 F 
ATOM     93  C   UNL A   1      43.461  37.338  29.959  1.00  0.00     0.198 A 
ATOM     94  C   UNL A   1      42.158  36.777  28.051  1.00  0.00     0.198 A 
ATOM     95  F   UNL A   1      41.024  34.776  27.925  1.00  0.00    -0.203 F 
ATOM     96  F   UNL A   1      44.225  38.216  30.622  1.00  0.00    -0.200 F 
ATOM     97  C   UNL A   1      42.954  37.678  28.718  1.00  0.00     0.200 A 
ATOM     98  F   UNL A   1      41.694  37.062  26.826  1.00  0.00    -0.200 F 
ATOM     99  F   UNL A   1      43.242  38.862  28.164  1.00  0.00    -0.200 F 
ENDBRANCH  66  89
ENDBRANCH  40  41
ENDBRANCH  33  35
ENDBRANCH  32  33
ENDBRANCH  31  32
ENDBRANCH  30  31
ENDBRANCH  29  30
ENDBRANCH  28  29
ENDBRANCH   1  28
TORSDOF 19
ENDMDL
MODEL 3
REMARK VINA RESULT:     -13.0      1.573      3.432
REMARK SMILES Cc1ccc(S(=O)(=O)N2c3ccc(C(=O)OCCOCCOCCOC(=O)c4ccc(-c5c6nc(c(-c7c(F)c(F)c(F)c(F)c7F)c7ccc([nH]7)c(-c7c(F)c(F)c(F)c(F)c7F)c7nc(c(-c8c(F)c(F)c(F)c(F)c8F)c8ccc5[nH]8)C=C7)C=C6)cc4)cc3C[C@H]2C)cc1
REMARK SMILES IDX 20 1 19 2 18 3 17 4 16 5 14 6 15 7 13 8 9 9 10 10 94 11
REMARK SMILES IDX 11 12 92 13 93 14 95 15 12 16 91 17 6 18 7 19 8 20 5 21 1 22
REMARK SMILES IDX 2 23 3 24 97 25 4 26 96 27 21 28 22 29 23 30 24 31 25 32
REMARK SMILES IDX 26 33 27 34 28 35 29 36 90 37 30 38 89 39 31 40 32 41 33 42
REMARK SMILES IDX 83 43 34 44 88 45 82 46 84 47 35 48 87 49 81 50 80 51 36 53
REMARK SMILES IDX 68 54 48 55 67 56 49 57 52 58 66 59 85 60 50 61 51 62 65 64
REMARK SMILES IDX 86 65 53 66 37 67 38 68 46 69 39 70 40 71 44 72 47 73 41 74
REMARK SMILES IDX 42 75 45 76 43 77 69 78 70 79 78 80 71 81 72 82 76 83 79 84
REMARK SMILES IDX 73 85 74 86 77 87 75 88 54 89 55 90 63 91 56 92 57 93 61 94
REMARK SMILES IDX 64 95 58 96 59 97 62 98 60 99
REMARK H PARENT 84 52 52 63
REMARK Flexibility Score: inf
ROOT
ATOM      1  C   UNL A   1      43.698  19.552  25.437  1.00  0.00     0.188 C 
ENDROOT
BRANCH   1   2
ATOM      2  O   UNL A   1      42.278  19.499  25.175  1.00  0.00    -0.376 OA
BRANCH   2   3
ATOM      3  C   UNL A   1      41.280  19.621  26.186  1.00  0.00     0.202 C 
BRANCH   3   4
ATOM      4  C   UNL A   1      40.310  20.998  26.428  1.00  0.00     0.261 C 
BRANCH   4   5
ATOM      5  O   UNL A   1      38.908  21.524  25.698  1.00  0.00    -0.460 OA
BRANCH   5   6
ATOM      6  C   UNL A   1      37.692  20.990  25.226  1.00  0.00     0.338 C 
ATOM      7  O   UNL A   1      37.501  19.980  24.562  1.00  0.00    -0.246 OA
BRANCH   6   8
ATOM      8  C   UNL A   1      36.333  21.542  25.499  1.00  0.00     0.060 A 
ATOM      9  N   UNL A   1      32.789  23.773  24.726  1.00  0.00    -0.263 N 
ATOM     10  C   UNL A   1      34.038  23.118  25.051  1.00  0.00     0.055 A 
ATOM     11  C   UNL A   1      31.847  22.610  24.404  1.00  0.00     0.101 C 
ATOM     12  C   UNL A   1      35.151  23.679  25.661  1.00  0.00     0.028 A 
ATOM     13  C   UNL A   1      34.045  21.799  24.627  1.00  0.00    -0.021 A 
ATOM     14  C   UNL A   1      32.771  21.472  23.896  1.00  0.00     0.063 C 
ATOM     15  C   UNL A   1      31.133  22.194  25.700  1.00  0.00     0.032 C 
ATOM     16  C   UNL A   1      36.296  22.889  25.883  1.00  0.00     0.018 A 
ATOM     17  C   UNL A   1      35.197  21.033  24.792  1.00  0.00     0.021 A 
BRANCH   9  18
ATOM     18  S   UNL A   1      32.958  24.903  23.412  1.00  0.00     0.264 S 
ATOM     19  O   UNL A   1      31.879  24.679  22.472  1.00  0.00    -0.201 OA
ATOM     20  O   UNL A   1      34.343  24.909  22.983  1.00  0.00    -0.201 OA
BRANCH  18  21
ATOM     21  C   UNL A   1      32.681  26.525  24.106  1.00  0.00     0.088 A 
ATOM     22  C   UNL A   1      32.143  30.359  25.993  1.00  0.00     0.044 C 
ATOM     23  C   UNL A   1      32.331  29.026  25.330  1.00  0.00    -0.051 A 
ATOM     24  C   UNL A   1      33.146  28.058  25.926  1.00  0.00     0.005 A 
ATOM     25  C   UNL A   1      31.670  28.717  24.134  1.00  0.00     0.005 A 
ATOM     26  C   UNL A   1      33.325  26.815  25.316  1.00  0.00     0.022 A 
ATOM     27  C   UNL A   1      31.837  27.469  23.524  1.00  0.00     0.022 A 
ENDBRANCH  18  21
ENDBRANCH   9  18
ENDBRANCH   6   8
ENDBRANCH   5   6
ENDBRANCH   4   5
ENDBRANCH   3   4
ENDBRANCH   2   3
ENDBRANCH   1   2
BRANCH   1  28
ATOM     28  C   UNL A   1      44.689  19.207  24.324  1.00  0.00     0.188 C 
BRANCH  28  29
ATOM     29  O   UNL A   1      45.636  20.254  24.219  1.00  0.00    -0.376 OA
BRANCH  29  30
ATOM     30  C   UNL A   1      45.834  21.025  25.390  1.00  0.00     0.202 C 
BRANCH  30  31
ATOM     31  C   UNL A   1      45.961  22.524  25.072  1.00  0.00     0.261 C 
BRANCH  31  32
ATOM     32  O   UNL A   1      44.852  23.253  25.661  1.00  0.00    -0.460 OA
BRANCH  32  33
ATOM     33  C   UNL A   1      43.628  23.152  25.048  1.00  0.00     0.338 C 
ATOM     34  O   UNL A   1      43.458  22.802  23.888  1.00  0.00    -0.246 OA
BRANCH  33  35
ATOM     35  C   UNL A   1      42.555  23.784  25.901  1.00  0.00     0.060 A 
ATOM     36  C   UNL A   1      41.779  24.901  25.552  1.00  0.00     0.016 A 
ATOM     37  C   UNL A   1      42.624  23.529  27.230  1.00  0.00     0.016 A 
ATOM     38  C   UNL A   1      41.233  25.814  26.563  1.00  0.00     0.010 A 
ATOM     39  C   UNL A   1      42.324  24.610  28.073  1.00  0.00     0.010 A 
ATOM     40  C   UNL A   1      41.561  25.752  27.923  1.00  0.00    -0.014 A 
BRANCH  40  41
ATOM     41  C   UNL A   1      41.482  26.893  29.032  1.00  0.00     0.031 A 
ATOM     42  C   UNL A   1      40.399  27.999  29.443  1.00  0.00     0.074 A 
ATOM     43  C   UNL A   1      42.576  27.035  29.815  1.00  0.00     0.049 A 
ATOM     44  N   UNL A   1      40.641  29.301  29.490  1.00  0.00    -0.248 NA
ATOM     45  C   UNL A   1      39.017  27.791  29.937  1.00  0.00     0.031 C 
ATOM     46  C   UNL A   1      42.739  27.916  30.973  1.00  0.00     0.029 A 
ATOM     47  N   UNL A   1      43.856  26.507  29.607  1.00  0.00    -0.354 N 
ATOM     48  C   UNL A   1      39.492  29.958  29.960  1.00  0.00     0.074 A 
ATOM     49  C   UNL A   1      38.468  28.995  30.049  1.00  0.00     0.031 C 
ATOM     50  C   UNL A   1      44.048  28.141  31.149  1.00  0.00     0.029 A 
ATOM     51  C   UNL A   1      44.755  27.479  30.069  1.00  0.00     0.049 A 
ATOM     52  H   UNL A   1      44.080  25.632  29.215  1.00  0.00     0.167 HD
ATOM     53  C   UNL A   1      39.394  31.211  30.477  1.00  0.00     0.037 A 
ATOM     54  C   UNL A   1      45.692  28.031  29.253  1.00  0.00     0.037 A 
ATOM     55  C   UNL A   1      40.688  31.677  30.849  1.00  0.00     0.049 A 
ATOM     56  C   UNL A   1      45.649  29.537  29.208  1.00  0.00     0.074 A 
ATOM     57  C   UNL A   1      41.391  31.550  32.033  1.00  0.00     0.029 A 
ATOM     58  N   UNL A   1      41.590  31.981  29.857  1.00  0.00    -0.354 N 
ATOM     59  N   UNL A   1      44.637  30.255  29.605  1.00  0.00    -0.248 NA
ATOM     60  C   UNL A   1      46.735  30.352  28.677  1.00  0.00     0.031 C 
ATOM     61  C   UNL A   1      42.753  31.775  31.743  1.00  0.00     0.029 A 
ATOM     62  C   UNL A   1      42.847  32.092  30.400  1.00  0.00     0.049 A 
ATOM     63  H   UNL A   1      41.369  32.098  28.905  1.00  0.00     0.167 HD
ATOM     64  C   UNL A   1      44.884  31.581  29.339  1.00  0.00     0.074 A 
ATOM     65  C   UNL A   1      46.225  31.590  28.796  1.00  0.00     0.031 C 
ATOM     66  C   UNL A   1      43.938  32.539  29.567  1.00  0.00     0.037 A 
BRANCH  53  67
ATOM     67  C   UNL A   1      38.071  31.762  30.974  1.00  0.00     0.064 A 
ATOM     68  C   UNL A   1      37.746  31.848  32.340  1.00  0.00     0.173 A 
ATOM     69  C   UNL A   1      37.044  32.145  30.080  1.00  0.00     0.173 A 
ATOM     70  F   UNL A   1      38.651  31.566  33.285  1.00  0.00    -0.203 F 
ATOM     71  C   UNL A   1      36.458  32.180  32.776  1.00  0.00     0.198 A 
ATOM     72  C   UNL A   1      35.746  32.443  30.517  1.00  0.00     0.198 A 
ATOM     73  F   UNL A   1      37.272  32.169  28.758  1.00  0.00    -0.203 F 
ATOM     74  F   UNL A   1      36.185  32.201  34.089  1.00  0.00    -0.200 F 
ATOM     75  C   UNL A   1      35.450  32.442  31.866  1.00  0.00     0.200 A 
ATOM     76  F   UNL A   1      34.773  32.681  29.624  1.00  0.00    -0.200 F 
ATOM     77  F   UNL A   1      34.199  32.676  32.288  1.00  0.00    -0.200 F 
ENDBRANCH  53  67
BRANCH  54  78
ATOM     78  C   UNL A   1      46.148  27.138  28.151  1.00  0.00     0.064 A 
ATOM     79  C   UNL A   1      45.452  27.185  26.924  1.00  0.00     0.173 A 
ATOM     80  C   UNL A   1      47.402  26.513  28.150  1.00  0.00     0.173 A 
ATOM     81  F   UNL A   1      44.249  27.779  26.860  1.00  0.00    -0.203 F 
ATOM     82  C   UNL A   1      46.026  26.735  25.737  1.00  0.00     0.198 A 
ATOM     83  C   UNL A   1      47.968  26.043  26.958  1.00  0.00     0.198 A 
ATOM     84  F   UNL A   1      48.143  26.477  29.266  1.00  0.00    -0.203 F 
ATOM     85  F   UNL A   1      45.384  26.913  24.574  1.00  0.00    -0.200 F 
ATOM     86  C   UNL A   1      47.293  26.181  25.752  1.00  0.00     0.200 A 
ATOM     87  F   UNL A   1      49.226  25.575  26.953  1.00  0.00    -0.200 F 
ATOM     88  F   UNL A   1      47.895  25.853  24.600  1.00  0.00    -0.200 F 
ENDBRANCH  54  78
BRANCH  66  89
ATOM     89  C   UNL A   1      43.888  33.981  29.092  1.00  0.00     0.064 A 
ATOM     90  C   UNL A   1      43.671  34.372  27.766  1.00  0.00     0.173 A 
ATOM     91  C   UNL A   1      43.893  35.048  30.039  1.00  0.00     0.173 A 
ATOM     92  F   UNL A   1      43.554  33.477  26.780  1.00  0.00    -0.203 F 
ATOM     93  C   UNL A   1      43.502  35.715  27.408  1.00  0.00     0.198 A 
ATOM     94  C   UNL A   1      43.649  36.374  29.687  1.00  0.00     0.198 A 
ATOM     95  F   UNL A   1      44.107  34.843  31.347  1.00  0.00    -0.203 F 
ATOM     96  F   UNL A   1      43.342  36.036  26.117  1.00  0.00    -0.200 F 
ATOM     97  C   UNL A   1      43.469  36.710  28.367  1.00  0.00     0.200 A 
ATOM     98  F   UNL A   1      43.572  37.313  30.642  1.00  0.00    -0.200 F 
ATOM     99  F   UNL A   1      43.249  37.985  28.020  1.00  0.00    -0.200 F 
ENDBRANCH  66  89
ENDBRANCH  40  41
ENDBRANCH  33  35
ENDBRANCH  32  33
ENDBRANCH  31  32
ENDBRANCH  30  31
ENDBRANCH  29  30
ENDBRANCH  28  29
ENDBRANCH   1  28
TORSDOF 19
ENDMDL
