MODEL 1
REMARK VINA RESULT:     -11.9      0.000      0.000
REMARK SMILES NS(=O)(=O)c1ccc(-n2ccnc2-c2ccc(O)c(C(=O)OCCOCCOCCOC(=O)c3ccc(-c4c5nc(c(-c6c(F)c(F)c(F)c(F)c6F)c6ccc([nH]6)c(-c6c(F)c(F)c(F)c(F)c6F)c6nc(c(-c7c(F)c(F)c(F)c(F)c7F)c7ccc4[nH]7)C=C6)C=C5)cc3)c2)cc1
REMARK SMILES IDX 26 1 25 2 24 3 23 4 22 5 20 6 21 7 19 8 14 9 15 10 97 11
REMARK SMILES IDX 16 12 17 13 13 14 9 15 10 16 11 17 12 18 8 19 5 20 6 21
REMARK SMILES IDX 99 22 7 23 98 24 2 25 3 26 4 27 1 28 18 31 27 33 28 34 29 35
REMARK SMILES IDX 30 36 31 37 32 38 33 39 34 40 35 41 96 42 36 43 95 44 37 45
REMARK SMILES IDX 38 46 39 47 89 48 40 49 94 50 88 51 90 52 41 53 93 54 87 55
REMARK SMILES IDX 86 56 42 58 74 59 54 60 73 61 55 62 58 63 72 64 91 65 56 66
REMARK SMILES IDX 57 67 71 69 92 70 59 71 43 72 44 73 52 74 45 75 46 76 50 77
REMARK SMILES IDX 53 78 47 79 48 80 51 81 49 82 75 83 76 84 84 85 77 86 78 87
REMARK SMILES IDX 82 88 85 89 79 90 80 91 83 92 81 93 60 94 61 95 69 96 62 97
REMARK SMILES IDX 63 98 67 99 70 100 64 101 65 102 68 103 66 104
REMARK H PARENT 1 29 1 30 18 32 90 57 58 68
REMARK Flexibility Score: inf
ROOT
ATOM      1  C   UNL A   1      34.745  33.236  28.118  1.00  0.00     0.188 C 
ENDROOT
BRANCH   1   2
ATOM      2  O   UNL A   1      34.346  31.952  28.534  1.00  0.00    -0.376 OA
BRANCH   2   3
ATOM      3  C   UNL A   1      34.065  30.923  27.600  1.00  0.00     0.202 C 
BRANCH   3   4
ATOM      4  C   UNL A   1      32.667  30.416  27.180  1.00  0.00     0.261 C 
BRANCH   4   5
ATOM      5  O   UNL A   1      32.417  30.161  25.795  1.00  0.00    -0.460 OA
BRANCH   5   6
ATOM      6  C   UNL A   1      32.886  28.986  25.316  1.00  0.00     0.342 C 
ATOM      7  O   UNL A   1      34.044  28.596  25.344  1.00  0.00    -0.246 OA
BRANCH   6   8
ATOM      8  C   UNL A   1      31.767  28.069  25.004  1.00  0.00     0.102 A 
ATOM      9  C   UNL A   1      30.578  25.964  25.304  1.00  0.00     0.019 A 
ATOM     10  C   UNL A   1      29.671  26.347  24.308  1.00  0.00     0.016 A 
ATOM     11  C   UNL A   1      31.669  26.806  25.597  1.00  0.00     0.031 A 
ATOM     12  C   UNL A   1      29.801  27.583  23.671  1.00  0.00     0.048 A 
ATOM     13  C   UNL A   1      30.824  28.452  24.042  1.00  0.00     0.130 A 
BRANCH   9  14
ATOM     14  C   UNL A   1      30.334  24.737  26.077  1.00  0.00     0.144 A 
ATOM     15  N   UNL A   1      31.176  23.624  26.073  1.00  0.00    -0.300 N 
ATOM     16  C   UNL A   1      30.513  22.619  26.735  1.00  0.00     0.113 A 
ATOM     17  C   UNL A   1      29.388  23.210  27.257  1.00  0.00     0.132 A 
ATOM     18  N   UNL A   1      29.292  24.517  26.859  1.00  0.00    -0.236 NA
BRANCH  15  19
ATOM     19  C   UNL A   1      32.462  23.533  25.487  1.00  0.00     0.047 A 
ATOM     20  C   UNL A   1      35.007  22.999  24.526  1.00  0.00     0.082 A 
ATOM     21  C   UNL A   1      33.897  22.529  23.821  1.00  0.00     0.024 A 
ATOM     22  C   UNL A   1      34.853  23.772  25.683  1.00  0.00     0.024 A 
ATOM     23  C   UNL A   1      32.621  22.802  24.300  1.00  0.00     0.028 A 
ATOM     24  C   UNL A   1      33.571  24.056  26.161  1.00  0.00     0.028 A 
BRANCH  20  25
ATOM     25  S   UNL A   1      36.620  22.570  23.945  1.00  0.00     0.238 S 
ATOM     26  O   UNL A   1      36.712  22.954  22.549  1.00  0.00    -0.207 OA
ATOM     27  O   UNL A   1      36.966  21.260  24.420  1.00  0.00    -0.207 OA
BRANCH  25  28
ATOM     28  N   UNL A   1      37.600  23.641  24.790  1.00  0.00    -0.225 NA
ATOM     29  H   UNL A   1      37.411  23.557  25.790  1.00  0.00     0.137 HD
ATOM     30  H   UNL A   1      37.405  24.595  24.486  1.00  0.00     0.137 HD
ENDBRANCH  25  28
ENDBRANCH  20  25
ENDBRANCH  15  19
ENDBRANCH   9  14
BRANCH  13  31
ATOM     31  O   UNL A   1      30.874  29.652  23.384  1.00  0.00    -0.507 OA
ATOM     32  H   UNL A   1      30.082  30.116  23.194  1.00  0.00     0.293 HD
ENDBRANCH  13  31
ENDBRANCH   6   8
ENDBRANCH   5   6
ENDBRANCH   4   5
ENDBRANCH   3   4
ENDBRANCH   2   3
ENDBRANCH   1   2
BRANCH   1  33
ATOM     33  C   UNL A   1      33.705  34.374  28.071  1.00  0.00     0.188 C 
BRANCH  33  34
ATOM     34  O   UNL A   1      34.034  35.667  28.528  1.00  0.00    -0.376 OA
BRANCH  34  35
ATOM     35  C   UNL A   1      33.279  36.377  29.496  1.00  0.00     0.202 C 
BRANCH  35  36
ATOM     36  C   UNL A   1      32.540  35.764  30.682  1.00  0.00     0.261 C 
BRANCH  36  37
ATOM     37  O   UNL A   1      33.260  34.799  31.412  1.00  0.00    -0.460 OA
BRANCH  37  38
ATOM     38  C   UNL A   1      33.730  35.254  32.589  1.00  0.00     0.338 C 
ATOM     39  O   UNL A   1      33.583  36.365  33.071  1.00  0.00    -0.246 OA
BRANCH  38  40
ATOM     40  C   UNL A   1      34.554  34.205  33.191  1.00  0.00     0.060 A 
ATOM     41  C   UNL A   1      35.643  34.653  33.938  1.00  0.00     0.016 A 
ATOM     42  C   UNL A   1      34.517  32.950  32.574  1.00  0.00     0.016 A 
ATOM     43  C   UNL A   1      36.837  34.007  33.745  1.00  0.00     0.010 A 
ATOM     44  C   UNL A   1      35.709  32.323  32.363  1.00  0.00     0.010 A 
ATOM     45  C   UNL A   1      36.863  32.937  32.845  1.00  0.00    -0.014 A 
BRANCH  45  46
ATOM     46  C   UNL A   1      38.136  32.367  32.481  1.00  0.00     0.031 A 
ATOM     47  C   UNL A   1      38.986  32.191  33.672  1.00  0.00     0.074 A 
ATOM     48  C   UNL A   1      38.410  31.972  31.224  1.00  0.00     0.049 A 
ATOM     49  N   UNL A   1      40.036  32.875  33.976  1.00  0.00    -0.248 NA
ATOM     50  C   UNL A   1      38.476  31.351  34.770  1.00  0.00     0.031 C 
ATOM     51  C   UNL A   1      37.523  31.937  30.057  1.00  0.00     0.029 A 
ATOM     52  N   UNL A   1      39.556  31.409  30.748  1.00  0.00    -0.354 N 
ATOM     53  C   UNL A   1      40.449  32.372  35.201  1.00  0.00     0.074 A 
ATOM     54  C   UNL A   1      39.333  31.651  35.745  1.00  0.00     0.031 C 
ATOM     55  C   UNL A   1      38.081  31.169  29.092  1.00  0.00     0.029 A 
ATOM     56  C   UNL A   1      39.404  30.759  29.520  1.00  0.00     0.049 A 
ATOM     57  H   UNL A   1      40.415  31.456  31.228  1.00  0.00     0.167 HD
ATOM     58  C   UNL A   1      41.773  32.309  35.499  1.00  0.00     0.037 A 
ATOM     59  C   UNL A   1      40.295  29.870  29.004  1.00  0.00     0.037 A 
ATOM     60  C   UNL A   1      42.534  33.182  34.640  1.00  0.00     0.049 A 
ATOM     61  C   UNL A   1      41.600  30.131  29.680  1.00  0.00     0.074 A 
ATOM     62  C   UNL A   1      42.526  34.544  34.403  1.00  0.00     0.029 A 
ATOM     63  N   UNL A   1      43.169  32.614  33.562  1.00  0.00    -0.354 N 
ATOM     64  N   UNL A   1      42.284  31.229  29.509  1.00  0.00    -0.248 NA
ATOM     65  C   UNL A   1      41.852  29.423  30.930  1.00  0.00     0.031 C 
ATOM     66  C   UNL A   1      42.721  34.677  32.996  1.00  0.00     0.029 A 
ATOM     67  C   UNL A   1      42.934  33.404  32.466  1.00  0.00     0.049 A 
ATOM     68  H   UNL A   1      43.699  31.785  33.574  1.00  0.00     0.167 HD
ATOM     69  C   UNL A   1      42.693  31.587  30.786  1.00  0.00     0.074 A 
ATOM     70  C   UNL A   1      42.433  30.412  31.617  1.00  0.00     0.031 C 
ATOM     71  C   UNL A   1      42.905  32.895  31.117  1.00  0.00     0.037 A 
BRANCH  58  72
ATOM     72  C   UNL A   1      42.397  31.156  36.241  1.00  0.00     0.064 A 
ATOM     73  C   UNL A   1      43.319  31.440  37.266  1.00  0.00     0.173 A 
ATOM     74  C   UNL A   1      42.366  29.811  35.804  1.00  0.00     0.173 A 
ATOM     75  F   UNL A   1      43.448  32.687  37.740  1.00  0.00    -0.203 F 
ATOM     76  C   UNL A   1      44.197  30.469  37.753  1.00  0.00     0.198 A 
ATOM     77  C   UNL A   1      43.202  28.834  36.334  1.00  0.00     0.198 A 
ATOM     78  F   UNL A   1      41.621  29.402  34.772  1.00  0.00    -0.203 F 
ATOM     79  F   UNL A   1      45.145  30.816  38.632  1.00  0.00    -0.200 F 
ATOM     80  C   UNL A   1      44.141  29.169  37.284  1.00  0.00     0.200 A 
ATOM     81  F   UNL A   1      43.144  27.586  35.848  1.00  0.00    -0.200 F 
ATOM     82  F   UNL A   1      45.022  28.253  37.706  1.00  0.00    -0.200 F 
ENDBRANCH  58  72
BRANCH  59  83
ATOM     83  C   UNL A   1      40.013  28.582  28.312  1.00  0.00     0.064 A 
ATOM     84  C   UNL A   1      40.589  28.291  27.061  1.00  0.00     0.173 A 
ATOM     85  C   UNL A   1      39.421  27.496  28.986  1.00  0.00     0.173 A 
ATOM     86  F   UNL A   1      41.212  29.252  26.364  1.00  0.00    -0.203 F 
ATOM     87  C   UNL A   1      40.606  26.989  26.540  1.00  0.00     0.198 A 
ATOM     88  C   UNL A   1      39.435  26.201  28.464  1.00  0.00     0.198 A 
ATOM     89  F   UNL A   1      38.902  27.645  30.212  1.00  0.00    -0.203 F 
ATOM     90  F   UNL A   1      41.226  26.740  25.378  1.00  0.00    -0.200 F 
ATOM     91  C   UNL A   1      40.042  25.944  27.250  1.00  0.00     0.200 A 
ATOM     92  F   UNL A   1      38.915  25.193  29.180  1.00  0.00    -0.200 F 
ATOM     93  F   UNL A   1      40.119  24.687  26.789  1.00  0.00    -0.200 F 
ENDBRANCH  59  83
BRANCH  71  94
ATOM     94  C   UNL A   1      42.915  33.910  30.008  1.00  0.00     0.064 A 
ATOM     95  C   UNL A   1      44.020  34.170  29.178  1.00  0.00     0.173 A 
ATOM     96  C   UNL A   1      41.705  34.534  29.681  1.00  0.00     0.173 A 
ATOM     97  F   UNL A   1      45.184  33.533  29.360  1.00  0.00    -0.203 F 
ATOM     98  C   UNL A   1      43.924  35.052  28.101  1.00  0.00     0.198 A 
ATOM     99  C   UNL A   1      41.601  35.382  28.584  1.00  0.00     0.198 A 
ATOM    100  F   UNL A   1      40.603  34.279  30.403  1.00  0.00    -0.203 F 
ATOM    101  F   UNL A   1      44.996  35.293  27.331  1.00  0.00    -0.200 F 
ATOM    102  C   UNL A   1      42.712  35.651  27.802  1.00  0.00     0.200 A 
ATOM    103  F   UNL A   1      40.413  35.918  28.268  1.00  0.00    -0.200 F 
ATOM    104  F   UNL A   1      42.606  36.467  26.743  1.00  0.00    -0.200 F 
ENDBRANCH  71  94
ENDBRANCH  45  46
ENDBRANCH  38  40
ENDBRANCH  37  38
ENDBRANCH  36  37
ENDBRANCH  35  36
ENDBRANCH  34  35
ENDBRANCH  33  34
ENDBRANCH   1  33
TORSDOF 22
ENDMDL
MODEL 2
REMARK VINA RESULT:     -11.8      3.099      8.492
REMARK SMILES NS(=O)(=O)c1ccc(-n2ccnc2-c2ccc(O)c(C(=O)OCCOCCOCCOC(=O)c3ccc(-c4c5nc(c(-c6c(F)c(F)c(F)c(F)c6F)c6ccc([nH]6)c(-c6c(F)c(F)c(F)c(F)c6F)c6nc(c(-c7c(F)c(F)c(F)c(F)c7F)c7ccc4[nH]7)C=C6)C=C5)cc3)c2)cc1
REMARK SMILES IDX 26 1 25 2 24 3 23 4 22 5 20 6 21 7 19 8 14 9 15 10 97 11
REMARK SMILES IDX 16 12 17 13 13 14 9 15 10 16 11 17 12 18 8 19 5 20 6 21
REMARK SMILES IDX 99 22 7 23 98 24 2 25 3 26 4 27 1 28 18 31 27 33 28 34 29 35
REMARK SMILES IDX 30 36 31 37 32 38 33 39 34 40 35 41 96 42 36 43 95 44 37 45
REMARK SMILES IDX 38 46 39 47 89 48 40 49 94 50 88 51 90 52 41 53 93 54 87 55
REMARK SMILES IDX 86 56 42 58 74 59 54 60 73 61 55 62 58 63 72 64 91 65 56 66
REMARK SMILES IDX 57 67 71 69 92 70 59 71 43 72 44 73 52 74 45 75 46 76 50 77
REMARK SMILES IDX 53 78 47 79 48 80 51 81 49 82 75 83 76 84 84 85 77 86 78 87
REMARK SMILES IDX 82 88 85 89 79 90 80 91 83 92 81 93 60 94 61 95 69 96 62 97
REMARK SMILES IDX 63 98 67 99 70 100 64 101 65 102 68 103 66 104
REMARK H PARENT 1 29 1 30 18 32 90 57 58 68
REMARK Flexibility Score: inf
ROOT
ATOM      1  C   UNL A   1      41.008  21.277  27.467  1.00  0.00     0.188 C 
ENDROOT
BRANCH   1   2
ATOM      2  O   UNL A   1      39.838  21.381  26.692  1.00  0.00    -0.376 OA
BRANCH   2   3
ATOM      3  C   UNL A   1      39.306  22.640  26.317  1.00  0.00     0.202 C 
BRANCH   3   4
ATOM      4  C   UNL A   1      37.811  22.997  26.149  1.00  0.00     0.261 C 
BRANCH   4   5
ATOM      5  O   UNL A   1      37.206  22.831  24.864  1.00  0.00    -0.460 OA
BRANCH   5   6
ATOM      6  C   UNL A   1      36.572  21.654  24.656  1.00  0.00     0.342 C 
ATOM      7  O   UNL A   1      36.962  20.545  24.992  1.00  0.00    -0.246 OA
BRANCH   6   8
ATOM      8  C   UNL A   1      35.175  21.886  24.224  1.00  0.00     0.102 A 
ATOM      9  C   UNL A   1      33.497  23.154  22.996  1.00  0.00     0.019 A 
ATOM     10  C   UNL A   1      32.502  22.316  23.511  1.00  0.00     0.016 A 
ATOM     11  C   UNL A   1      34.830  22.973  23.416  1.00  0.00     0.031 A 
ATOM     12  C   UNL A   1      32.836  21.265  24.368  1.00  0.00     0.048 A 
ATOM     13  C   UNL A   1      34.170  21.032  24.694  1.00  0.00     0.130 A 
BRANCH   9  14
ATOM     14  C   UNL A   1      33.151  24.151  21.971  1.00  0.00     0.144 A 
ATOM     15  N   UNL A   1      32.629  25.415  22.247  1.00  0.00    -0.300 N 
ATOM     16  C   UNL A   1      32.242  25.959  21.047  1.00  0.00     0.113 A 
ATOM     17  C   UNL A   1      32.700  25.087  20.089  1.00  0.00     0.132 A 
ATOM     18  N   UNL A   1      33.270  23.983  20.665  1.00  0.00    -0.236 NA
BRANCH  15  19
ATOM     19  C   UNL A   1      32.503  26.023  23.520  1.00  0.00     0.047 A 
ATOM     20  C   UNL A   1      32.223  27.559  25.811  1.00  0.00     0.082 A 
ATOM     21  C   UNL A   1      31.081  27.090  25.158  1.00  0.00     0.024 A 
ATOM     22  C   UNL A   1      33.504  27.229  25.352  1.00  0.00     0.024 A 
ATOM     23  C   UNL A   1      31.222  26.315  24.013  1.00  0.00     0.028 A 
ATOM     24  C   UNL A   1      33.648  26.441  24.207  1.00  0.00     0.028 A 
BRANCH  20  25
ATOM     25  S   UNL A   1      32.020  28.612  27.216  1.00  0.00     0.238 S 
ATOM     26  O   UNL A   1      31.408  27.834  28.276  1.00  0.00    -0.207 OA
ATOM     27  O   UNL A   1      31.514  29.886  26.790  1.00  0.00    -0.207 OA
BRANCH  25  28
ATOM     28  N   UNL A   1      33.609  28.883  27.691  1.00  0.00    -0.225 NA
ATOM     29  H   UNL A   1      33.623  29.212  28.657  1.00  0.00     0.137 HD
ATOM     30  H   UNL A   1      34.030  29.587  27.086  1.00  0.00     0.137 HD
ENDBRANCH  25  28
ENDBRANCH  20  25
ENDBRANCH  15  19
ENDBRANCH   9  14
BRANCH  13  31
ATOM     31  O   UNL A   1      34.418  19.971  25.524  1.00  0.00    -0.507 OA
ATOM     32  H   UNL A   1      33.858  19.808  26.257  1.00  0.00     0.293 HD
ENDBRANCH  13  31
ENDBRANCH   6   8
ENDBRANCH   5   6
ENDBRANCH   4   5
ENDBRANCH   3   4
ENDBRANCH   2   3
ENDBRANCH   1   2
BRANCH   1  33
ATOM     33  C   UNL A   1      42.274  20.654  26.846  1.00  0.00     0.188 C 
BRANCH  33  34
ATOM     34  O   UNL A   1      43.237  21.466  26.211  1.00  0.00    -0.376 OA
BRANCH  34  35
ATOM     35  C   UNL A   1      42.935  22.695  25.573  1.00  0.00     0.202 C 
BRANCH  35  36
ATOM     36  C   UNL A   1      43.133  24.087  26.169  1.00  0.00     0.261 C 
BRANCH  36  37
ATOM     37  O   UNL A   1      41.959  24.845  26.340  1.00  0.00    -0.460 OA
BRANCH  37  38
ATOM     38  C   UNL A   1      41.919  25.954  25.578  1.00  0.00     0.338 C 
ATOM     39  O   UNL A   1      42.633  26.234  24.629  1.00  0.00    -0.246 OA
BRANCH  38  40
ATOM     40  C   UNL A   1      40.909  26.857  26.133  1.00  0.00     0.060 A 
ATOM     41  C   UNL A   1      41.157  28.217  25.952  1.00  0.00     0.016 A 
ATOM     42  C   UNL A   1      40.135  26.356  27.185  1.00  0.00     0.016 A 
ATOM     43  C   UNL A   1      40.952  29.035  27.032  1.00  0.00     0.010 A 
ATOM     44  C   UNL A   1      39.955  27.166  28.268  1.00  0.00     0.010 A 
ATOM     45  C   UNL A   1      40.484  28.453  28.215  1.00  0.00    -0.014 A 
BRANCH  45  46
ATOM     46  C   UNL A   1      40.445  29.252  29.414  1.00  0.00     0.031 A 
ATOM     47  C   UNL A   1      39.245  30.107  29.429  1.00  0.00     0.074 A 
ATOM     48  C   UNL A   1      41.353  29.111  30.398  1.00  0.00     0.049 A 
ATOM     49  N   UNL A   1      39.209  31.387  29.273  1.00  0.00    -0.248 NA
ATOM     50  C   UNL A   1      37.926  29.454  29.344  1.00  0.00     0.031 C 
ATOM     51  C   UNL A   1      42.436  28.132  30.516  1.00  0.00     0.029 A 
ATOM     52  N   UNL A   1      41.424  29.784  31.581  1.00  0.00    -0.354 N 
ATOM     53  C   UNL A   1      37.862  31.716  29.313  1.00  0.00     0.074 A 
ATOM     54  C   UNL A   1      37.136  30.497  29.094  1.00  0.00     0.031 C 
ATOM     55  C   UNL A   1      42.892  28.118  31.791  1.00  0.00     0.029 A 
ATOM     56  C   UNL A   1      42.221  29.159  32.543  1.00  0.00     0.049 A 
ATOM     57  H   UNL A   1      40.955  30.635  31.742  1.00  0.00     0.167 HD
ATOM     58  C   UNL A   1      37.466  32.895  29.860  1.00  0.00     0.037 A 
ATOM     59  C   UNL A   1      42.198  29.454  33.872  1.00  0.00     0.037 A 
ATOM     60  C   UNL A   1      38.570  33.822  29.934  1.00  0.00     0.049 A 
ATOM     61  C   UNL A   1      41.619  30.824  33.995  1.00  0.00     0.074 A 
ATOM     62  C   UNL A   1      39.408  34.395  28.996  1.00  0.00     0.029 A 
ATOM     63  N   UNL A   1      39.211  33.947  31.142  1.00  0.00    -0.354 N 
ATOM     64  N   UNL A   1      42.224  31.895  33.559  1.00  0.00    -0.248 NA
ATOM     65  C   UNL A   1      40.168  30.923  34.105  1.00  0.00     0.031 C 
ATOM     66  C   UNL A   1      40.697  34.401  29.606  1.00  0.00     0.029 A 
ATOM     67  C   UNL A   1      40.562  33.925  30.911  1.00  0.00     0.049 A 
ATOM     68  H   UNL A   1      38.776  34.037  32.021  1.00  0.00     0.167 HD
ATOM     69  C   UNL A   1      41.228  32.620  32.919  1.00  0.00     0.074 A 
ATOM     70  C   UNL A   1      39.972  31.991  33.326  1.00  0.00     0.031 C 
ATOM     71  C   UNL A   1      41.522  33.452  31.878  1.00  0.00     0.037 A 
BRANCH  58  72
ATOM     72  C   UNL A   1      36.230  33.036  30.709  1.00  0.00     0.064 A 
ATOM     73  C   UNL A   1      35.186  33.855  30.240  1.00  0.00     0.173 A 
ATOM     74  C   UNL A   1      36.146  32.661  32.070  1.00  0.00     0.173 A 
ATOM     75  F   UNL A   1      35.179  34.289  28.971  1.00  0.00    -0.203 F 
ATOM     76  C   UNL A   1      34.183  34.325  31.091  1.00  0.00     0.198 A 
ATOM     77  C   UNL A   1      35.112  33.084  32.899  1.00  0.00     0.198 A 
ATOM     78  F   UNL A   1      37.108  31.972  32.692  1.00  0.00    -0.203 F 
ATOM     79  F   UNL A   1      33.287  35.208  30.632  1.00  0.00    -0.200 F 
ATOM     80  C   UNL A   1      34.149  33.943  32.419  1.00  0.00     0.200 A 
ATOM     81  F   UNL A   1      35.113  32.717  34.188  1.00  0.00    -0.200 F 
ATOM     82  F   UNL A   1      33.225  34.442  33.249  1.00  0.00    -0.200 F 
ENDBRANCH  58  72
BRANCH  59  83
ATOM     83  C   UNL A   1      42.238  28.511  35.024  1.00  0.00     0.064 A 
ATOM     84  C   UNL A   1      41.529  27.296  34.990  1.00  0.00     0.173 A 
ATOM     85  C   UNL A   1      43.198  28.637  36.047  1.00  0.00     0.173 A 
ATOM     86  F   UNL A   1      40.624  27.068  34.026  1.00  0.00    -0.203 F 
ATOM     87  C   UNL A   1      41.794  26.260  35.896  1.00  0.00     0.198 A 
ATOM     88  C   UNL A   1      43.458  27.606  36.952  1.00  0.00     0.198 A 
ATOM     89  F   UNL A   1      43.977  29.723  36.134  1.00  0.00    -0.203 F 
ATOM     90  F   UNL A   1      41.146  25.092  35.788  1.00  0.00    -0.200 F 
ATOM     91  C   UNL A   1      42.769  26.411  36.867  1.00  0.00     0.200 A 
ATOM     92  F   UNL A   1      44.429  27.755  37.864  1.00  0.00    -0.200 F 
ATOM     93  F   UNL A   1      43.074  25.398  37.690  1.00  0.00    -0.200 F 
ENDBRANCH  59  83
BRANCH  71  94
ATOM     94  C   UNL A   1      42.970  33.746  31.596  1.00  0.00     0.064 A 
ATOM     95  C   UNL A   1      43.787  32.976  30.751  1.00  0.00     0.173 A 
ATOM     96  C   UNL A   1      43.502  34.944  32.088  1.00  0.00     0.173 A 
ATOM     97  F   UNL A   1      43.319  31.871  30.156  1.00  0.00    -0.203 F 
ATOM     98  C   UNL A   1      45.093  33.368  30.454  1.00  0.00     0.198 A 
ATOM     99  C   UNL A   1      44.789  35.354  31.759  1.00  0.00     0.198 A 
ATOM    100  F   UNL A   1      42.747  35.749  32.853  1.00  0.00    -0.203 F 
ATOM    101  F   UNL A   1      45.859  32.610  29.654  1.00  0.00    -0.200 F 
ATOM    102  C   UNL A   1      45.589  34.561  30.953  1.00  0.00     0.200 A 
ATOM    103  F   UNL A   1      45.245  36.534  32.202  1.00  0.00    -0.200 F 
ATOM    104  F   UNL A   1      46.829  34.961  30.636  1.00  0.00    -0.200 F 
ENDBRANCH  71  94
ENDBRANCH  45  46
ENDBRANCH  38  40
ENDBRANCH  37  38
ENDBRANCH  36  37
ENDBRANCH  35  36
ENDBRANCH  34  35
ENDBRANCH  33  34
ENDBRANCH   1  33
TORSDOF 22
ENDMDL
MODEL 3
REMARK VINA RESULT:     -11.6      3.156      4.828
REMARK SMILES NS(=O)(=O)c1ccc(-n2ccnc2-c2ccc(O)c(C(=O)OCCOCCOCCOC(=O)c3ccc(-c4c5nc(c(-c6c(F)c(F)c(F)c(F)c6F)c6ccc([nH]6)c(-c6c(F)c(F)c(F)c(F)c6F)c6nc(c(-c7c(F)c(F)c(F)c(F)c7F)c7ccc4[nH]7)C=C6)C=C5)cc3)c2)cc1
REMARK SMILES IDX 26 1 25 2 24 3 23 4 22 5 20 6 21 7 19 8 14 9 15 10 97 11
REMARK SMILES IDX 16 12 17 13 13 14 9 15 10 16 11 17 12 18 8 19 5 20 6 21
REMARK SMILES IDX 99 22 7 23 98 24 2 25 3 26 4 27 1 28 18 31 27 33 28 34 29 35
REMARK SMILES IDX 30 36 31 37 32 38 33 39 34 40 35 41 96 42 36 43 95 44 37 45
REMARK SMILES IDX 38 46 39 47 89 48 40 49 94 50 88 51 90 52 41 53 93 54 87 55
REMARK SMILES IDX 86 56 42 58 74 59 54 60 73 61 55 62 58 63 72 64 91 65 56 66
REMARK SMILES IDX 57 67 71 69 92 70 59 71 43 72 44 73 52 74 45 75 46 76 50 77
REMARK SMILES IDX 53 78 47 79 48 80 51 81 49 82 75 83 76 84 84 85 77 86 78 87
REMARK SMILES IDX 82 88 85 89 79 90 80 91 83 92 81 93 60 94 61 95 69 96 62 97
REMARK SMILES IDX 63 98 67 99 70 100 64 101 65 102 68 103 66 104
REMARK H PARENT 1 29 1 30 18 32 90 57 58 68
REMARK Flexibility Score: inf
ROOT
ATOM      1  C   UNL A   1      33.108  29.955  26.877  1.00  0.00     0.188 C 
ENDROOT
BRANCH   1   2
ATOM      2  O   UNL A   1      31.916  29.217  26.755  1.00  0.00    -0.376 OA
BRANCH   2   3
ATOM      3  C   UNL A   1      31.928  27.807  26.608  1.00  0.00     0.202 C 
BRANCH   3   4
ATOM      4  C   UNL A   1      31.633  27.013  25.315  1.00  0.00     0.261 C 
BRANCH   4   5
ATOM      5  O   UNL A   1      30.793  25.858  25.396  1.00  0.00    -0.460 OA
BRANCH   5   6
ATOM      6  C   UNL A   1      31.256  24.746  24.780  1.00  0.00     0.342 C 
ATOM      7  O   UNL A   1      31.152  24.470  23.594  1.00  0.00    -0.246 OA
BRANCH   6   8
ATOM      8  C   UNL A   1      32.186  24.011  25.667  1.00  0.00     0.102 A 
ATOM      9  C   UNL A   1      34.391  23.116  26.187  1.00  0.00     0.019 A 
ATOM     10  C   UNL A   1      33.870  22.539  27.352  1.00  0.00     0.016 A 
ATOM     11  C   UNL A   1      33.521  23.794  25.311  1.00  0.00     0.031 A 
ATOM     12  C   UNL A   1      32.523  22.703  27.681  1.00  0.00     0.048 A 
ATOM     13  C   UNL A   1      31.695  23.463  26.859  1.00  0.00     0.130 A 
BRANCH   9  14
ATOM     14  C   UNL A   1      35.840  23.073  25.939  1.00  0.00     0.144 A 
ATOM     15  N   UNL A   1      36.532  21.940  25.510  1.00  0.00    -0.300 N 
ATOM     16  C   UNL A   1      37.871  22.232  25.598  1.00  0.00     0.113 A 
ATOM     17  C   UNL A   1      37.931  23.570  25.905  1.00  0.00     0.132 A 
ATOM     18  N   UNL A   1      36.676  24.084  26.100  1.00  0.00    -0.236 NA
BRANCH  15  19
ATOM     19  C   UNL A   1      35.971  20.713  25.080  1.00  0.00     0.047 A 
ATOM     20  C   UNL A   1      34.785  18.249  24.626  1.00  0.00     0.082 A 
ATOM     21  C   UNL A   1      33.990  19.398  24.645  1.00  0.00     0.024 A 
ATOM     22  C   UNL A   1      36.173  18.328  24.787  1.00  0.00     0.024 A 
ATOM     23  C   UNL A   1      34.586  20.633  24.867  1.00  0.00     0.028 A 
ATOM     24  C   UNL A   1      36.775  19.571  25.000  1.00  0.00     0.028 A 
BRANCH  20  25
ATOM     25  S   UNL A   1      33.996  16.680  24.424  1.00  0.00     0.238 S 
ATOM     26  O   UNL A   1      32.628  16.800  24.891  1.00  0.00    -0.207 OA
ATOM     27  O   UNL A   1      34.883  15.639  24.863  1.00  0.00    -0.207 OA
BRANCH  25  28
ATOM     28  N   UNL A   1      33.909  16.536  22.753  1.00  0.00    -0.225 NA
ATOM     29  H   UNL A   1      34.326  15.650  22.466  1.00  0.00     0.137 HD
ATOM     30  H   UNL A   1      34.416  17.307  22.318  1.00  0.00     0.137 HD
ENDBRANCH  25  28
ENDBRANCH  20  25
ENDBRANCH  15  19
ENDBRANCH   9  14
BRANCH  13  31
ATOM     31  O   UNL A   1      30.391  23.593  27.259  1.00  0.00    -0.507 OA
ATOM     32  H   UNL A   1      29.810  24.159  26.789  1.00  0.00     0.293 HD
ENDBRANCH  13  31
ENDBRANCH   6   8
ENDBRANCH   5   6
ENDBRANCH   4   5
ENDBRANCH   3   4
ENDBRANCH   2   3
ENDBRANCH   1   2
BRANCH   1  33
ATOM     33  C   UNL A   1      33.041  31.437  27.300  1.00  0.00     0.188 C 
BRANCH  33  34
ATOM     34  O   UNL A   1      34.120  32.038  27.981  1.00  0.00    -0.376 OA
BRANCH  34  35
ATOM     35  C   UNL A   1      34.019  33.258  28.697  1.00  0.00     0.202 C 
BRANCH  35  36
ATOM     36  C   UNL A   1      34.419  33.477  30.154  1.00  0.00     0.261 C 
BRANCH  36  37
ATOM     37  O   UNL A   1      34.404  32.327  30.966  1.00  0.00    -0.460 OA
BRANCH  37  38
ATOM     38  C   UNL A   1      35.611  32.010  31.472  1.00  0.00     0.338 C 
ATOM     39  O   UNL A   1      36.023  32.214  32.602  1.00  0.00    -0.246 OA
BRANCH  38  40
ATOM     40  C   UNL A   1      36.425  31.441  30.397  1.00  0.00     0.060 A 
ATOM     41  C   UNL A   1      36.311  30.062  30.224  1.00  0.00     0.016 A 
ATOM     42  C   UNL A   1      37.562  32.165  30.025  1.00  0.00     0.016 A 
ATOM     43  C   UNL A   1      37.474  29.361  30.038  1.00  0.00     0.010 A 
ATOM     44  C   UNL A   1      38.722  31.466  29.865  1.00  0.00     0.010 A 
ATOM     45  C   UNL A   1      38.673  30.081  30.004  1.00  0.00    -0.014 A 
BRANCH  45  46
ATOM     46  C   UNL A   1      39.918  29.355  30.003  1.00  0.00     0.031 A 
ATOM     47  C   UNL A   1      40.434  29.207  31.376  1.00  0.00     0.074 A 
ATOM     48  C   UNL A   1      40.433  28.818  28.882  1.00  0.00     0.049 A 
ATOM     49  N   UNL A   1      41.456  29.809  31.883  1.00  0.00    -0.248 NA
ATOM     50  C   UNL A   1      39.581  28.529  32.369  1.00  0.00     0.031 C 
ATOM     51  C   UNL A   1      39.851  28.762  27.538  1.00  0.00     0.029 A 
ATOM     52  N   UNL A   1      41.584  28.101  28.742  1.00  0.00    -0.354 N 
ATOM     53  C   UNL A   1      41.503  29.385  33.203  1.00  0.00     0.074 A 
ATOM     54  C   UNL A   1      40.211  28.833  33.502  1.00  0.00     0.031 C 
ATOM     55  C   UNL A   1      40.526  27.854  26.793  1.00  0.00     0.029 A 
ATOM     56  C   UNL A   1      41.650  27.357  27.561  1.00  0.00     0.049 A 
ATOM     57  H   UNL A   1      42.304  28.107  29.415  1.00  0.00     0.167 HD
ATOM     58  C   UNL A   1      42.701  29.218  33.822  1.00  0.00     0.037 A 
ATOM     59  C   UNL A   1      42.526  26.338  27.341  1.00  0.00     0.037 A 
ATOM     60  C   UNL A   1      43.744  29.926  33.120  1.00  0.00     0.049 A 
ATOM     61  C   UNL A   1      43.654  26.530  28.299  1.00  0.00     0.074 A 
ATOM     62  C   UNL A   1      43.955  31.253  32.798  1.00  0.00     0.029 A 
ATOM     63  N   UNL A   1      44.543  29.198  32.273  1.00  0.00    -0.354 N 
ATOM     64  N   UNL A   1      44.486  27.533  28.228  1.00  0.00    -0.248 NA
ATOM     65  C   UNL A   1      43.516  25.921  29.617  1.00  0.00     0.031 C 
ATOM     66  C   UNL A   1      44.493  31.233  31.477  1.00  0.00     0.029 A 
ATOM     67  C   UNL A   1      44.672  29.901  31.102  1.00  0.00     0.049 A 
ATOM     68  H   UNL A   1      44.951  28.325  32.470  1.00  0.00     0.167 HD
ATOM     69  C   UNL A   1      44.620  27.967  29.540  1.00  0.00     0.074 A 
ATOM     70  C   UNL A   1      44.031  26.907  30.358  1.00  0.00     0.031 C 
ATOM     71  C   UNL A   1      44.902  29.272  29.824  1.00  0.00     0.037 A 
BRANCH  58  72
ATOM     72  C   UNL A   1      42.988  28.083  34.771  1.00  0.00     0.064 A 
ATOM     73  C   UNL A   1      43.485  28.390  36.051  1.00  0.00     0.173 A 
ATOM     74  C   UNL A   1      43.086  26.725  34.388  1.00  0.00     0.173 A 
ATOM     75  F   UNL A   1      43.462  29.652  36.505  1.00  0.00    -0.203 F 
ATOM     76  C   UNL A   1      44.104  27.426  36.849  1.00  0.00     0.198 A 
ATOM     77  C   UNL A   1      43.652  25.756  35.211  1.00  0.00     0.198 A 
ATOM     78  F   UNL A   1      42.754  26.290  33.169  1.00  0.00    -0.203 F 
ATOM     79  F   UNL A   1      44.680  27.792  38.001  1.00  0.00    -0.200 F 
ATOM     80  C   UNL A   1      44.192  26.112  36.427  1.00  0.00     0.200 A 
ATOM     81  F   UNL A   1      43.744  24.494  34.771  1.00  0.00    -0.200 F 
ATOM     82  F   UNL A   1      44.839  25.200  37.163  1.00  0.00    -0.200 F 
ENDBRANCH  58  72
BRANCH  59  83
ATOM     83  C   UNL A   1      42.264  25.025  26.689  1.00  0.00     0.064 A 
ATOM     84  C   UNL A   1      43.046  24.586  25.605  1.00  0.00     0.173 A 
ATOM     85  C   UNL A   1      41.445  24.051  27.294  1.00  0.00     0.173 A 
ATOM     86  F   UNL A   1      43.887  25.433  24.992  1.00  0.00    -0.203 F 
ATOM     87  C   UNL A   1      43.041  23.250  25.183  1.00  0.00     0.198 A 
ATOM     88  C   UNL A   1      41.437  22.721  26.869  1.00  0.00     0.198 A 
ATOM     89  F   UNL A   1      40.709  24.342  28.375  1.00  0.00    -0.203 F 
ATOM     90  F   UNL A   1      43.853  22.856  24.192  1.00  0.00    -0.200 F 
ATOM     91  C   UNL A   1      42.247  22.316  25.825  1.00  0.00     0.200 A 
ATOM     92  F   UNL A   1      40.690  21.821  27.525  1.00  0.00    -0.200 F 
ATOM     93  F   UNL A   1      42.292  21.024  25.471  1.00  0.00    -0.200 F 
ENDBRANCH  59  83
BRANCH  71  94
ATOM     94  C   UNL A   1      45.297  30.172  28.687  1.00  0.00     0.064 A 
ATOM     95  C   UNL A   1      44.388  30.861  27.865  1.00  0.00     0.173 A 
ATOM     96  C   UNL A   1      46.658  30.463  28.525  1.00  0.00     0.173 A 
ATOM     97  F   UNL A   1      43.067  30.718  28.027  1.00  0.00    -0.203 F 
ATOM     98  C   UNL A   1      44.829  31.762  26.895  1.00  0.00     0.198 A 
ATOM     99  C   UNL A   1      47.093  31.391  27.585  1.00  0.00     0.198 A 
ATOM    100  F   UNL A   1      47.567  29.879  29.321  1.00  0.00    -0.203 F 
ATOM    101  F   UNL A   1      43.943  32.398  26.113  1.00  0.00    -0.200 F 
ATOM    102  C   UNL A   1      46.182  32.031  26.762  1.00  0.00     0.200 A 
ATOM    103  F   UNL A   1      48.398  31.685  27.497  1.00  0.00    -0.200 F 
ATOM    104  F   UNL A   1      46.605  32.926  25.859  1.00  0.00    -0.200 F 
ENDBRANCH  71  94
ENDBRANCH  45  46
ENDBRANCH  38  40
ENDBRANCH  37  38
ENDBRANCH  36  37
ENDBRANCH  35  36
ENDBRANCH  34  35
ENDBRANCH  33  34
ENDBRANCH   1  33
TORSDOF 22
ENDMDL
