MODEL 1
REMARK VINA RESULT:     -11.6      0.000      0.000
REMARK SMILES O=C(OCCOCCOCCOC(=O)[C@H]1C[C@](O)(c2ccc(Cl)cc2)[C@@H](c2ccc(Cl)cc2)O1)c1ccc(-c2c3nc(c(-c4c(F)c(F)c(F)c(F)c4F)c4ccc([nH]4)c(-c4c(F)c(F)c(F)c(F)c4F)c4nc(c(-c5c(F)c(F)c(F)c(F)c5F)c5ccc2[nH]5)C=C4)C=C3)cc1
REMARK SMILES IDX 7 1 6 2 5 3 4 4 3 5 2 6 1 7 35 8 36 9 97 10 37 11 96 12
REMARK SMILES IDX 38 13 39 14 40 15 90 16 41 17 95 18 89 19 91 20 42 21 94 22
REMARK SMILES IDX 88 23 87 24 43 26 75 27 55 28 74 29 56 30 59 31 73 32 92 33
REMARK SMILES IDX 57 34 58 35 72 37 93 38 60 39 44 40 45 41 53 42 46 43 47 44
REMARK SMILES IDX 51 45 54 46 48 47 49 48 52 49 50 50 76 51 77 52 85 53 78 54
REMARK SMILES IDX 79 55 83 56 86 57 80 58 81 59 84 60 82 61 61 62 62 63 70 64
REMARK SMILES IDX 63 65 64 66 68 67 71 68 65 69 66 70 69 71 67 72 8 73 9 74
REMARK SMILES IDX 10 75 11 76 12 77 13 78 14 79 15 80 16 81 34 82 17 83 26 84
REMARK SMILES IDX 19 85 20 86 25 87 21 88 24 89 22 90 23 91 18 92 27 94 28 95
REMARK SMILES IDX 33 96 29 97 32 98 30 99 31 100
REMARK H PARENT 91 25 59 36 18 93
REMARK Flexibility Score: inf
ROOT
ATOM      1  C   UNL A   1      42.648  18.657  25.833  1.00  0.00     0.188 C 
ENDROOT
BRANCH   1   2
ATOM      2  O   UNL A   1      43.518  19.462  25.046  1.00  0.00    -0.376 OA
BRANCH   2   3
ATOM      3  C   UNL A   1      44.923  19.223  24.914  1.00  0.00     0.202 C 
BRANCH   3   4
ATOM      4  C   UNL A   1      45.957  20.426  25.016  1.00  0.00     0.261 C 
BRANCH   4   5
ATOM      5  O   UNL A   1      45.721  21.976  25.185  1.00  0.00    -0.460 OA
BRANCH   5   6
ATOM      6  C   UNL A   1      44.811  23.258  25.054  1.00  0.00     0.338 C 
ATOM      7  O   UNL A   1      44.863  23.288  23.782  1.00  0.00    -0.246 OA
BRANCH   6   8
ATOM      8  C   UNL A   1      43.882  24.473  26.560  1.00  0.00     0.060 A 
ATOM      9  C   UNL A   1      44.122  25.974  26.916  1.00  0.00     0.016 A 
ATOM     10  C   UNL A   1      42.804  24.205  27.601  1.00  0.00     0.016 A 
ATOM     11  C   UNL A   1      43.530  26.868  27.788  1.00  0.00     0.010 A 
ATOM     12  C   UNL A   1      42.139  25.094  28.485  1.00  0.00     0.010 A 
ATOM     13  C   UNL A   1      42.524  26.410  28.567  1.00  0.00    -0.014 A 
BRANCH  13  14
ATOM     14  C   UNL A   1      42.076  27.305  29.607  1.00  0.00     0.031 A 
ATOM     15  C   UNL A   1      42.912  27.364  30.834  1.00  0.00     0.074 A 
ATOM     16  C   UNL A   1      41.026  28.084  29.328  1.00  0.00     0.049 A 
ATOM     17  N   UNL A   1      42.712  28.036  31.927  1.00  0.00    -0.248 NA
ATOM     18  C   UNL A   1      44.142  26.544  30.839  1.00  0.00     0.031 C 
ATOM     19  C   UNL A   1      40.295  28.102  28.054  1.00  0.00     0.029 A 
ATOM     20  N   UNL A   1      40.396  29.009  30.095  1.00  0.00    -0.354 N 
ATOM     21  C   UNL A   1      43.763  27.693  32.762  1.00  0.00     0.074 A 
ATOM     22  C   UNL A   1      44.592  26.739  32.066  1.00  0.00     0.031 C 
ATOM     23  C   UNL A   1      39.283  28.977  28.148  1.00  0.00     0.029 A 
ATOM     24  C   UNL A   1      39.288  29.541  29.492  1.00  0.00     0.049 A 
ATOM     25  H   UNL A   1      40.704  29.271  30.993  1.00  0.00     0.167 HD
ATOM     26  C   UNL A   1      43.983  28.151  34.013  1.00  0.00     0.037 A 
ATOM     27  C   UNL A   1      38.376  30.369  30.019  1.00  0.00     0.037 A 
ATOM     28  C   UNL A   1      43.091  29.088  34.638  1.00  0.00     0.049 A 
ATOM     29  C   UNL A   1      38.612  30.807  31.437  1.00  0.00     0.074 A 
ATOM     30  C   UNL A   1      43.146  29.633  35.903  1.00  0.00     0.029 A 
ATOM     31  N   UNL A   1      41.956  29.611  34.018  1.00  0.00    -0.354 N 
ATOM     32  N   UNL A   1      39.594  30.483  32.251  1.00  0.00    -0.248 NA
ATOM     33  C   UNL A   1      37.631  31.729  32.009  1.00  0.00     0.031 C 
ATOM     34  C   UNL A   1      42.014  30.442  36.065  1.00  0.00     0.029 A 
ATOM     35  C   UNL A   1      41.288  30.457  34.881  1.00  0.00     0.049 A 
ATOM     36  H   UNL A   1      41.672  29.406  33.097  1.00  0.00     0.167 HD
ATOM     37  C   UNL A   1      39.372  31.187  33.422  1.00  0.00     0.074 A 
ATOM     38  C   UNL A   1      38.164  31.966  33.200  1.00  0.00     0.031 C 
ATOM     39  C   UNL A   1      40.086  31.200  34.578  1.00  0.00     0.037 A 
BRANCH  26  40
ATOM     40  C   UNL A   1      45.158  27.585  34.753  1.00  0.00     0.064 A 
ATOM     41  C   UNL A   1      45.070  26.397  35.497  1.00  0.00     0.173 A 
ATOM     42  C   UNL A   1      46.377  28.280  34.777  1.00  0.00     0.173 A 
ATOM     43  F   UNL A   1      43.919  25.710  35.540  1.00  0.00    -0.203 F 
ATOM     44  C   UNL A   1      46.143  25.948  36.266  1.00  0.00     0.198 A 
ATOM     45  C   UNL A   1      47.458  27.810  35.520  1.00  0.00     0.198 A 
ATOM     46  F   UNL A   1      46.513  29.429  34.101  1.00  0.00    -0.203 F 
ATOM     47  F   UNL A   1      46.009  24.853  37.028  1.00  0.00    -0.200 F 
ATOM     48  C   UNL A   1      47.337  26.652  36.273  1.00  0.00     0.200 A 
ATOM     49  F   UNL A   1      48.611  28.492  35.524  1.00  0.00    -0.200 F 
ATOM     50  F   UNL A   1      48.365  26.227  37.021  1.00  0.00    -0.200 F 
ENDBRANCH  26  40
BRANCH  27  51
ATOM     51  C   UNL A   1      37.221  30.821  29.207  1.00  0.00     0.064 A 
ATOM     52  C   UNL A   1      36.165  29.949  28.919  1.00  0.00     0.173 A 
ATOM     53  C   UNL A   1      37.121  32.141  28.738  1.00  0.00     0.173 A 
ATOM     54  F   UNL A   1      36.210  28.680  29.352  1.00  0.00    -0.203 F 
ATOM     55  C   UNL A   1      35.065  30.368  28.174  1.00  0.00     0.198 A 
ATOM     56  C   UNL A   1      36.009  32.568  28.016  1.00  0.00     0.198 A 
ATOM     57  F   UNL A   1      38.092  33.027  29.008  1.00  0.00    -0.203 F 
ATOM     58  F   UNL A   1      34.086  29.501  27.886  1.00  0.00    -0.200 F 
ATOM     59  C   UNL A   1      34.986  31.678  27.726  1.00  0.00     0.200 A 
ATOM     60  F   UNL A   1      35.923  33.842  27.610  1.00  0.00    -0.200 F 
ATOM     61  F   UNL A   1      33.923  32.083  27.017  1.00  0.00    -0.200 F 
ENDBRANCH  27  51
BRANCH  39  62
ATOM     62  C   UNL A   1      39.585  32.122  35.646  1.00  0.00     0.064 A 
ATOM     63  C   UNL A   1      38.647  31.702  36.598  1.00  0.00     0.173 A 
ATOM     64  C   UNL A   1      40.082  33.431  35.731  1.00  0.00     0.173 A 
ATOM     65  F   UNL A   1      38.134  30.463  36.541  1.00  0.00    -0.203 F 
ATOM     66  C   UNL A   1      38.194  32.576  37.579  1.00  0.00     0.198 A 
ATOM     67  C   UNL A   1      39.657  34.287  36.738  1.00  0.00     0.198 A 
ATOM     68  F   UNL A   1      40.988  33.869  34.844  1.00  0.00    -0.203 F 
ATOM     69  F   UNL A   1      37.249  32.178  38.441  1.00  0.00    -0.200 F 
ATOM     70  C   UNL A   1      38.706  33.863  37.654  1.00  0.00     0.200 A 
ATOM     71  F   UNL A   1      40.166  35.524  36.821  1.00  0.00    -0.200 F 
ATOM     72  F   UNL A   1      38.274  34.701  38.606  1.00  0.00    -0.200 F 
ENDBRANCH  39  62
ENDBRANCH  13  14
ENDBRANCH   6   8
ENDBRANCH   5   6
ENDBRANCH   4   5
ENDBRANCH   3   4
ENDBRANCH   2   3
ENDBRANCH   1   2
BRANCH   1  73
ATOM     73  C   UNL A   1      42.324  19.377  27.151  1.00  0.00     0.188 C 
BRANCH  73  74
ATOM     74  O   UNL A   1      41.866  20.715  27.002  1.00  0.00    -0.376 OA
BRANCH  74  75
ATOM     75  C   UNL A   1      40.505  20.850  26.612  1.00  0.00     0.202 C 
BRANCH  75  76
ATOM     76  C   UNL A   1      39.938  22.266  26.316  1.00  0.00     0.261 C 
BRANCH  76  77
ATOM     77  O   UNL A   1      38.488  22.451  26.177  1.00  0.00    -0.461 OA
BRANCH  77  78
ATOM     78  C   UNL A   1      38.058  23.750  26.307  1.00  0.00     0.335 C 
ATOM     79  O   UNL A   1      38.809  24.657  26.670  1.00  0.00    -0.249 OA
BRANCH  78  80
ATOM     80  C   UNL A   1      36.522  24.058  26.039  1.00  0.00     0.232 C 
ATOM     81  C   UNL A   1      36.333  24.046  24.521  1.00  0.00     0.087 C 
ATOM     82  O   UNL A   1      35.402  23.376  26.578  1.00  0.00    -0.355 OA
ATOM     83  C   UNL A   1      34.889  23.650  24.237  1.00  0.00     0.123 C 
ATOM     84  C   UNL A   1      34.433  22.970  25.539  1.00  0.00     0.186 C 
BRANCH  83  85
ATOM     85  C   UNL A   1      34.065  24.892  23.831  1.00  0.00    -0.013 A 
ATOM     86  C   UNL A   1      33.821  25.893  24.795  1.00  0.00     0.008 A 
ATOM     87  C   UNL A   1      33.553  25.115  22.536  1.00  0.00     0.008 A 
ATOM     88  C   UNL A   1      33.197  27.101  24.459  1.00  0.00     0.021 A 
ATOM     89  C   UNL A   1      32.949  26.333  22.191  1.00  0.00     0.021 A 
ATOM     90  C   UNL A   1      32.792  27.327  23.149  1.00  0.00     0.041 A 
ATOM     91  Cl  UNL A   1      32.108  28.844  22.710  1.00  0.00    -0.084 Cl
ENDBRANCH  83  85
BRANCH  83  92
ATOM     92  O   UNL A   1      34.854  22.747  23.129  1.00  0.00    -0.382 OA
ATOM     93  H   UNL A   1      35.671  22.224  23.111  1.00  0.00     0.212 HD
ENDBRANCH  83  92
BRANCH  84  94
ATOM     94  C   UNL A   1      34.223  21.427  25.737  1.00  0.00    -0.016 A 
ATOM     95  C   UNL A   1      32.589  20.982  25.165  1.00  0.00     0.008 A 
ATOM     96  C   UNL A   1      35.594  20.252  25.495  1.00  0.00     0.008 A 
ATOM     97  C   UNL A   1      32.326  19.448  24.218  1.00  0.00     0.021 A 
ATOM     98  C   UNL A   1      35.324  18.701  24.564  1.00  0.00     0.021 A 
ATOM     99  C   UNL A   1      33.702  18.298  23.910  1.00  0.00     0.041 A 
ATOM    100  Cl  UNL A   1      33.449  16.980  22.847  1.00  0.00    -0.084 Cl
ENDBRANCH  84  94
ENDBRANCH  78  80
ENDBRANCH  77  78
ENDBRANCH  76  77
ENDBRANCH  75  76
ENDBRANCH  74  75
ENDBRANCH  73  74
ENDBRANCH   1  73
TORSDOF 20
ENDMDL
MODEL 2
REMARK VINA RESULT:     -11.5      0.965      3.537
REMARK SMILES O=C(OCCOCCOCCOC(=O)[C@H]1C[C@](O)(c2ccc(Cl)cc2)[C@@H](c2ccc(Cl)cc2)O1)c1ccc(-c2c3nc(c(-c4c(F)c(F)c(F)c(F)c4F)c4ccc([nH]4)c(-c4c(F)c(F)c(F)c(F)c4F)c4nc(c(-c5c(F)c(F)c(F)c(F)c5F)c5ccc2[nH]5)C=C4)C=C3)cc1
REMARK SMILES IDX 7 1 6 2 5 3 4 4 3 5 2 6 1 7 35 8 36 9 97 10 37 11 96 12
REMARK SMILES IDX 38 13 39 14 40 15 90 16 41 17 95 18 89 19 91 20 42 21 94 22
REMARK SMILES IDX 88 23 87 24 43 26 75 27 55 28 74 29 56 30 59 31 73 32 92 33
REMARK SMILES IDX 57 34 58 35 72 37 93 38 60 39 44 40 45 41 53 42 46 43 47 44
REMARK SMILES IDX 51 45 54 46 48 47 49 48 52 49 50 50 76 51 77 52 85 53 78 54
REMARK SMILES IDX 79 55 83 56 86 57 80 58 81 59 84 60 82 61 61 62 62 63 70 64
REMARK SMILES IDX 63 65 64 66 68 67 71 68 65 69 66 70 69 71 67 72 8 73 9 74
REMARK SMILES IDX 10 75 11 76 12 77 13 78 14 79 15 80 16 81 34 82 17 83 26 84
REMARK SMILES IDX 19 85 20 86 25 87 21 88 24 89 22 90 23 91 18 92 27 94 28 95
REMARK SMILES IDX 33 96 29 97 32 98 30 99 31 100
REMARK H PARENT 91 25 59 36 18 93
REMARK Flexibility Score: inf
ROOT
ATOM      1  C   UNL A   1      42.843  18.728  26.127  1.00  0.00     0.188 C 
ENDROOT
BRANCH   1   2
ATOM      2  O   UNL A   1      43.242  19.108  24.815  1.00  0.00    -0.376 OA
BRANCH   2   3
ATOM      3  C   UNL A   1      44.606  19.208  24.394  1.00  0.00     0.202 C 
BRANCH   3   4
ATOM      4  C   UNL A   1      45.417  20.560  24.602  1.00  0.00     0.261 C 
BRANCH   4   5
ATOM      5  O   UNL A   1      44.929  21.998  25.025  1.00  0.00    -0.460 OA
BRANCH   5   6
ATOM      6  C   UNL A   1      43.840  23.139  25.045  1.00  0.00     0.338 C 
ATOM      7  O   UNL A   1      43.405  22.882  23.876  1.00  0.00    -0.246 OA
BRANCH   6   8
ATOM      8  C   UNL A   1      43.356  24.584  26.556  1.00  0.00     0.060 A 
ATOM      9  C   UNL A   1      42.552  24.406  27.882  1.00  0.00     0.016 A 
ATOM     10  C   UNL A   1      43.664  26.065  26.722  1.00  0.00     0.016 A 
ATOM     11  C   UNL A   1      42.260  25.228  28.954  1.00  0.00     0.010 A 
ATOM     12  C   UNL A   1      43.423  26.937  27.817  1.00  0.00     0.010 A 
ATOM     13  C   UNL A   1      42.715  26.500  28.910  1.00  0.00    -0.014 A 
BRANCH  13  14
ATOM     14  C   UNL A   1      42.216  27.384  29.936  1.00  0.00     0.031 A 
ATOM     15  C   UNL A   1      43.025  27.478  31.179  1.00  0.00     0.074 A 
ATOM     16  C   UNL A   1      41.145  28.124  29.633  1.00  0.00     0.049 A 
ATOM     17  N   UNL A   1      42.780  28.148  32.264  1.00  0.00    -0.248 NA
ATOM     18  C   UNL A   1      44.283  26.703  31.212  1.00  0.00     0.031 C 
ATOM     19  C   UNL A   1      40.438  28.109  28.345  1.00  0.00     0.029 A 
ATOM     20  N   UNL A   1      40.468  29.030  30.382  1.00  0.00    -0.354 N 
ATOM     21  C   UNL A   1      43.827  27.847  33.121  1.00  0.00     0.074 A 
ATOM     22  C   UNL A   1      44.702  26.920  32.446  1.00  0.00     0.031 C 
ATOM     23  C   UNL A   1      39.395  28.949  28.415  1.00  0.00     0.029 A 
ATOM     24  C   UNL A   1      39.354  29.519  29.755  1.00  0.00     0.049 A 
ATOM     25  H   UNL A   1      40.749  29.307  31.284  1.00  0.00     0.167 HD
ATOM     26  C   UNL A   1      44.006  28.319  34.373  1.00  0.00     0.037 A 
ATOM     27  C   UNL A   1      38.403  30.317  30.260  1.00  0.00     0.037 A 
ATOM     28  C   UNL A   1      43.070  29.226  34.976  1.00  0.00     0.049 A 
ATOM     29  C   UNL A   1      38.596  30.771  31.680  1.00  0.00     0.074 A 
ATOM     30  C   UNL A   1      43.081  29.780  36.238  1.00  0.00     0.029 A 
ATOM     31  N   UNL A   1      41.929  29.706  34.331  1.00  0.00    -0.354 N 
ATOM     32  N   UNL A   1      39.573  30.486  32.514  1.00  0.00    -0.248 NA
ATOM     33  C   UNL A   1      37.572  31.660  32.228  1.00  0.00     0.031 C 
ATOM     34  C   UNL A   1      41.919  30.549  36.375  1.00  0.00     0.029 A 
ATOM     35  C   UNL A   1      41.215  30.532  35.177  1.00  0.00     0.049 A 
ATOM     36  H   UNL A   1      41.671  29.487  33.406  1.00  0.00     0.167 HD
ATOM     37  C   UNL A   1      39.303  31.186  33.677  1.00  0.00     0.074 A 
ATOM     38  C   UNL A   1      38.073  31.921  33.427  1.00  0.00     0.031 C 
ATOM     39  C   UNL A   1      39.994  31.231  34.846  1.00  0.00     0.037 A 
BRANCH  26  40
ATOM     40  C   UNL A   1      45.186  27.798  35.139  1.00  0.00     0.064 A 
ATOM     41  C   UNL A   1      45.094  26.680  35.985  1.00  0.00     0.173 A 
ATOM     42  C   UNL A   1      46.416  28.471  35.081  1.00  0.00     0.173 A 
ATOM     43  F   UNL A   1      43.933  26.020  36.107  1.00  0.00    -0.203 F 
ATOM     44  C   UNL A   1      46.174  26.281  36.770  1.00  0.00     0.198 A 
ATOM     45  C   UNL A   1      47.503  28.049  35.843  1.00  0.00     0.198 A 
ATOM     46  F   UNL A   1      46.558  29.556  34.306  1.00  0.00    -0.203 F 
ATOM     47  F   UNL A   1      46.036  25.259  37.627  1.00  0.00    -0.200 F 
ATOM     48  C   UNL A   1      47.379  26.962  36.696  1.00  0.00     0.200 A 
ATOM     49  F   UNL A   1      48.667  28.708  35.768  1.00  0.00    -0.200 F 
ATOM     50  F   UNL A   1      48.413  26.585  37.460  1.00  0.00    -0.200 F 
ENDBRANCH  26  40
BRANCH  27  51
ATOM     51  C   UNL A   1      37.249  30.724  29.423  1.00  0.00     0.064 A 
ATOM     52  C   UNL A   1      37.186  32.007  28.868  1.00  0.00     0.173 A 
ATOM     53  C   UNL A   1      36.209  29.831  29.119  1.00  0.00     0.173 A 
ATOM     54  F   UNL A   1      38.160  32.893  29.122  1.00  0.00    -0.203 F 
ATOM     55  C   UNL A   1      36.116  32.393  28.064  1.00  0.00     0.198 A 
ATOM     56  C   UNL A   1      35.152  30.208  28.292  1.00  0.00     0.198 A 
ATOM     57  F   UNL A   1      36.232  28.579  29.602  1.00  0.00    -0.203 F 
ATOM     58  F   UNL A   1      36.066  33.640  27.575  1.00  0.00    -0.200 F 
ATOM     59  C   UNL A   1      35.102  31.493  27.774  1.00  0.00     0.200 A 
ATOM     60  F   UNL A   1      34.190  29.327  27.992  1.00  0.00    -0.200 F 
ATOM     61  F   UNL A   1      34.078  31.863  26.992  1.00  0.00    -0.200 F 
ENDBRANCH  27  51
BRANCH  39  62
ATOM     62  C   UNL A   1      39.440  32.140  35.900  1.00  0.00     0.064 A 
ATOM     63  C   UNL A   1      39.877  33.464  36.031  1.00  0.00     0.173 A 
ATOM     64  C   UNL A   1      38.435  31.680  36.762  1.00  0.00     0.173 A 
ATOM     65  F   UNL A   1      40.850  33.937  35.237  1.00  0.00    -0.203 F 
ATOM     66  C   UNL A   1      39.351  34.288  37.018  1.00  0.00     0.198 A 
ATOM     67  C   UNL A   1      37.883  32.519  37.721  1.00  0.00     0.198 A 
ATOM     68  F   UNL A   1      37.981  30.421  36.663  1.00  0.00    -0.203 F 
ATOM     69  F   UNL A   1      39.827  35.531  37.172  1.00  0.00    -0.200 F 
ATOM     70  C   UNL A   1      38.349  33.819  37.855  1.00  0.00     0.200 A 
ATOM     71  F   UNL A   1      36.902  32.071  38.515  1.00  0.00    -0.200 F 
ATOM     72  F   UNL A   1      37.837  34.618  38.801  1.00  0.00    -0.200 F 
ENDBRANCH  39  62
ENDBRANCH  13  14
ENDBRANCH   6   8
ENDBRANCH   5   6
ENDBRANCH   4   5
ENDBRANCH   3   4
ENDBRANCH   2   3
ENDBRANCH   1   2
BRANCH   1  73
ATOM     73  C   UNL A   1      42.503  19.979  26.951  1.00  0.00     0.188 C 
BRANCH  73  74
ATOM     74  O   UNL A   1      41.125  20.326  26.964  1.00  0.00    -0.376 OA
BRANCH  74  75
ATOM     75  C   UNL A   1      40.782  21.476  26.201  1.00  0.00     0.202 C 
BRANCH  75  76
ATOM     76  C   UNL A   1      39.449  22.216  26.501  1.00  0.00     0.261 C 
BRANCH  76  77
ATOM     77  O   UNL A   1      38.378  22.216  25.497  1.00  0.00    -0.461 OA
BRANCH  77  78
ATOM     78  C   UNL A   1      37.357  23.103  25.744  1.00  0.00     0.335 C 
ATOM     79  O   UNL A   1      37.492  24.067  26.499  1.00  0.00    -0.249 OA
BRANCH  78  80
ATOM     80  C   UNL A   1      35.944  22.817  25.075  1.00  0.00     0.232 C 
ATOM     81  C   UNL A   1      35.223  21.820  25.983  1.00  0.00     0.087 C 
ATOM     82  O   UNL A   1      34.968  23.770  24.688  1.00  0.00    -0.355 OA
ATOM     83  C   UNL A   1      33.725  22.034  25.808  1.00  0.00     0.123 C 
ATOM     84  C   UNL A   1      33.623  23.446  25.208  1.00  0.00     0.186 C 
BRANCH  83  85
ATOM     85  C   UNL A   1      33.123  20.913  24.932  1.00  0.00    -0.013 A 
ATOM     86  C   UNL A   1      32.597  21.244  23.666  1.00  0.00     0.008 A 
ATOM     87  C   UNL A   1      33.086  19.553  25.302  1.00  0.00     0.008 A 
ATOM     88  C   UNL A   1      32.159  20.261  22.771  1.00  0.00     0.021 A 
ATOM     89  C   UNL A   1      32.670  18.563  24.399  1.00  0.00     0.021 A 
ATOM     90  C   UNL A   1      32.228  18.921  23.131  1.00  0.00     0.041 A 
ATOM     91  Cl  UNL A   1      31.777  17.703  22.002  1.00  0.00    -0.084 Cl
ENDBRANCH  83  85
BRANCH  83  92
ATOM     92  O   UNL A   1      33.083  21.956  27.084  1.00  0.00    -0.382 OA
ATOM     93  H   UNL A   1      32.637  21.098  27.170  1.00  0.00     0.212 HD
ENDBRANCH  83  92
BRANCH  84  94
ATOM     94  C   UNL A   1      33.146  24.731  25.973  1.00  0.00    -0.016 A 
ATOM     95  C   UNL A   1      34.208  26.100  25.534  1.00  0.00     0.008 A 
ATOM     96  C   UNL A   1      31.377  25.046  26.270  1.00  0.00     0.008 A 
ATOM     97  C   UNL A   1      33.509  27.756  25.237  1.00  0.00     0.021 A 
ATOM     98  C   UNL A   1      30.679  26.714  25.995  1.00  0.00     0.021 A 
ATOM     99  C   UNL A   1      31.730  28.068  25.465  1.00  0.00     0.041 A 
ATOM    100  Cl  UNL A   1      31.094  29.581  24.979  1.00  0.00    -0.084 Cl
ENDBRANCH  84  94
ENDBRANCH  78  80
ENDBRANCH  77  78
ENDBRANCH  76  77
ENDBRANCH  75  76
ENDBRANCH  74  75
ENDBRANCH  73  74
ENDBRANCH   1  73
TORSDOF 20
ENDMDL
MODEL 3
REMARK VINA RESULT:     -11.0      3.253      9.242
REMARK SMILES O=C(OCCOCCOCCOC(=O)[C@H]1C[C@](O)(c2ccc(Cl)cc2)[C@@H](c2ccc(Cl)cc2)O1)c1ccc(-c2c3nc(c(-c4c(F)c(F)c(F)c(F)c4F)c4ccc([nH]4)c(-c4c(F)c(F)c(F)c(F)c4F)c4nc(c(-c5c(F)c(F)c(F)c(F)c5F)c5ccc2[nH]5)C=C4)C=C3)cc1
REMARK SMILES IDX 7 1 6 2 5 3 4 4 3 5 2 6 1 7 35 8 36 9 97 10 37 11 96 12
REMARK SMILES IDX 38 13 39 14 40 15 90 16 41 17 95 18 89 19 91 20 42 21 94 22
REMARK SMILES IDX 88 23 87 24 43 26 75 27 55 28 74 29 56 30 59 31 73 32 92 33
REMARK SMILES IDX 57 34 58 35 72 37 93 38 60 39 44 40 45 41 53 42 46 43 47 44
REMARK SMILES IDX 51 45 54 46 48 47 49 48 52 49 50 50 76 51 77 52 85 53 78 54
REMARK SMILES IDX 79 55 83 56 86 57 80 58 81 59 84 60 82 61 61 62 62 63 70 64
REMARK SMILES IDX 63 65 64 66 68 67 71 68 65 69 66 70 69 71 67 72 8 73 9 74
REMARK SMILES IDX 10 75 11 76 12 77 13 78 14 79 15 80 16 81 34 82 17 83 26 84
REMARK SMILES IDX 19 85 20 86 25 87 21 88 24 89 22 90 23 91 18 92 27 94 28 95
REMARK SMILES IDX 33 96 29 97 32 98 30 99 31 100
REMARK H PARENT 91 25 59 36 18 93
REMARK Flexibility Score: inf
ROOT
ATOM      1  C   UNL A   1      29.180  27.997  23.151  1.00  0.00     0.188 C 
ENDROOT
BRANCH   1   2
ATOM      2  O   UNL A   1      29.221  29.389  23.441  1.00  0.00    -0.376 OA
BRANCH   2   3
ATOM      3  C   UNL A   1      30.424  30.107  23.735  1.00  0.00     0.202 C 
BRANCH   3   4
ATOM      4  C   UNL A   1      30.470  31.142  24.941  1.00  0.00     0.261 C 
BRANCH   4   5
ATOM      5  O   UNL A   1      31.509  31.309  26.114  1.00  0.00    -0.460 OA
BRANCH   5   6
ATOM      6  C   UNL A   1      32.476  32.197  26.990  1.00  0.00     0.338 C 
ATOM      7  O   UNL A   1      31.777  33.254  26.870  1.00  0.00    -0.246 OA
BRANCH   6   8
ATOM      8  C   UNL A   1      34.318  31.704  27.975  1.00  0.00     0.060 A 
ATOM      9  C   UNL A   1      34.741  30.383  28.691  1.00  0.00     0.016 A 
ATOM     10  C   UNL A   1      35.616  32.465  28.206  1.00  0.00     0.016 A 
ATOM     11  C   UNL A   1      35.911  29.929  29.270  1.00  0.00     0.010 A 
ATOM     12  C   UNL A   1      36.851  32.030  28.756  1.00  0.00     0.010 A 
ATOM     13  C   UNL A   1      36.970  30.769  29.287  1.00  0.00    -0.014 A 
BRANCH  13  14
ATOM     14  C   UNL A   1      38.098  30.346  30.081  1.00  0.00     0.031 A 
ATOM     15  C   UNL A   1      39.070  29.438  29.420  1.00  0.00     0.074 A 
ATOM     16  C   UNL A   1      38.231  30.899  31.291  1.00  0.00     0.049 A 
ATOM     17  N   UNL A   1      40.129  28.874  29.915  1.00  0.00    -0.248 NA
ATOM     18  C   UNL A   1      38.811  29.109  28.002  1.00  0.00     0.031 C 
ATOM     19  C   UNL A   1      37.325  31.897  31.874  1.00  0.00     0.029 A 
ATOM     20  N   UNL A   1      39.178  30.702  32.243  1.00  0.00    -0.354 N 
ATOM     21  C   UNL A   1      40.640  28.095  28.890  1.00  0.00     0.074 A 
ATOM     22  C   UNL A   1      39.771  28.238  27.747  1.00  0.00     0.031 C 
ATOM     23  C   UNL A   1      37.748  32.197  33.111  1.00  0.00     0.029 A 
ATOM     24  C   UNL A   1      38.922  31.385  33.402  1.00  0.00     0.049 A 
ATOM     25  H   UNL A   1      39.966  30.127  32.114  1.00  0.00     0.167 HD
ATOM     26  C   UNL A   1      41.748  27.325  28.936  1.00  0.00     0.037 A 
ATOM     27  C   UNL A   1      39.576  31.307  34.569  1.00  0.00     0.037 A 
ATOM     28  C   UNL A   1      42.546  27.227  30.127  1.00  0.00     0.049 A 
ATOM     29  C   UNL A   1      40.765  30.388  34.610  1.00  0.00     0.074 A 
ATOM     30  C   UNL A   1      43.679  26.476  30.357  1.00  0.00     0.029 A 
ATOM     31  N   UNL A   1      42.267  27.916  31.307  1.00  0.00    -0.354 N 
ATOM     32  N   UNL A   1      41.258  29.630  33.653  1.00  0.00    -0.248 NA
ATOM     33  C   UNL A   1      41.495  30.317  35.875  1.00  0.00     0.031 C 
ATOM     34  C   UNL A   1      44.051  26.669  31.693  1.00  0.00     0.029 A 
ATOM     35  C   UNL A   1      43.193  27.592  32.279  1.00  0.00     0.049 A 
ATOM     36  H   UNL A   1      41.518  28.544  31.429  1.00  0.00     0.167 HD
ATOM     37  C   UNL A   1      42.377  29.016  34.187  1.00  0.00     0.074 A 
ATOM     38  C   UNL A   1      42.493  29.507  35.551  1.00  0.00     0.031 C 
ATOM     39  C   UNL A   1      43.238  28.132  33.619  1.00  0.00     0.037 A 
BRANCH  26  40
ATOM     40  C   UNL A   1      42.072  26.516  27.715  1.00  0.00     0.064 A 
ATOM     41  C   UNL A   1      41.491  25.259  27.477  1.00  0.00     0.173 A 
ATOM     42  C   UNL A   1      43.033  26.973  26.801  1.00  0.00     0.173 A 
ATOM     43  F   UNL A   1      40.593  24.756  28.336  1.00  0.00    -0.203 F 
ATOM     44  C   UNL A   1      41.889  24.477  26.393  1.00  0.00     0.198 A 
ATOM     45  C   UNL A   1      43.402  26.203  25.701  1.00  0.00     0.198 A 
ATOM     46  F   UNL A   1      43.634  28.157  26.988  1.00  0.00    -0.203 F 
ATOM     47  F   UNL A   1      41.376  23.249  26.231  1.00  0.00    -0.200 F 
ATOM     48  C   UNL A   1      42.840  24.951  25.504  1.00  0.00     0.200 A 
ATOM     49  F   UNL A   1      44.322  26.664  24.842  1.00  0.00    -0.200 F 
ATOM     50  F   UNL A   1      43.230  24.194  24.469  1.00  0.00    -0.200 F 
ENDBRANCH  26  40
BRANCH  27  51
ATOM     51  C   UNL A   1      39.130  32.116  35.729  1.00  0.00     0.064 A 
ATOM     52  C   UNL A   1      38.254  31.580  36.679  1.00  0.00     0.173 A 
ATOM     53  C   UNL A   1      39.603  33.421  35.941  1.00  0.00     0.173 A 
ATOM     54  F   UNL A   1      37.781  30.334  36.524  1.00  0.00    -0.203 F 
ATOM     55  C   UNL A   1      37.844  32.324  37.783  1.00  0.00     0.198 A 
ATOM     56  C   UNL A   1      39.215  34.155  37.061  1.00  0.00     0.198 A 
ATOM     57  F   UNL A   1      40.467  33.975  35.077  1.00  0.00    -0.203 F 
ATOM     58  F   UNL A   1      36.977  31.797  38.657  1.00  0.00    -0.200 F 
ATOM     59  C   UNL A   1      38.327  33.609  37.975  1.00  0.00     0.200 A 
ATOM     60  F   UNL A   1      39.706  35.386  37.257  1.00  0.00    -0.200 F 
ATOM     61  F   UNL A   1      37.940  34.321  39.043  1.00  0.00    -0.200 F 
ENDBRANCH  27  51
BRANCH  39  62
ATOM     62  C   UNL A   1      44.387  27.694  34.475  1.00  0.00     0.064 A 
ATOM     63  C   UNL A   1      45.598  28.396  34.493  1.00  0.00     0.173 A 
ATOM     64  C   UNL A   1      44.250  26.576  35.310  1.00  0.00     0.173 A 
ATOM     65  F   UNL A   1      45.775  29.461  33.696  1.00  0.00    -0.203 F 
ATOM     66  C   UNL A   1      46.652  27.970  35.293  1.00  0.00     0.198 A 
ATOM     67  C   UNL A   1      45.291  26.178  36.138  1.00  0.00     0.198 A 
ATOM     68  F   UNL A   1      43.102  25.881  35.330  1.00  0.00    -0.203 F 
ATOM     69  F   UNL A   1      47.825  28.614  35.249  1.00  0.00    -0.200 F 
ATOM     70  C   UNL A   1      46.494  26.868  36.121  1.00  0.00     0.200 A 
ATOM     71  F   UNL A   1      45.132  25.125  36.952  1.00  0.00    -0.200 F 
ATOM     72  F   UNL A   1      47.508  26.464  36.898  1.00  0.00    -0.200 F 
ENDBRANCH  39  62
ENDBRANCH  13  14
ENDBRANCH   6   8
ENDBRANCH   5   6
ENDBRANCH   4   5
ENDBRANCH   3   4
ENDBRANCH   2   3
ENDBRANCH   1   2
BRANCH   1  73
ATOM     73  C   UNL A   1      30.500  27.562  22.496  1.00  0.00     0.188 C 
BRANCH  73  74
ATOM     74  O   UNL A   1      31.269  26.643  23.259  1.00  0.00    -0.376 OA
BRANCH  74  75
ATOM     75  C   UNL A   1      31.991  25.681  22.501  1.00  0.00     0.202 C 
BRANCH  75  76
ATOM     76  C   UNL A   1      33.542  25.654  22.589  1.00  0.00     0.261 C 
BRANCH  76  77
ATOM     77  O   UNL A   1      34.249  24.367  22.543  1.00  0.00    -0.461 OA
BRANCH  77  78
ATOM     78  C   UNL A   1      33.536  23.340  21.972  1.00  0.00     0.335 C 
ATOM     79  O   UNL A   1      33.278  23.308  20.768  1.00  0.00    -0.249 OA
BRANCH  78  80
ATOM     80  C   UNL A   1      32.981  22.197  22.927  1.00  0.00     0.232 C 
ATOM     81  C   UNL A   1      34.193  21.602  23.647  1.00  0.00     0.087 C 
ATOM     82  O   UNL A   1      31.964  22.316  23.908  1.00  0.00    -0.355 OA
ATOM     83  C   UNL A   1      33.713  21.052  24.984  1.00  0.00     0.123 C 
ATOM     84  C   UNL A   1      32.376  21.773  25.219  1.00  0.00     0.186 C 
BRANCH  83  85
ATOM     85  C   UNL A   1      33.617  19.511  24.925  1.00  0.00    -0.013 A 
ATOM     86  C   UNL A   1      34.763  18.770  24.571  1.00  0.00     0.008 A 
ATOM     87  C   UNL A   1      32.452  18.778  25.232  1.00  0.00     0.008 A 
ATOM     88  C   UNL A   1      34.780  17.371  24.626  1.00  0.00     0.021 A 
ATOM     89  C   UNL A   1      32.473  17.378  25.311  1.00  0.00     0.021 A 
ATOM     90  C   UNL A   1      33.642  16.682  25.027  1.00  0.00     0.041 A 
ATOM     91  Cl  UNL A   1      33.684  14.970  25.186  1.00  0.00    -0.084 Cl
ENDBRANCH  83  85
BRANCH  83  92
ATOM     92  O   UNL A   1      34.670  21.370  25.999  1.00  0.00    -0.382 OA
ATOM     93  H   UNL A   1      34.228  21.832  26.728  1.00  0.00     0.212 HD
ENDBRANCH  83  92
BRANCH  84  94
ATOM     94  C   UNL A   1      32.133  22.933  26.250  1.00  0.00    -0.016 A 
ATOM     95  C   UNL A   1      33.530  24.048  26.213  1.00  0.00     0.008 A 
ATOM     96  C   UNL A   1      30.466  23.614  26.525  1.00  0.00     0.008 A 
ATOM     97  C   UNL A   1      33.277  25.851  26.295  1.00  0.00     0.021 A 
ATOM     98  C   UNL A   1      30.216  25.422  26.630  1.00  0.00     0.021 A 
ATOM     99  C   UNL A   1      31.608  26.547  26.501  1.00  0.00     0.041 A 
ATOM    100  Cl  UNL A   1      31.403  28.242  26.367  1.00  0.00    -0.084 Cl
ENDBRANCH  84  94
ENDBRANCH  78  80
ENDBRANCH  77  78
ENDBRANCH  76  77
ENDBRANCH  75  76
ENDBRANCH  74  75
ENDBRANCH  73  74
ENDBRANCH   1  73
TORSDOF 20
ENDMDL
