MODEL 1
REMARK VINA RESULT:     -11.9      0.000      0.000
REMARK SMILES CC[NH+]1CCC2(CC1)OC[C@@H](C(=O)OCCOCCOCCOC(=O)c1ccc(-c3c4nc(c(-c5c(F)c(F)c(F)c(F)c5F)c5ccc([nH]5)c(-c5c(F)c(F)c(F)c(F)c5F)c5nc(c(-c6c(F)c(F)c(F)c(F)c6F)c6ccc3[nH]6)C=C5)C=C4)cc1)N2C(=O)c1ccc(Cl)c([N+](=O)[O-])c1
REMARK SMILES IDX 18 1 17 2 16 3 15 4 14 5 12 6 13 7 11 8 3 9 4 10 8 11 5 13
REMARK SMILES IDX 7 14 6 15 9 16 89 17 10 18 2 19 1 20 90 21 91 22 92 23 93 24
REMARK SMILES IDX 101 25 94 26 97 27 95 28 96 29 98 30 99 31 100 32 19 33
REMARK SMILES IDX 20 34 21 35 22 36 23 37 24 38 25 39 26 40 27 41 88 42 28 43
REMARK SMILES IDX 87 44 29 45 30 46 31 47 81 48 32 49 86 50 80 51 82 52 33 53
REMARK SMILES IDX 85 54 79 55 78 56 34 58 66 59 46 60 65 61 47 62 50 63 64 64
REMARK SMILES IDX 83 65 48 66 49 67 63 69 84 70 51 71 35 72 36 73 44 74 37 75
REMARK SMILES IDX 38 76 42 77 45 78 39 79 40 80 43 81 41 82 67 83 68 84 76 85
REMARK SMILES IDX 69 86 70 87 74 88 77 89 71 90 72 91 75 92 73 93 52 94 53 95
REMARK SMILES IDX 61 96 54 97 55 98 59 99 62 100 56 101 57 102 60 103 58 104
REMARK H PARENT 3 12 82 57 50 68
REMARK Flexibility Score: inf
ROOT
ATOM      1  C   UNL A   1      40.830  20.425  27.037  1.00  0.00     0.188 C 
ENDROOT
BRANCH   1   2
ATOM      2  O   UNL A   1      39.860  20.798  26.071  1.00  0.00    -0.376 OA
BRANCH   2   3
ATOM      3  C   UNL A   1      39.222  22.065  26.158  1.00  0.00     0.202 C 
BRANCH   3   4
ATOM      4  C   UNL A   1      37.860  22.222  25.452  1.00  0.00     0.261 C 
BRANCH   4   5
ATOM      5  O   UNL A   1      36.855  23.075  26.072  1.00  0.00    -0.462 OA
BRANCH   5   6
ATOM      6  C   UNL A   1      35.577  22.652  25.902  1.00  0.00     0.331 C 
ATOM      7  O   UNL A   1      35.198  21.534  26.264  1.00  0.00    -0.250 OA
BRANCH   6   8
ATOM      8  C   UNL A   1      34.551  23.599  25.216  1.00  0.00     0.224 C 
ATOM      9  N   UNL A   1      30.635  26.329  23.403  1.00  0.00    -0.335 N 
ATOM     10  C   UNL A   1      31.673  25.539  22.755  1.00  0.00     0.267 C 
ATOM     11  C   UNL A   1      30.684  26.432  24.866  1.00  0.00     0.267 C 
ATOM     12  H   UNL A   1      29.849  25.714  23.189  1.00  0.00     0.348 HD
ATOM     13  C   UNL A   1      33.047  25.644  23.357  1.00  0.00     0.120 C 
ATOM     14  C   UNL A   1      32.048  26.374  25.532  1.00  0.00     0.120 C 
ATOM     15  C   UNL A   1      33.053  25.434  24.884  1.00  0.00     0.155 C 
ATOM     16  O   UNL A   1      34.331  25.984  25.283  1.00  0.00    -0.352 OA
ATOM     17  N   UNL A   1      33.128  24.019  25.334  1.00  0.00    -0.293 N 
ATOM     18  C   UNL A   1      35.275  24.933  25.413  1.00  0.00     0.200 C 
BRANCH   9  19
ATOM     19  C   UNL A   1      30.320  27.631  22.807  1.00  0.00     0.258 C 
ATOM     20  C   UNL A   1      30.431  28.848  23.714  1.00  0.00     0.071 C 
ENDBRANCH   9  19
BRANCH  17  21
ATOM     21  C   UNL A   1      32.134  23.038  25.239  1.00  0.00     0.257 C 
ATOM     22  O   UNL A   1      31.131  23.079  25.940  1.00  0.00    -0.269 OA
BRANCH  21  23
ATOM     23  C   UNL A   1      32.163  21.838  24.373  1.00  0.00     0.047 A 
ATOM     24  C   UNL A   1      31.928  21.900  22.998  1.00  0.00     0.016 A 
ATOM     25  C   UNL A   1      32.239  20.574  24.974  1.00  0.00     0.101 A 
ATOM     26  C   UNL A   1      31.944  20.717  22.232  1.00  0.00     0.028 A 
ATOM     27  C   UNL A   1      32.421  19.414  24.198  1.00  0.00     0.288 A 
ATOM     28  C   UNL A   1      32.248  19.474  22.816  1.00  0.00     0.118 A 
ATOM     29  Cl  UNL A   1      32.319  18.114  21.754  1.00  0.00    -0.077 Cl
BRANCH  27  30
ATOM     30  N   UNL A   1      32.921  18.221  24.887  1.00  0.00     0.064 N 
ATOM     31  O   UNL A   1      32.138  17.566  25.586  1.00  0.00    -0.258 OA
ATOM     32  O   UNL A   1      34.096  17.889  24.663  1.00  0.00    -0.258 OA
ENDBRANCH  27  30
ENDBRANCH  21  23
ENDBRANCH  17  21
ENDBRANCH   6   8
ENDBRANCH   5   6
ENDBRANCH   4   5
ENDBRANCH   3   4
ENDBRANCH   2   3
ENDBRANCH   1   2
BRANCH   1  33
ATOM     33  C   UNL A   1      42.147  19.801  26.592  1.00  0.00     0.188 C 
BRANCH  33  34
ATOM     34  O   UNL A   1      42.738  20.414  25.460  1.00  0.00    -0.376 OA
BRANCH  34  35
ATOM     35  C   UNL A   1      44.130  20.155  25.286  1.00  0.00     0.202 C 
BRANCH  35  36
ATOM     36  C   UNL A   1      44.864  21.492  25.229  1.00  0.00     0.261 C 
BRANCH  36  37
ATOM     37  O   UNL A   1      44.148  22.541  25.906  1.00  0.00    -0.460 OA
BRANCH  37  38
ATOM     38  C   UNL A   1      44.183  23.765  25.331  1.00  0.00     0.338 C 
ATOM     39  O   UNL A   1      44.564  24.035  24.200  1.00  0.00    -0.246 OA
BRANCH  38  40
ATOM     40  C   UNL A   1      43.501  24.724  26.236  1.00  0.00     0.060 A 
ATOM     41  C   UNL A   1      43.845  26.082  26.167  1.00  0.00     0.016 A 
ATOM     42  C   UNL A   1      42.498  24.306  27.115  1.00  0.00     0.016 A 
ATOM     43  C   UNL A   1      43.237  27.009  27.019  1.00  0.00     0.010 A 
ATOM     44  C   UNL A   1      41.892  25.233  27.968  1.00  0.00     0.010 A 
ATOM     45  C   UNL A   1      42.287  26.582  27.958  1.00  0.00    -0.014 A 
BRANCH  45  46
ATOM     46  C   UNL A   1      41.834  27.486  29.050  1.00  0.00     0.031 A 
ATOM     47  C   UNL A   1      42.583  27.461  30.356  1.00  0.00     0.074 A 
ATOM     48  C   UNL A   1      40.773  28.300  28.905  1.00  0.00     0.049 A 
ATOM     49  N   UNL A   1      42.322  28.077  31.482  1.00  0.00    -0.248 NA
ATOM     50  C   UNL A   1      43.788  26.617  30.400  1.00  0.00     0.031 C 
ATOM     51  C   UNL A   1      39.973  28.444  27.692  1.00  0.00     0.029 A 
ATOM     52  N   UNL A   1      40.171  29.148  29.806  1.00  0.00    -0.354 N 
ATOM     53  C   UNL A   1      43.316  27.679  32.368  1.00  0.00     0.074 A 
ATOM     54  C   UNL A   1      44.168  26.749  31.661  1.00  0.00     0.031 C 
ATOM     55  C   UNL A   1      38.973  29.311  27.929  1.00  0.00     0.029 A 
ATOM     56  C   UNL A   1      39.039  29.756  29.321  1.00  0.00     0.049 A 
ATOM     57  H   UNL A   1      40.521  29.304  30.714  1.00  0.00     0.167 HD
ATOM     58  C   UNL A   1      43.504  28.059  33.654  1.00  0.00     0.037 A 
ATOM     59  C   UNL A   1      38.142  30.552  29.940  1.00  0.00     0.037 A 
ATOM     60  C   UNL A   1      42.665  28.994  34.357  1.00  0.00     0.049 A 
ATOM     61  C   UNL A   1      38.343  30.916  31.392  1.00  0.00     0.074 A 
ATOM     62  C   UNL A   1      42.802  29.472  35.648  1.00  0.00     0.029 A 
ATOM     63  N   UNL A   1      41.523  29.581  33.833  1.00  0.00    -0.354 N 
ATOM     64  N   UNL A   1      39.308  30.570  32.210  1.00  0.00    -0.248 NA
ATOM     65  C   UNL A   1      37.329  31.788  32.005  1.00  0.00     0.031 C 
ATOM     66  C   UNL A   1      41.708  30.295  35.930  1.00  0.00     0.029 A 
ATOM     67  C   UNL A   1      40.929  30.391  34.788  1.00  0.00     0.049 A 
ATOM     68  H   UNL A   1      41.186  29.443  32.918  1.00  0.00     0.167 HD
ATOM     69  C   UNL A   1      39.036  31.206  33.417  1.00  0.00     0.074 A 
ATOM     70  C   UNL A   1      37.825  31.972  33.221  1.00  0.00     0.031 C 
ATOM     71  C   UNL A   1      39.728  31.160  34.582  1.00  0.00     0.037 A 
BRANCH  58  72
ATOM     72  C   UNL A   1      44.651  27.443  34.404  1.00  0.00     0.064 A 
ATOM     73  C   UNL A   1      45.915  28.050  34.457  1.00  0.00     0.173 A 
ATOM     74  C   UNL A   1      44.463  26.255  35.127  1.00  0.00     0.173 A 
ATOM     75  F   UNL A   1      46.151  29.181  33.776  1.00  0.00    -0.203 F 
ATOM     76  C   UNL A   1      46.954  27.476  35.188  1.00  0.00     0.198 A 
ATOM     77  C   UNL A   1      45.494  25.704  35.883  1.00  0.00     0.198 A 
ATOM     78  F   UNL A   1      43.272  25.637  35.116  1.00  0.00    -0.203 F 
ATOM     79  F   UNL A   1      48.166  28.049  35.188  1.00  0.00    -0.200 F 
ATOM     80  C   UNL A   1      46.740  26.311  35.907  1.00  0.00     0.200 A 
ATOM     81  F   UNL A   1      45.279  24.586  36.592  1.00  0.00    -0.200 F 
ATOM     82  F   UNL A   1      47.736  25.769  36.622  1.00  0.00    -0.200 F 
ENDBRANCH  58  72
BRANCH  59  83
ATOM     83  C   UNL A   1      36.948  31.048  29.201  1.00  0.00     0.064 A 
ATOM     84  C   UNL A   1      35.872  30.198  28.905  1.00  0.00     0.173 A 
ATOM     85  C   UNL A   1      36.878  32.370  28.737  1.00  0.00     0.173 A 
ATOM     86  F   UNL A   1      35.903  28.916  29.298  1.00  0.00    -0.203 F 
ATOM     87  C   UNL A   1      34.788  30.643  28.150  1.00  0.00     0.198 A 
ATOM     88  C   UNL A   1      35.777  32.824  28.014  1.00  0.00     0.198 A 
ATOM     89  F   UNL A   1      37.882  33.224  28.987  1.00  0.00    -0.203 F 
ATOM     90  F   UNL A   1      33.805  29.792  27.827  1.00  0.00    -0.200 F 
ATOM     91  C   UNL A   1      34.738  31.958  27.711  1.00  0.00     0.200 A 
ATOM     92  F   UNL A   1      35.729  34.097  27.600  1.00  0.00    -0.200 F 
ATOM     93  F   UNL A   1      33.696  32.385  26.984  1.00  0.00    -0.200 F 
ENDBRANCH  59  83
BRANCH  71  94
ATOM     94  C   UNL A   1      39.229  31.999  35.726  1.00  0.00     0.064 A 
ATOM     95  C   UNL A   1      38.375  31.482  36.710  1.00  0.00     0.173 A 
ATOM     96  C   UNL A   1      39.649  33.333  35.861  1.00  0.00     0.173 A 
ATOM     97  F   UNL A   1      37.935  30.218  36.626  1.00  0.00    -0.203 F 
ATOM     98  C   UNL A   1      37.935  32.275  37.769  1.00  0.00     0.198 A 
ATOM     99  C   UNL A   1      39.236  34.112  36.940  1.00  0.00     0.198 A 
ATOM    100  F   UNL A   1      40.474  33.878  34.954  1.00  0.00    -0.203 F 
ATOM    101  F   UNL A   1      37.076  31.774  38.667  1.00  0.00    -0.200 F 
ATOM    102  C   UNL A   1      38.373  33.585  37.887  1.00  0.00     0.200 A 
ATOM    103  F   UNL A   1      39.676  35.372  37.061  1.00  0.00    -0.200 F 
ATOM    104  F   UNL A   1      37.956  34.344  38.910  1.00  0.00    -0.200 F 
ENDBRANCH  71  94
ENDBRANCH  45  46
ENDBRANCH  38  40
ENDBRANCH  37  38
ENDBRANCH  36  37
ENDBRANCH  35  36
ENDBRANCH  34  35
ENDBRANCH  33  34
ENDBRANCH   1  33
TORSDOF 21
ENDMDL
MODEL 2
REMARK VINA RESULT:     -11.0      2.984      8.535
REMARK SMILES CC[NH+]1CCC2(CC1)OC[C@@H](C(=O)OCCOCCOCCOC(=O)c1ccc(-c3c4nc(c(-c5c(F)c(F)c(F)c(F)c5F)c5ccc([nH]5)c(-c5c(F)c(F)c(F)c(F)c5F)c5nc(c(-c6c(F)c(F)c(F)c(F)c6F)c6ccc3[nH]6)C=C5)C=C4)cc1)N2C(=O)c1ccc(Cl)c([N+](=O)[O-])c1
REMARK SMILES IDX 18 1 17 2 16 3 15 4 14 5 12 6 13 7 11 8 3 9 4 10 8 11 5 13
REMARK SMILES IDX 7 14 6 15 9 16 89 17 10 18 2 19 1 20 90 21 91 22 92 23 93 24
REMARK SMILES IDX 101 25 94 26 97 27 95 28 96 29 98 30 99 31 100 32 19 33
REMARK SMILES IDX 20 34 21 35 22 36 23 37 24 38 25 39 26 40 27 41 88 42 28 43
REMARK SMILES IDX 87 44 29 45 30 46 31 47 81 48 32 49 86 50 80 51 82 52 33 53
REMARK SMILES IDX 85 54 79 55 78 56 34 58 66 59 46 60 65 61 47 62 50 63 64 64
REMARK SMILES IDX 83 65 48 66 49 67 63 69 84 70 51 71 35 72 36 73 44 74 37 75
REMARK SMILES IDX 38 76 42 77 45 78 39 79 40 80 43 81 41 82 67 83 68 84 76 85
REMARK SMILES IDX 69 86 70 87 74 88 77 89 71 90 72 91 75 92 73 93 52 94 53 95
REMARK SMILES IDX 61 96 54 97 55 98 59 99 62 100 56 101 57 102 60 103 58 104
REMARK H PARENT 3 12 82 57 50 68
REMARK Flexibility Score: inf
ROOT
ATOM      1  C   UNL A   1      30.495  28.705  23.460  1.00  0.00     0.188 C 
ENDROOT
BRANCH   1   2
ATOM      2  O   UNL A   1      30.596  27.593  22.585  1.00  0.00    -0.376 OA
BRANCH   2   3
ATOM      3  C   UNL A   1      31.228  26.399  23.024  1.00  0.00     0.202 C 
BRANCH   3   4
ATOM      4  C   UNL A   1      30.364  25.123  23.089  1.00  0.00     0.261 C 
BRANCH   4   5
ATOM      5  O   UNL A   1      30.779  24.052  23.986  1.00  0.00    -0.462 OA
BRANCH   5   6
ATOM      6  C   UNL A   1      31.684  23.193  23.455  1.00  0.00     0.331 C 
ATOM      7  O   UNL A   1      31.406  22.433  22.522  1.00  0.00    -0.250 OA
BRANCH   6   8
ATOM      8  C   UNL A   1      33.123  23.150  24.045  1.00  0.00     0.224 C 
ATOM      9  N   UNL A   1      37.689  22.240  26.143  1.00  0.00    -0.335 N 
ATOM     10  C   UNL A   1      36.658  23.233  26.412  1.00  0.00     0.267 C 
ATOM     11  C   UNL A   1      37.447  21.302  25.040  1.00  0.00     0.267 C 
ATOM     12  H   UNL A   1      37.578  21.700  27.002  1.00  0.00     0.348 HD
ATOM     13  C   UNL A   1      35.973  23.809  25.203  1.00  0.00     0.120 C 
ATOM     14  C   UNL A   1      36.614  21.792  23.868  1.00  0.00     0.120 C 
ATOM     15  C   UNL A   1      35.471  22.729  24.223  1.00  0.00     0.155 C 
ATOM     16  O   UNL A   1      35.255  23.473  23.002  1.00  0.00    -0.352 OA
ATOM     17  N   UNL A   1      34.130  22.165  24.529  1.00  0.00    -0.293 N 
ATOM     18  C   UNL A   1      33.883  23.815  22.895  1.00  0.00     0.200 C 
BRANCH   9  19
ATOM     19  C   UNL A   1      39.078  22.711  26.122  1.00  0.00     0.258 C 
ATOM     20  C   UNL A   1      39.441  23.826  27.093  1.00  0.00     0.071 C 
ENDBRANCH   9  19
BRANCH  17  21
ATOM     21  C   UNL A   1      33.778  21.318  25.586  1.00  0.00     0.257 C 
ATOM     22  O   UNL A   1      33.779  21.714  26.745  1.00  0.00    -0.269 OA
BRANCH  21  23
ATOM     23  C   UNL A   1      33.428  19.883  25.485  1.00  0.00     0.047 A 
ATOM     24  C   UNL A   1      32.906  19.162  26.560  1.00  0.00     0.016 A 
ATOM     25  C   UNL A   1      33.808  19.177  24.336  1.00  0.00     0.101 A 
ATOM     26  C   UNL A   1      32.616  17.790  26.407  1.00  0.00     0.028 A 
ATOM     27  C   UNL A   1      33.371  17.856  24.122  1.00  0.00     0.288 A 
ATOM     28  C   UNL A   1      32.792  17.142  25.171  1.00  0.00     0.118 A 
ATOM     29  Cl  UNL A   1      32.320  15.482  25.091  1.00  0.00    -0.077 Cl
BRANCH  27  30
ATOM     30  N   UNL A   1      33.429  17.347  22.749  1.00  0.00     0.064 N 
ATOM     31  O   UNL A   1      32.560  17.706  21.945  1.00  0.00    -0.258 OA
ATOM     32  O   UNL A   1      34.405  16.641  22.448  1.00  0.00    -0.258 OA
ENDBRANCH  27  30
ENDBRANCH  21  23
ENDBRANCH  17  21
ENDBRANCH   6   8
ENDBRANCH   5   6
ENDBRANCH   4   5
ENDBRANCH   3   4
ENDBRANCH   2   3
ENDBRANCH   1   2
BRANCH   1  33
ATOM     33  C   UNL A   1      31.571  28.949  24.510  1.00  0.00     0.188 C 
BRANCH  33  34
ATOM     34  O   UNL A   1      31.376  28.254  25.728  1.00  0.00    -0.376 OA
BRANCH  34  35
ATOM     35  C   UNL A   1      31.741  28.974  26.905  1.00  0.00     0.202 C 
BRANCH  35  36
ATOM     36  C   UNL A   1      31.898  30.447  26.537  1.00  0.00     0.261 C 
BRANCH  36  37
ATOM     37  O   UNL A   1      33.278  30.831  26.386  1.00  0.00    -0.460 OA
BRANCH  37  38
ATOM     38  C   UNL A   1      33.756  31.729  27.278  1.00  0.00     0.338 C 
ATOM     39  O   UNL A   1      33.185  32.728  27.693  1.00  0.00    -0.246 OA
BRANCH  38  40
ATOM     40  C   UNL A   1      35.033  31.205  27.826  1.00  0.00     0.060 A 
ATOM     41  C   UNL A   1      35.210  29.817  27.923  1.00  0.00     0.016 A 
ATOM     42  C   UNL A   1      36.070  32.065  28.198  1.00  0.00     0.016 A 
ATOM     43  C   UNL A   1      36.392  29.291  28.453  1.00  0.00     0.010 A 
ATOM     44  C   UNL A   1      37.251  31.539  28.730  1.00  0.00     0.010 A 
ATOM     45  C   UNL A   1      37.404  30.151  28.902  1.00  0.00    -0.014 A 
BRANCH  45  46
ATOM     46  C   UNL A   1      38.539  29.636  29.714  1.00  0.00     0.031 A 
ATOM     47  C   UNL A   1      38.724  30.175  31.108  1.00  0.00     0.074 A 
ATOM     48  C   UNL A   1      39.403  28.725  29.231  1.00  0.00     0.049 A 
ATOM     49  N   UNL A   1      39.688  29.958  31.968  1.00  0.00    -0.248 NA
ATOM     50  C   UNL A   1      37.682  31.094  31.595  1.00  0.00     0.031 C 
ATOM     51  C   UNL A   1      39.330  28.101  27.913  1.00  0.00     0.029 A 
ATOM     52  N   UNL A   1      40.534  28.182  29.797  1.00  0.00    -0.354 N 
ATOM     53  C   UNL A   1      39.378  30.727  33.083  1.00  0.00     0.074 A 
ATOM     54  C   UNL A   1      38.153  31.435  32.784  1.00  0.00     0.031 C 
ATOM     55  C   UNL A   1      40.381  27.277  27.761  1.00  0.00     0.029 A 
ATOM     56  C   UNL A   1      41.222  27.342  28.957  1.00  0.00     0.049 A 
ATOM     57  H   UNL A   1      40.822  28.379  30.718  1.00  0.00     0.167 HD
ATOM     58  C   UNL A   1      40.050  30.827  34.255  1.00  0.00     0.037 A 
ATOM     59  C   UNL A   1      42.411  26.723  29.122  1.00  0.00     0.037 A 
ATOM     60  C   UNL A   1      41.262  30.113  34.560  1.00  0.00     0.049 A 
ATOM     61  C   UNL A   1      43.170  26.897  30.416  1.00  0.00     0.074 A 
ATOM     62  C   UNL A   1      41.991  30.120  35.737  1.00  0.00     0.029 A 
ATOM     63  N   UNL A   1      41.932  29.278  33.680  1.00  0.00    -0.354 N 
ATOM     64  N   UNL A   1      42.849  27.590  31.482  1.00  0.00    -0.248 NA
ATOM     65  C   UNL A   1      44.457  26.195  30.531  1.00  0.00     0.031 C 
ATOM     66  C   UNL A   1      43.137  29.342  35.546  1.00  0.00     0.029 A 
ATOM     67  C   UNL A   1      43.084  28.790  34.276  1.00  0.00     0.049 A 
ATOM     68  H   UNL A   1      41.633  29.063  32.766  1.00  0.00     0.167 HD
ATOM     69  C   UNL A   1      43.872  27.381  32.400  1.00  0.00     0.074 A 
ATOM     70  C   UNL A   1      44.818  26.484  31.773  1.00  0.00     0.031 C 
ATOM     71  C   UNL A   1      44.015  27.886  33.650  1.00  0.00     0.037 A 
BRANCH  58  72
ATOM     72  C   UNL A   1      39.507  31.767  35.293  1.00  0.00     0.064 A 
ATOM     73  C   UNL A   1      38.600  31.344  36.276  1.00  0.00     0.173 A 
ATOM     74  C   UNL A   1      39.948  33.099  35.337  1.00  0.00     0.173 A 
ATOM     75  F   UNL A   1      38.138  30.084  36.273  1.00  0.00    -0.203 F 
ATOM     76  C   UNL A   1      38.136  32.227  37.250  1.00  0.00     0.198 A 
ATOM     77  C   UNL A   1      39.508  33.967  36.332  1.00  0.00     0.198 A 
ATOM     78  F   UNL A   1      40.820  33.553  34.425  1.00  0.00    -0.203 F 
ATOM     79  F   UNL A   1      37.235  31.812  38.152  1.00  0.00    -0.200 F 
ATOM     80  C   UNL A   1      38.598  33.533  37.283  1.00  0.00     0.200 A 
ATOM     81  F   UNL A   1      39.970  35.226  36.372  1.00  0.00    -0.200 F 
ATOM     82  F   UNL A   1      38.163  34.376  38.230  1.00  0.00    -0.200 F 
ENDBRANCH  58  72
BRANCH  59  83
ATOM     83  C   UNL A   1      42.981  25.895  28.024  1.00  0.00     0.064 A 
ATOM     84  C   UNL A   1      42.821  24.502  28.005  1.00  0.00     0.173 A 
ATOM     85  C   UNL A   1      43.738  26.475  26.994  1.00  0.00     0.173 A 
ATOM     86  F   UNL A   1      42.133  23.894  28.983  1.00  0.00    -0.203 F 
ATOM     87  C   UNL A   1      43.417  23.720  27.017  1.00  0.00     0.198 A 
ATOM     88  C   UNL A   1      44.304  25.696  25.987  1.00  0.00     0.198 A 
ATOM     89  F   UNL A   1      43.929  27.802  26.967  1.00  0.00    -0.203 F 
ATOM     90  F   UNL A   1      43.301  22.386  27.061  1.00  0.00    -0.200 F 
ATOM     91  C   UNL A   1      44.153  24.318  26.005  1.00  0.00     0.200 A 
ATOM     92  F   UNL A   1      45.005  26.280  25.006  1.00  0.00    -0.200 F 
ATOM     93  F   UNL A   1      44.727  23.566  25.057  1.00  0.00    -0.200 F 
ENDBRANCH  59  83
BRANCH  71  94
ATOM     94  C   UNL A   1      45.209  27.445  34.451  1.00  0.00     0.064 A 
ATOM     95  C   UNL A   1      46.390  28.199  34.504  1.00  0.00     0.173 A 
ATOM     96  C   UNL A   1      45.153  26.267  35.214  1.00  0.00     0.173 A 
ATOM     97  F   UNL A   1      46.503  29.328  33.787  1.00  0.00    -0.203 F 
ATOM     98  C   UNL A   1      47.479  27.776  35.263  1.00  0.00     0.198 A 
ATOM     99  C   UNL A   1      46.230  25.866  36.001  1.00  0.00     0.198 A 
ATOM    100  F   UNL A   1      44.044  25.511  35.210  1.00  0.00    -0.203 F 
ATOM    101  F   UNL A   1      48.616  28.486  35.253  1.00  0.00    -0.200 F 
ATOM    102  C   UNL A   1      47.395  26.616  36.017  1.00  0.00     0.200 A 
ATOM    103  F   UNL A   1      46.138  24.754  36.743  1.00  0.00    -0.200 F 
ATOM    104  F   UNL A   1      48.441  26.215  36.754  1.00  0.00    -0.200 F 
ENDBRANCH  71  94
ENDBRANCH  45  46
ENDBRANCH  38  40
ENDBRANCH  37  38
ENDBRANCH  36  37
ENDBRANCH  35  36
ENDBRANCH  34  35
ENDBRANCH  33  34
ENDBRANCH   1  33
TORSDOF 21
ENDMDL
MODEL 3
REMARK VINA RESULT:     -10.6      2.857      8.549
REMARK SMILES CC[NH+]1CCC2(CC1)OC[C@@H](C(=O)OCCOCCOCCOC(=O)c1ccc(-c3c4nc(c(-c5c(F)c(F)c(F)c(F)c5F)c5ccc([nH]5)c(-c5c(F)c(F)c(F)c(F)c5F)c5nc(c(-c6c(F)c(F)c(F)c(F)c6F)c6ccc3[nH]6)C=C5)C=C4)cc1)N2C(=O)c1ccc(Cl)c([N+](=O)[O-])c1
REMARK SMILES IDX 18 1 17 2 16 3 15 4 14 5 12 6 13 7 11 8 3 9 4 10 8 11 5 13
REMARK SMILES IDX 7 14 6 15 9 16 89 17 10 18 2 19 1 20 90 21 91 22 92 23 93 24
REMARK SMILES IDX 101 25 94 26 97 27 95 28 96 29 98 30 99 31 100 32 19 33
REMARK SMILES IDX 20 34 21 35 22 36 23 37 24 38 25 39 26 40 27 41 88 42 28 43
REMARK SMILES IDX 87 44 29 45 30 46 31 47 81 48 32 49 86 50 80 51 82 52 33 53
REMARK SMILES IDX 85 54 79 55 78 56 34 58 66 59 46 60 65 61 47 62 50 63 64 64
REMARK SMILES IDX 83 65 48 66 49 67 63 69 84 70 51 71 35 72 36 73 44 74 37 75
REMARK SMILES IDX 38 76 42 77 45 78 39 79 40 80 43 81 41 82 67 83 68 84 76 85
REMARK SMILES IDX 69 86 70 87 74 88 77 89 71 90 72 91 75 92 73 93 52 94 53 95
REMARK SMILES IDX 61 96 54 97 55 98 59 99 62 100 56 101 57 102 60 103 58 104
REMARK H PARENT 3 12 82 57 50 68
REMARK Flexibility Score: inf
ROOT
ATOM      1  C   UNL A   1      34.347  29.309  26.490  1.00  0.00     0.188 C 
ENDROOT
BRANCH   1   2
ATOM      2  O   UNL A   1      33.279  28.422  26.780  1.00  0.00    -0.376 OA
BRANCH   2   3
ATOM      3  C   UNL A   1      33.307  27.091  26.286  1.00  0.00     0.202 C 
BRANCH   3   4
ATOM      4  C   UNL A   1      31.959  26.453  25.893  1.00  0.00     0.261 C 
BRANCH   4   5
ATOM      5  O   UNL A   1      31.485  26.624  24.526  1.00  0.00    -0.462 OA
BRANCH   5   6
ATOM      6  C   UNL A   1      32.192  25.936  23.596  1.00  0.00     0.331 C 
ATOM      7  O   UNL A   1      32.805  26.498  22.683  1.00  0.00    -0.250 OA
BRANCH   6   8
ATOM      8  C   UNL A   1      32.226  24.382  23.667  1.00  0.00     0.224 C 
ATOM      9  N   UNL A   1      33.108  19.371  24.102  1.00  0.00    -0.335 N 
ATOM     10  C   UNL A   1      32.571  20.190  23.023  1.00  0.00     0.267 C 
ATOM     11  C   UNL A   1      33.455  20.052  25.354  1.00  0.00     0.267 C 
ATOM     12  H   UNL A   1      33.993  19.131  23.655  1.00  0.00     0.348 HD
ATOM     13  C   UNL A   1      31.644  21.299  23.443  1.00  0.00     0.120 C 
ATOM     14  C   UNL A   1      32.648  21.282  25.735  1.00  0.00     0.120 C 
ATOM     15  C   UNL A   1      32.222  22.170  24.576  1.00  0.00     0.155 C 
ATOM     16  O   UNL A   1      31.054  22.852  25.090  1.00  0.00    -0.352 OA
ATOM     17  N   UNL A   1      33.109  23.280  24.139  1.00  0.00    -0.293 N 
ATOM     18  C   UNL A   1      30.972  24.145  24.512  1.00  0.00     0.200 C 
BRANCH   9  19
ATOM     19  C   UNL A   1      32.424  18.104  24.378  1.00  0.00     0.258 C 
ATOM     20  C   UNL A   1      32.810  17.379  25.660  1.00  0.00     0.071 C 
ENDBRANCH   9  19
BRANCH  17  21
ATOM     21  C   UNL A   1      34.399  23.184  23.604  1.00  0.00     0.257 C 
ATOM     22  O   UNL A   1      34.599  23.304  22.402  1.00  0.00    -0.269 OA
BRANCH  21  23
ATOM     23  C   UNL A   1      35.641  22.883  24.351  1.00  0.00     0.047 A 
ATOM     24  C   UNL A   1      36.300  23.840  25.125  1.00  0.00     0.016 A 
ATOM     25  C   UNL A   1      36.283  21.658  24.125  1.00  0.00     0.101 A 
ATOM     26  C   UNL A   1      37.494  23.498  25.792  1.00  0.00     0.028 A 
ATOM     27  C   UNL A   1      37.378  21.260  24.915  1.00  0.00     0.288 A 
ATOM     28  C   UNL A   1      38.010  22.191  25.739  1.00  0.00     0.118 A 
ATOM     29  Cl  UNL A   1      39.431  21.879  26.669  1.00  0.00    -0.077 Cl
BRANCH  27  30
ATOM     30  N   UNL A   1      37.710  19.833  24.925  1.00  0.00     0.064 N 
ATOM     31  O   UNL A   1      36.789  19.007  24.868  1.00  0.00    -0.258 OA
ATOM     32  O   UNL A   1      38.914  19.532  24.908  1.00  0.00    -0.258 OA
ENDBRANCH  27  30
ENDBRANCH  21  23
ENDBRANCH  17  21
ENDBRANCH   6   8
ENDBRANCH   5   6
ENDBRANCH   4   5
ENDBRANCH   3   4
ENDBRANCH   2   3
ENDBRANCH   1   2
BRANCH   1  33
ATOM     33  C   UNL A   1      34.518  30.587  27.302  1.00  0.00     0.188 C 
BRANCH  33  34
ATOM     34  O   UNL A   1      33.318  31.110  27.842  1.00  0.00    -0.376 OA
BRANCH  34  35
ATOM     35  C   UNL A   1      32.386  31.606  26.884  1.00  0.00     0.202 C 
BRANCH  35  36
ATOM     36  C   UNL A   1      31.995  33.027  27.284  1.00  0.00     0.261 C 
BRANCH  36  37
ATOM     37  O   UNL A   1      33.130  33.909  27.358  1.00  0.00    -0.460 OA
BRANCH  37  38
ATOM     38  C   UNL A   1      33.263  34.631  28.494  1.00  0.00     0.338 C 
ATOM     39  O   UNL A   1      32.510  35.506  28.900  1.00  0.00    -0.246 OA
BRANCH  38  40
ATOM     40  C   UNL A   1      34.386  34.060  29.280  1.00  0.00     0.060 A 
ATOM     41  C   UNL A   1      35.701  34.379  28.911  1.00  0.00     0.016 A 
ATOM     42  C   UNL A   1      34.153  33.257  30.400  1.00  0.00     0.016 A 
ATOM     43  C   UNL A   1      36.782  33.842  29.618  1.00  0.00     0.010 A 
ATOM     44  C   UNL A   1      35.235  32.719  31.104  1.00  0.00     0.010 A 
ATOM     45  C   UNL A   1      36.555  32.971  30.692  1.00  0.00    -0.014 A 
BRANCH  45  46
ATOM     46  C   UNL A   1      37.669  32.177  31.279  1.00  0.00     0.031 A 
ATOM     47  C   UNL A   1      38.137  32.521  32.669  1.00  0.00     0.074 A 
ATOM     48  C   UNL A   1      38.270  31.185  30.599  1.00  0.00     0.049 A 
ATOM     49  N   UNL A   1      39.147  32.044  33.353  1.00  0.00    -0.248 NA
ATOM     50  C   UNL A   1      37.364  33.552  33.381  1.00  0.00     0.031 C 
ATOM     51  C   UNL A   1      37.905  30.730  29.261  1.00  0.00     0.029 A 
ATOM     52  N   UNL A   1      39.341  30.392  30.942  1.00  0.00    -0.354 N 
ATOM     53  C   UNL A   1      39.141  32.730  34.561  1.00  0.00     0.074 A 
ATOM     54  C   UNL A   1      38.046  33.674  34.508  1.00  0.00     0.031 C 
ATOM     55  C   UNL A   1      38.749  29.753  28.886  1.00  0.00     0.029 A 
ATOM     56  C   UNL A   1      39.738  29.538  29.943  1.00  0.00     0.049 A 
ATOM     57  H   UNL A   1      39.781  30.433  31.822  1.00  0.00     0.167 HD
ATOM     58  C   UNL A   1      39.970  32.582  35.623  1.00  0.00     0.037 A 
ATOM     59  C   UNL A   1      40.797  28.704  29.875  1.00  0.00     0.037 A 
ATOM     60  C   UNL A   1      41.052  31.636  35.683  1.00  0.00     0.049 A 
ATOM     61  C   UNL A   1      41.740  28.599  31.050  1.00  0.00     0.074 A 
ATOM     62  C   UNL A   1      41.918  31.385  36.733  1.00  0.00     0.029 A 
ATOM     63  N   UNL A   1      41.427  30.794  34.647  1.00  0.00    -0.354 N 
ATOM     64  N   UNL A   1      41.702  29.219  32.205  1.00  0.00    -0.248 NA
ATOM     65  C   UNL A   1      42.873  27.671  30.912  1.00  0.00     0.031 C 
ATOM     66  C   UNL A   1      42.858  30.441  36.309  1.00  0.00     0.029 A 
ATOM     67  C   UNL A   1      42.532  30.048  35.021  1.00  0.00     0.049 A 
ATOM     68  H   UNL A   1      40.973  30.736  33.774  1.00  0.00     0.167 HD
ATOM     69  C   UNL A   1      42.780  28.733  32.939  1.00  0.00     0.074 A 
ATOM     70  C   UNL A   1      43.444  27.755  32.105  1.00  0.00     0.031 C 
ATOM     71  C   UNL A   1      43.181  29.066  34.190  1.00  0.00     0.037 A 
BRANCH  58  72
ATOM     72  C   UNL A   1      39.760  33.486  36.804  1.00  0.00     0.064 A 
ATOM     73  C   UNL A   1      40.395  34.733  36.908  1.00  0.00     0.173 A 
ATOM     74  C   UNL A   1      38.863  33.120  37.821  1.00  0.00     0.173 A 
ATOM     75  F   UNL A   1      41.270  35.126  35.969  1.00  0.00    -0.203 F 
ATOM     76  C   UNL A   1      40.158  35.568  37.998  1.00  0.00     0.198 A 
ATOM     77  C   UNL A   1      38.604  33.973  38.889  1.00  0.00     0.198 A 
ATOM     78  F   UNL A   1      38.224  31.943  37.767  1.00  0.00    -0.203 F 
ATOM     79  F   UNL A   1      40.811  36.735  38.098  1.00  0.00    -0.200 F 
ATOM     80  C   UNL A   1      39.256  35.193  38.981  1.00  0.00     0.200 A 
ATOM     81  F   UNL A   1      37.717  33.615  39.830  1.00  0.00    -0.200 F 
ATOM     82  F   UNL A   1      39.017  36.005  40.020  1.00  0.00    -0.200 F 
ENDBRANCH  58  72
BRANCH  59  83
ATOM     83  C   UNL A   1      41.047  27.911  28.640  1.00  0.00     0.064 A 
ATOM     84  C   UNL A   1      41.821  28.427  27.590  1.00  0.00     0.173 A 
ATOM     85  C   UNL A   1      40.481  26.640  28.465  1.00  0.00     0.173 A 
ATOM     86  F   UNL A   1      42.359  29.651  27.692  1.00  0.00    -0.203 F 
ATOM     87  C   UNL A   1      41.994  27.714  26.404  1.00  0.00     0.198 A 
ATOM     88  C   UNL A   1      40.684  25.913  27.294  1.00  0.00     0.198 A 
ATOM     89  F   UNL A   1      39.727  26.101  29.435  1.00  0.00    -0.203 F 
ATOM     90  F   UNL A   1      42.684  28.259  25.393  1.00  0.00    -0.200 F 
ATOM     91  C   UNL A   1      41.431  26.455  26.259  1.00  0.00     0.200 A 
ATOM     92  F   UNL A   1      40.146  24.693  27.163  1.00  0.00    -0.200 F 
ATOM     93  F   UNL A   1      41.596  25.772  25.119  1.00  0.00    -0.200 F 
ENDBRANCH  59  83
BRANCH  71  94
ATOM     94  C   UNL A   1      44.365  28.335  34.763  1.00  0.00     0.064 A 
ATOM     95  C   UNL A   1      44.228  27.117  35.443  1.00  0.00     0.173 A 
ATOM     96  C   UNL A   1      45.663  28.843  34.587  1.00  0.00     0.173 A 
ATOM     97  F   UNL A   1      43.012  26.590  35.649  1.00  0.00    -0.203 F 
ATOM     98  C   UNL A   1      45.341  26.451  35.954  1.00  0.00     0.198 A 
ATOM     99  C   UNL A   1      46.775  28.156  35.067  1.00  0.00     0.198 A 
ATOM    100  F   UNL A   1      45.854  29.999  33.934  1.00  0.00    -0.203 F 
ATOM    101  F   UNL A   1      45.179  25.316  36.649  1.00  0.00    -0.200 F 
ATOM    102  C   UNL A   1      46.613  26.966  35.758  1.00  0.00     0.200 A 
ATOM    103  F   UNL A   1      48.005  28.648  34.859  1.00  0.00    -0.200 F 
ATOM    104  F   UNL A   1      47.682  26.320  36.243  1.00  0.00    -0.200 F 
ENDBRANCH  71  94
ENDBRANCH  45  46
ENDBRANCH  38  40
ENDBRANCH  37  38
ENDBRANCH  36  37
ENDBRANCH  35  36
ENDBRANCH  34  35
ENDBRANCH  33  34
ENDBRANCH   1  33
TORSDOF 21
ENDMDL
