MODEL 1
REMARK VINA RESULT:      -9.7      0.000      0.000
REMARK SMILES COc1cc(/C=C2/SC(=S)N(c3ccc(C)cc3C)C2=O)ccc1O[C@@H](C)C(=O)OCCOCCOCCOC(=O)c1ccc(-c2c3nc(c(-c4c(F)c(F)c(F)c(F)c4F)c4ccc([nH]4)c(-c4c(F)c(F)c(F)c(F)c4F)c4nc(c(-c5c(F)c(F)c(F)c(F)c5F)c5ccc2[nH]5)C=C4)C=C3)cc1
REMARK SMILES IDX 34 1 33 2 32 3 31 4 30 5 28 6 29 7 26 8 27 9 25 10 24 11
REMARK SMILES IDX 3 12 4 13 5 14 23 15 22 16 2 17 1 18 6 19 7 20 8 21 20 22
REMARK SMILES IDX 9 23 11 24 21 25 10 26 12 27 13 28 18 29 14 30 17 31 19 32
REMARK SMILES IDX 15 33 16 34 35 35 36 36 37 37 38 38 39 39 40 40 41 41 42 42
REMARK SMILES IDX 43 43 104 44 44 45 103 46 45 47 46 48 47 49 97 50 48 51
REMARK SMILES IDX 102 52 96 53 98 54 49 55 101 56 95 57 94 58 50 60 82 61
REMARK SMILES IDX 62 62 81 63 63 64 66 65 80 66 99 67 64 68 65 69 79 71 100 72
REMARK SMILES IDX 67 73 51 74 52 75 60 76 53 77 54 78 58 79 61 80 55 81 56 82
REMARK SMILES IDX 59 83 57 84 83 85 84 86 92 87 85 88 86 89 90 90 93 91 87 92
REMARK SMILES IDX 88 93 91 94 89 95 68 96 69 97 77 98 70 99 71 100 75 101
REMARK SMILES IDX 78 102 72 103 73 104 76 105 74 106
REMARK H PARENT 98 59 66 70
REMARK Flexibility Score: inf
ROOT
ATOM      1  C   UNL A   1      33.953  30.190  27.229  1.00  0.00     0.188 C 
ENDROOT
BRANCH   1   2
ATOM      2  O   UNL A   1      33.033  29.185  26.837  1.00  0.00    -0.376 OA
BRANCH   2   3
ATOM      3  C   UNL A   1      32.425  29.257  25.552  1.00  0.00     0.202 C 
BRANCH   3   4
ATOM      4  C   UNL A   1      32.992  28.461  24.374  1.00  0.00     0.261 C 
BRANCH   4   5
ATOM      5  O   UNL A   1      32.437  27.146  24.288  1.00  0.00    -0.461 OA
BRANCH   5   6
ATOM      6  C   UNL A   1      33.253  26.096  24.556  1.00  0.00     0.347 C 
ATOM      7  O   UNL A   1      33.918  25.984  25.581  1.00  0.00    -0.248 OA
BRANCH   6   8
ATOM      8  C   UNL A   1      33.126  24.981  23.479  1.00  0.00     0.279 C 
ATOM      9  C   UNL A   1      31.929  25.200  22.553  1.00  0.00     0.066 C 
BRANCH   8  10
ATOM     10  O   UNL A   1      33.260  23.584  23.608  1.00  0.00    -0.475 OA
BRANCH  10  11
ATOM     11  C   UNL A   1      34.287  22.881  24.143  1.00  0.00     0.162 A 
ATOM     12  C   UNL A   1      34.403  22.181  25.342  1.00  0.00     0.161 A 
ATOM     13  C   UNL A   1      35.660  21.685  25.741  1.00  0.00     0.058 A 
ATOM     14  C   UNL A   1      36.804  21.852  24.946  1.00  0.00    -0.020 A 
ATOM     15  C   UNL A   1      35.421  22.954  23.310  1.00  0.00     0.051 A 
ATOM     16  C   UNL A   1      36.661  22.438  23.693  1.00  0.00     0.012 A 
BRANCH  12  17
ATOM     17  O   UNL A   1      33.429  22.090  26.295  1.00  0.00    -0.493 OA
ATOM     18  C   UNL A   1      33.879  22.312  27.624  1.00  0.00     0.278 C 
ENDBRANCH  12  17
BRANCH  14  19
ATOM     19  C   UNL A   1      38.114  21.439  25.469  1.00  0.00     0.029 C 
ATOM     20  C   UNL A   1      38.997  22.213  26.127  1.00  0.00     0.081 C 
ATOM     21  S   UNL A   1      40.440  21.556  26.824  1.00  0.00    -0.054 SA
ATOM     22  C   UNL A   1      38.923  23.676  26.434  1.00  0.00     0.270 C 
ATOM     23  C   UNL A   1      40.868  23.061  27.635  1.00  0.00     0.152 C 
ATOM     24  N   UNL A   1      39.982  24.051  27.257  1.00  0.00    -0.261 N 
ATOM     25  O   UNL A   1      38.070  24.428  25.983  1.00  0.00    -0.268 OA
ATOM     26  S   UNL A   1      42.136  23.148  28.720  1.00  0.00    -0.051 S 
BRANCH  24  27
ATOM     27  C   UNL A   1      40.097  25.413  27.645  1.00  0.00     0.054 A 
ATOM     28  C   UNL A   1      39.359  25.850  28.752  1.00  0.00     0.027 A 
ATOM     29  C   UNL A   1      40.833  26.344  26.889  1.00  0.00    -0.027 A 
ATOM     30  C   UNL A   1      39.320  27.202  29.096  1.00  0.00     0.005 A 
ATOM     31  C   UNL A   1      40.775  27.705  27.247  1.00  0.00     0.009 A 
ATOM     32  C   UNL A   1      41.671  25.975  25.698  1.00  0.00     0.046 C 
ATOM     33  C   UNL A   1      40.005  28.145  28.331  1.00  0.00    -0.051 A 
ATOM     34  C   UNL A   1      39.849  29.607  28.630  1.00  0.00     0.044 C 
ENDBRANCH  24  27
ENDBRANCH  14  19
ENDBRANCH  10  11
ENDBRANCH   8  10
ENDBRANCH   6   8
ENDBRANCH   5   6
ENDBRANCH   4   5
ENDBRANCH   3   4
ENDBRANCH   2   3
ENDBRANCH   1   2
BRANCH   1  35
ATOM     35  C   UNL A   1      35.318  29.796  27.835  1.00  0.00     0.188 C 
BRANCH  35  36
ATOM     36  O   UNL A   1      36.376  30.720  27.812  1.00  0.00    -0.376 OA
BRANCH  36  37
ATOM     37  C   UNL A   1      36.346  31.817  28.706  1.00  0.00     0.202 C 
BRANCH  37  38
ATOM     38  C   UNL A   1      36.608  31.669  30.213  1.00  0.00     0.261 C 
BRANCH  38  39
ATOM     39  O   UNL A   1      37.677  30.791  30.588  1.00  0.00    -0.460 OA
BRANCH  39  40
ATOM     40  C   UNL A   1      37.509  30.175  31.784  1.00  0.00     0.338 C 
ATOM     41  O   UNL A   1      36.466  29.965  32.388  1.00  0.00    -0.246 OA
BRANCH  40  42
ATOM     42  C   UNL A   1      38.789  29.590  32.208  1.00  0.00     0.060 A 
ATOM     43  C   UNL A   1      39.922  30.416  32.272  1.00  0.00     0.016 A 
ATOM     44  C   UNL A   1      38.874  28.231  32.500  1.00  0.00     0.016 A 
ATOM     45  C   UNL A   1      41.158  29.876  32.618  1.00  0.00     0.010 A 
ATOM     46  C   UNL A   1      40.118  27.686  32.815  1.00  0.00     0.010 A 
ATOM     47  C   UNL A   1      41.267  28.500  32.846  1.00  0.00    -0.014 A 
BRANCH  47  48
ATOM     48  C   UNL A   1      42.603  27.870  32.923  1.00  0.00     0.031 A 
ATOM     49  C   UNL A   1      43.241  27.722  34.274  1.00  0.00     0.074 A 
ATOM     50  C   UNL A   1      43.239  27.449  31.816  1.00  0.00     0.049 A 
ATOM     51  N   UNL A   1      44.441  27.309  34.588  1.00  0.00    -0.248 NA
ATOM     52  C   UNL A   1      42.412  28.103  35.429  1.00  0.00     0.031 C 
ATOM     53  C   UNL A   1      42.699  27.498  30.461  1.00  0.00     0.029 A 
ATOM     54  N   UNL A   1      44.494  26.914  31.664  1.00  0.00    -0.354 N 
ATOM     55  C   UNL A   1      44.516  27.394  35.972  1.00  0.00     0.074 A 
ATOM     56  C   UNL A   1      43.253  27.924  36.437  1.00  0.00     0.031 C 
ATOM     57  C   UNL A   1      43.628  27.032  29.607  1.00  0.00     0.029 A 
ATOM     58  C   UNL A   1      44.838  26.693  30.354  1.00  0.00     0.049 A 
ATOM     59  H   UNL A   1      45.089  26.709  32.421  1.00  0.00     0.167 HD
ATOM     60  C   UNL A   1      45.547  27.055  36.781  1.00  0.00     0.037 A 
ATOM     61  C   UNL A   1      46.011  26.293  29.824  1.00  0.00     0.037 A 
ATOM     62  C   UNL A   1      46.802  26.533  36.309  1.00  0.00     0.049 A 
ATOM     63  C   UNL A   1      47.171  25.998  30.741  1.00  0.00     0.074 A 
ATOM     64  C   UNL A   1      47.905  26.141  37.047  1.00  0.00     0.029 A 
ATOM     65  N   UNL A   1      47.123  26.340  34.974  1.00  0.00    -0.354 N 
ATOM     66  N   UNL A   1      47.231  26.056  32.050  1.00  0.00    -0.248 NA
ATOM     67  C   UNL A   1      48.428  25.578  30.106  1.00  0.00     0.031 C 
ATOM     68  C   UNL A   1      48.917  25.772  36.156  1.00  0.00     0.029 A 
ATOM     69  C   UNL A   1      48.419  25.863  34.865  1.00  0.00     0.049 A 
ATOM     70  H   UNL A   1      46.520  26.515  34.216  1.00  0.00     0.167 HD
ATOM     71  C   UNL A   1      48.515  25.647  32.395  1.00  0.00     0.074 A 
ATOM     72  C   UNL A   1      49.196  25.332  31.157  1.00  0.00     0.031 C 
ATOM     73  C   UNL A   1      49.079  25.540  33.624  1.00  0.00     0.037 A 
BRANCH  60  74
ATOM     74  C   UNL A   1      45.372  27.272  38.257  1.00  0.00     0.064 A 
ATOM     75  C   UNL A   1      44.847  26.278  39.095  1.00  0.00     0.173 A 
ATOM     76  C   UNL A   1      45.768  28.483  38.845  1.00  0.00     0.173 A 
ATOM     77  F   UNL A   1      44.438  25.107  38.582  1.00  0.00    -0.203 F 
ATOM     78  C   UNL A   1      44.702  26.496  40.463  1.00  0.00     0.198 A 
ATOM     79  C   UNL A   1      45.652  28.687  40.218  1.00  0.00     0.198 A 
ATOM     80  F   UNL A   1      46.278  29.468  38.090  1.00  0.00    -0.203 F 
ATOM     81  F   UNL A   1      44.151  25.550  41.237  1.00  0.00    -0.200 F 
ATOM     82  C   UNL A   1      45.112  27.697  41.023  1.00  0.00     0.200 A 
ATOM     83  F   UNL A   1      46.064  29.842  40.758  1.00  0.00    -0.200 F 
ATOM     84  F   UNL A   1      44.981  27.902  42.342  1.00  0.00    -0.200 F 
ENDBRANCH  60  74
BRANCH  61  85
ATOM     85  C   UNL A   1      46.159  26.165  28.349  1.00  0.00     0.064 A 
ATOM     86  C   UNL A   1      45.988  24.930  27.710  1.00  0.00     0.173 A 
ATOM     87  C   UNL A   1      46.507  27.267  27.553  1.00  0.00     0.173 A 
ATOM     88  F   UNL A   1      45.682  23.840  28.431  1.00  0.00    -0.203 F 
ATOM     89  C   UNL A   1      46.185  24.794  26.337  1.00  0.00     0.198 A 
ATOM     90  C   UNL A   1      46.670  27.138  26.174  1.00  0.00     0.198 A 
ATOM     91  F   UNL A   1      46.687  28.472  28.113  1.00  0.00    -0.203 F 
ATOM     92  F   UNL A   1      46.072  23.589  25.762  1.00  0.00    -0.200 F 
ATOM     93  C   UNL A   1      46.520  25.900  25.569  1.00  0.00     0.200 A 
ATOM     94  F   UNL A   1      46.982  28.211  25.436  1.00  0.00    -0.200 F 
ATOM     95  F   UNL A   1      46.709  25.770  24.250  1.00  0.00    -0.200 F 
ENDBRANCH  61  85
BRANCH  73  96
ATOM     96  C   UNL A   1      50.485  25.013  33.700  1.00  0.00     0.064 A 
ATOM     97  C   UNL A   1      51.600  25.863  33.666  1.00  0.00     0.173 A 
ATOM     98  C   UNL A   1      50.715  23.636  33.853  1.00  0.00     0.173 A 
ATOM     99  F   UNL A   1      51.437  27.185  33.509  1.00  0.00    -0.203 F 
ATOM    100  C   UNL A   1      52.893  25.351  33.751  1.00  0.00     0.198 A 
ATOM    101  C   UNL A   1      52.006  23.132  33.975  1.00  0.00     0.198 A 
ATOM    102  F   UNL A   1      49.684  22.779  33.902  1.00  0.00    -0.203 F 
ATOM    103  F   UNL A   1      53.945  26.176  33.661  1.00  0.00    -0.200 F 
ATOM    104  C   UNL A   1      53.094  23.988  33.914  1.00  0.00     0.200 A 
ATOM    105  F   UNL A   1      52.197  21.818  34.153  1.00  0.00    -0.200 F 
ATOM    106  F   UNL A   1      54.340  23.500  34.006  1.00  0.00    -0.200 F 
ENDBRANCH  73  96
ENDBRANCH  47  48
ENDBRANCH  40  42
ENDBRANCH  39  40
ENDBRANCH  38  39
ENDBRANCH  37  38
ENDBRANCH  36  37
ENDBRANCH  35  36
ENDBRANCH   1  35
TORSDOF 22
ENDMDL
MODEL 2
REMARK VINA RESULT:      -9.3      6.044      9.382
REMARK SMILES COc1cc(/C=C2/SC(=S)N(c3ccc(C)cc3C)C2=O)ccc1O[C@@H](C)C(=O)OCCOCCOCCOC(=O)c1ccc(-c2c3nc(c(-c4c(F)c(F)c(F)c(F)c4F)c4ccc([nH]4)c(-c4c(F)c(F)c(F)c(F)c4F)c4nc(c(-c5c(F)c(F)c(F)c(F)c5F)c5ccc2[nH]5)C=C4)C=C3)cc1
REMARK SMILES IDX 34 1 33 2 32 3 31 4 30 5 28 6 29 7 26 8 27 9 25 10 24 11
REMARK SMILES IDX 3 12 4 13 5 14 23 15 22 16 2 17 1 18 6 19 7 20 8 21 20 22
REMARK SMILES IDX 9 23 11 24 21 25 10 26 12 27 13 28 18 29 14 30 17 31 19 32
REMARK SMILES IDX 15 33 16 34 35 35 36 36 37 37 38 38 39 39 40 40 41 41 42 42
REMARK SMILES IDX 43 43 104 44 44 45 103 46 45 47 46 48 47 49 97 50 48 51
REMARK SMILES IDX 102 52 96 53 98 54 49 55 101 56 95 57 94 58 50 60 82 61
REMARK SMILES IDX 62 62 81 63 63 64 66 65 80 66 99 67 64 68 65 69 79 71 100 72
REMARK SMILES IDX 67 73 51 74 52 75 60 76 53 77 54 78 58 79 61 80 55 81 56 82
REMARK SMILES IDX 59 83 57 84 83 85 84 86 92 87 85 88 86 89 90 90 93 91 87 92
REMARK SMILES IDX 88 93 91 94 89 95 68 96 69 97 77 98 70 99 71 100 75 101
REMARK SMILES IDX 78 102 72 103 73 104 76 105 74 106
REMARK H PARENT 98 59 66 70
REMARK Flexibility Score: inf
ROOT
ATOM      1  C   UNL A   1      35.939  21.076  25.218  1.00  0.00     0.188 C 
ENDROOT
BRANCH   1   2
ATOM      2  O   UNL A   1      34.631  21.498  25.565  1.00  0.00    -0.376 OA
BRANCH   2   3
ATOM      3  C   UNL A   1      33.545  21.191  24.696  1.00  0.00     0.202 C 
BRANCH   3   4
ATOM      4  C   UNL A   1      32.713  22.308  24.062  1.00  0.00     0.261 C 
BRANCH   4   5
ATOM      5  O   UNL A   1      33.456  23.059  23.096  1.00  0.00    -0.461 OA
BRANCH   5   6
ATOM      6  C   UNL A   1      33.516  24.405  23.250  1.00  0.00     0.347 C 
ATOM      7  O   UNL A   1      34.520  25.013  23.606  1.00  0.00    -0.248 OA
BRANCH   6   8
ATOM      8  C   UNL A   1      32.206  25.095  22.776  1.00  0.00     0.279 C 
ATOM      9  C   UNL A   1      32.253  25.479  21.296  1.00  0.00     0.066 C 
BRANCH   8  10
ATOM     10  O   UNL A   1      31.434  26.093  23.405  1.00  0.00    -0.475 OA
BRANCH  10  11
ATOM     11  C   UNL A   1      31.813  26.974  24.363  1.00  0.00     0.162 A 
ATOM     12  C   UNL A   1      31.522  27.040  25.724  1.00  0.00     0.161 A 
ATOM     13  C   UNL A   1      31.902  28.179  26.463  1.00  0.00     0.058 A 
ATOM     14  C   UNL A   1      32.595  29.244  25.869  1.00  0.00    -0.020 A 
ATOM     15  C   UNL A   1      32.594  28.004  23.804  1.00  0.00     0.051 A 
ATOM     16  C   UNL A   1      32.994  29.119  24.543  1.00  0.00     0.012 A 
BRANCH  12  17
ATOM     17  O   UNL A   1      30.711  26.173  26.398  1.00  0.00    -0.493 OA
ATOM     18  C   UNL A   1      31.192  24.838  26.460  1.00  0.00     0.278 C 
ENDBRANCH  12  17
BRANCH  14  19
ATOM     19  C   UNL A   1      32.847  30.465  26.648  1.00  0.00     0.029 C 
ATOM     20  C   UNL A   1      33.953  30.752  27.357  1.00  0.00     0.081 C 
ATOM     21  S   UNL A   1      34.180  32.298  28.104  1.00  0.00    -0.054 SA
ATOM     22  C   UNL A   1      35.164  29.905  27.600  1.00  0.00     0.270 C 
ATOM     23  C   UNL A   1      35.842  31.951  28.578  1.00  0.00     0.152 C 
ATOM     24  N   UNL A   1      36.139  30.638  28.272  1.00  0.00    -0.261 N 
ATOM     25  O   UNL A   1      35.250  28.727  27.283  1.00  0.00    -0.268 OA
ATOM     26  S   UNL A   1      36.835  33.125  29.234  1.00  0.00    -0.051 S 
BRANCH  24  27
ATOM     27  C   UNL A   1      37.361  29.998  28.613  1.00  0.00     0.054 A 
ATOM     28  C   UNL A   1      38.320  29.824  27.607  1.00  0.00     0.027 A 
ATOM     29  C   UNL A   1      37.582  29.441  29.886  1.00  0.00    -0.027 A 
ATOM     30  C   UNL A   1      39.477  29.080  27.843  1.00  0.00     0.005 A 
ATOM     31  C   UNL A   1      38.752  28.688  30.103  1.00  0.00     0.009 A 
ATOM     32  C   UNL A   1      36.627  29.586  31.036  1.00  0.00     0.046 C 
ATOM     33  C   UNL A   1      39.691  28.483  29.085  1.00  0.00    -0.051 A 
ATOM     34  C   UNL A   1      40.870  27.578  29.286  1.00  0.00     0.044 C 
ENDBRANCH  24  27
ENDBRANCH  14  19
ENDBRANCH  10  11
ENDBRANCH   8  10
ENDBRANCH   6   8
ENDBRANCH   5   6
ENDBRANCH   4   5
ENDBRANCH   3   4
ENDBRANCH   2   3
ENDBRANCH   1   2
BRANCH   1  35
ATOM     35  C   UNL A   1      37.141  22.022  25.430  1.00  0.00     0.188 C 
BRANCH  35  36
ATOM     36  O   UNL A   1      38.446  21.503  25.384  1.00  0.00    -0.376 OA
BRANCH  36  37
ATOM     37  C   UNL A   1      39.374  21.895  26.379  1.00  0.00     0.202 C 
BRANCH  37  38
ATOM     38  C   UNL A   1      40.818  22.305  26.054  1.00  0.00     0.261 C 
BRANCH  38  39
ATOM     39  O   UNL A   1      41.403  23.298  26.906  1.00  0.00    -0.460 OA
BRANCH  39  40
ATOM     40  C   UNL A   1      41.150  24.579  26.539  1.00  0.00     0.338 C 
ATOM     41  O   UNL A   1      40.065  25.120  26.377  1.00  0.00    -0.246 OA
BRANCH  40  42
ATOM     42  C   UNL A   1      42.409  25.336  26.537  1.00  0.00     0.060 A 
ATOM     43  C   UNL A   1      43.157  25.409  27.723  1.00  0.00     0.016 A 
ATOM     44  C   UNL A   1      42.825  25.999  25.385  1.00  0.00     0.016 A 
ATOM     45  C   UNL A   1      44.325  26.165  27.764  1.00  0.00     0.010 A 
ATOM     46  C   UNL A   1      43.978  26.782  25.437  1.00  0.00     0.010 A 
ATOM     47  C   UNL A   1      44.715  26.890  26.632  1.00  0.00    -0.014 A 
BRANCH  47  48
ATOM     48  C   UNL A   1      45.773  27.917  26.744  1.00  0.00     0.031 A 
ATOM     49  C   UNL A   1      45.359  29.335  27.016  1.00  0.00     0.074 A 
ATOM     50  C   UNL A   1      47.070  27.600  26.596  1.00  0.00     0.049 A 
ATOM     51  N   UNL A   1      46.083  30.423  27.046  1.00  0.00    -0.248 NA
ATOM     52  C   UNL A   1      43.928  29.555  27.282  1.00  0.00     0.031 C 
ATOM     53  C   UNL A   1      47.591  26.254  26.376  1.00  0.00     0.029 A 
ATOM     54  N   UNL A   1      48.184  28.402  26.589  1.00  0.00    -0.354 N 
ATOM     55  C   UNL A   1      45.196  31.456  27.319  1.00  0.00     0.074 A 
ATOM     56  C   UNL A   1      43.876  30.871  27.418  1.00  0.00     0.031 C 
ATOM     57  C   UNL A   1      48.927  26.324  26.233  1.00  0.00     0.029 A 
ATOM     58  C   UNL A   1      49.344  27.723  26.311  1.00  0.00     0.049 A 
ATOM     59  H   UNL A   1      48.154  29.370  26.767  1.00  0.00     0.167 HD
ATOM     60  C   UNL A   1      45.461  32.774  27.476  1.00  0.00     0.037 A 
ATOM     61  C   UNL A   1      50.592  28.190  26.110  1.00  0.00     0.037 A 
ATOM     62  C   UNL A   1      46.777  33.347  27.371  1.00  0.00     0.049 A 
ATOM     63  C   UNL A   1      50.849  29.673  26.212  1.00  0.00     0.074 A 
ATOM     64  C   UNL A   1      47.156  34.668  27.532  1.00  0.00     0.029 A 
ATOM     65  N   UNL A   1      47.926  32.633  27.069  1.00  0.00    -0.354 N 
ATOM     66  N   UNL A   1      50.013  30.644  26.494  1.00  0.00    -0.248 NA
ATOM     67  C   UNL A   1      52.226  30.125  25.970  1.00  0.00     0.031 C 
ATOM     68  C   UNL A   1      48.526  34.763  27.263  1.00  0.00     0.029 A 
ATOM     69  C   UNL A   1      49.013  33.491  27.008  1.00  0.00     0.049 A 
ATOM     70  H   UNL A   1      47.965  31.661  26.920  1.00  0.00     0.167 HD
ATOM     71  C   UNL A   1      50.767  31.812  26.498  1.00  0.00     0.074 A 
ATOM     72  C   UNL A   1      52.130  31.426  26.204  1.00  0.00     0.031 C 
ATOM     73  C   UNL A   1      50.368  33.089  26.727  1.00  0.00     0.037 A 
BRANCH  60  74
ATOM     74  C   UNL A   1      44.302  33.689  27.743  1.00  0.00     0.064 A 
ATOM     75  C   UNL A   1      43.711  33.787  29.012  1.00  0.00     0.173 A 
ATOM     76  C   UNL A   1      43.795  34.506  26.721  1.00  0.00     0.173 A 
ATOM     77  F   UNL A   1      44.147  33.017  30.022  1.00  0.00    -0.203 F 
ATOM     78  C   UNL A   1      42.642  34.650  29.241  1.00  0.00     0.198 A 
ATOM     79  C   UNL A   1      42.747  35.391  26.960  1.00  0.00     0.198 A 
ATOM     80  F   UNL A   1      44.323  34.453  25.488  1.00  0.00    -0.203 F 
ATOM     81  F   UNL A   1      42.061  34.690  30.448  1.00  0.00    -0.200 F 
ATOM     82  C   UNL A   1      42.167  35.456  28.217  1.00  0.00     0.200 A 
ATOM     83  F   UNL A   1      42.300  36.180  25.973  1.00  0.00    -0.200 F 
ATOM     84  F   UNL A   1      41.144  36.293  28.441  1.00  0.00    -0.200 F 
ENDBRANCH  60  74
BRANCH  61  85
ATOM     85  C   UNL A   1      51.696  27.252  25.772  1.00  0.00     0.064 A 
ATOM     86  C   UNL A   1      51.980  26.919  24.440  1.00  0.00     0.173 A 
ATOM     87  C   UNL A   1      52.468  26.643  26.773  1.00  0.00     0.173 A 
ATOM     88  F   UNL A   1      51.252  27.453  23.448  1.00  0.00    -0.203 F 
ATOM     89  C   UNL A   1      52.974  25.995  24.123  1.00  0.00     0.198 A 
ATOM     90  C   UNL A   1      53.485  25.746  26.454  1.00  0.00     0.198 A 
ATOM     91  F   UNL A   1      52.237  26.923  28.064  1.00  0.00    -0.203 F 
ATOM     92  F   UNL A   1      53.183  25.652  22.846  1.00  0.00    -0.200 F 
ATOM     93  C   UNL A   1      53.730  25.413  25.131  1.00  0.00     0.200 A 
ATOM     94  F   UNL A   1      54.220  25.195  27.430  1.00  0.00    -0.200 F 
ATOM     95  F   UNL A   1      54.685  24.526  24.826  1.00  0.00    -0.200 F 
ENDBRANCH  61  85
BRANCH  73  96
ATOM     96  C   UNL A   1      51.425  34.158  26.722  1.00  0.00     0.064 A 
ATOM     97  C   UNL A   1      51.726  34.900  25.570  1.00  0.00     0.173 A 
ATOM     98  C   UNL A   1      52.116  34.472  27.903  1.00  0.00     0.173 A 
ATOM     99  F   UNL A   1      51.104  34.631  24.413  1.00  0.00    -0.203 F 
ATOM    100  C   UNL A   1      52.700  35.894  25.594  1.00  0.00     0.198 A 
ATOM    101  C   UNL A   1      53.062  35.492  27.932  1.00  0.00     0.198 A 
ATOM    102  F   UNL A   1      51.860  33.801  29.036  1.00  0.00    -0.203 F 
ATOM    103  F   UNL A   1      53.010  36.553  24.469  1.00  0.00    -0.200 F 
ATOM    104  C   UNL A   1      53.361  36.196  26.776  1.00  0.00     0.200 A 
ATOM    105  F   UNL A   1      53.685  35.795  29.080  1.00  0.00    -0.200 F 
ATOM    106  F   UNL A   1      54.291  37.161  26.798  1.00  0.00    -0.200 F 
ENDBRANCH  73  96
ENDBRANCH  47  48
ENDBRANCH  40  42
ENDBRANCH  39  40
ENDBRANCH  38  39
ENDBRANCH  37  38
ENDBRANCH  36  37
ENDBRANCH  35  36
ENDBRANCH   1  35
TORSDOF 22
ENDMDL
MODEL 3
REMARK VINA RESULT:      -9.2      3.906      6.485
REMARK SMILES COc1cc(/C=C2/SC(=S)N(c3ccc(C)cc3C)C2=O)ccc1O[C@@H](C)C(=O)OCCOCCOCCOC(=O)c1ccc(-c2c3nc(c(-c4c(F)c(F)c(F)c(F)c4F)c4ccc([nH]4)c(-c4c(F)c(F)c(F)c(F)c4F)c4nc(c(-c5c(F)c(F)c(F)c(F)c5F)c5ccc2[nH]5)C=C4)C=C3)cc1
REMARK SMILES IDX 34 1 33 2 32 3 31 4 30 5 28 6 29 7 26 8 27 9 25 10 24 11
REMARK SMILES IDX 3 12 4 13 5 14 23 15 22 16 2 17 1 18 6 19 7 20 8 21 20 22
REMARK SMILES IDX 9 23 11 24 21 25 10 26 12 27 13 28 18 29 14 30 17 31 19 32
REMARK SMILES IDX 15 33 16 34 35 35 36 36 37 37 38 38 39 39 40 40 41 41 42 42
REMARK SMILES IDX 43 43 104 44 44 45 103 46 45 47 46 48 47 49 97 50 48 51
REMARK SMILES IDX 102 52 96 53 98 54 49 55 101 56 95 57 94 58 50 60 82 61
REMARK SMILES IDX 62 62 81 63 63 64 66 65 80 66 99 67 64 68 65 69 79 71 100 72
REMARK SMILES IDX 67 73 51 74 52 75 60 76 53 77 54 78 58 79 61 80 55 81 56 82
REMARK SMILES IDX 59 83 57 84 83 85 84 86 92 87 85 88 86 89 90 90 93 91 87 92
REMARK SMILES IDX 88 93 91 94 89 95 68 96 69 97 77 98 70 99 71 100 75 101
REMARK SMILES IDX 78 102 72 103 73 104 76 105 74 106
REMARK H PARENT 98 59 66 70
REMARK Flexibility Score: inf
ROOT
ATOM      1  C   UNL A   1      32.422  30.266  26.841  1.00  0.00     0.188 C 
ENDROOT
BRANCH   1   2
ATOM      2  O   UNL A   1      31.662  29.094  26.598  1.00  0.00    -0.376 OA
BRANCH   2   3
ATOM      3  C   UNL A   1      32.094  27.855  27.151  1.00  0.00     0.202 C 
BRANCH   3   4
ATOM      4  C   UNL A   1      31.818  26.537  26.422  1.00  0.00     0.261 C 
BRANCH   4   5
ATOM      5  O   UNL A   1      32.874  26.181  25.525  1.00  0.00    -0.461 OA
BRANCH   5   6
ATOM      6  C   UNL A   1      32.654  26.335  24.196  1.00  0.00     0.347 C 
ATOM      7  O   UNL A   1      32.385  27.406  23.661  1.00  0.00    -0.248 OA
BRANCH   6   8
ATOM      8  C   UNL A   1      32.935  25.022  23.411  1.00  0.00     0.279 C 
ATOM      9  C   UNL A   1      32.235  24.995  22.051  1.00  0.00     0.066 C 
BRANCH   8  10
ATOM     10  O   UNL A   1      32.945  23.687  23.863  1.00  0.00    -0.475 OA
BRANCH  10  11
ATOM     11  C   UNL A   1      34.003  22.940  24.264  1.00  0.00     0.162 A 
ATOM     12  C   UNL A   1      34.167  22.076  25.345  1.00  0.00     0.161 A 
ATOM     13  C   UNL A   1      35.446  21.561  25.637  1.00  0.00     0.058 A 
ATOM     14  C   UNL A   1      36.563  21.873  24.848  1.00  0.00    -0.020 A 
ATOM     15  C   UNL A   1      35.112  23.165  23.425  1.00  0.00     0.051 A 
ATOM     16  C   UNL A   1      36.373  22.632  23.699  1.00  0.00     0.012 A 
BRANCH  12  17
ATOM     17  O   UNL A   1      33.222  21.820  26.297  1.00  0.00    -0.493 OA
ATOM     18  C   UNL A   1      33.158  22.780  27.341  1.00  0.00     0.278 C 
ENDBRANCH  12  17
BRANCH  14  19
ATOM     19  C   UNL A   1      37.896  21.423  25.274  1.00  0.00     0.029 C 
ATOM     20  C   UNL A   1      38.810  22.143  25.951  1.00  0.00     0.081 C 
ATOM     21  S   UNL A   1      40.283  21.436  26.524  1.00  0.00    -0.054 SA
ATOM     22  C   UNL A   1      38.750  23.576  26.380  1.00  0.00     0.270 C 
ATOM     23  C   UNL A   1      40.749  22.871  27.434  1.00  0.00     0.152 C 
ATOM     24  N   UNL A   1      39.848  23.885  27.181  1.00  0.00    -0.261 N 
ATOM     25  O   UNL A   1      37.878  24.360  26.032  1.00  0.00    -0.268 OA
ATOM     26  S   UNL A   1      42.067  22.873  28.462  1.00  0.00    -0.051 S 
BRANCH  24  27
ATOM     27  C   UNL A   1      39.982  25.212  27.673  1.00  0.00     0.054 A 
ATOM     28  C   UNL A   1      39.313  25.549  28.856  1.00  0.00     0.027 A 
ATOM     29  C   UNL A   1      40.664  26.209  26.952  1.00  0.00    -0.027 A 
ATOM     30  C   UNL A   1      39.290  26.867  29.314  1.00  0.00     0.005 A 
ATOM     31  C   UNL A   1      40.624  27.535  27.426  1.00  0.00     0.009 A 
ATOM     32  C   UNL A   1      41.426  25.948  25.685  1.00  0.00     0.046 C 
ATOM     33  C   UNL A   1      39.922  27.877  28.589  1.00  0.00    -0.051 A 
ATOM     34  C   UNL A   1      39.780  29.308  29.018  1.00  0.00     0.044 C 
ENDBRANCH  24  27
ENDBRANCH  14  19
ENDBRANCH  10  11
ENDBRANCH   8  10
ENDBRANCH   6   8
ENDBRANCH   5   6
ENDBRANCH   4   5
ENDBRANCH   3   4
ENDBRANCH   2   3
ENDBRANCH   1   2
BRANCH   1  35
ATOM     35  C   UNL A   1      33.946  30.167  27.072  1.00  0.00     0.188 C 
BRANCH  35  36
ATOM     36  O   UNL A   1      34.517  30.795  28.192  1.00  0.00    -0.376 OA
BRANCH  36  37
ATOM     37  C   UNL A   1      35.024  32.110  28.054  1.00  0.00     0.202 C 
BRANCH  37  38
ATOM     38  C   UNL A   1      36.259  32.609  28.818  1.00  0.00     0.261 C 
BRANCH  38  39
ATOM     39  O   UNL A   1      36.019  33.577  29.849  1.00  0.00    -0.460 OA
BRANCH  39  40
ATOM     40  C   UNL A   1      35.540  33.062  31.008  1.00  0.00     0.338 C 
ATOM     41  O   UNL A   1      34.373  32.924  31.350  1.00  0.00    -0.246 OA
BRANCH  40  42
ATOM     42  C   UNL A   1      36.652  32.483  31.774  1.00  0.00     0.060 A 
ATOM     43  C   UNL A   1      36.368  31.520  32.756  1.00  0.00     0.016 A 
ATOM     44  C   UNL A   1      37.956  32.918  31.552  1.00  0.00     0.016 A 
ATOM     45  C   UNL A   1      37.396  30.996  33.534  1.00  0.00     0.010 A 
ATOM     46  C   UNL A   1      38.980  32.415  32.354  1.00  0.00     0.010 A 
ATOM     47  C   UNL A   1      38.700  31.476  33.365  1.00  0.00    -0.014 A 
BRANCH  47  48
ATOM     48  C   UNL A   1      39.740  31.153  34.366  1.00  0.00     0.031 A 
ATOM     49  C   UNL A   1      40.001  32.146  35.462  1.00  0.00     0.074 A 
ATOM     50  C   UNL A   1      40.443  30.010  34.297  1.00  0.00     0.049 A 
ATOM     51  N   UNL A   1      40.928  32.144  36.384  1.00  0.00    -0.248 NA
ATOM     52  C   UNL A   1      39.097  33.306  35.518  1.00  0.00     0.031 C 
ATOM     53  C   UNL A   1      40.244  28.954  33.309  1.00  0.00     0.029 A 
ATOM     54  N   UNL A   1      41.483  29.560  35.070  1.00  0.00    -0.354 N 
ATOM     55  C   UNL A   1      40.727  33.306  37.118  1.00  0.00     0.074 A 
ATOM     56  C   UNL A   1      39.610  34.003  36.519  1.00  0.00     0.031 C 
ATOM     57  C   UNL A   1      41.152  27.984  33.521  1.00  0.00     0.029 A 
ATOM     58  C   UNL A   1      42.017  28.375  34.633  1.00  0.00     0.049 A 
ATOM     59  H   UNL A   1      41.815  30.042  35.863  1.00  0.00     0.167 HD
ATOM     60  C   UNL A   1      41.414  33.747  38.198  1.00  0.00     0.037 A 
ATOM     61  C   UNL A   1      43.103  27.703  35.065  1.00  0.00     0.037 A 
ATOM     62  C   UNL A   1      42.527  33.049  38.784  1.00  0.00     0.049 A 
ATOM     63  C   UNL A   1      43.899  28.257  36.220  1.00  0.00     0.074 A 
ATOM     64  C   UNL A   1      43.279  33.401  39.891  1.00  0.00     0.029 A 
ATOM     65  N   UNL A   1      43.053  31.859  38.303  1.00  0.00    -0.354 N 
ATOM     66  N   UNL A   1      43.693  29.342  36.928  1.00  0.00    -0.248 NA
ATOM     67  C   UNL A   1      45.080  27.488  36.640  1.00  0.00     0.031 C 
ATOM     68  C   UNL A   1      44.301  32.458  40.041  1.00  0.00     0.029 A 
ATOM     69  C   UNL A   1      44.141  31.479  39.073  1.00  0.00     0.049 A 
ATOM     70  H   UNL A   1      42.706  31.359  37.530  1.00  0.00     0.167 HD
ATOM     71  C   UNL A   1      44.693  29.367  37.894  1.00  0.00     0.074 A 
ATOM     72  C   UNL A   1      45.496  28.181  37.690  1.00  0.00     0.031 C 
ATOM     73  C   UNL A   1      44.923  30.287  38.865  1.00  0.00     0.037 A 
BRANCH  60  74
ATOM     74  C   UNL A   1      41.001  35.062  38.794  1.00  0.00     0.064 A 
ATOM     75  C   UNL A   1      41.731  36.239  38.571  1.00  0.00     0.173 A 
ATOM     76  C   UNL A   1      39.838  35.151  39.573  1.00  0.00     0.173 A 
ATOM     77  F   UNL A   1      42.860  36.208  37.846  1.00  0.00    -0.203 F 
ATOM     78  C   UNL A   1      41.325  37.451  39.125  1.00  0.00     0.198 A 
ATOM     79  C   UNL A   1      39.416  36.369  40.100  1.00  0.00     0.198 A 
ATOM     80  F   UNL A   1      39.101  34.056  39.818  1.00  0.00    -0.203 F 
ATOM     81  F   UNL A   1      42.065  38.553  38.940  1.00  0.00    -0.200 F 
ATOM     82  C   UNL A   1      40.164  37.516  39.882  1.00  0.00     0.200 A 
ATOM     83  F   UNL A   1      38.286  36.432  40.817  1.00  0.00    -0.200 F 
ATOM     84  F   UNL A   1      39.769  38.684  40.407  1.00  0.00    -0.200 F 
ENDBRANCH  60  74
BRANCH  61  85
ATOM     85  C   UNL A   1      43.518  26.442  34.394  1.00  0.00     0.064 A 
ATOM     86  C   UNL A   1      43.085  25.195  34.868  1.00  0.00     0.173 A 
ATOM     87  C   UNL A   1      44.379  26.453  33.288  1.00  0.00     0.173 A 
ATOM     88  F   UNL A   1      42.282  25.129  35.941  1.00  0.00    -0.203 F 
ATOM     89  C   UNL A   1      43.519  24.009  34.279  1.00  0.00     0.198 A 
ATOM     90  C   UNL A   1      44.786  25.268  32.677  1.00  0.00     0.198 A 
ATOM     91  F   UNL A   1      44.826  27.618  32.795  1.00  0.00    -0.203 F 
ATOM     92  F   UNL A   1      43.137  22.831  34.789  1.00  0.00    -0.200 F 
ATOM     93  C   UNL A   1      44.365  24.047  33.180  1.00  0.00     0.200 A 
ATOM     94  F   UNL A   1      45.593  25.311  31.609  1.00  0.00    -0.200 F 
ATOM     95  F   UNL A   1      44.782  22.907  32.613  1.00  0.00    -0.200 F 
ENDBRANCH  61  85
BRANCH  73  96
ATOM     96  C   UNL A   1      46.059  30.024  39.814  1.00  0.00     0.064 A 
ATOM     97  C   UNL A   1      47.377  30.404  39.521  1.00  0.00     0.173 A 
ATOM     98  C   UNL A   1      45.813  29.420  41.058  1.00  0.00     0.173 A 
ATOM     99  F   UNL A   1      47.668  30.973  38.342  1.00  0.00    -0.203 F 
ATOM    100  C   UNL A   1      48.409  30.162  40.423  1.00  0.00     0.198 A 
ATOM    101  C   UNL A   1      46.841  29.214  41.973  1.00  0.00     0.198 A 
ATOM    102  F   UNL A   1      44.569  29.046  41.395  1.00  0.00    -0.203 F 
ATOM    103  F   UNL A   1      49.669  30.483  40.098  1.00  0.00    -0.200 F 
ATOM    104  C   UNL A   1      48.140  29.576  41.651  1.00  0.00     0.200 A 
ATOM    105  F   UNL A   1      46.575  28.665  43.166  1.00  0.00    -0.200 F 
ATOM    106  F   UNL A   1      49.135  29.353  42.522  1.00  0.00    -0.200 F 
ENDBRANCH  73  96
ENDBRANCH  47  48
ENDBRANCH  40  42
ENDBRANCH  39  40
ENDBRANCH  38  39
ENDBRANCH  37  38
ENDBRANCH  36  37
ENDBRANCH  35  36
ENDBRANCH   1  35
TORSDOF 22
ENDMDL
