MODEL 1
REMARK VINA RESULT:     -11.0      0.000      0.000
REMARK SMILES CCCc1cc2c(cc1Cl)C=C(C(=O)OCCOCCOCCOC(=O)c1ccc(-c3c4nc(c(-c5c(F)c(F)c(F)c(F)c5F)c5ccc([nH]5)c(-c5c(F)c(F)c(F)c(F)c5F)c5nc(c(-c6c(F)c(F)c(F)c(F)c6F)c6ccc3[nH]6)C=C5)C=C4)cc1)[C@H](C(F)(F)F)O2
REMARK SMILES IDX 19 1 18 2 17 3 16 4 15 5 13 6 14 7 12 8 4 9 5 10 9 11 6 12
REMARK SMILES IDX 8 13 10 14 7 15 95 16 11 17 90 18 3 19 2 20 1 21 91 22 92 23
REMARK SMILES IDX 93 24 94 25 20 26 21 27 22 28 23 29 24 30 25 31 26 32 27 33
REMARK SMILES IDX 28 34 89 35 29 36 88 37 30 38 31 39 32 40 82 41 33 42 87 43
REMARK SMILES IDX 81 44 83 45 34 46 86 47 80 48 79 49 35 51 67 52 47 53 66 54
REMARK SMILES IDX 48 55 51 56 65 57 84 58 49 59 50 60 64 62 85 63 52 64 36 65
REMARK SMILES IDX 37 66 45 67 38 68 39 69 43 70 46 71 40 72 41 73 44 74 42 75
REMARK SMILES IDX 68 76 69 77 77 78 70 79 71 80 75 81 78 82 72 83 73 84 76 85
REMARK SMILES IDX 74 86 53 87 54 88 62 89 55 90 56 91 60 92 63 93 57 94 58 95
REMARK SMILES IDX 61 96 59 97
REMARK H PARENT 83 50 51 61
REMARK Flexibility Score: inf
ROOT
ATOM      1  C   UNL A   1      31.220  28.622  25.278  1.00  0.00     0.188 C 
ENDROOT
BRANCH   1   2
ATOM      2  O   UNL A   1      31.075  28.995  23.916  1.00  0.00    -0.376 OA
BRANCH   2   3
ATOM      3  C   UNL A   1      31.939  28.432  22.933  1.00  0.00     0.202 C 
BRANCH   3   4
ATOM      4  C   UNL A   1      32.665  27.106  23.209  1.00  0.00     0.261 C 
BRANCH   4   5
ATOM      5  O   UNL A   1      31.991  25.945  22.691  1.00  0.00    -0.460 OA
BRANCH   5   6
ATOM      6  C   UNL A   1      31.192  25.291  23.558  1.00  0.00     0.338 C 
ATOM      7  O   UNL A   1      30.044  25.586  23.851  1.00  0.00    -0.246 OA
BRANCH   6   8
ATOM      8  C   UNL A   1      31.823  24.033  24.000  1.00  0.00     0.087 C 
ATOM      9  C   UNL A   1      32.524  19.087  24.516  1.00  0.00    -0.026 A 
ATOM     10  C   UNL A   1      32.665  20.206  25.353  1.00  0.00     0.052 A 
ATOM     11  C   UNL A   1      32.319  19.324  23.144  1.00  0.00     0.045 A 
ATOM     12  C   UNL A   1      32.432  21.495  24.882  1.00  0.00     0.128 A 
ATOM     13  C   UNL A   1      32.153  20.625  22.655  1.00  0.00     0.032 A 
ATOM     14  Cl  UNL A   1      32.212  18.029  22.002  1.00  0.00    -0.084 Cl
ATOM     15  C   UNL A   1      32.166  21.710  23.535  1.00  0.00     0.019 A 
ATOM     16  O   UNL A   1      32.363  22.466  25.841  1.00  0.00    -0.475 OA
ATOM     17  C   UNL A   1      31.774  23.037  23.101  1.00  0.00     0.027 C 
ATOM     18  C   UNL A   1      32.307  23.857  25.417  1.00  0.00     0.316 C 
BRANCH   9  19
ATOM     19  C   UNL A   1      32.533  17.678  25.076  1.00  0.00     0.037 C 
BRANCH  19  20
ATOM     20  C   UNL A   1      33.895  16.988  25.266  1.00  0.00     0.001 C 
ATOM     21  C   UNL A   1      34.577  16.578  23.963  1.00  0.00     0.004 C 
ENDBRANCH  19  20
ENDBRANCH   9  19
BRANCH  18  22
ATOM     22  C   UNL A   1      33.660  24.495  25.783  1.00  0.00     0.430 C 
ATOM     23  F   UNL A   1      34.317  23.801  26.733  1.00  0.00    -0.167 F 
ATOM     24  F   UNL A   1      34.481  24.519  24.700  1.00  0.00    -0.167 F 
ATOM     25  F   UNL A   1      33.528  25.775  26.197  1.00  0.00    -0.167 F 
ENDBRANCH  18  22
ENDBRANCH   6   8
ENDBRANCH   5   6
ENDBRANCH   4   5
ENDBRANCH   3   4
ENDBRANCH   2   3
ENDBRANCH   1   2
BRANCH   1  26
ATOM     26  C   UNL A   1      31.786  29.629  26.295  1.00  0.00     0.188 C 
BRANCH  26  27
ATOM     27  O   UNL A   1      31.793  30.970  25.884  1.00  0.00    -0.376 OA
BRANCH  27  28
ATOM     28  C   UNL A   1      31.455  32.007  26.786  1.00  0.00     0.202 C 
BRANCH  28  29
ATOM     29  C   UNL A   1      32.452  32.793  27.661  1.00  0.00     0.261 C 
BRANCH  29  30
ATOM     30  O   UNL A   1      32.666  34.175  27.375  1.00  0.00    -0.460 OA
BRANCH  30  31
ATOM     31  C   UNL A   1      32.959  34.976  28.434  1.00  0.00     0.338 C 
ATOM     32  O   UNL A   1      32.348  35.946  28.820  1.00  0.00    -0.246 OA
BRANCH  31  33
ATOM     33  C   UNL A   1      34.057  34.318  29.176  1.00  0.00     0.060 A 
ATOM     34  C   UNL A   1      33.790  33.658  30.375  1.00  0.00     0.016 A 
ATOM     35  C   UNL A   1      35.367  34.406  28.685  1.00  0.00     0.016 A 
ATOM     36  C   UNL A   1      34.841  33.068  31.079  1.00  0.00     0.010 A 
ATOM     37  C   UNL A   1      36.419  33.824  29.398  1.00  0.00     0.010 A 
ATOM     38  C   UNL A   1      36.159  33.135  30.590  1.00  0.00    -0.014 A 
BRANCH  38  39
ATOM     39  C   UNL A   1      37.216  32.333  31.254  1.00  0.00     0.031 A 
ATOM     40  C   UNL A   1      37.885  31.177  30.576  1.00  0.00     0.074 A 
ATOM     41  C   UNL A   1      37.586  32.694  32.496  1.00  0.00     0.049 A 
ATOM     42  N   UNL A   1      38.917  30.479  30.978  1.00  0.00    -0.248 NA
ATOM     43  C   UNL A   1      37.326  30.742  29.290  1.00  0.00     0.031 C 
ATOM     44  C   UNL A   1      36.974  33.778  33.266  1.00  0.00     0.029 A 
ATOM     45  N   UNL A   1      38.572  32.213  33.319  1.00  0.00    -0.354 N 
ATOM     46  C   UNL A   1      39.154  29.542  29.983  1.00  0.00     0.074 A 
ATOM     47  C   UNL A   1      38.120  29.722  28.984  1.00  0.00     0.031 C 
ATOM     48  C   UNL A   1      37.625  33.909  34.431  1.00  0.00     0.029 A 
ATOM     49  C   UNL A   1      38.683  32.905  34.500  1.00  0.00     0.049 A 
ATOM     50  H   UNL A   1      39.144  31.446  33.087  1.00  0.00     0.167 HD
ATOM     51  C   UNL A   1      40.160  28.635  29.906  1.00  0.00     0.037 A 
ATOM     52  C   UNL A   1      39.548  32.758  35.520  1.00  0.00     0.037 A 
ATOM     53  C   UNL A   1      41.175  28.456  30.916  1.00  0.00     0.049 A 
ATOM     54  C   UNL A   1      40.623  31.712  35.428  1.00  0.00     0.074 A 
ATOM     55  C   UNL A   1      42.259  27.594  30.902  1.00  0.00     0.029 A 
ATOM     56  N   UNL A   1      41.226  29.137  32.124  1.00  0.00    -0.354 N 
ATOM     57  N   UNL A   1      40.899  30.896  34.440  1.00  0.00    -0.248 NA
ATOM     58  C   UNL A   1      41.512  31.569  36.590  1.00  0.00     0.031 C 
ATOM     59  C   UNL A   1      42.929  27.709  32.124  1.00  0.00     0.029 A 
ATOM     60  C   UNL A   1      42.300  28.686  32.878  1.00  0.00     0.049 A 
ATOM     61  H   UNL A   1      40.593  29.837  32.405  1.00  0.00     0.167 HD
ATOM     62  C   UNL A   1      42.000  30.158  34.850  1.00  0.00     0.074 A 
ATOM     63  C   UNL A   1      42.357  30.637  36.169  1.00  0.00     0.031 C 
ATOM     64  C   UNL A   1      42.649  29.166  34.192  1.00  0.00     0.037 A 
BRANCH  51  65
ATOM     65  C   UNL A   1      40.237  27.769  28.682  1.00  0.00     0.064 A 
ATOM     66  C   UNL A   1      41.003  28.150  27.569  1.00  0.00     0.173 A 
ATOM     67  C   UNL A   1      39.634  26.502  28.658  1.00  0.00     0.173 A 
ATOM     68  F   UNL A   1      41.602  29.349  27.541  1.00  0.00    -0.203 F 
ATOM     69  C   UNL A   1      41.150  27.302  26.475  1.00  0.00     0.198 A 
ATOM     70  C   UNL A   1      39.807  25.644  27.573  1.00  0.00     0.198 A 
ATOM     71  F   UNL A   1      38.904  26.080  29.702  1.00  0.00    -0.203 F 
ATOM     72  F   UNL A   1      41.866  27.698  25.414  1.00  0.00    -0.200 F 
ATOM     73  C   UNL A   1      40.561  26.047  26.482  1.00  0.00     0.200 A 
ATOM     74  F   UNL A   1      39.254  24.423  27.591  1.00  0.00    -0.200 F 
ATOM     75  F   UNL A   1      40.723  25.222  25.437  1.00  0.00    -0.200 F 
ENDBRANCH  51  65
BRANCH  52  76
ATOM     76  C   UNL A   1      39.451  33.660  36.696  1.00  0.00     0.064 A 
ATOM     77  C   UNL A   1      40.095  34.904  36.703  1.00  0.00     0.173 A 
ATOM     78  C   UNL A   1      38.687  33.312  37.821  1.00  0.00     0.173 A 
ATOM     79  F   UNL A   1      40.849  35.274  35.659  1.00  0.00    -0.203 F 
ATOM     80  C   UNL A   1      39.988  35.763  37.796  1.00  0.00     0.198 A 
ATOM     81  C   UNL A   1      38.556  34.184  38.899  1.00  0.00     0.198 A 
ATOM     82  F   UNL A   1      38.045  32.135  37.859  1.00  0.00    -0.203 F 
ATOM     83  F   UNL A   1      40.642  36.932  37.793  1.00  0.00    -0.200 F 
ATOM     84  C   UNL A   1      39.211  35.406  38.888  1.00  0.00     0.200 A 
ATOM     85  F   UNL A   1      37.790  33.844  39.944  1.00  0.00    -0.200 F 
ATOM     86  F   UNL A   1      39.097  36.238  39.932  1.00  0.00    -0.200 F 
ENDBRANCH  52  76
BRANCH  64  87
ATOM     87  C   UNL A   1      43.818  28.521  34.881  1.00  0.00     0.064 A 
ATOM     88  C   UNL A   1      43.670  27.340  35.623  1.00  0.00     0.173 A 
ATOM     89  C   UNL A   1      45.113  29.043  34.732  1.00  0.00     0.173 A 
ATOM     90  F   UNL A   1      42.452  26.808  35.808  1.00  0.00    -0.203 F 
ATOM     91  C   UNL A   1      44.771  26.710  36.197  1.00  0.00     0.198 A 
ATOM     92  C   UNL A   1      46.216  28.394  35.282  1.00  0.00     0.198 A 
ATOM     93  F   UNL A   1      45.313  30.168  34.030  1.00  0.00    -0.203 F 
ATOM     94  F   UNL A   1      44.600  25.600  36.928  1.00  0.00    -0.200 F 
ATOM     95  C   UNL A   1      46.044  27.231  36.015  1.00  0.00     0.200 A 
ATOM     96  F   UNL A   1      47.447  28.889  35.090  1.00  0.00    -0.200 F 
ATOM     97  F   UNL A   1      47.105  26.611  36.550  1.00  0.00    -0.200 F 
ENDBRANCH  64  87
ENDBRANCH  38  39
ENDBRANCH  31  33
ENDBRANCH  30  31
ENDBRANCH  29  30
ENDBRANCH  28  29
ENDBRANCH  27  28
ENDBRANCH  26  27
ENDBRANCH   1  26
TORSDOF 20
ENDMDL
MODEL 2
REMARK VINA RESULT:     -11.0      1.279      7.229
REMARK SMILES CCCc1cc2c(cc1Cl)C=C(C(=O)OCCOCCOCCOC(=O)c1ccc(-c3c4nc(c(-c5c(F)c(F)c(F)c(F)c5F)c5ccc([nH]5)c(-c5c(F)c(F)c(F)c(F)c5F)c5nc(c(-c6c(F)c(F)c(F)c(F)c6F)c6ccc3[nH]6)C=C5)C=C4)cc1)[C@H](C(F)(F)F)O2
REMARK SMILES IDX 19 1 18 2 17 3 16 4 15 5 13 6 14 7 12 8 4 9 5 10 9 11 6 12
REMARK SMILES IDX 8 13 10 14 7 15 95 16 11 17 90 18 3 19 2 20 1 21 91 22 92 23
REMARK SMILES IDX 93 24 94 25 20 26 21 27 22 28 23 29 24 30 25 31 26 32 27 33
REMARK SMILES IDX 28 34 89 35 29 36 88 37 30 38 31 39 32 40 82 41 33 42 87 43
REMARK SMILES IDX 81 44 83 45 34 46 86 47 80 48 79 49 35 51 67 52 47 53 66 54
REMARK SMILES IDX 48 55 51 56 65 57 84 58 49 59 50 60 64 62 85 63 52 64 36 65
REMARK SMILES IDX 37 66 45 67 38 68 39 69 43 70 46 71 40 72 41 73 44 74 42 75
REMARK SMILES IDX 68 76 69 77 77 78 70 79 71 80 75 81 78 82 72 83 73 84 76 85
REMARK SMILES IDX 74 86 53 87 54 88 62 89 55 90 56 91 60 92 63 93 57 94 58 95
REMARK SMILES IDX 61 96 59 97
REMARK H PARENT 83 50 51 61
REMARK Flexibility Score: inf
ROOT
ATOM      1  C   UNL A   1      33.137  28.408  26.443  1.00  0.00     0.188 C 
ENDROOT
BRANCH   1   2
ATOM      2  O   UNL A   1      33.901  28.024  25.311  1.00  0.00    -0.376 OA
BRANCH   2   3
ATOM      3  C   UNL A   1      33.876  28.827  24.134  1.00  0.00     0.202 C 
BRANCH   3   4
ATOM      4  C   UNL A   1      32.956  28.451  22.961  1.00  0.00     0.261 C 
BRANCH   4   5
ATOM      5  O   UNL A   1      32.318  27.169  23.097  1.00  0.00    -0.460 OA
BRANCH   5   6
ATOM      6  C   UNL A   1      32.943  26.133  22.503  1.00  0.00     0.338 C 
ATOM      7  O   UNL A   1      33.682  26.190  21.534  1.00  0.00    -0.246 OA
BRANCH   6   8
ATOM      8  C   UNL A   1      32.761  24.897  23.288  1.00  0.00     0.087 C 
ATOM      9  C   UNL A   1      33.473  20.148  24.756  1.00  0.00    -0.026 A 
ATOM     10  C   UNL A   1      32.359  20.991  24.618  1.00  0.00     0.052 A 
ATOM     11  C   UNL A   1      34.749  20.735  24.658  1.00  0.00     0.045 A 
ATOM     12  C   UNL A   1      32.501  22.317  24.221  1.00  0.00     0.128 A 
ATOM     13  C   UNL A   1      34.895  22.088  24.327  1.00  0.00     0.032 A 
ATOM     14  Cl  UNL A   1      36.195  19.816  24.891  1.00  0.00    -0.084 Cl
ATOM     15  C   UNL A   1      33.767  22.869  24.064  1.00  0.00     0.019 A 
ATOM     16  O   UNL A   1      31.341  22.958  23.888  1.00  0.00    -0.475 OA
ATOM     17  C   UNL A   1      33.888  24.201  23.501  1.00  0.00     0.027 C 
ATOM     18  C   UNL A   1      31.385  24.392  23.644  1.00  0.00     0.316 C 
BRANCH   9  19
ATOM     19  C   UNL A   1      33.311  18.652  24.944  1.00  0.00     0.037 C 
BRANCH  19  20
ATOM     20  C   UNL A   1      33.587  17.741  23.735  1.00  0.00     0.001 C 
ATOM     21  C   UNL A   1      34.363  16.470  24.073  1.00  0.00     0.004 C 
ENDBRANCH  19  20
ENDBRANCH   9  19
BRANCH  18  22
ATOM     22  C   UNL A   1      30.669  25.074  24.823  1.00  0.00     0.430 C 
ATOM     23  F   UNL A   1      31.517  25.749  25.622  1.00  0.00    -0.167 F 
ATOM     24  F   UNL A   1      29.771  25.988  24.368  1.00  0.00    -0.167 F 
ATOM     25  F   UNL A   1      29.973  24.194  25.579  1.00  0.00    -0.167 F 
ENDBRANCH  18  22
ENDBRANCH   6   8
ENDBRANCH   5   6
ENDBRANCH   4   5
ENDBRANCH   3   4
ENDBRANCH   2   3
ENDBRANCH   1   2
BRANCH   1  26
ATOM     26  C   UNL A   1      33.063  29.889  26.855  1.00  0.00     0.188 C 
BRANCH  26  27
ATOM     27  O   UNL A   1      31.946  30.596  26.386  1.00  0.00    -0.376 OA
BRANCH  27  28
ATOM     28  C   UNL A   1      31.736  31.947  26.750  1.00  0.00     0.202 C 
BRANCH  28  29
ATOM     29  C   UNL A   1      32.525  32.717  27.830  1.00  0.00     0.261 C 
BRANCH  29  30
ATOM     30  O   UNL A   1      32.903  34.067  27.562  1.00  0.00    -0.460 OA
BRANCH  30  31
ATOM     31  C   UNL A   1      33.132  34.859  28.643  1.00  0.00     0.338 C 
ATOM     32  O   UNL A   1      32.408  35.714  29.101  1.00  0.00    -0.246 OA
BRANCH  31  33
ATOM     33  C   UNL A   1      34.348  34.339  29.305  1.00  0.00     0.060 A 
ATOM     34  C   UNL A   1      34.248  33.676  30.527  1.00  0.00     0.016 A 
ATOM     35  C   UNL A   1      35.600  34.560  28.712  1.00  0.00     0.016 A 
ATOM     36  C   UNL A   1      35.408  33.217  31.153  1.00  0.00     0.010 A 
ATOM     37  C   UNL A   1      36.761  34.109  29.347  1.00  0.00     0.010 A 
ATOM     38  C   UNL A   1      36.670  33.419  30.563  1.00  0.00    -0.014 A 
BRANCH  38  39
ATOM     39  C   UNL A   1      37.856  32.749  31.151  1.00  0.00     0.031 A 
ATOM     40  C   UNL A   1      38.406  33.130  32.490  1.00  0.00     0.074 A 
ATOM     41  C   UNL A   1      38.420  31.749  30.448  1.00  0.00     0.049 A 
ATOM     42  N   UNL A   1      39.344  32.540  33.187  1.00  0.00    -0.248 NA
ATOM     43  C   UNL A   1      37.843  34.327  33.128  1.00  0.00     0.031 C 
ATOM     44  C   UNL A   1      37.990  31.321  29.116  1.00  0.00     0.029 A 
ATOM     45  N   UNL A   1      39.451  30.900  30.757  1.00  0.00    -0.354 N 
ATOM     46  C   UNL A   1      39.465  33.272  34.360  1.00  0.00     0.074 A 
ATOM     47  C   UNL A   1      38.544  34.386  34.254  1.00  0.00     0.031 C 
ATOM     48  C   UNL A   1      38.722  30.263  28.740  1.00  0.00     0.029 A 
ATOM     49  C   UNL A   1      39.687  29.953  29.791  1.00  0.00     0.049 A 
ATOM     50  H   UNL A   1      39.973  30.963  31.590  1.00  0.00     0.167 HD
ATOM     51  C   UNL A   1      40.255  33.015  35.432  1.00  0.00     0.037 A 
ATOM     52  C   UNL A   1      40.571  28.939  29.760  1.00  0.00     0.037 A 
ATOM     53  C   UNL A   1      41.179  31.910  35.518  1.00  0.00     0.049 A 
ATOM     54  C   UNL A   1      41.468  28.708  30.943  1.00  0.00     0.074 A 
ATOM     55  C   UNL A   1      41.987  31.545  36.582  1.00  0.00     0.029 A 
ATOM     56  N   UNL A   1      41.431  31.001  34.500  1.00  0.00    -0.354 N 
ATOM     57  N   UNL A   1      41.505  29.346  32.087  1.00  0.00    -0.248 NA
ATOM     58  C   UNL A   1      42.441  27.612  30.835  1.00  0.00     0.031 C 
ATOM     59  C   UNL A   1      42.769  30.456  36.187  1.00  0.00     0.029 A 
ATOM     60  C   UNL A   1      42.409  30.102  34.898  1.00  0.00     0.049 A 
ATOM     61  H   UNL A   1      40.981  30.996  33.623  1.00  0.00     0.167 HD
ATOM     62  C   UNL A   1      42.490  28.721  32.841  1.00  0.00     0.074 A 
ATOM     63  C   UNL A   1      43.010  27.638  32.033  1.00  0.00     0.031 C 
ATOM     64  C   UNL A   1      42.925  29.027  34.087  1.00  0.00     0.037 A 
BRANCH  51  65
ATOM     65  C   UNL A   1      40.153  33.930  36.619  1.00  0.00     0.064 A 
ATOM     66  C   UNL A   1      40.906  35.111  36.694  1.00  0.00     0.173 A 
ATOM     67  C   UNL A   1      39.219  33.683  37.638  1.00  0.00     0.173 A 
ATOM     68  F   UNL A   1      41.811  35.396  35.745  1.00  0.00    -0.203 F 
ATOM     69  C   UNL A   1      40.738  36.003  37.749  1.00  0.00     0.198 A 
ATOM     70  C   UNL A   1      39.034  34.592  38.678  1.00  0.00     0.198 A 
ATOM     71  F   UNL A   1      38.461  32.576  37.608  1.00  0.00    -0.203 F 
ATOM     72  F   UNL A   1      41.487  37.113  37.811  1.00  0.00    -0.200 F 
ATOM     73  C   UNL A   1      39.796  35.749  38.734  1.00  0.00     0.200 A 
ATOM     74  F   UNL A   1      38.108  34.354  39.617  1.00  0.00    -0.200 F 
ATOM     75  F   UNL A   1      39.620  36.621  39.737  1.00  0.00    -0.200 F 
ENDBRANCH  51  65
BRANCH  52  76
ATOM     76  C   UNL A   1      40.612  28.042  28.576  1.00  0.00     0.064 A 
ATOM     77  C   UNL A   1      41.359  28.384  27.442  1.00  0.00     0.173 A 
ATOM     78  C   UNL A   1      39.933  26.814  28.568  1.00  0.00     0.173 A 
ATOM     79  F   UNL A   1      42.013  29.553  27.396  1.00  0.00    -0.203 F 
ATOM     80  C   UNL A   1      41.418  27.534  26.337  1.00  0.00     0.198 A 
ATOM     81  C   UNL A   1      40.016  25.954  27.476  1.00  0.00     0.198 A 
ATOM     82  F   UNL A   1      39.209  26.439  29.633  1.00  0.00    -0.203 F 
ATOM     83  F   UNL A   1      42.111  27.900  25.251  1.00  0.00    -0.200 F 
ATOM     84  C   UNL A   1      40.755  26.317  26.360  1.00  0.00     0.200 A 
ATOM     85  F   UNL A   1      39.390  24.770  27.509  1.00  0.00    -0.200 F 
ATOM     86  F   UNL A   1      40.823  25.496  25.304  1.00  0.00    -0.200 F 
ENDBRANCH  52  76
BRANCH  64  87
ATOM     87  C   UNL A   1      44.024  28.182  34.668  1.00  0.00     0.064 A 
ATOM     88  C   UNL A   1      45.369  28.567  34.575  1.00  0.00     0.173 A 
ATOM     89  C   UNL A   1      43.724  27.019  35.396  1.00  0.00     0.173 A 
ATOM     90  F   UNL A   1      45.711  29.662  33.879  1.00  0.00    -0.203 F 
ATOM     91  C   UNL A   1      46.374  27.816  35.179  1.00  0.00     0.198 A 
ATOM     92  C   UNL A   1      44.728  26.287  36.024  1.00  0.00     0.198 A 
ATOM     93  F   UNL A   1      42.453  26.607  35.520  1.00  0.00    -0.203 F 
ATOM     94  F   UNL A   1      47.655  28.186  35.049  1.00  0.00    -0.200 F 
ATOM     95  C   UNL A   1      46.051  26.684  35.913  1.00  0.00     0.200 A 
ATOM     96  F   UNL A   1      44.412  25.204  36.748  1.00  0.00    -0.200 F 
ATOM     97  F   UNL A   1      47.017  25.975  36.513  1.00  0.00    -0.200 F 
ENDBRANCH  64  87
ENDBRANCH  38  39
ENDBRANCH  31  33
ENDBRANCH  30  31
ENDBRANCH  29  30
ENDBRANCH  28  29
ENDBRANCH  27  28
ENDBRANCH  26  27
ENDBRANCH   1  26
TORSDOF 20
ENDMDL
MODEL 3
REMARK VINA RESULT:     -10.6      4.755      7.606
REMARK SMILES CCCc1cc2c(cc1Cl)C=C(C(=O)OCCOCCOCCOC(=O)c1ccc(-c3c4nc(c(-c5c(F)c(F)c(F)c(F)c5F)c5ccc([nH]5)c(-c5c(F)c(F)c(F)c(F)c5F)c5nc(c(-c6c(F)c(F)c(F)c(F)c6F)c6ccc3[nH]6)C=C5)C=C4)cc1)[C@H](C(F)(F)F)O2
REMARK SMILES IDX 19 1 18 2 17 3 16 4 15 5 13 6 14 7 12 8 4 9 5 10 9 11 6 12
REMARK SMILES IDX 8 13 10 14 7 15 95 16 11 17 90 18 3 19 2 20 1 21 91 22 92 23
REMARK SMILES IDX 93 24 94 25 20 26 21 27 22 28 23 29 24 30 25 31 26 32 27 33
REMARK SMILES IDX 28 34 89 35 29 36 88 37 30 38 31 39 32 40 82 41 33 42 87 43
REMARK SMILES IDX 81 44 83 45 34 46 86 47 80 48 79 49 35 51 67 52 47 53 66 54
REMARK SMILES IDX 48 55 51 56 65 57 84 58 49 59 50 60 64 62 85 63 52 64 36 65
REMARK SMILES IDX 37 66 45 67 38 68 39 69 43 70 46 71 40 72 41 73 44 74 42 75
REMARK SMILES IDX 68 76 69 77 77 78 70 79 71 80 75 81 78 82 72 83 73 84 76 85
REMARK SMILES IDX 74 86 53 87 54 88 62 89 55 90 56 91 60 92 63 93 57 94 58 95
REMARK SMILES IDX 61 96 59 97
REMARK H PARENT 83 50 51 61
REMARK Flexibility Score: inf
ROOT
ATOM      1  C   UNL A   1      32.948  35.918  30.388  1.00  0.00     0.188 C 
ENDROOT
BRANCH   1   2
ATOM      2  O   UNL A   1      32.963  34.635  29.783  1.00  0.00    -0.376 OA
BRANCH   2   3
ATOM      3  C   UNL A   1      33.302  34.506  28.405  1.00  0.00     0.202 C 
BRANCH   3   4
ATOM      4  C   UNL A   1      32.446  33.630  27.477  1.00  0.00     0.261 C 
BRANCH   4   5
ATOM      5  O   UNL A   1      32.779  32.231  27.511  1.00  0.00    -0.460 OA
BRANCH   5   6
ATOM      6  C   UNL A   1      32.106  31.442  26.649  1.00  0.00     0.338 C 
ATOM      7  O   UNL A   1      31.081  31.729  26.052  1.00  0.00    -0.246 OA
BRANCH   6   8
ATOM      8  C   UNL A   1      32.868  30.211  26.367  1.00  0.00     0.087 C 
ATOM      9  C   UNL A   1      33.889  25.688  24.439  1.00  0.00    -0.026 A 
ATOM     10  C   UNL A   1      34.128  26.324  25.668  1.00  0.00     0.052 A 
ATOM     11  C   UNL A   1      33.424  26.484  23.375  1.00  0.00     0.045 A 
ATOM     12  C   UNL A   1      33.750  27.646  25.883  1.00  0.00     0.128 A 
ATOM     13  C   UNL A   1      33.108  27.834  23.570  1.00  0.00     0.032 A 
ATOM     14  Cl  UNL A   1      33.171  25.832  21.793  1.00  0.00    -0.084 Cl
ATOM     15  C   UNL A   1      33.230  28.404  24.841  1.00  0.00     0.019 A 
ATOM     16  O   UNL A   1      33.811  28.070  27.180  1.00  0.00    -0.475 OA
ATOM     17  C   UNL A   1      32.702  29.724  25.127  1.00  0.00     0.027 C 
ATOM     18  C   UNL A   1      33.612  29.485  27.458  1.00  0.00     0.316 C 
BRANCH   9  19
ATOM     19  C   UNL A   1      34.069  24.191  24.278  1.00  0.00     0.037 C 
BRANCH  19  20
ATOM     20  C   UNL A   1      35.502  23.649  24.137  1.00  0.00     0.001 C 
ATOM     21  C   UNL A   1      35.605  22.127  24.199  1.00  0.00     0.004 C 
ENDBRANCH  19  20
ENDBRANCH   9  19
BRANCH  18  22
ATOM     22  C   UNL A   1      34.976  30.058  27.882  1.00  0.00     0.430 C 
ATOM     23  F   UNL A   1      35.576  29.314  28.832  1.00  0.00    -0.167 F 
ATOM     24  F   UNL A   1      35.830  30.079  26.824  1.00  0.00    -0.167 F 
ATOM     25  F   UNL A   1      34.882  31.331  28.328  1.00  0.00    -0.167 F 
ENDBRANCH  18  22
ENDBRANCH   6   8
ENDBRANCH   5   6
ENDBRANCH   4   5
ENDBRANCH   3   4
ENDBRANCH   2   3
ENDBRANCH   1   2
BRANCH   1  26
ATOM     26  C   UNL A   1      32.857  36.045  31.919  1.00  0.00     0.188 C 
BRANCH  26  27
ATOM     27  O   UNL A   1      32.888  34.838  32.632  1.00  0.00    -0.376 OA
BRANCH  27  28
ATOM     28  C   UNL A   1      34.058  34.428  33.315  1.00  0.00     0.202 C 
BRANCH  28  29
ATOM     29  C   UNL A   1      35.495  34.517  32.763  1.00  0.00     0.261 C 
BRANCH  29  30
ATOM     30  O   UNL A   1      35.765  33.964  31.475  1.00  0.00    -0.460 OA
BRANCH  30  31
ATOM     31  C   UNL A   1      35.641  32.616  31.356  1.00  0.00     0.338 C 
ATOM     32  O   UNL A   1      34.622  31.962  31.373  1.00  0.00    -0.246 OA
BRANCH  31  33
ATOM     33  C   UNL A   1      36.973  32.095  30.981  1.00  0.00     0.060 A 
ATOM     34  C   UNL A   1      37.759  31.442  31.930  1.00  0.00     0.016 A 
ATOM     35  C   UNL A   1      37.451  32.304  29.680  1.00  0.00     0.016 A 
ATOM     36  C   UNL A   1      39.026  30.981  31.569  1.00  0.00     0.010 A 
ATOM     37  C   UNL A   1      38.725  31.851  29.324  1.00  0.00     0.010 A 
ATOM     38  C   UNL A   1      39.513  31.171  30.262  1.00  0.00    -0.014 A 
BRANCH  38  39
ATOM     39  C   UNL A   1      40.772  30.499  29.857  1.00  0.00     0.031 A 
ATOM     40  C   UNL A   1      40.802  29.081  29.378  1.00  0.00     0.074 A 
ATOM     41  C   UNL A   1      41.907  31.220  29.906  1.00  0.00     0.049 A 
ATOM     42  N   UNL A   1      41.802  28.413  28.860  1.00  0.00    -0.248 NA
ATOM     43  C   UNL A   1      39.559  28.308  29.499  1.00  0.00     0.031 C 
ATOM     44  C   UNL A   1      42.000  32.597  30.393  1.00  0.00     0.029 A 
ATOM     45  N   UNL A   1      43.187  30.912  29.523  1.00  0.00    -0.354 N 
ATOM     46  C   UNL A   1      41.306  27.152  28.563  1.00  0.00     0.074 A 
ATOM     47  C   UNL A   1      39.928  27.129  29.015  1.00  0.00     0.031 C 
ATOM     48  C   UNL A   1      43.259  33.031  30.241  1.00  0.00     0.029 A 
ATOM     49  C   UNL A   1      44.066  31.958  29.667  1.00  0.00     0.049 A 
ATOM     50  H   UNL A   1      43.451  30.029  29.178  1.00  0.00     0.167 HD
ATOM     51  C   UNL A   1      41.940  26.124  27.948  1.00  0.00     0.037 A 
ATOM     52  C   UNL A   1      45.374  32.048  29.361  1.00  0.00     0.037 A 
ATOM     53  C   UNL A   1      43.317  26.155  27.517  1.00  0.00     0.049 A 
ATOM     54  C   UNL A   1      46.063  30.875  28.723  1.00  0.00     0.074 A 
ATOM     55  C   UNL A   1      44.030  25.177  26.844  1.00  0.00     0.029 A 
ATOM     56  N   UNL A   1      44.193  27.211  27.728  1.00  0.00    -0.354 N 
ATOM     57  N   UNL A   1      45.559  29.721  28.357  1.00  0.00    -0.248 NA
ATOM     58  C   UNL A   1      47.499  31.017  28.449  1.00  0.00     0.031 C 
ATOM     59  C   UNL A   1      45.350  25.615  26.703  1.00  0.00     0.029 A 
ATOM     60  C   UNL A   1      45.449  26.890  27.233  1.00  0.00     0.049 A 
ATOM     61  H   UNL A   1      43.958  28.062  28.165  1.00  0.00     0.167 HD
ATOM     62  C   UNL A   1      46.609  29.008  27.796  1.00  0.00     0.074 A 
ATOM     63  C   UNL A   1      47.774  29.867  27.847  1.00  0.00     0.031 C 
ATOM     64  C   UNL A   1      46.605  27.750  27.290  1.00  0.00     0.037 A 
BRANCH  51  65
ATOM     65  C   UNL A   1      41.156  24.871  27.678  1.00  0.00     0.064 A 
ATOM     66  C   UNL A   1      40.138  24.844  26.713  1.00  0.00     0.173 A 
ATOM     67  C   UNL A   1      41.494  23.662  28.306  1.00  0.00     0.173 A 
ATOM     68  F   UNL A   1      39.778  25.972  26.081  1.00  0.00    -0.203 F 
ATOM     69  C   UNL A   1      39.479  23.659  26.397  1.00  0.00     0.198 A 
ATOM     70  C   UNL A   1      40.851  22.473  27.967  1.00  0.00     0.198 A 
ATOM     71  F   UNL A   1      42.470  23.627  29.226  1.00  0.00    -0.203 F 
ATOM     72  F   UNL A   1      38.493  23.664  25.489  1.00  0.00    -0.200 F 
ATOM     73  C   UNL A   1      39.843  22.473  27.016  1.00  0.00     0.200 A 
ATOM     74  F   UNL A   1      41.219  21.324  28.553  1.00  0.00    -0.200 F 
ATOM     75  F   UNL A   1      39.223  21.329  26.694  1.00  0.00    -0.200 F 
ENDBRANCH  51  65
BRANCH  52  76
ATOM     76  C   UNL A   1      46.098  33.319  29.618  1.00  0.00     0.064 A 
ATOM     77  C   UNL A   1      46.846  33.496  30.789  1.00  0.00     0.173 A 
ATOM     78  C   UNL A   1      46.083  34.368  28.686  1.00  0.00     0.173 A 
ATOM     79  F   UNL A   1      46.879  32.529  31.716  1.00  0.00    -0.203 F 
ATOM     80  C   UNL A   1      47.545  34.680  31.023  1.00  0.00     0.198 A 
ATOM     81  C   UNL A   1      46.805  35.538  28.908  1.00  0.00     0.198 A 
ATOM     82  F   UNL A   1      45.386  34.245  27.546  1.00  0.00    -0.203 F 
ATOM     83  F   UNL A   1      48.224  34.838  32.167  1.00  0.00    -0.200 F 
ATOM     84  C   UNL A   1      47.531  35.695  30.078  1.00  0.00     0.200 A 
ATOM     85  F   UNL A   1      46.805  36.508  27.984  1.00  0.00    -0.200 F 
ATOM     86  F   UNL A   1      48.214  36.826  30.299  1.00  0.00    -0.200 F 
ENDBRANCH  52  76
BRANCH  64  87
ATOM     87  C   UNL A   1      47.900  27.213  26.748  1.00  0.00     0.064 A 
ATOM     88  C   UNL A   1      48.808  26.527  27.568  1.00  0.00     0.173 A 
ATOM     89  C   UNL A   1      48.198  27.312  25.380  1.00  0.00     0.173 A 
ATOM     90  F   UNL A   1      48.577  26.417  28.885  1.00  0.00    -0.203 F 
ATOM     91  C   UNL A   1      49.970  25.970  27.042  1.00  0.00     0.198 A 
ATOM     92  C   UNL A   1      49.346  26.727  24.852  1.00  0.00     0.198 A 
ATOM     93  F   UNL A   1      47.362  27.953  24.549  1.00  0.00    -0.203 F 
ATOM     94  F   UNL A   1      50.838  25.347  27.851  1.00  0.00    -0.200 F 
ATOM     95  C   UNL A   1      50.232  26.059  25.683  1.00  0.00     0.200 A 
ATOM     96  F   UNL A   1      49.589  26.798  23.535  1.00  0.00    -0.200 F 
ATOM     97  F   UNL A   1      51.340  25.502  25.175  1.00  0.00    -0.200 F 
ENDBRANCH  64  87
ENDBRANCH  38  39
ENDBRANCH  31  33
ENDBRANCH  30  31
ENDBRANCH  29  30
ENDBRANCH  28  29
ENDBRANCH  27  28
ENDBRANCH  26  27
ENDBRANCH   1  26
TORSDOF 20
ENDMDL
