MODEL 1
REMARK VINA RESULT:      -8.6      0.000      0.000
REMARK SMILES CC(=O)Nc1ccc(/N=C2\C(=O)N(c3ccc(NC(C)=O)cc3)[C@H](c3ccccc3)[C@H]2CC(=O)OCCOCCOCCOC(=O)c2ccc(-c3c4nc(c(-c5c(F)c(F)c(F)c(F)c5F)c5ccc([nH]5)c(-c5c(F)c(F)c(F)c(F)c5F)c5nc(c(-c6c(F)c(F)c(F)c(F)c6F)c6ccc3[nH]6)C=C5)C=C4)cc2)cc1
REMARK SMILES IDX 39 1 38 2 37 3 36 4 35 5 33 6 34 7 32 8 31 9 9 10 10 11
REMARK SMILES IDX 11 12 12 13 13 14 24 15 8 16 5 17 6 18 111 19 7 20 110 21
REMARK SMILES IDX 4 22 1 23 2 24 3 25 14 27 15 28 23 29 16 30 22 31 17 32
REMARK SMILES IDX 18 33 19 34 20 36 21 37 25 38 26 39 30 40 27 41 29 42 28 43
REMARK SMILES IDX 40 44 41 45 42 46 43 47 44 48 45 49 46 50 47 51 48 52 109 53
REMARK SMILES IDX 49 54 108 55 50 56 51 57 52 58 102 59 53 60 107 61 101 62
REMARK SMILES IDX 103 63 54 64 106 65 100 66 99 67 55 69 87 70 67 71 86 72
REMARK SMILES IDX 68 73 71 74 85 75 104 76 69 77 70 78 84 80 105 81 72 82
REMARK SMILES IDX 56 83 57 84 65 85 58 86 59 87 63 88 66 89 60 90 61 91 64 92
REMARK SMILES IDX 62 93 88 94 89 95 97 96 90 97 91 98 95 99 98 100 92 101
REMARK SMILES IDX 93 102 96 103 94 104 73 105 74 106 82 107 75 108 76 109
REMARK SMILES IDX 80 110 83 111 77 112 78 113 81 114 79 115
REMARK H PARENT 4 26 18 35 103 68 71 79
REMARK Flexibility Score: inf
ROOT
ATOM      1  C   UNL A   1      53.009  24.779  33.252  1.00  0.00     0.188 C 
ENDROOT
BRANCH   1   2
ATOM      2  O   UNL A   1      51.796  24.073  33.006  1.00  0.00    -0.376 OA
BRANCH   2   3
ATOM      3  C   UNL A   1      51.162  24.339  31.749  1.00  0.00     0.202 C 
BRANCH   3   4
ATOM      4  C   UNL A   1      49.839  25.103  31.862  1.00  0.00     0.261 C 
BRANCH   4   5
ATOM      5  O   UNL A   1      49.245  25.335  30.569  1.00  0.00    -0.463 OA
BRANCH   5   6
ATOM      6  C   UNL A   1      49.199  26.645  30.214  1.00  0.00     0.306 C 
ATOM      7  O   UNL A   1      50.076  27.236  29.594  1.00  0.00    -0.252 OA
BRANCH   6   8
ATOM      8  C   UNL A   1      47.870  27.289  30.539  1.00  0.00     0.135 C 
BRANCH   8   9
ATOM      9  C   UNL A   1      46.840  27.315  29.415  1.00  0.00     0.083 C 
ATOM     10  N   UNL A   1      45.674  29.414  29.824  1.00  0.00    -0.247 NA
ATOM     11  C   UNL A   1      46.435  28.719  29.034  1.00  0.00     0.112 C 
ATOM     12  C   UNL A   1      46.943  29.044  27.645  1.00  0.00     0.273 C 
ATOM     13  O   UNL A   1      46.918  30.141  27.128  1.00  0.00    -0.267 OA
ATOM     14  N   UNL A   1      47.440  27.867  27.126  1.00  0.00    -0.299 N 
ATOM     15  C   UNL A   1      47.418  26.762  28.077  1.00  0.00     0.131 C 
BRANCH  10  16
ATOM     16  C   UNL A   1      45.040  30.588  29.405  1.00  0.00     0.064 A 
ATOM     17  C   UNL A   1      43.785  33.050  28.849  1.00  0.00     0.041 A 
ATOM     18  C   UNL A   1      45.022  33.020  29.494  1.00  0.00     0.028 A 
ATOM     19  C   UNL A   1      43.246  31.856  28.371  1.00  0.00     0.028 A 
ATOM     20  C   UNL A   1      45.629  31.796  29.785  1.00  0.00     0.030 A 
ATOM     21  C   UNL A   1      43.893  30.636  28.615  1.00  0.00     0.030 A 
BRANCH  17  22
ATOM     22  N   UNL A   1      43.180  34.304  28.693  1.00  0.00    -0.326 N 
ATOM     23  C   UNL A   1      41.400  34.156  30.430  1.00  0.00     0.114 C 
ATOM     24  C   UNL A   1      42.060  34.838  29.263  1.00  0.00     0.221 C 
ATOM     25  O   UNL A   1      41.646  35.926  28.853  1.00  0.00    -0.275 OA
ATOM     26  H   UNL A   1      43.642  34.904  28.063  1.00  0.00     0.169 HD
ENDBRANCH  17  22
ENDBRANCH  10  16
BRANCH  14  27
ATOM     27  C   UNL A   1      48.074  27.826  25.859  1.00  0.00     0.045 A 
ATOM     28  C   UNL A   1      47.305  27.780  24.692  1.00  0.00     0.028 A 
ATOM     29  C   UNL A   1      49.457  27.684  25.745  1.00  0.00     0.028 A 
ATOM     30  C   UNL A   1      47.900  27.573  23.441  1.00  0.00     0.028 A 
ATOM     31  C   UNL A   1      50.050  27.445  24.499  1.00  0.00     0.028 A 
ATOM     32  C   UNL A   1      49.275  27.368  23.338  1.00  0.00     0.041 A 
BRANCH  32  33
ATOM     33  N   UNL A   1      49.936  27.013  22.145  1.00  0.00    -0.326 N 
ATOM     34  C   UNL A   1      49.363  26.568  20.969  1.00  0.00     0.221 C 
ATOM     35  H   UNL A   1      50.918  27.091  22.150  1.00  0.00     0.169 HD
ATOM     36  C   UNL A   1      50.381  26.087  19.963  1.00  0.00     0.114 C 
ATOM     37  O   UNL A   1      48.166  26.532  20.703  1.00  0.00    -0.275 OA
ENDBRANCH  32  33
ENDBRANCH  14  27
BRANCH  15  38
ATOM     38  C   UNL A   1      46.701  25.527  27.565  1.00  0.00    -0.024 A 
ATOM     39  C   UNL A   1      45.760  24.883  28.391  1.00  0.00     0.006 A 
ATOM     40  C   UNL A   1      47.035  24.935  26.338  1.00  0.00     0.006 A 
ATOM     41  C   UNL A   1      45.193  23.664  28.013  1.00  0.00     0.000 A 
ATOM     42  C   UNL A   1      46.473  23.711  25.969  1.00  0.00     0.000 A 
ATOM     43  C   UNL A   1      45.558  23.074  26.806  1.00  0.00     0.000 A 
ENDBRANCH  15  38
ENDBRANCH   8   9
ENDBRANCH   6   8
ENDBRANCH   5   6
ENDBRANCH   4   5
ENDBRANCH   3   4
ENDBRANCH   2   3
ENDBRANCH   1   2
BRANCH   1  44
ATOM     44  C   UNL A   1      53.055  25.532  34.586  1.00  0.00     0.188 C 
BRANCH  44  45
ATOM     45  O   UNL A   1      51.812  26.149  34.902  1.00  0.00    -0.376 OA
BRANCH  45  46
ATOM     46  C   UNL A   1      51.156  25.667  36.077  1.00  0.00     0.202 C 
BRANCH  46  47
ATOM     47  C   UNL A   1      49.673  25.306  35.901  1.00  0.00     0.261 C 
BRANCH  47  48
ATOM     48  O   UNL A   1      48.869  26.486  35.717  1.00  0.00    -0.460 OA
BRANCH  48  49
ATOM     49  C   UNL A   1      47.774  26.548  36.512  1.00  0.00     0.338 C 
ATOM     50  O   UNL A   1      47.756  26.523  37.731  1.00  0.00    -0.246 OA
BRANCH  49  51
ATOM     51  C   UNL A   1      46.609  26.902  35.676  1.00  0.00     0.060 A 
ATOM     52  C   UNL A   1      46.706  28.044  34.872  1.00  0.00     0.016 A 
ATOM     53  C   UNL A   1      45.453  26.117  35.652  1.00  0.00     0.016 A 
ATOM     54  C   UNL A   1      45.632  28.433  34.077  1.00  0.00     0.010 A 
ATOM     55  C   UNL A   1      44.373  26.510  34.861  1.00  0.00     0.010 A 
ATOM     56  C   UNL A   1      44.449  27.684  34.095  1.00  0.00    -0.014 A 
BRANCH  56  57
ATOM     57  C   UNL A   1      43.237  28.214  33.438  1.00  0.00     0.031 A 
ATOM     58  C   UNL A   1      42.956  27.809  32.020  1.00  0.00     0.074 A 
ATOM     59  C   UNL A   1      42.398  29.033  34.093  1.00  0.00     0.049 A 
ATOM     60  N   UNL A   1      41.988  28.185  31.227  1.00  0.00    -0.248 NA
ATOM     61  C   UNL A   1      43.891  26.844  31.419  1.00  0.00     0.031 C 
ATOM     62  C   UNL A   1      42.541  29.459  35.483  1.00  0.00     0.029 A 
ATOM     63  N   UNL A   1      41.252  29.651  33.663  1.00  0.00    -0.354 N 
ATOM     64  C   UNL A   1      42.195  27.505  30.037  1.00  0.00     0.074 A 
ATOM     65  C   UNL A   1      43.381  26.693  30.206  1.00  0.00     0.031 C 
ATOM     66  C   UNL A   1      41.521  30.281  35.792  1.00  0.00     0.029 A 
ATOM     67  C   UNL A   1      40.671  30.448  34.615  1.00  0.00     0.049 A 
ATOM     68  H   UNL A   1      40.883  29.534  32.758  1.00  0.00     0.167 HD
ATOM     69  C   UNL A   1      41.465  27.555  28.900  1.00  0.00     0.037 A 
ATOM     70  C   UNL A   1      39.584  31.238  34.531  1.00  0.00     0.037 A 
ATOM     71  C   UNL A   1      40.298  28.369  28.717  1.00  0.00     0.049 A 
ATOM     72  C   UNL A   1      38.829  31.330  33.235  1.00  0.00     0.074 A 
ATOM     73  C   UNL A   1      39.501  28.501  27.594  1.00  0.00     0.029 A 
ATOM     74  N   UNL A   1      39.766  29.199  29.690  1.00  0.00    -0.354 N 
ATOM     75  N   UNL A   1      39.043  30.698  32.108  1.00  0.00    -0.248 NA
ATOM     76  C   UNL A   1      37.691  32.261  33.196  1.00  0.00     0.031 C 
ATOM     77  C   UNL A   1      38.489  29.425  27.885  1.00  0.00     0.029 A 
ATOM     78  C   UNL A   1      38.656  29.858  29.192  1.00  0.00     0.049 A 
ATOM     79  H   UNL A   1      40.124  29.304  30.601  1.00  0.00     0.167 HD
ATOM     80  C   UNL A   1      38.071  31.151  31.227  1.00  0.00     0.074 A 
ATOM     81  C   UNL A   1      37.259  32.107  31.952  1.00  0.00     0.031 C 
ATOM     82  C   UNL A   1      37.871  30.808  29.932  1.00  0.00     0.037 A 
BRANCH  69  83
ATOM     83  C   UNL A   1      41.934  26.706  27.765  1.00  0.00     0.064 A 
ATOM     84  C   UNL A   1      41.410  25.423  27.561  1.00  0.00     0.173 A 
ATOM     85  C   UNL A   1      42.929  27.167  26.892  1.00  0.00     0.173 A 
ATOM     86  F   UNL A   1      40.475  24.935  28.390  1.00  0.00    -0.203 F 
ATOM     87  C   UNL A   1      41.873  24.623  26.521  1.00  0.00     0.198 A 
ATOM     88  C   UNL A   1      43.386  26.366  25.851  1.00  0.00     0.198 A 
ATOM     89  F   UNL A   1      43.469  28.381  27.067  1.00  0.00    -0.203 F 
ATOM     90  F   UNL A   1      41.382  23.388  26.355  1.00  0.00    -0.200 F 
ATOM     91  C   UNL A   1      42.860  25.096  25.667  1.00  0.00     0.200 A 
ATOM     92  F   UNL A   1      44.349  26.817  25.035  1.00  0.00    -0.200 F 
ATOM     93  F   UNL A   1      43.317  24.318  24.675  1.00  0.00    -0.200 F 
ENDBRANCH  69  83
BRANCH  70  94
ATOM     94  C   UNL A   1      39.155  32.025  35.709  1.00  0.00     0.064 A 
ATOM     95  C   UNL A   1      38.293  31.474  36.665  1.00  0.00     0.173 A 
ATOM     96  C   UNL A   1      39.593  33.344  35.894  1.00  0.00     0.173 A 
ATOM     97  F   UNL A   1      37.836  30.223  36.512  1.00  0.00    -0.203 F 
ATOM     98  C   UNL A   1      37.880  32.218  37.767  1.00  0.00     0.198 A 
ATOM     99  C   UNL A   1      39.184  34.083  37.001  1.00  0.00     0.198 A 
ATOM    100  F   UNL A   1      40.411  33.910  34.996  1.00  0.00    -0.203 F 
ATOM    101  F   UNL A   1      37.038  31.678  38.659  1.00  0.00    -0.200 F 
ATOM    102  C   UNL A   1      38.327  33.520  37.935  1.00  0.00     0.200 A 
ATOM    103  F   UNL A   1      39.617  35.341  37.160  1.00  0.00    -0.200 F 
ATOM    104  F   UNL A   1      37.924  34.237  38.994  1.00  0.00    -0.200 F 
ENDBRANCH  70  94
BRANCH  82 105
ATOM    105  C   UNL A   1      36.738  31.471  29.220  1.00  0.00     0.064 A 
ATOM    106  C   UNL A   1      35.584  30.752  28.881  1.00  0.00     0.173 A 
ATOM    107  C   UNL A   1      36.783  32.839  28.922  1.00  0.00     0.173 A 
ATOM    108  F   UNL A   1      35.507  29.438  29.139  1.00  0.00    -0.203 F 
ATOM    109  C   UNL A   1      34.510  31.384  28.262  1.00  0.00     0.198 A 
ATOM    110  C   UNL A   1      35.704  33.469  28.308  1.00  0.00     0.198 A 
ATOM    111  F   UNL A   1      37.870  33.562  29.227  1.00  0.00    -0.203 F 
ATOM    112  F   UNL A   1      33.419  30.679  27.933  1.00  0.00    -0.200 F 
ATOM    113  C   UNL A   1      34.569  32.741  27.980  1.00  0.00     0.200 A 
ATOM    114  F   UNL A   1      35.761  34.780  28.033  1.00  0.00    -0.200 F 
ATOM    115  F   UNL A   1      33.533  33.348  27.385  1.00  0.00    -0.200 F 
ENDBRANCH  82 105
ENDBRANCH  56  57
ENDBRANCH  49  51
ENDBRANCH  48  49
ENDBRANCH  47  48
ENDBRANCH  46  47
ENDBRANCH  45  46
ENDBRANCH  44  45
ENDBRANCH   1  44
TORSDOF 23
ENDMDL
MODEL 2
REMARK VINA RESULT:      -8.0      5.408     12.638
REMARK SMILES CC(=O)Nc1ccc(/N=C2\C(=O)N(c3ccc(NC(C)=O)cc3)[C@H](c3ccccc3)[C@H]2CC(=O)OCCOCCOCCOC(=O)c2ccc(-c3c4nc(c(-c5c(F)c(F)c(F)c(F)c5F)c5ccc([nH]5)c(-c5c(F)c(F)c(F)c(F)c5F)c5nc(c(-c6c(F)c(F)c(F)c(F)c6F)c6ccc3[nH]6)C=C5)C=C4)cc2)cc1
REMARK SMILES IDX 39 1 38 2 37 3 36 4 35 5 33 6 34 7 32 8 31 9 9 10 10 11
REMARK SMILES IDX 11 12 12 13 13 14 24 15 8 16 5 17 6 18 111 19 7 20 110 21
REMARK SMILES IDX 4 22 1 23 2 24 3 25 14 27 15 28 23 29 16 30 22 31 17 32
REMARK SMILES IDX 18 33 19 34 20 36 21 37 25 38 26 39 30 40 27 41 29 42 28 43
REMARK SMILES IDX 40 44 41 45 42 46 43 47 44 48 45 49 46 50 47 51 48 52 109 53
REMARK SMILES IDX 49 54 108 55 50 56 51 57 52 58 102 59 53 60 107 61 101 62
REMARK SMILES IDX 103 63 54 64 106 65 100 66 99 67 55 69 87 70 67 71 86 72
REMARK SMILES IDX 68 73 71 74 85 75 104 76 69 77 70 78 84 80 105 81 72 82
REMARK SMILES IDX 56 83 57 84 65 85 58 86 59 87 63 88 66 89 60 90 61 91 64 92
REMARK SMILES IDX 62 93 88 94 89 95 97 96 90 97 91 98 95 99 98 100 92 101
REMARK SMILES IDX 93 102 96 103 94 104 73 105 74 106 82 107 75 108 76 109
REMARK SMILES IDX 80 110 83 111 77 112 78 113 81 114 79 115
REMARK H PARENT 4 26 18 35 103 68 71 79
REMARK Flexibility Score: inf
ROOT
ATOM      1  C   UNL A   1      40.648  29.353  29.808  1.00  0.00     0.188 C 
ENDROOT
BRANCH   1   2
ATOM      2  O   UNL A   1      42.001  29.405  30.253  1.00  0.00    -0.376 OA
BRANCH   2   3
ATOM      3  C   UNL A   1      42.977  28.878  29.346  1.00  0.00     0.202 C 
BRANCH   3   4
ATOM      4  C   UNL A   1      42.645  29.098  27.867  1.00  0.00     0.261 C 
BRANCH   4   5
ATOM      5  O   UNL A   1      42.571  27.852  27.146  1.00  0.00    -0.463 OA
BRANCH   5   6
ATOM      6  C   UNL A   1      43.570  27.681  26.242  1.00  0.00     0.306 C 
ATOM      7  O   UNL A   1      43.536  28.064  25.078  1.00  0.00    -0.252 OA
BRANCH   6   8
ATOM      8  C   UNL A   1      44.817  27.087  26.859  1.00  0.00     0.135 C 
BRANCH   8   9
ATOM      9  C   UNL A   1      44.716  25.636  27.320  1.00  0.00     0.083 C 
ATOM     10  N   UNL A   1      44.860  25.848  29.741  1.00  0.00    -0.247 NA
ATOM     11  C   UNL A   1      44.145  25.511  28.711  1.00  0.00     0.112 C 
ATOM     12  C   UNL A   1      42.777  24.864  28.651  1.00  0.00     0.273 C 
ATOM     13  O   UNL A   1      42.001  24.775  29.580  1.00  0.00    -0.267 OA
ATOM     14  N   UNL A   1      42.605  24.435  27.352  1.00  0.00    -0.299 N 
ATOM     15  C   UNL A   1      43.698  24.820  26.468  1.00  0.00     0.131 C 
BRANCH  10  16
ATOM     16  C   UNL A   1      44.502  25.491  31.046  1.00  0.00     0.064 A 
ATOM     17  C   UNL A   1      43.974  24.987  33.768  1.00  0.00     0.041 A 
ATOM     18  C   UNL A   1      43.872  26.282  33.259  1.00  0.00     0.028 A 
ATOM     19  C   UNL A   1      44.212  23.933  32.885  1.00  0.00     0.028 A 
ATOM     20  C   UNL A   1      44.154  26.528  31.913  1.00  0.00     0.030 A 
ATOM     21  C   UNL A   1      44.435  24.184  31.524  1.00  0.00     0.030 A 
BRANCH  17  22
ATOM     22  N   UNL A   1      43.790  24.829  35.148  1.00  0.00    -0.326 N 
ATOM     23  C   UNL A   1      41.380  25.430  35.345  1.00  0.00     0.114 C 
ATOM     24  C   UNL A   1      42.719  25.105  35.949  1.00  0.00     0.221 C 
ATOM     25  O   UNL A   1      42.851  25.010  37.172  1.00  0.00    -0.275 OA
ATOM     26  H   UNL A   1      44.567  24.455  35.623  1.00  0.00     0.169 HD
ENDBRANCH  17  22
ENDBRANCH  10  16
BRANCH  14  27
ATOM     27  C   UNL A   1      41.388  23.851  26.920  1.00  0.00     0.045 A 
ATOM     28  C   UNL A   1      40.257  24.652  26.731  1.00  0.00     0.028 A 
ATOM     29  C   UNL A   1      41.244  22.468  26.815  1.00  0.00     0.028 A 
ATOM     30  C   UNL A   1      39.004  24.083  26.466  1.00  0.00     0.028 A 
ATOM     31  C   UNL A   1      39.986  21.896  26.582  1.00  0.00     0.028 A 
ATOM     32  C   UNL A   1      38.851  22.698  26.425  1.00  0.00     0.041 A 
BRANCH  32  33
ATOM     33  N   UNL A   1      37.610  22.041  26.307  1.00  0.00    -0.326 N 
ATOM     34  C   UNL A   1      36.821  21.934  25.178  1.00  0.00     0.221 C 
ATOM     35  H   UNL A   1      37.266  21.608  27.122  1.00  0.00     0.169 HD
ATOM     36  C   UNL A   1      35.464  21.337  25.462  1.00  0.00     0.114 C 
ATOM     37  O   UNL A   1      37.121  22.274  24.038  1.00  0.00    -0.275 OA
ENDBRANCH  32  33
ENDBRANCH  14  27
BRANCH  15  38
ATOM     38  C   UNL A   1      44.321  23.656  25.720  1.00  0.00    -0.024 A 
ATOM     39  C   UNL A   1      45.196  22.787  26.400  1.00  0.00     0.006 A 
ATOM     40  C   UNL A   1      44.145  23.487  24.339  1.00  0.00     0.006 A 
ATOM     41  C   UNL A   1      45.900  21.799  25.710  1.00  0.00     0.000 A 
ATOM     42  C   UNL A   1      44.860  22.503  23.652  1.00  0.00     0.000 A 
ATOM     43  C   UNL A   1      45.738  21.664  24.334  1.00  0.00     0.000 A 
ENDBRANCH  15  38
ENDBRANCH   8   9
ENDBRANCH   6   8
ENDBRANCH   5   6
ENDBRANCH   4   5
ENDBRANCH   3   4
ENDBRANCH   2   3
ENDBRANCH   1   2
BRANCH   1  44
ATOM     44  C   UNL A   1      39.904  30.691  29.851  1.00  0.00     0.188 C 
BRANCH  44  45
ATOM     45  O   UNL A   1      40.793  31.804  29.863  1.00  0.00    -0.376 OA
BRANCH  45  46
ATOM     46  C   UNL A   1      40.336  32.961  30.567  1.00  0.00     0.202 C 
BRANCH  46  47
ATOM     47  C   UNL A   1      41.141  34.246  30.313  1.00  0.00     0.261 C 
BRANCH  47  48
ATOM     48  O   UNL A   1      42.529  34.063  30.648  1.00  0.00    -0.460 OA
BRANCH  48  49
ATOM     49  C   UNL A   1      42.803  34.149  31.972  1.00  0.00     0.338 C 
ATOM     50  O   UNL A   1      42.314  34.933  32.768  1.00  0.00    -0.246 OA
BRANCH  49  51
ATOM     51  C   UNL A   1      43.610  32.974  32.360  1.00  0.00     0.060 A 
ATOM     52  C   UNL A   1      44.990  33.152  32.511  1.00  0.00     0.016 A 
ATOM     53  C   UNL A   1      43.027  31.728  32.602  1.00  0.00     0.016 A 
ATOM     54  C   UNL A   1      45.800  32.075  32.860  1.00  0.00     0.010 A 
ATOM     55  C   UNL A   1      43.839  30.646  32.945  1.00  0.00     0.010 A 
ATOM     56  C   UNL A   1      45.229  30.810  33.045  1.00  0.00    -0.014 A 
BRANCH  56  57
ATOM     57  C   UNL A   1      46.102  29.627  33.187  1.00  0.00     0.031 A 
ATOM     58  C   UNL A   1      46.361  29.089  34.564  1.00  0.00     0.074 A 
ATOM     59  C   UNL A   1      46.648  29.038  32.110  1.00  0.00     0.049 A 
ATOM     60  N   UNL A   1      47.129  28.099  34.936  1.00  0.00    -0.248 NA
ATOM     61  C   UNL A   1      45.652  29.754  35.669  1.00  0.00     0.031 C 
ATOM     62  C   UNL A   1      46.434  29.442  30.722  1.00  0.00     0.029 A 
ATOM     63  N   UNL A   1      47.499  27.966  32.026  1.00  0.00    -0.354 N 
ATOM     64  C   UNL A   1      46.995  28.022  36.314  1.00  0.00     0.074 A 
ATOM     65  C   UNL A   1      46.075  29.064  36.717  1.00  0.00     0.031 C 
ATOM     66  C   UNL A   1      47.145  28.629  29.920  1.00  0.00     0.029 A 
ATOM     67  C   UNL A   1      47.874  27.665  30.743  1.00  0.00     0.049 A 
ATOM     68  H   UNL A   1      47.810  27.461  32.811  1.00  0.00     0.167 HD
ATOM     69  C   UNL A   1      47.590  27.160  37.171  1.00  0.00     0.037 A 
ATOM     70  C   UNL A   1      48.728  26.728  30.291  1.00  0.00     0.037 A 
ATOM     71  C   UNL A   1      48.516  26.135  36.784  1.00  0.00     0.049 A 
ATOM     72  C   UNL A   1      49.430  25.828  31.269  1.00  0.00     0.074 A 
ATOM     73  C   UNL A   1      49.185  25.225  37.582  1.00  0.00     0.029 A 
ATOM     74  N   UNL A   1      48.907  25.892  35.477  1.00  0.00    -0.354 N 
ATOM     75  N   UNL A   1      49.313  25.774  32.573  1.00  0.00    -0.248 NA
ATOM     76  C   UNL A   1      50.397  24.871  30.712  1.00  0.00     0.031 C 
ATOM     77  C   UNL A   1      49.995  24.435  36.756  1.00  0.00     0.029 A 
ATOM     78  C   UNL A   1      49.819  24.852  35.445  1.00  0.00     0.049 A 
ATOM     79  H   UNL A   1      48.584  26.384  34.689  1.00  0.00     0.167 HD
ATOM     80  C   UNL A   1      50.187  24.781  32.992  1.00  0.00     0.074 A 
ATOM     81  C   UNL A   1      50.824  24.252  31.804  1.00  0.00     0.031 C 
ATOM     82  C   UNL A   1      50.441  24.350  34.250  1.00  0.00     0.037 A 
BRANCH  69  83
ATOM     83  C   UNL A   1      47.255  27.318  38.617  1.00  0.00     0.064 A 
ATOM     84  C   UNL A   1      48.057  28.097  39.461  1.00  0.00     0.173 A 
ATOM     85  C   UNL A   1      46.140  26.670  39.166  1.00  0.00     0.173 A 
ATOM     86  F   UNL A   1      49.147  28.712  38.979  1.00  0.00    -0.203 F 
ATOM     87  C   UNL A   1      47.758  28.215  40.815  1.00  0.00     0.198 A 
ATOM     88  C   UNL A   1      45.843  26.795  40.519  1.00  0.00     0.198 A 
ATOM     89  F   UNL A   1      45.360  25.901  38.394  1.00  0.00    -0.203 F 
ATOM     90  F   UNL A   1      48.551  28.941  41.615  1.00  0.00    -0.200 F 
ATOM     91  C   UNL A   1      46.651  27.564  41.343  1.00  0.00     0.200 A 
ATOM     92  F   UNL A   1      44.781  26.155  41.031  1.00  0.00    -0.200 F 
ATOM     93  F   UNL A   1      46.374  27.667  42.650  1.00  0.00    -0.200 F 
ENDBRANCH  69  83
BRANCH  70  94
ATOM     94  C   UNL A   1      48.984  26.605  28.838  1.00  0.00     0.064 A 
ATOM     95  C   UNL A   1      49.902  27.446  28.199  1.00  0.00     0.173 A 
ATOM     96  C   UNL A   1      48.311  25.649  28.065  1.00  0.00     0.173 A 
ATOM     97  F   UNL A   1      50.550  28.387  28.901  1.00  0.00    -0.203 F 
ATOM     98  C   UNL A   1      50.135  27.340  26.830  1.00  0.00     0.198 A 
ATOM     99  C   UNL A   1      48.552  25.539  26.698  1.00  0.00     0.198 A 
ATOM    100  F   UNL A   1      47.418  24.831  28.639  1.00  0.00    -0.203 F 
ATOM    101  F   UNL A   1      51.003  28.170  26.234  1.00  0.00    -0.200 F 
ATOM    102  C   UNL A   1      49.462  26.385  26.081  1.00  0.00     0.200 A 
ATOM    103  F   UNL A   1      47.899  24.617  25.977  1.00  0.00    -0.200 F 
ATOM    104  F   UNL A   1      49.684  26.287  24.763  1.00  0.00    -0.200 F 
ENDBRANCH  70  94
BRANCH  82 105
ATOM    105  C   UNL A   1      51.450  23.258  34.404  1.00  0.00     0.064 A 
ATOM    106  C   UNL A   1      52.786  23.553  34.708  1.00  0.00     0.173 A 
ATOM    107  C   UNL A   1      51.071  21.913  34.300  1.00  0.00     0.173 A 
ATOM    108  F   UNL A   1      53.190  24.828  34.805  1.00  0.00    -0.203 F 
ATOM    109  C   UNL A   1      53.713  22.534  34.900  1.00  0.00     0.198 A 
ATOM    110  C   UNL A   1      52.000  20.896  34.499  1.00  0.00     0.198 A 
ATOM    111  F   UNL A   1      49.803  21.590  34.008  1.00  0.00    -0.203 F 
ATOM    112  F   UNL A   1      54.989  22.833  35.177  1.00  0.00    -0.200 F 
ATOM    113  C   UNL A   1      53.318  21.207  34.799  1.00  0.00     0.200 A 
ATOM    114  F   UNL A   1      51.620  19.614  34.399  1.00  0.00    -0.200 F 
ATOM    115  F   UNL A   1      54.212  20.226  34.986  1.00  0.00    -0.200 F 
ENDBRANCH  82 105
ENDBRANCH  56  57
ENDBRANCH  49  51
ENDBRANCH  48  49
ENDBRANCH  47  48
ENDBRANCH  46  47
ENDBRANCH  45  46
ENDBRANCH  44  45
ENDBRANCH   1  44
TORSDOF 23
ENDMDL
MODEL 3
REMARK VINA RESULT:      -7.8      4.324      9.105
REMARK SMILES CC(=O)Nc1ccc(/N=C2\C(=O)N(c3ccc(NC(C)=O)cc3)[C@H](c3ccccc3)[C@H]2CC(=O)OCCOCCOCCOC(=O)c2ccc(-c3c4nc(c(-c5c(F)c(F)c(F)c(F)c5F)c5ccc([nH]5)c(-c5c(F)c(F)c(F)c(F)c5F)c5nc(c(-c6c(F)c(F)c(F)c(F)c6F)c6ccc3[nH]6)C=C5)C=C4)cc2)cc1
REMARK SMILES IDX 39 1 38 2 37 3 36 4 35 5 33 6 34 7 32 8 31 9 9 10 10 11
REMARK SMILES IDX 11 12 12 13 13 14 24 15 8 16 5 17 6 18 111 19 7 20 110 21
REMARK SMILES IDX 4 22 1 23 2 24 3 25 14 27 15 28 23 29 16 30 22 31 17 32
REMARK SMILES IDX 18 33 19 34 20 36 21 37 25 38 26 39 30 40 27 41 29 42 28 43
REMARK SMILES IDX 40 44 41 45 42 46 43 47 44 48 45 49 46 50 47 51 48 52 109 53
REMARK SMILES IDX 49 54 108 55 50 56 51 57 52 58 102 59 53 60 107 61 101 62
REMARK SMILES IDX 103 63 54 64 106 65 100 66 99 67 55 69 87 70 67 71 86 72
REMARK SMILES IDX 68 73 71 74 85 75 104 76 69 77 70 78 84 80 105 81 72 82
REMARK SMILES IDX 56 83 57 84 65 85 58 86 59 87 63 88 66 89 60 90 61 91 64 92
REMARK SMILES IDX 62 93 88 94 89 95 97 96 90 97 91 98 95 99 98 100 92 101
REMARK SMILES IDX 93 102 96 103 94 104 73 105 74 106 82 107 75 108 76 109
REMARK SMILES IDX 80 110 83 111 77 112 78 113 81 114 79 115
REMARK H PARENT 4 26 18 35 103 68 71 79
REMARK Flexibility Score: inf
ROOT
ATOM      1  C   UNL A   1      51.328  25.355  35.189  1.00  0.00     0.188 C 
ENDROOT
BRANCH   1   2
ATOM      2  O   UNL A   1      51.273  23.957  34.923  1.00  0.00    -0.376 OA
BRANCH   2   3
ATOM      3  C   UNL A   1      50.636  23.579  33.697  1.00  0.00     0.202 C 
BRANCH   3   4
ATOM      4  C   UNL A   1      50.793  22.098  33.337  1.00  0.00     0.261 C 
BRANCH   4   5
ATOM      5  O   UNL A   1      49.708  21.305  33.859  1.00  0.00    -0.463 OA
BRANCH   5   6
ATOM      6  C   UNL A   1      50.076  20.464  34.860  1.00  0.00     0.306 C 
ATOM      7  O   UNL A   1      50.766  19.461  34.716  1.00  0.00    -0.252 OA
BRANCH   6   8
ATOM      8  C   UNL A   1      49.666  20.969  36.225  1.00  0.00     0.135 C 
BRANCH   8   9
ATOM      9  C   UNL A   1      48.168  20.985  36.517  1.00  0.00     0.083 C 
ATOM     10  N   UNL A   1      47.956  19.287  38.249  1.00  0.00    -0.247 NA
ATOM     11  C   UNL A   1      47.849  20.539  37.923  1.00  0.00     0.112 C 
ATOM     12  C   UNL A   1      47.318  21.707  38.728  1.00  0.00     0.273 C 
ATOM     13  O   UNL A   1      47.127  21.705  39.925  1.00  0.00    -0.267 OA
ATOM     14  N   UNL A   1      47.128  22.742  37.835  1.00  0.00    -0.299 N 
ATOM     15  C   UNL A   1      47.581  22.429  36.485  1.00  0.00     0.131 C 
BRANCH  10  16
ATOM     16  C   UNL A   1      47.409  18.775  39.430  1.00  0.00     0.064 A 
ATOM     17  C   UNL A   1      46.062  17.914  41.752  1.00  0.00     0.041 A 
ATOM     18  C   UNL A   1      45.443  17.826  40.504  1.00  0.00     0.028 A 
ATOM     19  C   UNL A   1      47.398  18.311  41.813  1.00  0.00     0.028 A 
ATOM     20  C   UNL A   1      46.108  18.273  39.361  1.00  0.00     0.030 A 
ATOM     21  C   UNL A   1      48.078  18.701  40.650  1.00  0.00     0.030 A 
BRANCH  17  22
ATOM     22  N   UNL A   1      45.296  17.556  42.869  1.00  0.00    -0.326 N 
ATOM     23  C   UNL A   1      46.707  15.728  43.806  1.00  0.00     0.114 C 
ATOM     24  C   UNL A   1      45.439  16.538  43.768  1.00  0.00     0.221 C 
ATOM     25  O   UNL A   1      44.544  16.345  44.594  1.00  0.00    -0.275 OA
ATOM     26  H   UNL A   1      44.521  18.140  43.035  1.00  0.00     0.169 HD
ENDBRANCH  17  22
ENDBRANCH  10  16
BRANCH  14  27
ATOM     27  C   UNL A   1      46.712  24.026  38.267  1.00  0.00     0.045 A 
ATOM     28  C   UNL A   1      47.664  24.987  38.622  1.00  0.00     0.028 A 
ATOM     29  C   UNL A   1      45.366  24.315  38.489  1.00  0.00     0.028 A 
ATOM     30  C   UNL A   1      47.283  26.201  39.207  1.00  0.00     0.028 A 
ATOM     31  C   UNL A   1      44.985  25.515  39.104  1.00  0.00     0.028 A 
ATOM     32  C   UNL A   1      45.942  26.461  39.486  1.00  0.00     0.041 A 
BRANCH  32  33
ATOM     33  N   UNL A   1      45.485  27.587  40.198  1.00  0.00    -0.326 N 
ATOM     34  C   UNL A   1      45.640  27.848  41.546  1.00  0.00     0.221 C 
ATOM     35  H   UNL A   1      44.998  28.266  39.676  1.00  0.00     0.169 HD
ATOM     36  C   UNL A   1      44.849  29.047  42.010  1.00  0.00     0.114 C 
ATOM     37  O   UNL A   1      46.324  27.213  42.343  1.00  0.00    -0.275 OA
ENDBRANCH  32  33
ENDBRANCH  14  27
BRANCH  15  38
ATOM     38  C   UNL A   1      46.520  22.633  35.420  1.00  0.00    -0.024 A 
ATOM     39  C   UNL A   1      46.707  23.628  34.441  1.00  0.00     0.006 A 
ATOM     40  C   UNL A   1      45.300  21.941  35.450  1.00  0.00     0.006 A 
ATOM     41  C   UNL A   1      45.689  23.944  33.540  1.00  0.00     0.000 A 
ATOM     42  C   UNL A   1      44.281  22.268  34.552  1.00  0.00     0.000 A 
ATOM     43  C   UNL A   1      44.473  23.269  33.602  1.00  0.00     0.000 A 
ENDBRANCH  15  38
ENDBRANCH   8   9
ENDBRANCH   6   8
ENDBRANCH   5   6
ENDBRANCH   4   5
ENDBRANCH   3   4
ENDBRANCH   2   3
ENDBRANCH   1   2
BRANCH   1  44
ATOM     44  C   UNL A   1      52.618  26.046  34.735  1.00  0.00     0.188 C 
BRANCH  44  45
ATOM     45  O   UNL A   1      52.896  27.223  35.489  1.00  0.00    -0.376 OA
BRANCH  45  46
ATOM     46  C   UNL A   1      51.892  27.615  36.427  1.00  0.00     0.202 C 
BRANCH  46  47
ATOM     47  C   UNL A   1      51.074  28.856  36.035  1.00  0.00     0.261 C 
BRANCH  47  48
ATOM     48  O   UNL A   1      49.863  28.485  35.350  1.00  0.00    -0.460 OA
BRANCH  48  49
ATOM     49  C   UNL A   1      48.801  28.275  36.165  1.00  0.00     0.338 C 
ATOM     50  O   UNL A   1      48.820  28.195  37.382  1.00  0.00    -0.246 OA
BRANCH  49  51
ATOM     51  C   UNL A   1      47.566  28.405  35.365  1.00  0.00     0.060 A 
ATOM     52  C   UNL A   1      47.506  29.436  34.420  1.00  0.00     0.016 A 
ATOM     53  C   UNL A   1      46.496  27.519  35.513  1.00  0.00     0.016 A 
ATOM     54  C   UNL A   1      46.360  29.614  33.651  1.00  0.00     0.010 A 
ATOM     55  C   UNL A   1      45.343  27.701  34.748  1.00  0.00     0.010 A 
ATOM     56  C   UNL A   1      45.262  28.766  33.838  1.00  0.00    -0.014 A 
BRANCH  56  57
ATOM     57  C   UNL A   1      43.971  29.088  33.196  1.00  0.00     0.031 A 
ATOM     58  C   UNL A   1      43.722  28.594  31.800  1.00  0.00     0.074 A 
ATOM     59  C   UNL A   1      43.035  29.799  33.845  1.00  0.00     0.049 A 
ATOM     60  N   UNL A   1      42.691  28.795  31.022  1.00  0.00    -0.248 NA
ATOM     61  C   UNL A   1      44.775  27.754  31.207  1.00  0.00     0.031 C 
ATOM     62  C   UNL A   1      43.144  30.294  35.216  1.00  0.00     0.029 A 
ATOM     63  N   UNL A   1      41.802  30.228  33.426  1.00  0.00    -0.354 N 
ATOM     64  C   UNL A   1      42.971  28.109  29.850  1.00  0.00     0.074 A 
ATOM     65  C   UNL A   1      44.266  27.485  30.014  1.00  0.00     0.031 C 
ATOM     66  C   UNL A   1      42.022  30.968  35.524  1.00  0.00     0.029 A 
ATOM     67  C   UNL A   1      41.131  30.966  34.365  1.00  0.00     0.049 A 
ATOM     68  H   UNL A   1      41.434  30.024  32.536  1.00  0.00     0.167 HD
ATOM     69  C   UNL A   1      42.216  28.009  28.732  1.00  0.00     0.037 A 
ATOM     70  C   UNL A   1      39.938  31.584  34.285  1.00  0.00     0.037 A 
ATOM     71  C   UNL A   1      40.939  28.637  28.553  1.00  0.00     0.049 A 
ATOM     72  C   UNL A   1      39.149  31.518  33.007  1.00  0.00     0.074 A 
ATOM     73  C   UNL A   1      40.106  28.609  27.449  1.00  0.00     0.029 A 
ATOM     74  N   UNL A   1      40.312  29.416  29.512  1.00  0.00    -0.354 N 
ATOM     75  N   UNL A   1      39.429  30.881  31.897  1.00  0.00    -0.248 NA
ATOM     76  C   UNL A   1      37.887  32.270  32.968  1.00  0.00     0.031 C 
ATOM     77  C   UNL A   1      38.976  29.386  27.736  1.00  0.00     0.029 A 
ATOM     78  C   UNL A   1      39.107  29.886  29.022  1.00  0.00     0.049 A 
ATOM     79  H   UNL A   1      40.670  29.606  30.409  1.00  0.00     0.167 HD
ATOM     80  C   UNL A   1      38.382  31.154  31.028  1.00  0.00     0.074 A 
ATOM     81  C   UNL A   1      37.455  32.008  31.742  1.00  0.00     0.031 C 
ATOM     82  C   UNL A   1      38.207  30.738  29.751  1.00  0.00     0.037 A 
BRANCH  69  83
ATOM     83  C   UNL A   1      42.780  27.196  27.614  1.00  0.00     0.064 A 
ATOM     84  C   UNL A   1      42.490  25.830  27.499  1.00  0.00     0.173 A 
ATOM     85  C   UNL A   1      43.633  27.779  26.668  1.00  0.00     0.173 A 
ATOM     86  F   UNL A   1      41.698  25.230  28.400  1.00  0.00    -0.203 F 
ATOM     87  C   UNL A   1      43.043  25.070  26.474  1.00  0.00     0.198 A 
ATOM     88  C   UNL A   1      44.181  27.016  25.642  1.00  0.00     0.198 A 
ATOM     89  F   UNL A   1      43.951  29.078  26.756  1.00  0.00    -0.203 F 
ATOM     90  F   UNL A   1      42.778  23.759  26.393  1.00  0.00    -0.200 F 
ATOM     91  C   UNL A   1      43.888  25.664  25.546  1.00  0.00     0.200 A 
ATOM     92  F   UNL A   1      45.008  27.586  24.754  1.00  0.00    -0.200 F 
ATOM     93  F   UNL A   1      44.433  24.926  24.568  1.00  0.00    -0.200 F 
ENDBRANCH  69  83
BRANCH  70  94
ATOM     94  C   UNL A   1      39.423  32.344  35.447  1.00  0.00     0.064 A 
ATOM     95  C   UNL A   1      39.746  33.695  35.621  1.00  0.00     0.173 A 
ATOM     96  C   UNL A   1      38.607  31.729  36.407  1.00  0.00     0.173 A 
ATOM     97  F   UNL A   1      40.542  34.312  34.735  1.00  0.00    -0.203 F 
ATOM     98  C   UNL A   1      39.272  34.407  36.720  1.00  0.00     0.198 A 
ATOM     99  C   UNL A   1      38.128  32.445  37.500  1.00  0.00     0.198 A 
ATOM    100  F   UNL A   1      38.283  30.435  36.280  1.00  0.00    -0.203 F 
ATOM    101  F   UNL A   1      39.611  35.694  36.878  1.00  0.00    -0.200 F 
ATOM    102  C   UNL A   1      38.462  33.782  37.657  1.00  0.00     0.200 A 
ATOM    103  F   UNL A   1      37.347  31.839  38.405  1.00  0.00    -0.200 F 
ATOM    104  F   UNL A   1      38.011  34.468  38.717  1.00  0.00    -0.200 F 
ENDBRANCH  70  94
BRANCH  82 105
ATOM    105  C   UNL A   1      36.973  31.202  29.048  1.00  0.00     0.064 A 
ATOM    106  C   UNL A   1      35.893  30.333  28.844  1.00  0.00     0.173 A 
ATOM    107  C   UNL A   1      36.848  32.531  28.623  1.00  0.00     0.173 A 
ATOM    108  F   UNL A   1      35.978  29.050  29.226  1.00  0.00    -0.203 F 
ATOM    109  C   UNL A   1      34.726  30.780  28.233  1.00  0.00     0.198 A 
ATOM    110  C   UNL A   1      35.677  32.977  28.018  1.00  0.00     0.198 A 
ATOM    111  F   UNL A   1      37.860  33.394  28.797  1.00  0.00    -0.203 F 
ATOM    112  F   UNL A   1      33.708  29.932  28.034  1.00  0.00    -0.200 F 
ATOM    113  C   UNL A   1      34.618  32.102  27.824  1.00  0.00     0.200 A 
ATOM    114  F   UNL A   1      35.572  34.253  27.621  1.00  0.00    -0.200 F 
ATOM    115  F   UNL A   1      33.492  32.532  27.237  1.00  0.00    -0.200 F 
ENDBRANCH  82 105
ENDBRANCH  56  57
ENDBRANCH  49  51
ENDBRANCH  48  49
ENDBRANCH  47  48
ENDBRANCH  46  47
ENDBRANCH  45  46
ENDBRANCH  44  45
ENDBRANCH   1  44
TORSDOF 23
ENDMDL
