MODEL 1
REMARK VINA RESULT:     -12.0      0.000      0.000
REMARK SMILES Cc1c(CC(=O)OCCOCCOCCOC(=O)c2ccc(-c3c4nc(c(-c5c(F)c(F)c(F)c(F)c5F)c5ccc([nH]5)c(-c5c(F)c(F)c(F)c(F)c5F)c5nc(c(-c6c(F)c(F)c(F)c(F)c6F)c6ccc3[nH]6)C=C5)C=C4)cc2)c2ccccc2n1C(=O)c1ccc(Cl)cc1
REMARK SMILES IDX 11 1 10 2 9 3 8 4 7 5 5 6 6 7 4 8 3 9 1 10 2 11 88 12 82 13
REMARK SMILES IDX 87 14 83 15 86 16 84 17 85 18 89 19 90 20 91 21 92 22 97 23
REMARK SMILES IDX 93 24 96 25 94 26 95 27 12 28 13 29 14 30 15 31 16 32 17 33
REMARK SMILES IDX 18 34 19 35 20 36 81 37 21 38 80 39 22 40 23 41 24 42 74 43
REMARK SMILES IDX 25 44 79 45 73 46 75 47 26 48 78 49 72 50 71 51 27 53 59 54
REMARK SMILES IDX 39 55 58 56 40 57 43 58 57 59 76 60 41 61 42 62 56 64 77 65
REMARK SMILES IDX 44 66 28 67 29 68 37 69 30 70 31 71 35 72 38 73 32 74 33 75
REMARK SMILES IDX 36 76 34 77 60 78 61 79 69 80 62 81 63 82 67 83 70 84 64 85
REMARK SMILES IDX 65 86 68 87 66 88 45 89 46 90 54 91 47 92 48 93 52 94 55 95
REMARK SMILES IDX 49 96 50 97 53 98 51 99
REMARK H PARENT 75 52 43 63
REMARK Flexibility Score: inf
ROOT
ATOM      1  C   UNL A   1      42.281  19.468  27.240  1.00  0.00     0.188 C 
ENDROOT
BRANCH   1   2
ATOM      2  O   UNL A   1      41.179  20.286  27.551  1.00  0.00    -0.376 OA
BRANCH   2   3
ATOM      3  C   UNL A   1      40.301  20.608  26.489  1.00  0.00     0.202 C 
BRANCH   3   4
ATOM      4  C   UNL A   1      39.721  22.030  26.507  1.00  0.00     0.261 C 
BRANCH   4   5
ATOM      5  O   UNL A   1      38.420  22.118  25.853  1.00  0.00    -0.463 OA
BRANCH   5   6
ATOM      6  C   UNL A   1      37.828  23.337  25.885  1.00  0.00     0.310 C 
ATOM      7  O   UNL A   1      38.387  24.306  26.402  1.00  0.00    -0.252 OA
BRANCH   6   8
ATOM      8  C   UNL A   1      36.571  23.543  25.032  1.00  0.00     0.160 C 
BRANCH   8   9
ATOM      9  C   UNL A   1      35.142  23.240  25.414  1.00  0.00    -0.008 A 
ATOM     10  C   UNL A   1      34.290  25.690  25.465  1.00  0.00     0.065 C 
ATOM     11  C   UNL A   1      34.147  24.206  25.537  1.00  0.00     0.028 A 
ATOM     12  N   UNL A   1      32.929  23.560  25.741  1.00  0.00    -0.280 N 
ATOM     13  C   UNL A   1      34.436  21.981  25.307  1.00  0.00     0.004 A 
ATOM     14  C   UNL A   1      33.071  22.240  25.310  1.00  0.00     0.056 A 
ATOM     15  C   UNL A   1      34.785  20.633  25.112  1.00  0.00     0.010 A 
ATOM     16  C   UNL A   1      32.135  21.221  24.973  1.00  0.00     0.027 A 
ATOM     17  C   UNL A   1      33.880  19.616  24.787  1.00  0.00     0.001 A 
ATOM     18  C   UNL A   1      32.548  19.920  24.698  1.00  0.00     0.002 A 
BRANCH  12  19
ATOM     19  C   UNL A   1      31.756  24.123  26.318  1.00  0.00     0.262 C 
ATOM     20  O   UNL A   1      31.375  23.764  27.397  1.00  0.00    -0.268 OA
BRANCH  19  21
ATOM     21  C   UNL A   1      30.955  25.113  25.556  1.00  0.00     0.040 A 
ATOM     22  C   UNL A   1      30.564  24.792  24.250  1.00  0.00     0.015 A 
ATOM     23  C   UNL A   1      30.863  26.417  26.049  1.00  0.00     0.015 A 
ATOM     24  C   UNL A   1      30.133  25.809  23.400  1.00  0.00     0.021 A 
ATOM     25  C   UNL A   1      30.444  27.432  25.185  1.00  0.00     0.021 A 
ATOM     26  C   UNL A   1      30.097  27.126  23.864  1.00  0.00     0.041 A 
ATOM     27  Cl  UNL A   1      29.703  28.397  22.774  1.00  0.00    -0.084 Cl
ENDBRANCH  19  21
ENDBRANCH  12  19
ENDBRANCH   8   9
ENDBRANCH   6   8
ENDBRANCH   5   6
ENDBRANCH   4   5
ENDBRANCH   3   4
ENDBRANCH   2   3
ENDBRANCH   1   2
BRANCH   1  28
ATOM     28  C   UNL A   1      42.524  19.043  25.789  1.00  0.00     0.188 C 
BRANCH  28  29
ATOM     29  O   UNL A   1      43.420  18.010  25.474  1.00  0.00    -0.376 OA
BRANCH  29  30
ATOM     30  C   UNL A   1      44.671  18.046  26.138  1.00  0.00     0.202 C 
BRANCH  30  31
ATOM     31  C   UNL A   1      45.919  18.553  25.364  1.00  0.00     0.261 C 
BRANCH  31  32
ATOM     32  O   UNL A   1      46.061  20.010  25.329  1.00  0.00    -0.460 OA
BRANCH  32  33
ATOM     33  C   UNL A   1      45.331  20.675  24.376  1.00  0.00     0.338 C 
ATOM     34  O   UNL A   1      44.909  20.164  23.349  1.00  0.00    -0.246 OA
BRANCH  33  35
ATOM     35  C   UNL A   1      44.723  21.950  24.921  1.00  0.00     0.060 A 
ATOM     36  C   UNL A   1      44.087  22.965  24.208  1.00  0.00     0.016 A 
ATOM     37  C   UNL A   1      44.961  22.181  26.280  1.00  0.00     0.016 A 
ATOM     38  C   UNL A   1      43.865  24.226  24.832  1.00  0.00     0.010 A 
ATOM     39  C   UNL A   1      44.770  23.424  26.894  1.00  0.00     0.010 A 
ATOM     40  C   UNL A   1      44.275  24.496  26.165  1.00  0.00    -0.014 A 
BRANCH  40  41
ATOM     41  C   UNL A   1      43.781  25.677  26.927  1.00  0.00     0.031 A 
ATOM     42  C   UNL A   1      44.671  26.805  26.635  1.00  0.00     0.074 A 
ATOM     43  C   UNL A   1      42.699  25.975  27.689  1.00  0.00     0.049 A 
ATOM     44  N   UNL A   1      45.800  26.969  27.232  1.00  0.00    -0.248 NA
ATOM     45  C   UNL A   1      44.471  27.648  25.454  1.00  0.00     0.031 C 
ATOM     46  C   UNL A   1      41.537  25.160  27.954  1.00  0.00     0.029 A 
ATOM     47  N   UNL A   1      42.402  27.107  28.428  1.00  0.00    -0.354 N 
ATOM     48  C   UNL A   1      46.307  28.134  26.708  1.00  0.00     0.074 A 
ATOM     49  C   UNL A   1      45.629  28.318  25.453  1.00  0.00     0.031 C 
ATOM     50  C   UNL A   1      40.562  25.842  28.597  1.00  0.00     0.029 A 
ATOM     51  C   UNL A   1      41.123  27.115  29.008  1.00  0.00     0.049 A 
ATOM     52  H   UNL A   1      43.038  27.850  28.538  1.00  0.00     0.167 HD
ATOM     53  C   UNL A   1      46.927  28.993  27.561  1.00  0.00     0.037 A 
ATOM     54  C   UNL A   1      40.605  27.964  29.935  1.00  0.00     0.037 A 
ATOM     55  C   UNL A   1      47.124  28.350  28.854  1.00  0.00     0.049 A 
ATOM     56  C   UNL A   1      41.753  28.461  30.720  1.00  0.00     0.074 A 
ATOM     57  C   UNL A   1      47.858  27.287  29.342  1.00  0.00     0.029 A 
ATOM     58  N   UNL A   1      46.097  28.561  29.742  1.00  0.00    -0.354 N 
ATOM     59  N   UNL A   1      42.445  27.717  31.536  1.00  0.00    -0.248 NA
ATOM     60  C   UNL A   1      42.355  29.738  30.363  1.00  0.00     0.031 C 
ATOM     61  C   UNL A   1      47.135  26.771  30.461  1.00  0.00     0.029 A 
ATOM     62  C   UNL A   1      46.002  27.554  30.665  1.00  0.00     0.049 A 
ATOM     63  H   UNL A   1      45.498  29.343  29.717  1.00  0.00     0.167 HD
ATOM     64  C   UNL A   1      43.728  28.200  31.409  1.00  0.00     0.074 A 
ATOM     65  C   UNL A   1      43.583  29.536  30.845  1.00  0.00     0.031 C 
ATOM     66  C   UNL A   1      44.792  27.351  31.439  1.00  0.00     0.037 A 
BRANCH  53  67
ATOM     67  C   UNL A   1      46.877  30.500  27.448  1.00  0.00     0.064 A 
ATOM     68  C   UNL A   1      45.608  31.113  27.419  1.00  0.00     0.173 A 
ATOM     69  C   UNL A   1      47.957  31.333  27.083  1.00  0.00     0.173 A 
ATOM     70  F   UNL A   1      44.505  30.419  27.741  1.00  0.00    -0.203 F 
ATOM     71  C   UNL A   1      45.428  32.422  26.973  1.00  0.00     0.198 A 
ATOM     72  C   UNL A   1      47.778  32.655  26.682  1.00  0.00     0.198 A 
ATOM     73  F   UNL A   1      49.216  30.899  26.990  1.00  0.00    -0.203 F 
ATOM     74  F   UNL A   1      44.189  32.914  26.843  1.00  0.00    -0.200 F 
ATOM     75  C   UNL A   1      46.513  33.190  26.595  1.00  0.00     0.200 A 
ATOM     76  F   UNL A   1      48.844  33.373  26.300  1.00  0.00    -0.200 F 
ATOM     77  F   UNL A   1      46.339  34.424  26.109  1.00  0.00    -0.200 F 
ENDBRANCH  53  67
BRANCH  54  78
ATOM     78  C   UNL A   1      39.221  28.439  30.212  1.00  0.00     0.064 A 
ATOM     79  C   UNL A   1      38.642  28.304  31.493  1.00  0.00     0.173 A 
ATOM     80  C   UNL A   1      38.576  29.331  29.337  1.00  0.00     0.173 A 
ATOM     81  F   UNL A   1      39.185  27.479  32.400  1.00  0.00    -0.203 F 
ATOM     82  C   UNL A   1      37.551  29.081  31.901  1.00  0.00     0.198 A 
ATOM     83  C   UNL A   1      37.482  30.106  29.746  1.00  0.00     0.198 A 
ATOM     84  F   UNL A   1      39.059  29.543  28.105  1.00  0.00    -0.203 F 
ATOM     85  F   UNL A   1      37.098  28.991  33.160  1.00  0.00    -0.200 F 
ATOM     86  C   UNL A   1      36.989  30.001  31.036  1.00  0.00     0.200 A 
ATOM     87  F   UNL A   1      36.958  31.011  28.908  1.00  0.00    -0.200 F 
ATOM     88  F   UNL A   1      36.009  30.814  31.453  1.00  0.00    -0.200 F 
ENDBRANCH  54  78
BRANCH  66  89
ATOM     89  C   UNL A   1      44.641  26.068  32.203  1.00  0.00     0.064 A 
ATOM     90  C   UNL A   1      44.627  25.951  33.602  1.00  0.00     0.173 A 
ATOM     91  C   UNL A   1      44.412  24.902  31.455  1.00  0.00     0.173 A 
ATOM     92  F   UNL A   1      44.787  27.023  34.386  1.00  0.00    -0.203 F 
ATOM     93  C   UNL A   1      44.400  24.718  34.218  1.00  0.00     0.198 A 
ATOM     94  C   UNL A   1      44.152  23.682  32.072  1.00  0.00     0.198 A 
ATOM     95  F   UNL A   1      44.403  24.956  30.114  1.00  0.00    -0.203 F 
ATOM     96  F   UNL A   1      44.395  24.623  35.556  1.00  0.00    -0.200 F 
ATOM     97  C   UNL A   1      44.149  23.589  33.452  1.00  0.00     0.200 A 
ATOM     98  F   UNL A   1      43.876  22.605  31.324  1.00  0.00    -0.200 F 
ATOM     99  F   UNL A   1      43.883  22.416  34.044  1.00  0.00    -0.200 F 
ENDBRANCH  66  89
ENDBRANCH  40  41
ENDBRANCH  33  35
ENDBRANCH  32  33
ENDBRANCH  31  32
ENDBRANCH  30  31
ENDBRANCH  29  30
ENDBRANCH  28  29
ENDBRANCH   1  28
TORSDOF 20
ENDMDL
MODEL 2
REMARK VINA RESULT:     -11.7      1.463      2.421
REMARK SMILES Cc1c(CC(=O)OCCOCCOCCOC(=O)c2ccc(-c3c4nc(c(-c5c(F)c(F)c(F)c(F)c5F)c5ccc([nH]5)c(-c5c(F)c(F)c(F)c(F)c5F)c5nc(c(-c6c(F)c(F)c(F)c(F)c6F)c6ccc3[nH]6)C=C5)C=C4)cc2)c2ccccc2n1C(=O)c1ccc(Cl)cc1
REMARK SMILES IDX 11 1 10 2 9 3 8 4 7 5 5 6 6 7 4 8 3 9 1 10 2 11 88 12 82 13
REMARK SMILES IDX 87 14 83 15 86 16 84 17 85 18 89 19 90 20 91 21 92 22 97 23
REMARK SMILES IDX 93 24 96 25 94 26 95 27 12 28 13 29 14 30 15 31 16 32 17 33
REMARK SMILES IDX 18 34 19 35 20 36 81 37 21 38 80 39 22 40 23 41 24 42 74 43
REMARK SMILES IDX 25 44 79 45 73 46 75 47 26 48 78 49 72 50 71 51 27 53 59 54
REMARK SMILES IDX 39 55 58 56 40 57 43 58 57 59 76 60 41 61 42 62 56 64 77 65
REMARK SMILES IDX 44 66 28 67 29 68 37 69 30 70 31 71 35 72 38 73 32 74 33 75
REMARK SMILES IDX 36 76 34 77 60 78 61 79 69 80 62 81 63 82 67 83 70 84 64 85
REMARK SMILES IDX 65 86 68 87 66 88 45 89 46 90 54 91 47 92 48 93 52 94 55 95
REMARK SMILES IDX 49 96 50 97 53 98 51 99
REMARK H PARENT 75 52 43 63
REMARK Flexibility Score: inf
ROOT
ATOM      1  C   UNL A   1      41.325  21.074  27.364  1.00  0.00     0.188 C 
ENDROOT
BRANCH   1   2
ATOM      2  O   UNL A   1      39.979  21.470  27.462  1.00  0.00    -0.376 OA
BRANCH   2   3
ATOM      3  C   UNL A   1      39.508  22.387  26.493  1.00  0.00     0.202 C 
BRANCH   3   4
ATOM      4  C   UNL A   1      38.303  21.925  25.662  1.00  0.00     0.261 C 
BRANCH   4   5
ATOM      5  O   UNL A   1      37.472  23.033  25.206  1.00  0.00    -0.463 OA
BRANCH   5   6
ATOM      6  C   UNL A   1      36.429  22.697  24.408  1.00  0.00     0.310 C 
ATOM      7  O   UNL A   1      36.078  21.523  24.278  1.00  0.00    -0.252 OA
BRANCH   6   8
ATOM      8  C   UNL A   1      35.534  23.827  23.887  1.00  0.00     0.160 C 
BRANCH   8   9
ATOM      9  C   UNL A   1      34.274  24.368  24.519  1.00  0.00    -0.008 A 
ATOM     10  C   UNL A   1      33.444  25.735  22.477  1.00  0.00     0.065 C 
ATOM     11  C   UNL A   1      33.344  25.157  23.849  1.00  0.00     0.028 A 
ATOM     12  N   UNL A   1      32.240  25.338  24.681  1.00  0.00    -0.280 N 
ATOM     13  C   UNL A   1      33.581  23.878  25.691  1.00  0.00     0.004 A 
ATOM     14  C   UNL A   1      32.270  24.334  25.650  1.00  0.00     0.056 A 
ATOM     15  C   UNL A   1      33.878  23.012  26.759  1.00  0.00     0.010 A 
ATOM     16  C   UNL A   1      31.289  23.812  26.541  1.00  0.00     0.027 A 
ATOM     17  C   UNL A   1      32.929  22.494  27.649  1.00  0.00     0.001 A 
ATOM     18  C   UNL A   1      31.623  22.883  27.523  1.00  0.00     0.002 A 
BRANCH  12  19
ATOM     19  C   UNL A   1      31.271  26.376  24.592  1.00  0.00     0.262 C 
ATOM     20  O   UNL A   1      30.323  26.264  23.866  1.00  0.00    -0.268 OA
BRANCH  19  21
ATOM     21  C   UNL A   1      31.464  27.639  25.346  1.00  0.00     0.040 A 
ATOM     22  C   UNL A   1      31.754  28.807  24.630  1.00  0.00     0.015 A 
ATOM     23  C   UNL A   1      31.630  27.569  26.732  1.00  0.00     0.015 A 
ATOM     24  C   UNL A   1      32.282  29.906  25.307  1.00  0.00     0.021 A 
ATOM     25  C   UNL A   1      32.174  28.670  27.398  1.00  0.00     0.021 A 
ATOM     26  C   UNL A   1      32.511  29.824  26.682  1.00  0.00     0.041 A 
ATOM     27  Cl  UNL A   1      33.294  31.126  27.488  1.00  0.00    -0.084 Cl
ENDBRANCH  19  21
ENDBRANCH  12  19
ENDBRANCH   8   9
ENDBRANCH   6   8
ENDBRANCH   5   6
ENDBRANCH   4   5
ENDBRANCH   3   4
ENDBRANCH   2   3
ENDBRANCH   1   2
BRANCH   1  28
ATOM     28  C   UNL A   1      41.670  19.681  26.829  1.00  0.00     0.188 C 
BRANCH  28  29
ATOM     29  O   UNL A   1      42.525  18.821  27.535  1.00  0.00    -0.376 OA
BRANCH  29  30
ATOM     30  C   UNL A   1      43.444  18.079  26.754  1.00  0.00     0.202 C 
BRANCH  30  31
ATOM     31  C   UNL A   1      43.808  18.591  25.332  1.00  0.00     0.261 C 
BRANCH  31  32
ATOM     32  O   UNL A   1      45.016  19.417  25.275  1.00  0.00    -0.460 OA
BRANCH  32  33
ATOM     33  C   UNL A   1      45.004  20.461  24.385  1.00  0.00     0.338 C 
ATOM     34  O   UNL A   1      44.831  20.338  23.181  1.00  0.00    -0.246 OA
BRANCH  33  35
ATOM     35  C   UNL A   1      44.775  21.788  25.076  1.00  0.00     0.060 A 
ATOM     36  C   UNL A   1      45.539  22.367  26.087  1.00  0.00     0.016 A 
ATOM     37  C   UNL A   1      43.575  22.425  24.742  1.00  0.00     0.016 A 
ATOM     38  C   UNL A   1      45.003  23.454  26.835  1.00  0.00     0.010 A 
ATOM     39  C   UNL A   1      43.029  23.476  25.488  1.00  0.00     0.010 A 
ATOM     40  C   UNL A   1      43.704  23.975  26.593  1.00  0.00    -0.014 A 
BRANCH  40  41
ATOM     41  C   UNL A   1      43.256  25.286  27.139  1.00  0.00     0.031 A 
ATOM     42  C   UNL A   1      44.177  26.316  26.649  1.00  0.00     0.074 A 
ATOM     43  C   UNL A   1      42.191  25.748  27.843  1.00  0.00     0.049 A 
ATOM     44  N   UNL A   1      45.317  26.546  27.202  1.00  0.00    -0.248 NA
ATOM     45  C   UNL A   1      43.990  26.946  25.340  1.00  0.00     0.031 C 
ATOM     46  C   UNL A   1      41.008  25.029  28.253  1.00  0.00     0.029 A 
ATOM     47  N   UNL A   1      41.938  27.000  28.374  1.00  0.00    -0.354 N 
ATOM     48  C   UNL A   1      45.854  27.584  26.479  1.00  0.00     0.074 A 
ATOM     49  C   UNL A   1      45.168  27.567  25.215  1.00  0.00     0.031 C 
ATOM     50  C   UNL A   1      40.062  25.845  28.771  1.00  0.00     0.029 A 
ATOM     51  C   UNL A   1      40.667  27.151  28.950  1.00  0.00     0.049 A 
ATOM     52  H   UNL A   1      42.598  27.730  28.348  1.00  0.00     0.167 HD
ATOM     53  C   UNL A   1      46.510  28.558  27.164  1.00  0.00     0.037 A 
ATOM     54  C   UNL A   1      40.185  28.166  29.717  1.00  0.00     0.037 A 
ATOM     55  C   UNL A   1      46.700  28.146  28.549  1.00  0.00     0.049 A 
ATOM     56  C   UNL A   1      41.357  28.755  30.396  1.00  0.00     0.074 A 
ATOM     57  C   UNL A   1      47.407  27.160  29.212  1.00  0.00     0.029 A 
ATOM     58  N   UNL A   1      45.690  28.541  29.392  1.00  0.00    -0.354 N 
ATOM     59  N   UNL A   1      42.034  28.143  31.327  1.00  0.00    -0.248 NA
ATOM     60  C   UNL A   1      41.994  29.929  29.818  1.00  0.00     0.031 C 
ATOM     61  C   UNL A   1      46.680  26.872  30.408  1.00  0.00     0.029 A 
ATOM     62  C   UNL A   1      45.574  27.715  30.478  1.00  0.00     0.049 A 
ATOM     63  H   UNL A   1      45.116  29.326  29.233  1.00  0.00     0.167 HD
ATOM     64  C   UNL A   1      43.330  28.555  31.110  1.00  0.00     0.074 A 
ATOM     65  C   UNL A   1      43.220  29.775  30.321  1.00  0.00     0.031 C 
ATOM     66  C   UNL A   1      44.368  27.690  31.282  1.00  0.00     0.037 A 
BRANCH  53  67
ATOM     67  C   UNL A   1      46.505  30.022  26.789  1.00  0.00     0.064 A 
ATOM     68  C   UNL A   1      47.732  30.715  26.839  1.00  0.00     0.173 A 
ATOM     69  C   UNL A   1      45.359  30.837  26.669  1.00  0.00     0.173 A 
ATOM     70  F   UNL A   1      48.891  30.048  26.959  1.00  0.00    -0.203 F 
ATOM     71  C   UNL A   1      47.795  32.109  26.861  1.00  0.00     0.198 A 
ATOM     72  C   UNL A   1      45.429  32.227  26.644  1.00  0.00     0.198 A 
ATOM     73  F   UNL A   1      44.114  30.353  26.675  1.00  0.00    -0.203 F 
ATOM     74  F   UNL A   1      48.976  32.716  27.040  1.00  0.00    -0.200 F 
ATOM     75  C   UNL A   1      46.642  32.864  26.772  1.00  0.00     0.200 A 
ATOM     76  F   UNL A   1      44.295  32.939  26.578  1.00  0.00    -0.200 F 
ATOM     77  F   UNL A   1      46.693  34.199  26.854  1.00  0.00    -0.200 F 
ENDBRANCH  53  67
BRANCH  54  78
ATOM     78  C   UNL A   1      38.819  28.726  29.914  1.00  0.00     0.064 A 
ATOM     79  C   UNL A   1      38.207  28.735  31.186  1.00  0.00     0.173 A 
ATOM     80  C   UNL A   1      38.237  29.564  28.946  1.00  0.00     0.173 A 
ATOM     81  F   UNL A   1      38.690  27.972  32.178  1.00  0.00    -0.203 F 
ATOM     82  C   UNL A   1      37.146  29.595  31.495  1.00  0.00     0.198 A 
ATOM     83  C   UNL A   1      37.173  30.422  29.255  1.00  0.00     0.198 A 
ATOM     84  F   UNL A   1      38.756  29.641  27.712  1.00  0.00    -0.203 F 
ATOM     85  F   UNL A   1      36.662  29.641  32.745  1.00  0.00    -0.200 F 
ATOM     86  C   UNL A   1      36.648  30.457  30.536  1.00  0.00     0.200 A 
ATOM     87  F   UNL A   1      36.711  31.269  28.326  1.00  0.00    -0.200 F 
ATOM     88  F   UNL A   1      35.698  31.348  30.853  1.00  0.00    -0.200 F 
ENDBRANCH  54  78
BRANCH  66  89
ATOM     89  C   UNL A   1      44.186  26.566  32.260  1.00  0.00     0.064 A 
ATOM     90  C   UNL A   1      44.031  25.212  31.922  1.00  0.00     0.173 A 
ATOM     91  C   UNL A   1      44.260  26.887  33.624  1.00  0.00     0.173 A 
ATOM     92  F   UNL A   1      44.002  24.818  30.644  1.00  0.00    -0.203 F 
ATOM     93  C   UNL A   1      43.948  24.229  32.912  1.00  0.00     0.198 A 
ATOM     94  C   UNL A   1      44.213  25.903  34.606  1.00  0.00     0.198 A 
ATOM     95  F   UNL A   1      44.420  28.164  34.005  1.00  0.00    -0.203 F 
ATOM     96  F   UNL A   1      43.795  22.941  32.572  1.00  0.00    -0.200 F 
ATOM     97  C   UNL A   1      44.054  24.574  34.251  1.00  0.00     0.200 A 
ATOM     98  F   UNL A   1      44.350  26.242  35.895  1.00  0.00    -0.200 F 
ATOM     99  F   UNL A   1      44.023  23.626  35.198  1.00  0.00    -0.200 F 
ENDBRANCH  66  89
ENDBRANCH  40  41
ENDBRANCH  33  35
ENDBRANCH  32  33
ENDBRANCH  31  32
ENDBRANCH  30  31
ENDBRANCH  29  30
ENDBRANCH  28  29
ENDBRANCH   1  28
TORSDOF 20
ENDMDL
MODEL 3
REMARK VINA RESULT:     -11.1      4.456     10.436
REMARK SMILES Cc1c(CC(=O)OCCOCCOCCOC(=O)c2ccc(-c3c4nc(c(-c5c(F)c(F)c(F)c(F)c5F)c5ccc([nH]5)c(-c5c(F)c(F)c(F)c(F)c5F)c5nc(c(-c6c(F)c(F)c(F)c(F)c6F)c6ccc3[nH]6)C=C5)C=C4)cc2)c2ccccc2n1C(=O)c1ccc(Cl)cc1
REMARK SMILES IDX 11 1 10 2 9 3 8 4 7 5 5 6 6 7 4 8 3 9 1 10 2 11 88 12 82 13
REMARK SMILES IDX 87 14 83 15 86 16 84 17 85 18 89 19 90 20 91 21 92 22 97 23
REMARK SMILES IDX 93 24 96 25 94 26 95 27 12 28 13 29 14 30 15 31 16 32 17 33
REMARK SMILES IDX 18 34 19 35 20 36 81 37 21 38 80 39 22 40 23 41 24 42 74 43
REMARK SMILES IDX 25 44 79 45 73 46 75 47 26 48 78 49 72 50 71 51 27 53 59 54
REMARK SMILES IDX 39 55 58 56 40 57 43 58 57 59 76 60 41 61 42 62 56 64 77 65
REMARK SMILES IDX 44 66 28 67 29 68 37 69 30 70 31 71 35 72 38 73 32 74 33 75
REMARK SMILES IDX 36 76 34 77 60 78 61 79 69 80 62 81 63 82 67 83 70 84 64 85
REMARK SMILES IDX 65 86 68 87 66 88 45 89 46 90 54 91 47 92 48 93 52 94 55 95
REMARK SMILES IDX 49 96 50 97 53 98 51 99
REMARK H PARENT 75 52 43 63
REMARK Flexibility Score: inf
ROOT
ATOM      1  C   UNL A   1      33.781  32.896  27.970  1.00  0.00     0.188 C 
ENDROOT
BRANCH   1   2
ATOM      2  O   UNL A   1      34.086  31.556  28.273  1.00  0.00    -0.376 OA
BRANCH   2   3
ATOM      3  C   UNL A   1      33.785  30.591  27.283  1.00  0.00     0.202 C 
BRANCH   3   4
ATOM      4  C   UNL A   1      32.318  30.525  26.837  1.00  0.00     0.261 C 
BRANCH   4   5
ATOM      5  O   UNL A   1      31.938  29.209  26.334  1.00  0.00    -0.463 OA
BRANCH   5   6
ATOM      6  C   UNL A   1      32.080  29.027  24.998  1.00  0.00     0.310 C 
ATOM      7  O   UNL A   1      33.012  29.543  24.379  1.00  0.00    -0.252 OA
BRANCH   6   8
ATOM      8  C   UNL A   1      31.215  27.952  24.329  1.00  0.00     0.160 C 
BRANCH   8   9
ATOM      9  C   UNL A   1      31.472  26.465  24.279  1.00  0.00    -0.008 A 
ATOM     10  C   UNL A   1      33.740  26.566  23.025  1.00  0.00     0.065 C 
ATOM     11  C   UNL A   1      32.624  25.891  23.750  1.00  0.00     0.028 A 
ATOM     12  N   UNL A   1      32.595  24.522  24.014  1.00  0.00    -0.280 N 
ATOM     13  C   UNL A   1      30.867  25.427  25.085  1.00  0.00     0.004 A 
ATOM     14  C   UNL A   1      31.694  24.311  25.059  1.00  0.00     0.056 A 
ATOM     15  C   UNL A   1      29.746  25.317  25.927  1.00  0.00     0.010 A 
ATOM     16  C   UNL A   1      31.480  23.223  25.953  1.00  0.00     0.027 A 
ATOM     17  C   UNL A   1      29.515  24.254  26.808  1.00  0.00     0.001 A 
ATOM     18  C   UNL A   1      30.402  23.211  26.834  1.00  0.00     0.002 A 
BRANCH  12  19
ATOM     19  C   UNL A   1      33.321  23.510  23.325  1.00  0.00     0.262 C 
ATOM     20  O   UNL A   1      32.976  23.148  22.236  1.00  0.00    -0.268 OA
BRANCH  19  21
ATOM     21  C   UNL A   1      34.473  22.846  23.982  1.00  0.00     0.040 A 
ATOM     22  C   UNL A   1      35.764  23.305  23.691  1.00  0.00     0.015 A 
ATOM     23  C   UNL A   1      34.259  21.628  24.633  1.00  0.00     0.015 A 
ATOM     24  C   UNL A   1      36.859  22.498  24.000  1.00  0.00     0.021 A 
ATOM     25  C   UNL A   1      35.361  20.820  24.924  1.00  0.00     0.021 A 
ATOM     26  C   UNL A   1      36.650  21.251  24.592  1.00  0.00     0.041 A 
ATOM     27  Cl  UNL A   1      37.987  20.198  24.841  1.00  0.00    -0.084 Cl
ENDBRANCH  19  21
ENDBRANCH  12  19
ENDBRANCH   8   9
ENDBRANCH   6   8
ENDBRANCH   5   6
ENDBRANCH   4   5
ENDBRANCH   3   4
ENDBRANCH   2   3
ENDBRANCH   1   2
BRANCH   1  28
ATOM     28  C   UNL A   1      34.810  33.993  28.262  1.00  0.00     0.188 C 
BRANCH  28  29
ATOM     29  O   UNL A   1      34.454  35.156  28.960  1.00  0.00    -0.376 OA
BRANCH  29  30
ATOM     30  C   UNL A   1      33.106  35.240  29.386  1.00  0.00     0.202 C 
BRANCH  30  31
ATOM     31  C   UNL A   1      32.736  36.236  30.520  1.00  0.00     0.261 C 
BRANCH  31  32
ATOM     32  O   UNL A   1      33.636  36.203  31.675  1.00  0.00    -0.460 OA
BRANCH  32  33
ATOM     33  C   UNL A   1      33.582  35.080  32.462  1.00  0.00     0.338 C 
ATOM     34  O   UNL A   1      32.551  34.605  32.915  1.00  0.00    -0.246 OA
BRANCH  33  35
ATOM     35  C   UNL A   1      34.840  34.247  32.342  1.00  0.00     0.060 A 
ATOM     36  C   UNL A   1      36.158  34.659  32.532  1.00  0.00     0.016 A 
ATOM     37  C   UNL A   1      34.644  32.953  31.849  1.00  0.00     0.016 A 
ATOM     38  C   UNL A   1      37.224  33.834  32.069  1.00  0.00     0.010 A 
ATOM     39  C   UNL A   1      35.682  32.147  31.368  1.00  0.00     0.010 A 
ATOM     40  C   UNL A   1      36.994  32.598  31.410  1.00  0.00    -0.014 A 
BRANCH  40  41
ATOM     41  C   UNL A   1      38.074  31.592  31.204  1.00  0.00     0.031 A 
ATOM     42  C   UNL A   1      38.589  31.208  32.522  1.00  0.00     0.074 A 
ATOM     43  C   UNL A   1      38.584  30.896  30.157  1.00  0.00     0.049 A 
ATOM     44  N   UNL A   1      39.455  31.916  33.160  1.00  0.00    -0.248 NA
ATOM     45  C   UNL A   1      37.945  30.161  33.317  1.00  0.00     0.031 C 
ATOM     46  C   UNL A   1      38.126  30.871  28.788  1.00  0.00     0.029 A 
ATOM     47  N   UNL A   1      39.670  30.041  30.088  1.00  0.00    -0.354 N 
ATOM     48  C   UNL A   1      39.697  31.216  34.317  1.00  0.00     0.074 A 
ATOM     49  C   UNL A   1      38.555  30.358  34.492  1.00  0.00     0.031 C 
ATOM     50  C   UNL A   1      38.746  29.921  28.052  1.00  0.00     0.029 A 
ATOM     51  C   UNL A   1      39.840  29.400  28.851  1.00  0.00     0.049 A 
ATOM     52  H   UNL A   1      40.277  29.893  30.849  1.00  0.00     0.167 HD
ATOM     53  C   UNL A   1      40.980  31.152  34.761  1.00  0.00     0.037 A 
ATOM     54  C   UNL A   1      40.895  28.671  28.397  1.00  0.00     0.037 A 
ATOM     55  C   UNL A   1      41.813  32.073  34.000  1.00  0.00     0.049 A 
ATOM     56  C   UNL A   1      42.082  29.185  29.109  1.00  0.00     0.074 A 
ATOM     57  C   UNL A   1      41.904  33.443  33.840  1.00  0.00     0.029 A 
ATOM     58  N   UNL A   1      42.402  31.508  32.895  1.00  0.00    -0.354 N 
ATOM     59  N   UNL A   1      42.590  30.367  28.903  1.00  0.00    -0.248 NA
ATOM     60  C   UNL A   1      42.541  28.498  30.308  1.00  0.00     0.031 C 
ATOM     61  C   UNL A   1      42.419  33.668  32.526  1.00  0.00     0.029 A 
ATOM     62  C   UNL A   1      42.677  32.437  31.927  1.00  0.00     0.049 A 
ATOM     63  H   UNL A   1      42.602  30.548  32.808  1.00  0.00     0.167 HD
ATOM     64  C   UNL A   1      43.037  30.750  30.148  1.00  0.00     0.074 A 
ATOM     65  C   UNL A   1      43.161  29.514  30.911  1.00  0.00     0.031 C 
ATOM     66  C   UNL A   1      42.927  32.046  30.553  1.00  0.00     0.037 A 
BRANCH  53  67
ATOM     67  C   UNL A   1      41.589  29.955  35.456  1.00  0.00     0.064 A 
ATOM     68  C   UNL A   1      42.504  30.200  36.500  1.00  0.00     0.173 A 
ATOM     69  C   UNL A   1      41.555  28.626  34.984  1.00  0.00     0.173 A 
ATOM     70  F   UNL A   1      42.630  31.428  37.027  1.00  0.00    -0.203 F 
ATOM     71  C   UNL A   1      43.377  29.216  36.965  1.00  0.00     0.198 A 
ATOM     72  C   UNL A   1      42.396  27.634  35.484  1.00  0.00     0.198 A 
ATOM     73  F   UNL A   1      40.798  28.233  33.957  1.00  0.00    -0.203 F 
ATOM     74  F   UNL A   1      44.314  29.534  37.868  1.00  0.00    -0.200 F 
ATOM     75  C   UNL A   1      43.328  27.935  36.450  1.00  0.00     0.200 A 
ATOM     76  F   UNL A   1      42.345  26.404  34.953  1.00  0.00    -0.200 F 
ATOM     77  F   UNL A   1      44.203  27.005  36.850  1.00  0.00    -0.200 F 
ENDBRANCH  53  67
BRANCH  54  78
ATOM     78  C   UNL A   1      41.003  27.539  27.435  1.00  0.00     0.064 A 
ATOM     79  C   UNL A   1      41.774  27.650  26.257  1.00  0.00     0.173 A 
ATOM     80  C   UNL A   1      40.646  26.233  27.815  1.00  0.00     0.173 A 
ATOM     81  F   UNL A   1      42.168  28.853  25.814  1.00  0.00    -0.203 F 
ATOM     82  C   UNL A   1      42.236  26.526  25.562  1.00  0.00     0.198 A 
ATOM     83  C   UNL A   1      41.106  25.109  27.116  1.00  0.00     0.198 A 
ATOM     84  F   UNL A   1      39.931  26.020  28.928  1.00  0.00    -0.203 F 
ATOM     85  F   UNL A   1      43.048  26.678  24.506  1.00  0.00    -0.200 F 
ATOM     86  C   UNL A   1      41.923  25.255  26.008  1.00  0.00     0.200 A 
ATOM     87  F   UNL A   1      40.816  23.881  27.568  1.00  0.00    -0.200 F 
ATOM     88  F   UNL A   1      42.441  24.178  25.402  1.00  0.00    -0.200 F 
ENDBRANCH  54  78
BRANCH  66  89
ATOM     89  C   UNL A   1      42.922  33.111  29.496  1.00  0.00     0.064 A 
ATOM     90  C   UNL A   1      41.818  33.906  29.148  1.00  0.00     0.173 A 
ATOM     91  C   UNL A   1      44.143  33.390  28.863  1.00  0.00     0.173 A 
ATOM     92  F   UNL A   1      40.631  33.737  29.742  1.00  0.00    -0.203 F 
ATOM     93  C   UNL A   1      41.937  34.927  28.203  1.00  0.00     0.198 A 
ATOM     94  C   UNL A   1      44.267  34.430  27.949  1.00  0.00     0.198 A 
ATOM     95  F   UNL A   1      45.235  32.669  29.165  1.00  0.00    -0.203 F 
ATOM     96  F   UNL A   1      40.871  35.674  27.878  1.00  0.00    -0.200 F 
ATOM     97  C   UNL A   1      43.164  35.197  27.616  1.00  0.00     0.200 A 
ATOM     98  F   UNL A   1      45.464  34.705  27.412  1.00  0.00    -0.200 F 
ATOM     99  F   UNL A   1      43.289  36.209  26.745  1.00  0.00    -0.200 F 
ENDBRANCH  66  89
ENDBRANCH  40  41
ENDBRANCH  33  35
ENDBRANCH  32  33
ENDBRANCH  31  32
ENDBRANCH  30  31
ENDBRANCH  29  30
ENDBRANCH  28  29
ENDBRANCH   1  28
TORSDOF 20
ENDMDL
