MODEL 1
REMARK VINA RESULT:     -10.6      0.000      0.000
REMARK SMILES C[C@@H](C(=O)OCCOCCOCCOC(=O)c1ccc(-c2c3nc(c(-c4c(F)c(F)c(F)c(F)c4F)c4ccc([nH]4)c(-c4c(F)c(F)c(F)c(F)c4F)c4nc(c(-c5c(F)c(F)c(F)c(F)c5F)c5ccc2[nH]5)C=C4)C=C3)cc1)c1ccc(Cc2cccs2)cc1F
REMARK SMILES IDX 9 1 8 2 7 3 6 4 5 5 3 6 4 7 2 8 1 9 80 10 81 11 91 12 82 13
REMARK SMILES IDX 90 14 92 15 83 16 84 17 85 18 86 19 89 20 87 21 88 22 10 23
REMARK SMILES IDX 11 24 12 25 13 26 14 27 15 28 16 29 17 30 18 31 79 32 19 33
REMARK SMILES IDX 78 34 20 35 21 36 22 37 72 38 23 39 77 40 71 41 73 42 24 43
REMARK SMILES IDX 76 44 70 45 69 46 25 48 57 49 37 50 56 51 38 52 41 53 55 54
REMARK SMILES IDX 74 55 39 56 40 57 54 59 75 60 42 61 26 62 27 63 35 64 28 65
REMARK SMILES IDX 29 66 33 67 36 68 30 69 31 70 34 71 32 72 58 73 59 74 67 75
REMARK SMILES IDX 60 76 61 77 65 78 68 79 62 80 63 81 66 82 64 83 43 84 44 85
REMARK SMILES IDX 52 86 45 87 46 88 50 89 53 90 47 91 48 92 51 93 49 94
REMARK H PARENT 73 47 41 58
REMARK Flexibility Score: inf
ROOT
ATOM      1  C   UNL A   1      31.757  27.903  27.028  1.00  0.00     0.188 C 
ENDROOT
BRANCH   1   2
ATOM      2  O   UNL A   1      32.695  26.874  26.749  1.00  0.00    -0.376 OA
BRANCH   2   3
ATOM      3  C   UNL A   1      32.199  25.559  26.517  1.00  0.00     0.202 C 
BRANCH   3   4
ATOM      4  C   UNL A   1      32.946  24.642  25.532  1.00  0.00     0.261 C 
BRANCH   4   5
ATOM      5  O   UNL A   1      33.984  25.284  24.754  1.00  0.00    -0.463 OA
BRANCH   5   6
ATOM      6  C   UNL A   1      33.583  26.205  23.832  1.00  0.00     0.313 C 
ATOM      7  O   UNL A   1      34.029  27.348  23.780  1.00  0.00    -0.252 OA
BRANCH   6   8
ATOM      8  C   UNL A   1      32.456  25.724  22.892  1.00  0.00     0.129 C 
ATOM      9  C   UNL A   1      32.797  25.424  21.430  1.00  0.00     0.025 C 
BRANCH   8  10
ATOM     10  C   UNL A   1      31.233  26.634  22.973  1.00  0.00     0.002 A 
ATOM     11  C   UNL A   1      31.258  27.921  22.423  1.00  0.00     0.008 A 
ATOM     12  C   UNL A   1      30.044  26.217  23.580  1.00  0.00     0.127 A 
ATOM     13  C   UNL A   1      30.112  28.729  22.442  1.00  0.00     0.004 A 
ATOM     14  C   UNL A   1      28.903  27.012  23.599  1.00  0.00     0.043 A 
ATOM     15  F   UNL A   1      29.974  25.026  24.177  1.00  0.00    -0.207 F 
ATOM     16  C   UNL A   1      28.915  28.277  23.016  1.00  0.00    -0.040 A 
BRANCH  16  17
ATOM     17  C   UNL A   1      27.654  29.114  22.998  1.00  0.00     0.082 C 
BRANCH  17  18
ATOM     18  C   UNL A   1      27.884  30.565  22.698  1.00  0.00     0.009 A 
ATOM     19  C   UNL A   1      28.101  31.605  23.582  1.00  0.00     0.016 A 
ATOM     20  S   UNL A   1      27.971  31.104  21.071  1.00  0.00    -0.149 S 
ATOM     21  C   UNL A   1      28.355  32.841  22.922  1.00  0.00     0.012 A 
ATOM     22  C   UNL A   1      28.329  32.706  21.553  1.00  0.00     0.065 A 
ENDBRANCH  17  18
ENDBRANCH  16  17
ENDBRANCH   8  10
ENDBRANCH   6   8
ENDBRANCH   5   6
ENDBRANCH   4   5
ENDBRANCH   3   4
ENDBRANCH   2   3
ENDBRANCH   1   2
BRANCH   1  23
ATOM     23  C   UNL A   1      31.801  29.172  26.162  1.00  0.00     0.188 C 
BRANCH  23  24
ATOM     24  O   UNL A   1      31.989  30.382  26.847  1.00  0.00    -0.376 OA
BRANCH  24  25
ATOM     25  C   UNL A   1      31.412  31.583  26.382  1.00  0.00     0.202 C 
BRANCH  25  26
ATOM     26  C   UNL A   1      31.730  32.981  26.939  1.00  0.00     0.261 C 
BRANCH  26  27
ATOM     27  O   UNL A   1      33.066  33.263  27.365  1.00  0.00    -0.460 OA
BRANCH  27  28
ATOM     28  C   UNL A   1      33.235  34.191  28.333  1.00  0.00     0.338 C 
ATOM     29  O   UNL A   1      32.510  35.140  28.577  1.00  0.00    -0.246 OA
BRANCH  28  30
ATOM     30  C   UNL A   1      34.369  33.748  29.179  1.00  0.00     0.060 A 
ATOM     31  C   UNL A   1      35.650  34.251  28.920  1.00  0.00     0.016 A 
ATOM     32  C   UNL A   1      34.169  32.849  30.232  1.00  0.00     0.016 A 
ATOM     33  C   UNL A   1      36.735  33.836  29.697  1.00  0.00     0.010 A 
ATOM     34  C   UNL A   1      35.258  32.424  31.000  1.00  0.00     0.010 A 
ATOM     35  C   UNL A   1      36.551  32.900  30.726  1.00  0.00    -0.014 A 
BRANCH  35  36
ATOM     36  C   UNL A   1      37.730  32.284  31.391  1.00  0.00     0.031 A 
ATOM     37  C   UNL A   1      38.497  31.229  30.647  1.00  0.00     0.074 A 
ATOM     38  C   UNL A   1      38.114  32.643  32.628  1.00  0.00     0.049 A 
ATOM     39  N   UNL A   1      39.529  30.520  31.030  1.00  0.00    -0.248 NA
ATOM     40  C   UNL A   1      38.023  30.918  29.290  1.00  0.00     0.031 C 
ATOM     41  C   UNL A   1      37.455  33.644  33.459  1.00  0.00     0.029 A 
ATOM     42  N   UNL A   1      39.161  32.199  33.401  1.00  0.00    -0.354 N 
ATOM     43  C   UNL A   1      39.819  29.674  29.968  1.00  0.00     0.074 A 
ATOM     44  C   UNL A   1      38.843  29.943  28.933  1.00  0.00     0.031 C 
ATOM     45  C   UNL A   1      38.129  33.762  34.618  1.00  0.00     0.029 A 
ATOM     46  C   UNL A   1      39.237  32.805  34.632  1.00  0.00     0.049 A 
ATOM     47  H   UNL A   1      39.798  31.511  33.100  1.00  0.00     0.167 HD
ATOM     48  C   UNL A   1      40.806  28.752  29.865  1.00  0.00     0.037 A 
ATOM     49  C   UNL A   1      40.087  32.593  35.657  1.00  0.00     0.037 A 
ATOM     50  C   UNL A   1      41.761  28.463  30.903  1.00  0.00     0.049 A 
ATOM     51  C   UNL A   1      41.149  31.524  35.535  1.00  0.00     0.074 A 
ATOM     52  C   UNL A   1      42.791  27.539  30.892  1.00  0.00     0.029 A 
ATOM     53  N   UNL A   1      41.794  29.085  32.141  1.00  0.00    -0.354 N 
ATOM     54  N   UNL A   1      41.431  30.744  34.520  1.00  0.00    -0.248 NA
ATOM     55  C   UNL A   1      42.000  31.298  36.713  1.00  0.00     0.031 C 
ATOM     56  C   UNL A   1      43.411  27.561  32.145  1.00  0.00     0.029 A 
ATOM     57  C   UNL A   1      42.812  28.546  32.914  1.00  0.00     0.049 A 
ATOM     58  H   UNL A   1      41.186  29.804  32.430  1.00  0.00     0.167 HD
ATOM     59  C   UNL A   1      42.498  29.952  34.930  1.00  0.00     0.074 A 
ATOM     60  C   UNL A   1      42.830  30.361  36.276  1.00  0.00     0.031 C 
ATOM     61  C   UNL A   1      43.140  28.967  34.252  1.00  0.00     0.037 A 
BRANCH  48  62
ATOM     62  C   UNL A   1      40.868  27.954  28.596  1.00  0.00     0.064 A 
ATOM     63  C   UNL A   1      40.141  26.765  28.434  1.00  0.00     0.173 A 
ATOM     64  C   UNL A   1      41.655  28.394  27.520  1.00  0.00     0.173 A 
ATOM     65  F   UNL A   1      39.387  26.293  29.438  1.00  0.00    -0.203 F 
ATOM     66  C   UNL A   1      40.226  26.029  27.255  1.00  0.00     0.198 A 
ATOM     67  C   UNL A   1      41.709  27.672  26.331  1.00  0.00     0.198 A 
ATOM     68  F   UNL A   1      42.366  29.526  27.620  1.00  0.00    -0.203 F 
ATOM     69  F   UNL A   1      39.568  24.866  27.144  1.00  0.00    -0.200 F 
ATOM     70  C   UNL A   1      41.004  26.486  26.203  1.00  0.00     0.200 A 
ATOM     71  F   UNL A   1      42.451  28.124  25.310  1.00  0.00    -0.200 F 
ATOM     72  F   UNL A   1      41.081  25.779  25.067  1.00  0.00    -0.200 F 
ENDBRANCH  48  62
BRANCH  49  73
ATOM     73  C   UNL A   1      39.962  33.384  36.913  1.00  0.00     0.064 A 
ATOM     74  C   UNL A   1      39.057  33.008  37.918  1.00  0.00     0.173 A 
ATOM     75  C   UNL A   1      40.711  34.552  37.120  1.00  0.00     0.173 A 
ATOM     76  F   UNL A   1      38.293  31.918  37.757  1.00  0.00    -0.203 F 
ATOM     77  C   UNL A   1      38.890  33.782  39.065  1.00  0.00     0.198 A 
ATOM     78  C   UNL A   1      40.570  35.304  38.285  1.00  0.00     0.198 A 
ATOM     79  F   UNL A   1      41.583  34.964  36.188  1.00  0.00    -0.203 F 
ATOM     80  F   UNL A   1      37.974  33.432  39.979  1.00  0.00    -0.200 F 
ATOM     81  C   UNL A   1      39.652  34.924  39.251  1.00  0.00     0.200 A 
ATOM     82  F   UNL A   1      41.318  36.401  38.464  1.00  0.00    -0.200 F 
ATOM     83  F   UNL A   1      39.493  35.667  40.356  1.00  0.00    -0.200 F 
ENDBRANCH  49  73
BRANCH  61  84
ATOM     84  C   UNL A   1      44.292  28.283  34.936  1.00  0.00     0.064 A 
ATOM     85  C   UNL A   1      45.603  28.780  34.858  1.00  0.00     0.173 A 
ATOM     86  C   UNL A   1      44.074  27.142  35.725  1.00  0.00     0.173 A 
ATOM     87  F   UNL A   1      45.871  29.861  34.110  1.00  0.00    -0.203 F 
ATOM     88  C   UNL A   1      46.651  28.146  35.521  1.00  0.00     0.198 A 
ATOM     89  C   UNL A   1      45.118  26.531  36.413  1.00  0.00     0.198 A 
ATOM     90  F   UNL A   1      42.840  26.628  35.843  1.00  0.00    -0.203 F 
ATOM     91  F   UNL A   1      47.902  28.612  35.393  1.00  0.00    -0.200 F 
ATOM     92  C   UNL A   1      46.407  27.029  36.305  1.00  0.00     0.200 A 
ATOM     93  F   UNL A   1      44.876  25.461  37.183  1.00  0.00    -0.200 F 
ATOM     94  F   UNL A   1      47.416  26.426  36.950  1.00  0.00    -0.200 F 
ENDBRANCH  61  84
ENDBRANCH  35  36
ENDBRANCH  28  30
ENDBRANCH  27  28
ENDBRANCH  26  27
ENDBRANCH  25  26
ENDBRANCH  24  25
ENDBRANCH  23  24
ENDBRANCH   1  23
TORSDOF 20
ENDMDL
MODEL 2
REMARK VINA RESULT:     -10.6      1.608      7.543
REMARK SMILES C[C@@H](C(=O)OCCOCCOCCOC(=O)c1ccc(-c2c3nc(c(-c4c(F)c(F)c(F)c(F)c4F)c4ccc([nH]4)c(-c4c(F)c(F)c(F)c(F)c4F)c4nc(c(-c5c(F)c(F)c(F)c(F)c5F)c5ccc2[nH]5)C=C4)C=C3)cc1)c1ccc(Cc2cccs2)cc1F
REMARK SMILES IDX 9 1 8 2 7 3 6 4 5 5 3 6 4 7 2 8 1 9 80 10 81 11 91 12 82 13
REMARK SMILES IDX 90 14 92 15 83 16 84 17 85 18 86 19 89 20 87 21 88 22 10 23
REMARK SMILES IDX 11 24 12 25 13 26 14 27 15 28 16 29 17 30 18 31 79 32 19 33
REMARK SMILES IDX 78 34 20 35 21 36 22 37 72 38 23 39 77 40 71 41 73 42 24 43
REMARK SMILES IDX 76 44 70 45 69 46 25 48 57 49 37 50 56 51 38 52 41 53 55 54
REMARK SMILES IDX 74 55 39 56 40 57 54 59 75 60 42 61 26 62 27 63 35 64 28 65
REMARK SMILES IDX 29 66 33 67 36 68 30 69 31 70 34 71 32 72 58 73 59 74 67 75
REMARK SMILES IDX 60 76 61 77 65 78 68 79 62 80 63 81 66 82 64 83 43 84 44 85
REMARK SMILES IDX 52 86 45 87 46 88 50 89 53 90 47 91 48 92 51 93 49 94
REMARK H PARENT 73 47 41 58
REMARK Flexibility Score: inf
ROOT
ATOM      1  C   UNL A   1      34.413  31.994  28.223  1.00  0.00     0.188 C 
ENDROOT
BRANCH   1   2
ATOM      2  O   UNL A   1      34.737  30.863  27.428  1.00  0.00    -0.376 OA
BRANCH   2   3
ATOM      3  C   UNL A   1      33.727  29.881  27.215  1.00  0.00     0.202 C 
BRANCH   3   4
ATOM      4  C   UNL A   1      33.459  29.384  25.783  1.00  0.00     0.261 C 
BRANCH   4   5
ATOM      5  O   UNL A   1      34.039  28.099  25.455  1.00  0.00    -0.463 OA
BRANCH   5   6
ATOM      6  C   UNL A   1      33.240  27.004  25.608  1.00  0.00     0.313 C 
ATOM      7  O   UNL A   1      32.970  26.511  26.700  1.00  0.00    -0.252 OA
BRANCH   6   8
ATOM      8  C   UNL A   1      32.752  26.377  24.284  1.00  0.00     0.129 C 
ATOM      9  C   UNL A   1      33.733  26.276  23.113  1.00  0.00     0.025 C 
BRANCH   8  10
ATOM     10  C   UNL A   1      31.438  27.002  23.820  1.00  0.00     0.002 A 
ATOM     11  C   UNL A   1      30.210  26.412  24.138  1.00  0.00     0.008 A 
ATOM     12  C   UNL A   1      31.409  28.187  23.078  1.00  0.00     0.127 A 
ATOM     13  C   UNL A   1      29.004  27.024  23.766  1.00  0.00     0.004 A 
ATOM     14  C   UNL A   1      30.217  28.801  22.709  1.00  0.00     0.043 A 
ATOM     15  F   UNL A   1      32.546  28.767  22.689  1.00  0.00    -0.207 F 
ATOM     16  C   UNL A   1      28.994  28.236  23.061  1.00  0.00    -0.040 A 
BRANCH  16  17
ATOM     17  C   UNL A   1      27.704  28.938  22.698  1.00  0.00     0.082 C 
BRANCH  17  18
ATOM     18  C   UNL A   1      27.842  30.419  22.507  1.00  0.00     0.009 A 
ATOM     19  C   UNL A   1      27.896  31.412  23.467  1.00  0.00     0.016 A 
ATOM     20  S   UNL A   1      28.031  31.070  20.930  1.00  0.00    -0.149 S 
ATOM     21  C   UNL A   1      28.109  32.703  22.908  1.00  0.00     0.012 A 
ATOM     22  C   UNL A   1      28.216  32.658  21.538  1.00  0.00     0.065 A 
ENDBRANCH  17  18
ENDBRANCH  16  17
ENDBRANCH   8  10
ENDBRANCH   6   8
ENDBRANCH   5   6
ENDBRANCH   4   5
ENDBRANCH   3   4
ENDBRANCH   2   3
ENDBRANCH   1   2
BRANCH   1  23
ATOM     23  C   UNL A   1      35.316  33.232  28.116  1.00  0.00     0.188 C 
BRANCH  23  24
ATOM     24  O   UNL A   1      34.846  34.398  28.741  1.00  0.00    -0.376 OA
BRANCH  24  25
ATOM     25  C   UNL A   1      33.476  34.570  29.033  1.00  0.00     0.202 C 
BRANCH  25  26
ATOM     26  C   UNL A   1      32.848  35.876  29.549  1.00  0.00     0.261 C 
BRANCH  26  27
ATOM     27  O   UNL A   1      33.217  36.348  30.848  1.00  0.00    -0.460 OA
BRANCH  27  28
ATOM     28  C   UNL A   1      32.833  35.615  31.916  1.00  0.00     0.338 C 
ATOM     29  O   UNL A   1      31.696  35.440  32.319  1.00  0.00    -0.246 OA
BRANCH  28  30
ATOM     30  C   UNL A   1      34.031  34.897  32.415  1.00  0.00     0.060 A 
ATOM     31  C   UNL A   1      35.288  35.502  32.291  1.00  0.00     0.016 A 
ATOM     32  C   UNL A   1      33.915  33.638  33.013  1.00  0.00     0.016 A 
ATOM     33  C   UNL A   1      36.432  34.837  32.742  1.00  0.00     0.010 A 
ATOM     34  C   UNL A   1      35.062  32.968  33.452  1.00  0.00     0.010 A 
ATOM     35  C   UNL A   1      36.330  33.554  33.302  1.00  0.00    -0.014 A 
BRANCH  35  36
ATOM     36  C   UNL A   1      37.556  32.756  33.561  1.00  0.00     0.031 A 
ATOM     37  C   UNL A   1      38.302  32.990  34.843  1.00  0.00     0.074 A 
ATOM     38  C   UNL A   1      38.009  31.845  32.681  1.00  0.00     0.049 A 
ATOM     39  N   UNL A   1      39.415  32.450  35.273  1.00  0.00    -0.248 NA
ATOM     40  C   UNL A   1      37.722  33.985  35.758  1.00  0.00     0.031 C 
ATOM     41  C   UNL A   1      37.386  31.527  31.401  1.00  0.00     0.029 A 
ATOM     42  N   UNL A   1      39.105  31.017  32.738  1.00  0.00    -0.354 N 
ATOM     43  C   UNL A   1      39.672  33.046  36.500  1.00  0.00     0.074 A 
ATOM     44  C   UNL A   1      38.612  34.003  36.738  1.00  0.00     0.031 C 
ATOM     45  C   UNL A   1      38.093  30.551  30.802  1.00  0.00     0.029 A 
ATOM     46  C   UNL A   1      39.249  30.213  31.634  1.00  0.00     0.049 A 
ATOM     47  H   UNL A   1      39.729  31.003  33.500  1.00  0.00     0.167 HD
ATOM     48  C   UNL A   1      40.701  32.822  37.351  1.00  0.00     0.037 A 
ATOM     49  C   UNL A   1      40.216  29.325  31.322  1.00  0.00     0.037 A 
ATOM     50  C   UNL A   1      41.772  31.891  37.107  1.00  0.00     0.049 A 
ATOM     51  C   UNL A   1      41.379  29.129  32.267  1.00  0.00     0.074 A 
ATOM     52  C   UNL A   1      42.862  31.603  37.907  1.00  0.00     0.029 A 
ATOM     53  N   UNL A   1      41.892  31.107  35.969  1.00  0.00    -0.354 N 
ATOM     54  N   UNL A   1      41.604  29.679  33.435  1.00  0.00    -0.248 NA
ATOM     55  C   UNL A   1      42.432  28.196  31.837  1.00  0.00     0.031 C 
ATOM     56  C   UNL A   1      43.674  30.688  37.228  1.00  0.00     0.029 A 
ATOM     57  C   UNL A   1      43.054  30.354  36.035  1.00  0.00     0.049 A 
ATOM     58  H   UNL A   1      41.248  31.088  35.225  1.00  0.00     0.167 HD
ATOM     59  C   UNL A   1      42.808  29.148  33.884  1.00  0.00     0.074 A 
ATOM     60  C   UNL A   1      43.256  28.214  32.876  1.00  0.00     0.031 C 
ATOM     61  C   UNL A   1      43.487  29.419  35.028  1.00  0.00     0.037 A 
BRANCH  48  62
ATOM     62  C   UNL A   1      40.739  33.638  38.610  1.00  0.00     0.064 A 
ATOM     63  C   UNL A   1      39.962  33.304  39.730  1.00  0.00     0.173 A 
ATOM     64  C   UNL A   1      41.576  34.760  38.703  1.00  0.00     0.173 A 
ATOM     65  F   UNL A   1      39.134  32.250  39.687  1.00  0.00    -0.203 F 
ATOM     66  C   UNL A   1      39.998  34.084  40.883  1.00  0.00     0.198 A 
ATOM     67  C   UNL A   1      41.634  35.517  39.870  1.00  0.00     0.198 A 
ATOM     68  F   UNL A   1      42.343  35.120  37.663  1.00  0.00    -0.203 F 
ATOM     69  F   UNL A   1      39.204  33.780  41.920  1.00  0.00    -0.200 F 
ATOM     70  C   UNL A   1      40.837  35.185  40.954  1.00  0.00     0.200 A 
ATOM     71  F   UNL A   1      42.457  36.572  39.941  1.00  0.00    -0.200 F 
ATOM     72  F   UNL A   1      40.874  35.932  42.067  1.00  0.00    -0.200 F 
ENDBRANCH  48  62
BRANCH  49  73
ATOM     73  C   UNL A   1      40.155  28.566  30.042  1.00  0.00     0.064 A 
ATOM     74  C   UNL A   1      39.493  27.331  29.964  1.00  0.00     0.173 A 
ATOM     75  C   UNL A   1      40.788  29.036  28.882  1.00  0.00     0.173 A 
ATOM     76  F   UNL A   1      38.898  26.821  31.052  1.00  0.00    -0.203 F 
ATOM     77  C   UNL A   1      39.488  26.587  28.785  1.00  0.00     0.198 A 
ATOM     78  C   UNL A   1      40.751  28.309  27.693  1.00  0.00     0.198 A 
ATOM     79  F   UNL A   1      41.444  30.205  28.901  1.00  0.00    -0.203 F 
ATOM     80  F   UNL A   1      38.901  25.383  28.757  1.00  0.00    -0.200 F 
ATOM     81  C   UNL A   1      40.111  27.080  27.649  1.00  0.00     0.200 A 
ATOM     82  F   UNL A   1      41.345  28.795  26.596  1.00  0.00    -0.200 F 
ATOM     83  F   UNL A   1      40.105  26.366  26.515  1.00  0.00    -0.200 F 
ENDBRANCH  49  73
BRANCH  61  84
ATOM     84  C   UNL A   1      44.769  28.670  35.275  1.00  0.00     0.064 A 
ATOM     85  C   UNL A   1      44.789  27.430  35.932  1.00  0.00     0.173 A 
ATOM     86  C   UNL A   1      45.989  29.177  34.801  1.00  0.00     0.173 A 
ATOM     87  F   UNL A   1      43.654  26.904  36.415  1.00  0.00    -0.203 F 
ATOM     88  C   UNL A   1      45.984  26.741  36.127  1.00  0.00     0.198 A 
ATOM     89  C   UNL A   1      47.176  28.469  34.968  1.00  0.00     0.198 A 
ATOM     90  F   UNL A   1      46.028  30.353  34.157  1.00  0.00    -0.203 F 
ATOM     91  F   UNL A   1      45.985  25.581  36.799  1.00  0.00    -0.200 F 
ATOM     92  C   UNL A   1      47.174  27.256  35.637  1.00  0.00     0.200 A 
ATOM     93  F   UNL A   1      48.323  28.962  34.478  1.00  0.00    -0.200 F 
ATOM     94  F   UNL A   1      48.322  26.586  35.817  1.00  0.00    -0.200 F 
ENDBRANCH  61  84
ENDBRANCH  35  36
ENDBRANCH  28  30
ENDBRANCH  27  28
ENDBRANCH  26  27
ENDBRANCH  25  26
ENDBRANCH  24  25
ENDBRANCH  23  24
ENDBRANCH   1  23
TORSDOF 20
ENDMDL
MODEL 3
REMARK VINA RESULT:     -10.5      2.483      8.344
REMARK SMILES C[C@@H](C(=O)OCCOCCOCCOC(=O)c1ccc(-c2c3nc(c(-c4c(F)c(F)c(F)c(F)c4F)c4ccc([nH]4)c(-c4c(F)c(F)c(F)c(F)c4F)c4nc(c(-c5c(F)c(F)c(F)c(F)c5F)c5ccc2[nH]5)C=C4)C=C3)cc1)c1ccc(Cc2cccs2)cc1F
REMARK SMILES IDX 9 1 8 2 7 3 6 4 5 5 3 6 4 7 2 8 1 9 80 10 81 11 91 12 82 13
REMARK SMILES IDX 90 14 92 15 83 16 84 17 85 18 86 19 89 20 87 21 88 22 10 23
REMARK SMILES IDX 11 24 12 25 13 26 14 27 15 28 16 29 17 30 18 31 79 32 19 33
REMARK SMILES IDX 78 34 20 35 21 36 22 37 72 38 23 39 77 40 71 41 73 42 24 43
REMARK SMILES IDX 76 44 70 45 69 46 25 48 57 49 37 50 56 51 38 52 41 53 55 54
REMARK SMILES IDX 74 55 39 56 40 57 54 59 75 60 42 61 26 62 27 63 35 64 28 65
REMARK SMILES IDX 29 66 33 67 36 68 30 69 31 70 34 71 32 72 58 73 59 74 67 75
REMARK SMILES IDX 60 76 61 77 65 78 68 79 62 80 63 81 66 82 64 83 43 84 44 85
REMARK SMILES IDX 52 86 45 87 46 88 50 89 53 90 47 91 48 92 51 93 49 94
REMARK H PARENT 73 47 41 58
REMARK Flexibility Score: inf
ROOT
ATOM      1  C   UNL A   1      34.742  32.376  28.963  1.00  0.00     0.188 C 
ENDROOT
BRANCH   1   2
ATOM      2  O   UNL A   1      34.378  31.122  28.405  1.00  0.00    -0.376 OA
BRANCH   2   3
ATOM      3  C   UNL A   1      33.515  31.116  27.272  1.00  0.00     0.202 C 
BRANCH   3   4
ATOM      4  C   UNL A   1      33.338  29.811  26.475  1.00  0.00     0.261 C 
BRANCH   4   5
ATOM      5  O   UNL A   1      32.006  29.578  25.957  1.00  0.00    -0.463 OA
BRANCH   5   6
ATOM      6  C   UNL A   1      31.913  28.889  24.784  1.00  0.00     0.313 C 
ATOM      7  O   UNL A   1      30.843  28.603  24.251  1.00  0.00    -0.252 OA
BRANCH   6   8
ATOM      8  C   UNL A   1      33.266  28.421  24.206  1.00  0.00     0.129 C 
ATOM      9  C   UNL A   1      33.791  29.089  22.932  1.00  0.00     0.025 C 
BRANCH   8  10
ATOM     10  C   UNL A   1      33.318  26.901  24.065  1.00  0.00     0.002 A 
ATOM     11  C   UNL A   1      33.142  26.288  22.820  1.00  0.00     0.008 A 
ATOM     12  C   UNL A   1      33.559  26.069  25.164  1.00  0.00     0.127 A 
ATOM     13  C   UNL A   1      33.256  24.897  22.685  1.00  0.00     0.004 A 
ATOM     14  C   UNL A   1      33.677  24.689  25.035  1.00  0.00     0.043 A 
ATOM     15  F   UNL A   1      33.675  26.585  26.388  1.00  0.00    -0.207 F 
ATOM     16  C   UNL A   1      33.542  24.082  23.789  1.00  0.00    -0.040 A 
BRANCH  16  17
ATOM     17  C   UNL A   1      33.722  22.586  23.653  1.00  0.00     0.082 C 
BRANCH  17  18
ATOM     18  C   UNL A   1      35.013  22.069  24.213  1.00  0.00     0.009 A 
ATOM     19  C   UNL A   1      35.210  21.065  25.143  1.00  0.00     0.016 A 
ATOM     20  S   UNL A   1      36.508  22.692  23.646  1.00  0.00    -0.149 S 
ATOM     21  C   UNL A   1      36.588  20.797  25.376  1.00  0.00     0.012 A 
ATOM     22  C   UNL A   1      37.403  21.602  24.614  1.00  0.00     0.065 A 
ENDBRANCH  17  18
ENDBRANCH  16  17
ENDBRANCH   8  10
ENDBRANCH   6   8
ENDBRANCH   5   6
ENDBRANCH   4   5
ENDBRANCH   3   4
ENDBRANCH   2   3
ENDBRANCH   1   2
BRANCH   1  23
ATOM     23  C   UNL A   1      34.978  33.551  28.001  1.00  0.00     0.188 C 
BRANCH  23  24
ATOM     24  O   UNL A   1      34.498  34.801  28.420  1.00  0.00    -0.376 OA
BRANCH  24  25
ATOM     25  C   UNL A   1      33.307  34.914  29.168  1.00  0.00     0.202 C 
BRANCH  25  26
ATOM     26  C   UNL A   1      32.762  36.228  29.753  1.00  0.00     0.261 C 
BRANCH  26  27
ATOM     27  O   UNL A   1      33.072  36.558  31.109  1.00  0.00    -0.460 OA
BRANCH  27  28
ATOM     28  C   UNL A   1      32.668  35.702  32.074  1.00  0.00     0.338 C 
ATOM     29  O   UNL A   1      31.520  35.433  32.385  1.00  0.00    -0.246 OA
BRANCH  28  30
ATOM     30  C   UNL A   1      33.872  34.995  32.573  1.00  0.00     0.060 A 
ATOM     31  C   UNL A   1      35.125  35.606  32.439  1.00  0.00     0.016 A 
ATOM     32  C   UNL A   1      33.765  33.740  33.181  1.00  0.00     0.016 A 
ATOM     33  C   UNL A   1      36.274  34.951  32.891  1.00  0.00     0.010 A 
ATOM     34  C   UNL A   1      34.918  33.080  33.621  1.00  0.00     0.010 A 
ATOM     35  C   UNL A   1      36.182  33.672  33.461  1.00  0.00    -0.014 A 
BRANCH  35  36
ATOM     36  C   UNL A   1      37.414  32.883  33.722  1.00  0.00     0.031 A 
ATOM     37  C   UNL A   1      38.156  33.121  35.006  1.00  0.00     0.074 A 
ATOM     38  C   UNL A   1      37.875  31.976  32.842  1.00  0.00     0.049 A 
ATOM     39  N   UNL A   1      39.271  32.589  35.437  1.00  0.00    -0.248 NA
ATOM     40  C   UNL A   1      37.566  34.111  35.921  1.00  0.00     0.031 C 
ATOM     41  C   UNL A   1      37.257  31.655  31.560  1.00  0.00     0.029 A 
ATOM     42  N   UNL A   1      38.977  31.157  32.900  1.00  0.00    -0.354 N 
ATOM     43  C   UNL A   1      39.522  33.186  36.665  1.00  0.00     0.074 A 
ATOM     44  C   UNL A   1      38.454  34.135  36.902  1.00  0.00     0.031 C 
ATOM     45  C   UNL A   1      37.972  30.685  30.962  1.00  0.00     0.029 A 
ATOM     46  C   UNL A   1      39.130  30.355  31.795  1.00  0.00     0.049 A 
ATOM     47  H   UNL A   1      39.600  31.146  33.663  1.00  0.00     0.167 HD
ATOM     48  C   UNL A   1      40.551  32.969  37.518  1.00  0.00     0.037 A 
ATOM     49  C   UNL A   1      40.104  29.475  31.484  1.00  0.00     0.037 A 
ATOM     50  C   UNL A   1      41.629  32.046  37.274  1.00  0.00     0.049 A 
ATOM     51  C   UNL A   1      41.266  29.286  32.431  1.00  0.00     0.074 A 
ATOM     52  C   UNL A   1      42.721  31.765  38.077  1.00  0.00     0.029 A 
ATOM     53  N   UNL A   1      41.758  31.265  36.136  1.00  0.00    -0.354 N 
ATOM     54  N   UNL A   1      41.485  29.837  33.600  1.00  0.00    -0.248 NA
ATOM     55  C   UNL A   1      42.328  28.362  32.002  1.00  0.00     0.031 C 
ATOM     56  C   UNL A   1      43.540  30.858  37.398  1.00  0.00     0.029 A 
ATOM     57  C   UNL A   1      42.925  30.520  36.203  1.00  0.00     0.049 A 
ATOM     58  H   UNL A   1      41.115  31.241  35.390  1.00  0.00     0.167 HD
ATOM     59  C   UNL A   1      42.693  29.315  34.051  1.00  0.00     0.074 A 
ATOM     60  C   UNL A   1      43.149  28.385  33.042  1.00  0.00     0.031 C 
ATOM     61  C   UNL A   1      43.367  29.589  35.196  1.00  0.00     0.037 A 
BRANCH  48  62
ATOM     62  C   UNL A   1      40.581  33.783  38.778  1.00  0.00     0.064 A 
ATOM     63  C   UNL A   1      39.884  33.388  39.930  1.00  0.00     0.173 A 
ATOM     64  C   UNL A   1      41.329  34.969  38.838  1.00  0.00     0.173 A 
ATOM     65  F   UNL A   1      39.141  32.271  39.919  1.00  0.00    -0.203 F 
ATOM     66  C   UNL A   1      39.909  34.167  41.084  1.00  0.00     0.198 A 
ATOM     67  C   UNL A   1      41.378  35.727  40.005  1.00  0.00     0.198 A 
ATOM     68  F   UNL A   1      42.017  35.391  37.767  1.00  0.00    -0.203 F 
ATOM     69  F   UNL A   1      39.189  33.799  42.154  1.00  0.00    -0.200 F 
ATOM     70  C   UNL A   1      40.661  35.331  41.123  1.00  0.00     0.200 A 
ATOM     71  F   UNL A   1      42.117  36.844  40.045  1.00  0.00    -0.200 F 
ATOM     72  F   UNL A   1      40.687  36.077  42.236  1.00  0.00    -0.200 F 
ENDBRANCH  48  62
BRANCH  49  73
ATOM     73  C   UNL A   1      40.050  28.717  30.203  1.00  0.00     0.064 A 
ATOM     74  C   UNL A   1      39.437  27.457  30.133  1.00  0.00     0.173 A 
ATOM     75  C   UNL A   1      40.645  29.214  29.034  1.00  0.00     0.173 A 
ATOM     76  F   UNL A   1      38.881  26.921  31.229  1.00  0.00    -0.203 F 
ATOM     77  C   UNL A   1      39.441  26.716  28.952  1.00  0.00     0.198 A 
ATOM     78  C   UNL A   1      40.616  28.488  27.844  1.00  0.00     0.198 A 
ATOM     79  F   UNL A   1      41.254  30.408  29.045  1.00  0.00    -0.203 F 
ATOM     80  F   UNL A   1      38.902  25.489  28.931  1.00  0.00    -0.200 F 
ATOM     81  C   UNL A   1      40.024  27.235  27.807  1.00  0.00     0.200 A 
ATOM     82  F   UNL A   1      41.172  29.000  26.738  1.00  0.00    -0.200 F 
ATOM     83  F   UNL A   1      40.028  26.524  26.671  1.00  0.00    -0.200 F 
ENDBRANCH  49  73
BRANCH  61  84
ATOM     84  C   UNL A   1      44.654  28.851  35.444  1.00  0.00     0.064 A 
ATOM     85  C   UNL A   1      44.683  27.613  36.107  1.00  0.00     0.173 A 
ATOM     86  C   UNL A   1      45.870  29.363  34.967  1.00  0.00     0.173 A 
ATOM     87  F   UNL A   1      43.552  27.081  36.593  1.00  0.00    -0.203 F 
ATOM     88  C   UNL A   1      45.883  26.932  36.303  1.00  0.00     0.198 A 
ATOM     89  C   UNL A   1      47.062  28.664  35.135  1.00  0.00     0.198 A 
ATOM     90  F   UNL A   1      45.901  30.538  34.318  1.00  0.00    -0.203 F 
ATOM     91  F   UNL A   1      45.892  25.776  36.980  1.00  0.00    -0.200 F 
ATOM     92  C   UNL A   1      47.069  27.454  35.810  1.00  0.00     0.200 A 
ATOM     93  F   UNL A   1      48.206  29.163  34.642  1.00  0.00    -0.200 F 
ATOM     94  F   UNL A   1      48.221  26.793  35.991  1.00  0.00    -0.200 F 
ENDBRANCH  61  84
ENDBRANCH  35  36
ENDBRANCH  28  30
ENDBRANCH  27  28
ENDBRANCH  26  27
ENDBRANCH  25  26
ENDBRANCH  24  25
ENDBRANCH  23  24
ENDBRANCH   1  23
TORSDOF 20
ENDMDL
