MODEL 1
REMARK VINA RESULT:     -10.6      0.000      0.000
REMARK SMILES O=C(Cc1ccc(S(=O)(=O)C[C@H]2CCCO2)cc1)OCCOCCOCCOC(=O)c1ccc(-c2c3nc(c(-c4c(F)c(F)c(F)c(F)c4F)c4ccc([nH]4)c(-c4c(F)c(F)c(F)c(F)c4F)c4nc(c(-c5c(F)c(F)c(F)c(F)c5F)c5ccc2[nH]5)C=C4)C=C3)cc1
REMARK SMILES IDX 23 1 22 2 21 3 20 4 19 5 2 6 1 7 3 8 4 9 5 10 18 11 6 12
REMARK SMILES IDX 17 13 7 14 8 15 9 16 10 17 11 18 12 19 13 20 16 21 14 22
REMARK SMILES IDX 15 23 24 24 25 25 26 26 27 27 28 28 29 29 30 30 31 31 32 32
REMARK SMILES IDX 93 33 33 34 92 35 34 36 35 37 36 38 86 39 37 40 91 41 85 42
REMARK SMILES IDX 87 43 38 44 90 45 84 46 83 47 39 49 71 50 51 51 70 52 52 53
REMARK SMILES IDX 55 54 69 55 88 56 53 57 54 58 68 60 89 61 56 62 40 63 41 64
REMARK SMILES IDX 49 65 42 66 43 67 47 68 50 69 44 70 45 71 48 72 46 73 72 74
REMARK SMILES IDX 73 75 81 76 74 77 75 78 79 79 82 80 76 81 77 82 80 83 78 84
REMARK SMILES IDX 57 85 58 86 66 87 59 88 60 89 64 90 67 91 61 92 62 93 65 94
REMARK SMILES IDX 63 95
REMARK H PARENT 87 48 55 59
REMARK Flexibility Score: inf
ROOT
ATOM      1  C   UNL A   1      36.339  23.577  25.073  1.00  0.00     0.188 C 
ENDROOT
BRANCH   1   2
ATOM      2  O   UNL A   1      35.924  23.391  26.409  1.00  0.00    -0.376 OA
BRANCH   2   3
ATOM      3  C   UNL A   1      34.576  23.060  26.689  1.00  0.00     0.202 C 
BRANCH   3   4
ATOM      4  C   UNL A   1      34.212  21.596  26.901  1.00  0.00     0.261 C 
BRANCH   4   5
ATOM      5  O   UNL A   1      34.321  20.648  25.802  1.00  0.00    -0.463 OA
BRANCH   5   6
ATOM      6  C   UNL A   1      33.468  20.108  24.912  1.00  0.00     0.310 C 
ATOM      7  O   UNL A   1      33.803  19.089  24.307  1.00  0.00    -0.252 OA
BRANCH   6   8
ATOM      8  C   UNL A   1      32.161  20.775  24.581  1.00  0.00     0.158 C 
BRANCH   8   9
ATOM      9  C   UNL A   1      32.283  22.134  23.957  1.00  0.00    -0.037 A 
ATOM     10  C   UNL A   1      33.352  22.447  23.110  1.00  0.00     0.005 A 
ATOM     11  C   UNL A   1      31.291  23.096  24.189  1.00  0.00     0.005 A 
ATOM     12  C   UNL A   1      33.421  23.685  22.483  1.00  0.00     0.020 A 
ATOM     13  C   UNL A   1      31.360  24.346  23.576  1.00  0.00     0.020 A 
ATOM     14  C   UNL A   1      32.410  24.617  22.699  1.00  0.00     0.067 A 
BRANCH  14  15
ATOM     15  S   UNL A   1      32.459  26.141  21.805  1.00  0.00     0.180 S 
ATOM     16  O   UNL A   1      33.861  26.382  21.515  1.00  0.00    -0.224 OA
ATOM     17  O   UNL A   1      31.506  26.036  20.715  1.00  0.00    -0.224 OA
BRANCH  15  18
ATOM     18  C   UNL A   1      31.907  27.426  22.886  1.00  0.00     0.174 C 
BRANCH  18  19
ATOM     19  C   UNL A   1      30.512  27.995  22.680  1.00  0.00     0.133 C 
ATOM     20  C   UNL A   1      29.774  28.614  23.861  1.00  0.00     0.035 C 
ATOM     21  O   UNL A   1      30.488  28.949  21.605  1.00  0.00    -0.377 OA
ATOM     22  C   UNL A   1      29.577  30.058  23.459  1.00  0.00     0.031 C 
ATOM     23  C   UNL A   1      29.560  29.984  21.951  1.00  0.00     0.160 C 
ENDBRANCH  18  19
ENDBRANCH  15  18
ENDBRANCH  14  15
ENDBRANCH   8   9
ENDBRANCH   6   8
ENDBRANCH   5   6
ENDBRANCH   4   5
ENDBRANCH   3   4
ENDBRANCH   2   3
ENDBRANCH   1   2
BRANCH   1  24
ATOM     24  C   UNL A   1      37.033  22.383  24.400  1.00  0.00     0.188 C 
BRANCH  24  25
ATOM     25  O   UNL A   1      37.783  21.478  25.193  1.00  0.00    -0.376 OA
BRANCH  25  26
ATOM     26  C   UNL A   1      37.760  20.091  24.882  1.00  0.00     0.202 C 
BRANCH  26  27
ATOM     27  C   UNL A   1      38.916  19.199  25.363  1.00  0.00     0.261 C 
BRANCH  27  28
ATOM     28  O   UNL A   1      39.782  19.809  26.343  1.00  0.00    -0.460 OA
BRANCH  28  29
ATOM     29  C   UNL A   1      41.108  19.589  26.182  1.00  0.00     0.338 C 
ATOM     30  O   UNL A   1      41.646  18.568  25.771  1.00  0.00    -0.246 OA
BRANCH  29  31
ATOM     31  C   UNL A   1      41.878  20.821  26.446  1.00  0.00     0.060 A 
ATOM     32  C   UNL A   1      42.261  21.106  27.766  1.00  0.00     0.016 A 
ATOM     33  C   UNL A   1      42.144  21.735  25.425  1.00  0.00     0.016 A 
ATOM     34  C   UNL A   1      42.906  22.309  28.069  1.00  0.00     0.010 A 
ATOM     35  C   UNL A   1      42.764  22.953  25.737  1.00  0.00     0.010 A 
ATOM     36  C   UNL A   1      43.131  23.257  27.062  1.00  0.00    -0.014 A 
BRANCH  36  37
ATOM     37  C   UNL A   1      43.627  24.616  27.403  1.00  0.00     0.031 A 
ATOM     38  C   UNL A   1      42.655  25.641  27.923  1.00  0.00     0.074 A 
ATOM     39  C   UNL A   1      44.920  24.947  27.239  1.00  0.00     0.049 A 
ATOM     40  N   UNL A   1      42.844  26.912  28.177  1.00  0.00    -0.248 NA
ATOM     41  C   UNL A   1      41.287  25.170  28.190  1.00  0.00     0.031 C 
ATOM     42  C   UNL A   1      45.973  24.042  26.789  1.00  0.00     0.029 A 
ATOM     43  N   UNL A   1      45.563  26.151  27.413  1.00  0.00    -0.354 N 
ATOM     44  C   UNL A   1      41.619  27.394  28.622  1.00  0.00     0.074 A 
ATOM     45  C   UNL A   1      40.690  26.285  28.591  1.00  0.00     0.031 C 
ATOM     46  C   UNL A   1      47.126  24.729  26.691  1.00  0.00     0.029 A 
ATOM     47  C   UNL A   1      46.883  26.129  27.036  1.00  0.00     0.049 A 
ATOM     48  H   UNL A   1      45.117  26.952  27.773  1.00  0.00     0.167 HD
ATOM     49  C   UNL A   1      41.300  28.648  29.021  1.00  0.00     0.037 A 
ATOM     50  C   UNL A   1      47.780  27.132  26.943  1.00  0.00     0.037 A 
ATOM     51  C   UNL A   1      42.221  29.753  29.062  1.00  0.00     0.049 A 
ATOM     52  C   UNL A   1      47.373  28.537  27.314  1.00  0.00     0.074 A 
ATOM     53  C   UNL A   1      41.993  31.049  29.494  1.00  0.00     0.029 A 
ATOM     54  N   UNL A   1      43.541  29.699  28.643  1.00  0.00    -0.354 N 
ATOM     55  N   UNL A   1      46.225  28.976  27.768  1.00  0.00    -0.248 NA
ATOM     56  C   UNL A   1      48.390  29.589  27.151  1.00  0.00     0.031 C 
ATOM     57  C   UNL A   1      43.157  31.794  29.282  1.00  0.00     0.029 A 
ATOM     58  C   UNL A   1      44.128  30.949  28.770  1.00  0.00     0.049 A 
ATOM     59  H   UNL A   1      43.994  28.892  28.306  1.00  0.00     0.167 HD
ATOM     60  C   UNL A   1      46.388  30.342  27.968  1.00  0.00     0.074 A 
ATOM     61  C   UNL A   1      47.751  30.658  27.604  1.00  0.00     0.031 C 
ATOM     62  C   UNL A   1      45.487  31.254  28.409  1.00  0.00     0.037 A 
BRANCH  49  63
ATOM     63  C   UNL A   1      39.880  28.914  29.431  1.00  0.00     0.064 A 
ATOM     64  C   UNL A   1      38.909  29.314  28.503  1.00  0.00     0.173 A 
ATOM     65  C   UNL A   1      39.474  28.684  30.753  1.00  0.00     0.173 A 
ATOM     66  F   UNL A   1      39.251  29.556  27.228  1.00  0.00    -0.203 F 
ATOM     67  C   UNL A   1      37.582  29.485  28.888  1.00  0.00     0.198 A 
ATOM     68  C   UNL A   1      38.141  28.832  31.129  1.00  0.00     0.198 A 
ATOM     69  F   UNL A   1      40.365  28.295  31.677  1.00  0.00    -0.203 F 
ATOM     70  F   UNL A   1      36.673  29.893  27.991  1.00  0.00    -0.200 F 
ATOM     71  C   UNL A   1      37.198  29.234  30.197  1.00  0.00     0.200 A 
ATOM     72  F   UNL A   1      37.770  28.576  32.391  1.00  0.00    -0.200 F 
ATOM     73  F   UNL A   1      35.916  29.381  30.561  1.00  0.00    -0.200 F 
ENDBRANCH  49  63
BRANCH  50  74
ATOM     74  C   UNL A   1      49.152  26.864  26.431  1.00  0.00     0.064 A 
ATOM     75  C   UNL A   1      49.454  26.987  25.067  1.00  0.00     0.173 A 
ATOM     76  C   UNL A   1      50.173  26.422  27.286  1.00  0.00     0.173 A 
ATOM     77  F   UNL A   1      48.504  27.374  24.204  1.00  0.00    -0.203 F 
ATOM     78  C   UNL A   1      50.714  26.650  24.576  1.00  0.00     0.198 A 
ATOM     79  C   UNL A   1      51.442  26.117  26.798  1.00  0.00     0.198 A 
ATOM     80  F   UNL A   1      49.935  26.280  28.599  1.00  0.00    -0.203 F 
ATOM     81  F   UNL A   1      50.956  26.715  23.258  1.00  0.00    -0.200 F 
ATOM     82  C   UNL A   1      51.707  26.220  25.441  1.00  0.00     0.200 A 
ATOM     83  F   UNL A   1      52.400  25.710  27.641  1.00  0.00    -0.200 F 
ATOM     84  F   UNL A   1      52.917  25.890  24.967  1.00  0.00    -0.200 F 
ENDBRANCH  50  74
BRANCH  62  85
ATOM     85  C   UNL A   1      45.947  32.677  28.546  1.00  0.00     0.064 A 
ATOM     86  C   UNL A   1      46.666  33.112  29.670  1.00  0.00     0.173 A 
ATOM     87  C   UNL A   1      45.706  33.608  27.523  1.00  0.00     0.173 A 
ATOM     88  F   UNL A   1      46.910  32.267  30.683  1.00  0.00    -0.203 F 
ATOM     89  C   UNL A   1      47.105  34.429  29.775  1.00  0.00     0.198 A 
ATOM     90  C   UNL A   1      46.173  34.915  27.617  1.00  0.00     0.198 A 
ATOM     91  F   UNL A   1      45.031  33.243  26.423  1.00  0.00    -0.203 F 
ATOM     92  F   UNL A   1      47.750  34.834  30.878  1.00  0.00    -0.200 F 
ATOM     93  C   UNL A   1      46.865  35.328  28.745  1.00  0.00     0.200 A 
ATOM     94  F   UNL A   1      45.953  35.778  26.615  1.00  0.00    -0.200 F 
ATOM     95  F   UNL A   1      47.297  36.593  28.844  1.00  0.00    -0.200 F 
ENDBRANCH  62  85
ENDBRANCH  36  37
ENDBRANCH  29  31
ENDBRANCH  28  29
ENDBRANCH  27  28
ENDBRANCH  26  27
ENDBRANCH  25  26
ENDBRANCH  24  25
ENDBRANCH   1  24
TORSDOF 21
ENDMDL
MODEL 2
REMARK VINA RESULT:     -10.4      5.351     10.033
REMARK SMILES O=C(Cc1ccc(S(=O)(=O)C[C@H]2CCCO2)cc1)OCCOCCOCCOC(=O)c1ccc(-c2c3nc(c(-c4c(F)c(F)c(F)c(F)c4F)c4ccc([nH]4)c(-c4c(F)c(F)c(F)c(F)c4F)c4nc(c(-c5c(F)c(F)c(F)c(F)c5F)c5ccc2[nH]5)C=C4)C=C3)cc1
REMARK SMILES IDX 23 1 22 2 21 3 20 4 19 5 2 6 1 7 3 8 4 9 5 10 18 11 6 12
REMARK SMILES IDX 17 13 7 14 8 15 9 16 10 17 11 18 12 19 13 20 16 21 14 22
REMARK SMILES IDX 15 23 24 24 25 25 26 26 27 27 28 28 29 29 30 30 31 31 32 32
REMARK SMILES IDX 93 33 33 34 92 35 34 36 35 37 36 38 86 39 37 40 91 41 85 42
REMARK SMILES IDX 87 43 38 44 90 45 84 46 83 47 39 49 71 50 51 51 70 52 52 53
REMARK SMILES IDX 55 54 69 55 88 56 53 57 54 58 68 60 89 61 56 62 40 63 41 64
REMARK SMILES IDX 49 65 42 66 43 67 47 68 50 69 44 70 45 71 48 72 46 73 72 74
REMARK SMILES IDX 73 75 81 76 74 77 75 78 79 79 82 80 76 81 77 82 80 83 78 84
REMARK SMILES IDX 57 85 58 86 66 87 59 88 60 89 64 90 67 91 61 92 62 93 65 94
REMARK SMILES IDX 63 95
REMARK H PARENT 87 48 55 59
REMARK Flexibility Score: inf
ROOT
ATOM      1  C   UNL A   1      33.106  28.896  27.247  1.00  0.00     0.188 C 
ENDROOT
BRANCH   1   2
ATOM      2  O   UNL A   1      32.914  28.076  26.114  1.00  0.00    -0.376 OA
BRANCH   2   3
ATOM      3  C   UNL A   1      33.479  28.449  24.870  1.00  0.00     0.202 C 
BRANCH   3   4
ATOM      4  C   UNL A   1      32.545  28.817  23.724  1.00  0.00     0.261 C 
BRANCH   4   5
ATOM      5  O   UNL A   1      31.106  28.662  23.875  1.00  0.00    -0.463 OA
BRANCH   5   6
ATOM      6  C   UNL A   1      30.114  28.138  23.133  1.00  0.00     0.310 C 
ATOM      7  O   UNL A   1      29.910  28.588  22.004  1.00  0.00    -0.252 OA
BRANCH   6   8
ATOM      8  C   UNL A   1      29.199  27.081  23.689  1.00  0.00     0.158 C 
BRANCH   8   9
ATOM      9  C   UNL A   1      29.891  25.850  24.196  1.00  0.00    -0.037 A 
ATOM     10  C   UNL A   1      30.427  24.905  23.315  1.00  0.00     0.005 A 
ATOM     11  C   UNL A   1      30.043  25.659  25.577  1.00  0.00     0.005 A 
ATOM     12  C   UNL A   1      31.124  23.803  23.793  1.00  0.00     0.020 A 
ATOM     13  C   UNL A   1      30.728  24.548  26.066  1.00  0.00     0.020 A 
ATOM     14  C   UNL A   1      31.294  23.646  25.165  1.00  0.00     0.067 A 
BRANCH  14  15
ATOM     15  S   UNL A   1      32.279  22.299  25.747  1.00  0.00     0.180 S 
ATOM     16  O   UNL A   1      32.543  22.579  27.147  1.00  0.00    -0.224 OA
ATOM     17  O   UNL A   1      31.600  21.071  25.374  1.00  0.00    -0.224 OA
BRANCH  15  18
ATOM     18  C   UNL A   1      33.825  22.344  24.892  1.00  0.00     0.174 C 
BRANCH  18  19
ATOM     19  C   UNL A   1      35.065  21.831  25.609  1.00  0.00     0.133 C 
ATOM     20  C   UNL A   1      35.860  20.682  25.001  1.00  0.00     0.035 C 
ATOM     21  O   UNL A   1      35.987  22.897  25.889  1.00  0.00    -0.377 OA
ATOM     22  C   UNL A   1      37.220  21.279  24.722  1.00  0.00     0.031 C 
ATOM     23  C   UNL A   1      37.317  22.381  25.750  1.00  0.00     0.160 C 
ENDBRANCH  18  19
ENDBRANCH  15  18
ENDBRANCH  14  15
ENDBRANCH   8   9
ENDBRANCH   6   8
ENDBRANCH   5   6
ENDBRANCH   4   5
ENDBRANCH   3   4
ENDBRANCH   2   3
ENDBRANCH   1   2
BRANCH   1  24
ATOM     24  C   UNL A   1      33.013  30.412  27.016  1.00  0.00     0.188 C 
BRANCH  24  25
ATOM     25  O   UNL A   1      31.743  31.010  26.824  1.00  0.00    -0.376 OA
BRANCH  25  26
ATOM     26  C   UNL A   1      31.644  32.424  26.713  1.00  0.00     0.202 C 
BRANCH  26  27
ATOM     27  C   UNL A   1      32.694  33.302  27.412  1.00  0.00     0.261 C 
BRANCH  27  28
ATOM     28  O   UNL A   1      32.155  34.275  28.331  1.00  0.00    -0.460 OA
BRANCH  28  29
ATOM     29  C   UNL A   1      33.012  35.233  28.753  1.00  0.00     0.338 C 
ATOM     30  O   UNL A   1      32.877  36.446  28.652  1.00  0.00    -0.246 OA
BRANCH  29  31
ATOM     31  C   UNL A   1      34.133  34.636  29.507  1.00  0.00     0.060 A 
ATOM     32  C   UNL A   1      35.402  34.598  28.910  1.00  0.00     0.016 A 
ATOM     33  C   UNL A   1      33.925  34.037  30.751  1.00  0.00     0.016 A 
ATOM     34  C   UNL A   1      36.466  33.956  29.552  1.00  0.00     0.010 A 
ATOM     35  C   UNL A   1      34.984  33.368  31.377  1.00  0.00     0.010 A 
ATOM     36  C   UNL A   1      36.255  33.305  30.775  1.00  0.00    -0.014 A 
BRANCH  36  37
ATOM     37  C   UNL A   1      37.317  32.449  31.366  1.00  0.00     0.031 A 
ATOM     38  C   UNL A   1      37.847  32.780  32.735  1.00  0.00     0.074 A 
ATOM     39  C   UNL A   1      37.823  31.401  30.692  1.00  0.00     0.049 A 
ATOM     40  N   UNL A   1      38.843  32.242  33.394  1.00  0.00    -0.248 NA
ATOM     41  C   UNL A   1      37.162  33.864  33.457  1.00  0.00     0.031 C 
ATOM     42  C   UNL A   1      37.372  30.942  29.381  1.00  0.00     0.029 A 
ATOM     43  N   UNL A   1      38.848  30.542  31.014  1.00  0.00    -0.354 N 
ATOM     44  C   UNL A   1      38.911  32.928  34.601  1.00  0.00     0.074 A 
ATOM     45  C   UNL A   1      37.867  33.929  34.579  1.00  0.00     0.031 C 
ATOM     46  C   UNL A   1      38.137  29.905  28.995  1.00  0.00     0.029 A 
ATOM     47  C   UNL A   1      39.154  29.652  30.015  1.00  0.00     0.049 A 
ATOM     48  H   UNL A   1      39.317  30.565  31.879  1.00  0.00     0.167 HD
ATOM     49  C   UNL A   1      39.766  32.737  35.633  1.00  0.00     0.037 A 
ATOM     50  C   UNL A   1      40.163  28.762  29.918  1.00  0.00     0.037 A 
ATOM     51  C   UNL A   1      40.802  31.738  35.663  1.00  0.00     0.049 A 
ATOM     52  C   UNL A   1      41.155  28.630  31.048  1.00  0.00     0.074 A 
ATOM     53  C   UNL A   1      41.688  31.446  36.687  1.00  0.00     0.029 A 
ATOM     54  N   UNL A   1      41.100  30.876  34.620  1.00  0.00    -0.354 N 
ATOM     55  N   UNL A   1      41.190  29.255  32.200  1.00  0.00    -0.248 NA
ATOM     56  C   UNL A   1      42.253  27.668  30.861  1.00  0.00     0.031 C 
ATOM     57  C   UNL A   1      42.560  30.448  36.242  1.00  0.00     0.029 A 
ATOM     58  C   UNL A   1      42.183  30.079  34.961  1.00  0.00     0.049 A 
ATOM     59  H   UNL A   1      40.616  30.835  33.764  1.00  0.00     0.167 HD
ATOM     60  C   UNL A   1      42.292  28.749  32.879  1.00  0.00     0.074 A 
ATOM     61  C   UNL A   1      42.889  27.749  32.021  1.00  0.00     0.031 C 
ATOM     62  C   UNL A   1      42.769  29.084  34.102  1.00  0.00     0.037 A 
BRANCH  49  63
ATOM     63  C   UNL A   1      39.645  33.645  36.822  1.00  0.00     0.064 A 
ATOM     64  C   UNL A   1      40.289  34.889  36.868  1.00  0.00     0.173 A 
ATOM     65  C   UNL A   1      38.806  33.296  37.891  1.00  0.00     0.173 A 
ATOM     66  F   UNL A   1      41.109  35.262  35.874  1.00  0.00    -0.203 F 
ATOM     67  C   UNL A   1      40.105  35.748  37.948  1.00  0.00     0.198 A 
ATOM     68  C   UNL A   1      38.605  34.169  38.957  1.00  0.00     0.198 A 
ATOM     69  F   UNL A   1      38.163  32.119  37.891  1.00  0.00    -0.203 F 
ATOM     70  F   UNL A   1      40.750  36.923  37.985  1.00  0.00    -0.200 F 
ATOM     71  C   UNL A   1      39.256  35.392  38.985  1.00  0.00     0.200 A 
ATOM     72  F   UNL A   1      37.773  33.829  39.952  1.00  0.00    -0.200 F 
ATOM     73  F   UNL A   1      39.066  36.230  40.015  1.00  0.00    -0.200 F 
ENDBRANCH  49  63
BRANCH  50  74
ATOM     74  C   UNL A   1      40.329  27.948  28.683  1.00  0.00     0.064 A 
ATOM     75  C   UNL A   1      39.732  26.686  28.559  1.00  0.00     0.173 A 
ATOM     76  C   UNL A   1      41.140  28.391  27.626  1.00  0.00     0.173 A 
ATOM     77  F   UNL A   1      38.976  26.204  29.555  1.00  0.00    -0.203 F 
ATOM     78  C   UNL A   1      39.961  25.888  27.440  1.00  0.00     0.198 A 
ATOM     79  C   UNL A   1      41.341  27.606  26.493  1.00  0.00     0.198 A 
ATOM     80  F   UNL A   1      41.741  29.588  27.697  1.00  0.00    -0.203 F 
ATOM     81  F   UNL A   1      39.430  24.658  27.377  1.00  0.00    -0.200 F 
ATOM     82  C   UNL A   1      40.761  26.349  26.407  1.00  0.00     0.200 A 
ATOM     83  F   UNL A   1      42.110  28.061  25.494  1.00  0.00    -0.200 F 
ATOM     84  F   UNL A   1      40.987  25.579  25.334  1.00  0.00    -0.200 F 
ENDBRANCH  50  74
BRANCH  62  85
ATOM     85  C   UNL A   1      43.983  28.353  34.601  1.00  0.00     0.064 A 
ATOM     86  C   UNL A   1      43.877  27.128  35.277  1.00  0.00     0.173 A 
ATOM     87  C   UNL A   1      45.270  28.860  34.362  1.00  0.00     0.173 A 
ATOM     88  F   UNL A   1      42.669  26.608  35.544  1.00  0.00    -0.203 F 
ATOM     89  C   UNL A   1      45.012  26.451  35.715  1.00  0.00     0.198 A 
ATOM     90  C   UNL A   1      46.403  28.165  34.774  1.00  0.00     0.198 A 
ATOM     91  F   UNL A   1      45.429  30.023  33.713  1.00  0.00    -0.203 F 
ATOM     92  F   UNL A   1      44.885  25.305  36.399  1.00  0.00    -0.200 F 
ATOM     93  C   UNL A   1      46.274  26.965  35.456  1.00  0.00     0.200 A 
ATOM     94  F   UNL A   1      47.622  28.656  34.510  1.00  0.00    -0.200 F 
ATOM     95  F   UNL A   1      47.366  26.306  35.871  1.00  0.00    -0.200 F 
ENDBRANCH  62  85
ENDBRANCH  36  37
ENDBRANCH  29  31
ENDBRANCH  28  29
ENDBRANCH  27  28
ENDBRANCH  26  27
ENDBRANCH  25  26
ENDBRANCH  24  25
ENDBRANCH   1  24
TORSDOF 21
ENDMDL
MODEL 3
REMARK VINA RESULT:     -10.2      4.686      7.653
REMARK SMILES O=C(Cc1ccc(S(=O)(=O)C[C@H]2CCCO2)cc1)OCCOCCOCCOC(=O)c1ccc(-c2c3nc(c(-c4c(F)c(F)c(F)c(F)c4F)c4ccc([nH]4)c(-c4c(F)c(F)c(F)c(F)c4F)c4nc(c(-c5c(F)c(F)c(F)c(F)c5F)c5ccc2[nH]5)C=C4)C=C3)cc1
REMARK SMILES IDX 23 1 22 2 21 3 20 4 19 5 2 6 1 7 3 8 4 9 5 10 18 11 6 12
REMARK SMILES IDX 17 13 7 14 8 15 9 16 10 17 11 18 12 19 13 20 16 21 14 22
REMARK SMILES IDX 15 23 24 24 25 25 26 26 27 27 28 28 29 29 30 30 31 31 32 32
REMARK SMILES IDX 93 33 33 34 92 35 34 36 35 37 36 38 86 39 37 40 91 41 85 42
REMARK SMILES IDX 87 43 38 44 90 45 84 46 83 47 39 49 71 50 51 51 70 52 52 53
REMARK SMILES IDX 55 54 69 55 88 56 53 57 54 58 68 60 89 61 56 62 40 63 41 64
REMARK SMILES IDX 49 65 42 66 43 67 47 68 50 69 44 70 45 71 48 72 46 73 72 74
REMARK SMILES IDX 73 75 81 76 74 77 75 78 79 79 82 80 76 81 77 82 80 83 78 84
REMARK SMILES IDX 57 85 58 86 66 87 59 88 60 89 64 90 67 91 61 92 62 93 65 94
REMARK SMILES IDX 63 95
REMARK H PARENT 87 48 55 59
REMARK Flexibility Score: inf
ROOT
ATOM      1  C   UNL A   1      43.326  18.842  25.722  1.00  0.00     0.188 C 
ENDROOT
BRANCH   1   2
ATOM      2  O   UNL A   1      41.979  19.213  25.526  1.00  0.00    -0.376 OA
BRANCH   2   3
ATOM      3  C   UNL A   1      41.297  19.949  26.526  1.00  0.00     0.202 C 
BRANCH   3   4
ATOM      4  C   UNL A   1      40.610  21.251  26.134  1.00  0.00     0.261 C 
BRANCH   4   5
ATOM      5  O   UNL A   1      39.169  21.390  26.280  1.00  0.00    -0.463 OA
BRANCH   5   6
ATOM      6  C   UNL A   1      38.200  22.071  25.641  1.00  0.00     0.310 C 
ATOM      7  O   UNL A   1      38.073  23.276  25.860  1.00  0.00    -0.252 OA
BRANCH   6   8
ATOM      8  C   UNL A   1      37.221  21.371  24.738  1.00  0.00     0.158 C 
BRANCH   8   9
ATOM      9  C   UNL A   1      35.970  22.145  24.441  1.00  0.00    -0.037 A 
ATOM     10  C   UNL A   1      35.966  23.184  23.504  1.00  0.00     0.005 A 
ATOM     11  C   UNL A   1      34.771  21.797  25.079  1.00  0.00     0.005 A 
ATOM     12  C   UNL A   1      34.790  23.850  23.187  1.00  0.00     0.020 A 
ATOM     13  C   UNL A   1      33.589  22.469  24.777  1.00  0.00     0.020 A 
ATOM     14  C   UNL A   1      33.602  23.469  23.806  1.00  0.00     0.067 A 
BRANCH  14  15
ATOM     15  S   UNL A   1      32.099  24.253  23.305  1.00  0.00     0.180 S 
ATOM     16  O   UNL A   1      32.367  24.821  21.997  1.00  0.00    -0.224 OA
ATOM     17  O   UNL A   1      31.030  23.282  23.464  1.00  0.00    -0.224 OA
BRANCH  15  18
ATOM     18  C   UNL A   1      31.784  25.591  24.416  1.00  0.00     0.174 C 
BRANCH  18  19
ATOM     19  C   UNL A   1      31.984  27.012  23.913  1.00  0.00     0.133 C 
ATOM     20  C   UNL A   1      30.860  28.029  24.076  1.00  0.00     0.035 C 
ATOM     21  O   UNL A   1      33.180  27.597  24.453  1.00  0.00    -0.377 OA
ATOM     22  C   UNL A   1      31.450  29.093  24.971  1.00  0.00     0.031 C 
ATOM     23  C   UNL A   1      32.929  28.989  24.682  1.00  0.00     0.160 C 
ENDBRANCH  18  19
ENDBRANCH  15  18
ENDBRANCH  14  15
ENDBRANCH   8   9
ENDBRANCH   6   8
ENDBRANCH   5   6
ENDBRANCH   4   5
ENDBRANCH   3   4
ENDBRANCH   2   3
ENDBRANCH   1   2
BRANCH   1  24
ATOM     24  C   UNL A   1      44.226  18.852  24.477  1.00  0.00     0.188 C 
BRANCH  24  25
ATOM     25  O   UNL A   1      44.582  20.090  23.887  1.00  0.00    -0.376 OA
BRANCH  25  26
ATOM     26  C   UNL A   1      44.762  21.234  24.713  1.00  0.00     0.202 C 
BRANCH  26  27
ATOM     27  C   UNL A   1      44.208  22.588  24.243  1.00  0.00     0.261 C 
BRANCH  27  28
ATOM     28  O   UNL A   1      43.677  23.422  25.294  1.00  0.00    -0.460 OA
BRANCH  28  29
ATOM     29  C   UNL A   1      44.171  24.680  25.360  1.00  0.00     0.338 C 
ATOM     30  O   UNL A   1      45.014  25.186  24.630  1.00  0.00    -0.246 OA
BRANCH  29  31
ATOM     31  C   UNL A   1      43.456  25.469  26.383  1.00  0.00     0.060 A 
ATOM     32  C   UNL A   1      43.918  26.759  26.685  1.00  0.00     0.016 A 
ATOM     33  C   UNL A   1      42.396  24.918  27.105  1.00  0.00     0.016 A 
ATOM     34  C   UNL A   1      43.328  27.499  27.714  1.00  0.00     0.010 A 
ATOM     35  C   UNL A   1      41.825  25.649  28.156  1.00  0.00     0.010 A 
ATOM     36  C   UNL A   1      42.299  26.934  28.481  1.00  0.00    -0.014 A 
BRANCH  36  37
ATOM     37  C   UNL A   1      41.803  27.623  29.701  1.00  0.00     0.031 A 
ATOM     38  C   UNL A   1      40.585  28.502  29.601  1.00  0.00     0.074 A 
ATOM     39  C   UNL A   1      42.433  27.489  30.881  1.00  0.00     0.049 A 
ATOM     40  N   UNL A   1      40.045  29.282  30.505  1.00  0.00    -0.248 NA
ATOM     41  C   UNL A   1      39.882  28.502  28.309  1.00  0.00     0.031 C 
ATOM     42  C   UNL A   1      43.593  26.637  31.128  1.00  0.00     0.029 A 
ATOM     43  N   UNL A   1      42.193  28.091  32.095  1.00  0.00    -0.354 N 
ATOM     44  C   UNL A   1      38.949  29.872  29.889  1.00  0.00     0.074 A 
ATOM     45  C   UNL A   1      38.907  29.373  28.531  1.00  0.00     0.031 C 
ATOM     46  C   UNL A   1      43.985  26.794  32.406  1.00  0.00     0.029 A 
ATOM     47  C   UNL A   1      43.127  27.785  33.054  1.00  0.00     0.049 A 
ATOM     48  H   UNL A   1      41.426  28.687  32.258  1.00  0.00     0.167 HD
ATOM     49  C   UNL A   1      38.059  30.749  30.409  1.00  0.00     0.037 A 
ATOM     50  C   UNL A   1      43.292  28.278  34.299  1.00  0.00     0.037 A 
ATOM     51  C   UNL A   1      38.092  31.244  31.761  1.00  0.00     0.049 A 
ATOM     52  C   UNL A   1      42.334  29.319  34.824  1.00  0.00     0.074 A 
ATOM     53  C   UNL A   1      37.204  32.103  32.386  1.00  0.00     0.029 A 
ATOM     54  N   UNL A   1      39.070  30.934  32.693  1.00  0.00    -0.354 N 
ATOM     55  N   UNL A   1      41.280  29.844  34.249  1.00  0.00    -0.248 NA
ATOM     56  C   UNL A   1      42.596  29.842  36.175  1.00  0.00     0.031 C 
ATOM     57  C   UNL A   1      37.677  32.359  33.677  1.00  0.00     0.029 A 
ATOM     58  C   UNL A   1      38.829  31.617  33.875  1.00  0.00     0.049 A 
ATOM     59  H   UNL A   1      39.824  30.320  32.538  1.00  0.00     0.167 HD
ATOM     60  C   UNL A   1      40.743  30.735  35.171  1.00  0.00     0.074 A 
ATOM     61  C   UNL A   1      41.574  30.667  36.353  1.00  0.00     0.031 C 
ATOM     62  C   UNL A   1      39.659  31.540  35.048  1.00  0.00     0.037 A 
BRANCH  49  63
ATOM     63  C   UNL A   1      36.973  31.264  29.511  1.00  0.00     0.064 A 
ATOM     64  C   UNL A   1      35.898  30.455  29.118  1.00  0.00     0.173 A 
ATOM     65  C   UNL A   1      36.970  32.607  29.107  1.00  0.00     0.173 A 
ATOM     66  F   UNL A   1      35.861  29.161  29.471  1.00  0.00    -0.203 F 
ATOM     67  C   UNL A   1      34.861  30.971  28.344  1.00  0.00     0.198 A 
ATOM     68  C   UNL A   1      35.919  33.127  28.355  1.00  0.00     0.198 A 
ATOM     69  F   UNL A   1      37.974  33.423  29.462  1.00  0.00    -0.203 F 
ATOM     70  F   UNL A   1      33.855  30.176  27.957  1.00  0.00    -0.200 F 
ATOM     71  C   UNL A   1      34.868  32.308  27.973  1.00  0.00     0.200 A 
ATOM     72  F   UNL A   1      35.922  34.421  28.008  1.00  0.00    -0.200 F 
ATOM     73  F   UNL A   1      33.860  32.807  27.243  1.00  0.00    -0.200 F 
ENDBRANCH  49  63
BRANCH  50  74
ATOM     74  C   UNL A   1      44.441  27.834  35.134  1.00  0.00     0.064 A 
ATOM     75  C   UNL A   1      44.332  26.730  35.992  1.00  0.00     0.173 A 
ATOM     76  C   UNL A   1      45.653  28.542  35.136  1.00  0.00     0.173 A 
ATOM     77  F   UNL A   1      43.184  26.041  36.052  1.00  0.00    -0.203 F 
ATOM     78  C   UNL A   1      45.379  26.370  36.839  1.00  0.00     0.198 A 
ATOM     79  C   UNL A   1      46.711  28.161  35.959  1.00  0.00     0.198 A 
ATOM     80  F   UNL A   1      45.808  29.610  34.339  1.00  0.00    -0.203 F 
ATOM     81  F   UNL A   1      45.224  25.351  37.696  1.00  0.00    -0.200 F 
ATOM     82  C   UNL A   1      46.568  27.082  36.819  1.00  0.00     0.200 A 
ATOM     83  F   UNL A   1      47.860  28.848  35.929  1.00  0.00    -0.200 F 
ATOM     84  F   UNL A   1      47.571  26.740  37.638  1.00  0.00    -0.200 F 
ENDBRANCH  50  74
BRANCH  62  85
ATOM     85  C   UNL A   1      39.292  32.398  36.225  1.00  0.00     0.064 A 
ATOM     86  C   UNL A   1      39.844  33.676  36.404  1.00  0.00     0.173 A 
ATOM     87  C   UNL A   1      38.345  31.958  37.162  1.00  0.00     0.173 A 
ATOM     88  F   UNL A   1      40.766  34.139  35.545  1.00  0.00    -0.203 F 
ATOM     89  C   UNL A   1      39.479  34.469  37.489  1.00  0.00     0.198 A 
ATOM     90  C   UNL A   1      37.959  32.766  38.228  1.00  0.00     0.198 A 
ATOM     91  F   UNL A   1      37.779  30.748  37.034  1.00  0.00    -0.203 F 
ATOM     92  F   UNL A   1      40.054  35.667  37.664  1.00  0.00    -0.200 F 
ATOM     93  C   UNL A   1      38.531  34.017  38.395  1.00  0.00     0.200 A 
ATOM     94  F   UNL A   1      37.032  32.333  39.094  1.00  0.00    -0.200 F 
ATOM     95  F   UNL A   1      38.174  34.787  39.433  1.00  0.00    -0.200 F 
ENDBRANCH  62  85
ENDBRANCH  36  37
ENDBRANCH  29  31
ENDBRANCH  28  29
ENDBRANCH  27  28
ENDBRANCH  26  27
ENDBRANCH  25  26
ENDBRANCH  24  25
ENDBRANCH   1  24
TORSDOF 21
ENDMDL
