MODEL 1
REMARK VINA RESULT:     -10.9      0.000      0.000
REMARK SMILES O=C(N[C@H](C(=O)OCCOCCOCCOC(=O)c1ccc(-c2c3nc(c(-c4c(F)c(F)c(F)c(F)c4F)c4ccc([nH]4)c(-c4c(F)c(F)c(F)c(F)c4F)c4nc(c(-c5c(F)c(F)c(F)c(F)c5F)c5ccc2[nH]5)C=C4)C=C3)cc1)c1ccccc1F)c1ccc(C[NH+]2CCCCC2)cc1
REMARK SMILES IDX 11 1 10 2 9 3 8 4 7 5 5 6 6 7 4 8 3 9 1 10 2 11 89 13 90 14
REMARK SMILES IDX 101 15 91 16 100 17 92 18 93 19 94 20 95 21 99 22 96 24
REMARK SMILES IDX 98 25 97 26 82 27 83 28 87 29 84 30 86 31 88 32 85 33 12 34
REMARK SMILES IDX 13 35 14 36 15 37 16 38 17 39 18 40 19 41 20 42 81 43 21 44
REMARK SMILES IDX 80 45 22 46 23 47 24 48 74 49 25 50 79 51 73 52 75 53 26 54
REMARK SMILES IDX 78 55 72 56 71 57 27 59 59 60 39 61 58 62 40 63 43 64 57 65
REMARK SMILES IDX 76 66 41 67 42 68 56 70 77 71 44 72 28 73 29 74 37 75 30 76
REMARK SMILES IDX 31 77 35 78 38 79 32 80 33 81 36 82 34 83 60 84 61 85 69 86
REMARK SMILES IDX 62 87 63 88 67 89 70 90 64 91 65 92 68 93 66 94 45 95 46 96
REMARK SMILES IDX 54 97 47 98 48 99 52 100 55 101 49 102 50 103 53 104 51 105
REMARK H PARENT 3 12 94 23 75 58 43 69
REMARK Flexibility Score: inf
ROOT
ATOM      1  C   UNL A   1      40.934  19.625  26.134  1.00  0.00     0.188 C 
ENDROOT
BRANCH   1   2
ATOM      2  O   UNL A   1      40.016  20.593  26.638  1.00  0.00    -0.376 OA
BRANCH   2   3
ATOM      3  C   UNL A   1      39.562  21.636  25.787  1.00  0.00     0.202 C 
BRANCH   3   4
ATOM      4  C   UNL A   1      38.165  22.171  26.099  1.00  0.00     0.261 C 
BRANCH   4   5
ATOM      5  O   UNL A   1      37.256  22.206  24.988  1.00  0.00    -0.461 OA
BRANCH   5   6
ATOM      6  C   UNL A   1      36.046  22.752  25.287  1.00  0.00     0.333 C 
ATOM      7  O   UNL A   1      35.855  23.949  25.431  1.00  0.00    -0.249 OA
BRANCH   6   8
ATOM      8  C   UNL A   1      34.980  21.705  25.595  1.00  0.00     0.226 C 
BRANCH   8   9
ATOM      9  N   UNL A   1      34.402  21.917  26.937  1.00  0.00    -0.335 N 
ATOM     10  O   UNL A   1      32.893  22.344  28.545  1.00  0.00    -0.269 OA
ATOM     11  C   UNL A   1      33.209  22.455  27.363  1.00  0.00     0.252 C 
ATOM     12  H   UNL A   1      34.984  21.614  27.670  1.00  0.00     0.165 HD
BRANCH  11  13
ATOM     13  C   UNL A   1      32.340  23.254  26.472  1.00  0.00     0.039 A 
ATOM     14  C   UNL A   1      31.170  22.728  25.921  1.00  0.00     0.014 A 
ATOM     15  C   UNL A   1      32.723  24.567  26.170  1.00  0.00     0.014 A 
ATOM     16  C   UNL A   1      30.437  23.484  24.994  1.00  0.00     0.010 A 
ATOM     17  C   UNL A   1      31.984  25.320  25.246  1.00  0.00     0.010 A 
ATOM     18  C   UNL A   1      30.842  24.782  24.629  1.00  0.00     0.006 A 
BRANCH  18  19
ATOM     19  C   UNL A   1      30.021  25.608  23.653  1.00  0.00     0.299 C 
BRANCH  19  20
ATOM     20  N   UNL A   1      30.368  27.020  23.432  1.00  0.00    -0.331 N 
ATOM     21  C   UNL A   1      31.399  27.234  22.418  1.00  0.00     0.262 C 
ATOM     22  C   UNL A   1      29.218  27.902  23.228  1.00  0.00     0.262 C 
ATOM     23  H   UNL A   1      30.780  27.295  24.324  1.00  0.00     0.348 HD
ATOM     24  C   UNL A   1      31.900  28.686  22.439  1.00  0.00     0.062 C 
ATOM     25  C   UNL A   1      29.649  29.368  23.335  1.00  0.00     0.062 C 
ATOM     26  C   UNL A   1      30.767  29.701  22.358  1.00  0.00     0.012 C 
ENDBRANCH  19  20
ENDBRANCH  18  19
ENDBRANCH  11  13
ENDBRANCH   8   9
BRANCH   8  27
ATOM     27  C   UNL A   1      33.949  21.576  24.482  1.00  0.00     0.021 A 
ATOM     28  C   UNL A   1      33.731  22.559  23.505  1.00  0.00     0.009 A 
ATOM     29  C   UNL A   1      33.159  20.419  24.421  1.00  0.00     0.129 A 
ATOM     30  C   UNL A   1      32.801  22.361  22.479  1.00  0.00     0.001 A 
ATOM     31  C   UNL A   1      32.206  20.228  23.422  1.00  0.00     0.039 A 
ATOM     32  F   UNL A   1      33.316  19.458  25.343  1.00  0.00    -0.207 F 
ATOM     33  C   UNL A   1      32.038  21.196  22.436  1.00  0.00     0.003 A 
ENDBRANCH   8  27
ENDBRANCH   6   8
ENDBRANCH   5   6
ENDBRANCH   4   5
ENDBRANCH   3   4
ENDBRANCH   2   3
ENDBRANCH   1   2
BRANCH   1  34
ATOM     34  C   UNL A   1      42.256  19.456  26.876  1.00  0.00     0.188 C 
BRANCH  34  35
ATOM     35  O   UNL A   1      43.178  20.538  26.780  1.00  0.00    -0.376 OA
BRANCH  35  36
ATOM     36  C   UNL A   1      43.638  20.904  25.481  1.00  0.00     0.202 C 
BRANCH  36  37
ATOM     37  C   UNL A   1      43.213  22.295  24.999  1.00  0.00     0.261 C 
BRANCH  37  38
ATOM     38  O   UNL A   1      44.291  23.257  25.033  1.00  0.00    -0.460 OA
BRANCH  38  39
ATOM     39  C   UNL A   1      44.725  23.612  26.260  1.00  0.00     0.338 C 
ATOM     40  O   UNL A   1      45.784  23.295  26.790  1.00  0.00    -0.246 OA
BRANCH  39  41
ATOM     41  C   UNL A   1      43.804  24.572  26.898  1.00  0.00     0.060 A 
ATOM     42  C   UNL A   1      44.105  25.934  26.787  1.00  0.00     0.016 A 
ATOM     43  C   UNL A   1      42.770  24.149  27.737  1.00  0.00     0.016 A 
ATOM     44  C   UNL A   1      43.431  26.869  27.571  1.00  0.00     0.010 A 
ATOM     45  C   UNL A   1      42.093  25.093  28.524  1.00  0.00     0.010 A 
ATOM     46  C   UNL A   1      42.456  26.452  28.486  1.00  0.00    -0.014 A 
BRANCH  46  47
ATOM     47  C   UNL A   1      41.986  27.400  29.534  1.00  0.00     0.031 A 
ATOM     48  C   UNL A   1      42.737  27.468  30.839  1.00  0.00     0.074 A 
ATOM     49  C   UNL A   1      40.960  28.244  29.321  1.00  0.00     0.049 A 
ATOM     50  N   UNL A   1      42.470  28.152  31.925  1.00  0.00    -0.248 NA
ATOM     51  C   UNL A   1      43.964  26.660  30.928  1.00  0.00     0.031 C 
ATOM     52  C   UNL A   1      40.201  28.359  28.077  1.00  0.00     0.029 A 
ATOM     53  N   UNL A   1      40.380  29.169  30.156  1.00  0.00    -0.354 N 
ATOM     54  C   UNL A   1      43.478  27.838  32.828  1.00  0.00     0.074 A 
ATOM     55  C   UNL A   1      44.356  26.893  32.172  1.00  0.00     0.031 C 
ATOM     56  C   UNL A   1      39.246  29.292  28.235  1.00  0.00     0.029 A 
ATOM     57  C   UNL A   1      39.297  29.807  29.604  1.00  0.00     0.049 A 
ATOM     58  H   UNL A   1      40.711  29.357  31.065  1.00  0.00     0.167 HD
ATOM     59  C   UNL A   1      43.661  28.296  34.090  1.00  0.00     0.037 A 
ATOM     60  C   UNL A   1      38.426  30.679  30.151  1.00  0.00     0.037 A 
ATOM     61  C   UNL A   1      42.807  29.253  34.743  1.00  0.00     0.049 A 
ATOM     62  C   UNL A   1      38.595  31.104  31.589  1.00  0.00     0.074 A 
ATOM     63  C   UNL A   1      42.913  29.775  36.021  1.00  0.00     0.029 A 
ATOM     64  N   UNL A   1      41.686  29.832  34.168  1.00  0.00    -0.354 N 
ATOM     65  N   UNL A   1      39.534  30.783  32.445  1.00  0.00    -0.248 NA
ATOM     66  C   UNL A   1      37.573  32.011  32.139  1.00  0.00     0.031 C 
ATOM     67  C   UNL A   1      41.832  30.635  36.234  1.00  0.00     0.029 A 
ATOM     68  C   UNL A   1      41.080  30.689  35.072  1.00  0.00     0.049 A 
ATOM     69  H   UNL A   1      41.369  29.661  33.252  1.00  0.00     0.167 HD
ATOM     70  C   UNL A   1      39.232  31.465  33.619  1.00  0.00     0.074 A 
ATOM     71  C   UNL A   1      38.031  32.230  33.363  1.00  0.00     0.031 C 
ATOM     72  C   UNL A   1      39.892  31.457  34.804  1.00  0.00     0.037 A 
BRANCH  59  73
ATOM     73  C   UNL A   1      44.815  27.737  34.868  1.00  0.00     0.064 A 
ATOM     74  C   UNL A   1      44.730  26.510  35.541  1.00  0.00     0.173 A 
ATOM     75  C   UNL A   1      46.036  28.428  34.912  1.00  0.00     0.173 A 
ATOM     76  F   UNL A   1      43.580  25.819  35.543  1.00  0.00    -0.203 F 
ATOM     77  C   UNL A   1      45.818  26.007  36.251  1.00  0.00     0.198 A 
ATOM     78  C   UNL A   1      47.130  27.910  35.598  1.00  0.00     0.198 A 
ATOM     79  F   UNL A   1      46.170  29.604  34.280  1.00  0.00    -0.203 F 
ATOM     80  F   UNL A   1      45.702  24.856  36.926  1.00  0.00    -0.200 F 
ATOM     81  C   UNL A   1      47.018  26.704  36.274  1.00  0.00     0.200 A 
ATOM     82  F   UNL A   1      48.291  28.578  35.609  1.00  0.00    -0.200 F 
ATOM     83  F   UNL A   1      48.065  26.216  36.952  1.00  0.00    -0.200 F 
ENDBRANCH  59  73
BRANCH  60  84
ATOM     84  C   UNL A   1      37.279  31.187  29.351  1.00  0.00     0.064 A 
ATOM     85  C   UNL A   1      37.216  32.526  28.941  1.00  0.00     0.173 A 
ATOM     86  C   UNL A   1      36.201  30.352  29.022  1.00  0.00     0.173 A 
ATOM     87  F   UNL A   1      38.207  33.372  29.260  1.00  0.00    -0.203 F 
ATOM     88  C   UNL A   1      36.110  33.014  28.246  1.00  0.00     0.198 A 
ATOM     89  C   UNL A   1      35.110  30.835  28.301  1.00  0.00     0.198 A 
ATOM     90  F   UNL A   1      36.207  29.066  29.401  1.00  0.00    -0.203 F 
ATOM     91  F   UNL A   1      36.051  34.311  27.912  1.00  0.00    -0.200 F 
ATOM     92  C   UNL A   1      35.061  32.167  27.922  1.00  0.00     0.200 A 
ATOM     93  F   UNL A   1      34.102  30.010  27.985  1.00  0.00    -0.200 F 
ATOM     94  F   UNL A   1      33.998  32.637  27.257  1.00  0.00    -0.200 F 
ENDBRANCH  60  84
BRANCH  72  95
ATOM     95  C   UNL A   1      39.360  32.329  35.905  1.00  0.00     0.064 A 
ATOM     96  C   UNL A   1      38.444  31.846  36.852  1.00  0.00     0.173 A 
ATOM     97  C   UNL A   1      39.810  33.651  36.044  1.00  0.00     0.173 A 
ATOM     98  F   UNL A   1      37.972  30.594  36.756  1.00  0.00    -0.203 F 
ATOM     99  C   UNL A   1      37.985  32.661  37.884  1.00  0.00     0.198 A 
ATOM    100  C   UNL A   1      39.371  34.454  37.094  1.00  0.00     0.198 A 
ATOM    101  F   UNL A   1      40.693  34.160  35.171  1.00  0.00    -0.203 F 
ATOM    102  F   UNL A   1      37.077  32.191  38.752  1.00  0.00    -0.200 F 
ATOM    103  C   UNL A   1      38.452  33.960  38.009  1.00  0.00     0.200 A 
ATOM    104  F   UNL A   1      39.836  35.705  37.220  1.00  0.00    -0.200 F 
ATOM    105  F   UNL A   1      38.015  34.739  39.007  1.00  0.00    -0.200 F 
ENDBRANCH  72  95
ENDBRANCH  46  47
ENDBRANCH  39  41
ENDBRANCH  38  39
ENDBRANCH  37  38
ENDBRANCH  36  37
ENDBRANCH  35  36
ENDBRANCH  34  35
ENDBRANCH   1  34
TORSDOF 22
ENDMDL
MODEL 2
REMARK VINA RESULT:     -10.2      5.628     10.806
REMARK SMILES O=C(N[C@H](C(=O)OCCOCCOCCOC(=O)c1ccc(-c2c3nc(c(-c4c(F)c(F)c(F)c(F)c4F)c4ccc([nH]4)c(-c4c(F)c(F)c(F)c(F)c4F)c4nc(c(-c5c(F)c(F)c(F)c(F)c5F)c5ccc2[nH]5)C=C4)C=C3)cc1)c1ccccc1F)c1ccc(C[NH+]2CCCCC2)cc1
REMARK SMILES IDX 11 1 10 2 9 3 8 4 7 5 5 6 6 7 4 8 3 9 1 10 2 11 89 13 90 14
REMARK SMILES IDX 101 15 91 16 100 17 92 18 93 19 94 20 95 21 99 22 96 24
REMARK SMILES IDX 98 25 97 26 82 27 83 28 87 29 84 30 86 31 88 32 85 33 12 34
REMARK SMILES IDX 13 35 14 36 15 37 16 38 17 39 18 40 19 41 20 42 81 43 21 44
REMARK SMILES IDX 80 45 22 46 23 47 24 48 74 49 25 50 79 51 73 52 75 53 26 54
REMARK SMILES IDX 78 55 72 56 71 57 27 59 59 60 39 61 58 62 40 63 43 64 57 65
REMARK SMILES IDX 76 66 41 67 42 68 56 70 77 71 44 72 28 73 29 74 37 75 30 76
REMARK SMILES IDX 31 77 35 78 38 79 32 80 33 81 36 82 34 83 60 84 61 85 69 86
REMARK SMILES IDX 62 87 63 88 67 89 70 90 64 91 65 92 68 93 66 94 45 95 46 96
REMARK SMILES IDX 54 97 47 98 48 99 52 100 55 101 49 102 50 103 53 104 51 105
REMARK H PARENT 3 12 94 23 75 58 43 69
REMARK Flexibility Score: inf
ROOT
ATOM      1  C   UNL A   1      38.145  32.312  37.467  1.00  0.00     0.188 C 
ENDROOT
BRANCH   1   2
ATOM      2  O   UNL A   1      37.172  32.380  36.428  1.00  0.00    -0.376 OA
BRANCH   2   3
ATOM      3  C   UNL A   1      37.357  33.290  35.353  1.00  0.00     0.202 C 
BRANCH   3   4
ATOM      4  C   UNL A   1      37.187  32.695  33.956  1.00  0.00     0.261 C 
BRANCH   4   5
ATOM      5  O   UNL A   1      38.343  32.775  33.106  1.00  0.00    -0.461 OA
BRANCH   5   6
ATOM      6  C   UNL A   1      38.785  31.566  32.667  1.00  0.00     0.333 C 
ATOM      7  O   UNL A   1      39.574  30.864  33.279  1.00  0.00    -0.249 OA
BRANCH   6   8
ATOM      8  C   UNL A   1      38.329  31.247  31.246  1.00  0.00     0.226 C 
BRANCH   8   9
ATOM      9  N   UNL A   1      38.556  32.396  30.346  1.00  0.00    -0.335 N 
ATOM     10  O   UNL A   1      38.150  34.019  28.847  1.00  0.00    -0.269 OA
ATOM     11  C   UNL A   1      37.814  32.936  29.320  1.00  0.00     0.252 C 
ATOM     12  H   UNL A   1      39.403  32.867  30.513  1.00  0.00     0.165 HD
BRANCH  11  13
ATOM     13  C   UNL A   1      36.688  32.211  28.693  1.00  0.00     0.039 A 
ATOM     14  C   UNL A   1      35.398  32.743  28.660  1.00  0.00     0.014 A 
ATOM     15  C   UNL A   1      36.936  30.951  28.135  1.00  0.00     0.014 A 
ATOM     16  C   UNL A   1      34.340  31.973  28.154  1.00  0.00     0.010 A 
ATOM     17  C   UNL A   1      35.875  30.186  27.627  1.00  0.00     0.010 A 
ATOM     18  C   UNL A   1      34.559  30.678  27.649  1.00  0.00     0.006 A 
BRANCH  18  19
ATOM     19  C   UNL A   1      33.413  29.865  27.068  1.00  0.00     0.299 C 
BRANCH  19  20
ATOM     20  N   UNL A   1      33.695  28.853  26.039  1.00  0.00    -0.331 N 
ATOM     21  C   UNL A   1      33.251  27.503  26.386  1.00  0.00     0.262 C 
ATOM     22  C   UNL A   1      33.277  29.229  24.689  1.00  0.00     0.262 C 
ATOM     23  H   UNL A   1      34.715  28.825  26.022  1.00  0.00     0.348 HD
ATOM     24  C   UNL A   1      33.818  26.467  25.403  1.00  0.00     0.062 C 
ATOM     25  C   UNL A   1      33.895  28.279  23.658  1.00  0.00     0.062 C 
ATOM     26  C   UNL A   1      33.547  26.827  23.948  1.00  0.00     0.012 C 
ENDBRANCH  19  20
ENDBRANCH  18  19
ENDBRANCH  11  13
ENDBRANCH   8   9
BRANCH   8  27
ATOM     27  C   UNL A   1      38.894  29.929  30.734  1.00  0.00     0.021 A 
ATOM     28  C   UNL A   1      40.108  29.820  30.040  1.00  0.00     0.009 A 
ATOM     29  C   UNL A   1      38.167  28.749  30.953  1.00  0.00     0.129 A 
ATOM     30  C   UNL A   1      40.597  28.573  29.636  1.00  0.00     0.001 A 
ATOM     31  C   UNL A   1      38.631  27.507  30.524  1.00  0.00     0.039 A 
ATOM     32  F   UNL A   1      36.991  28.804  31.595  1.00  0.00    -0.207 F 
ATOM     33  C   UNL A   1      39.860  27.416  29.878  1.00  0.00     0.003 A 
ENDBRANCH   8  27
ENDBRANCH   6   8
ENDBRANCH   5   6
ENDBRANCH   4   5
ENDBRANCH   3   4
ENDBRANCH   2   3
ENDBRANCH   1   2
BRANCH   1  34
ATOM     34  C   UNL A   1      37.732  32.805  38.850  1.00  0.00     0.188 C 
BRANCH  34  35
ATOM     35  O   UNL A   1      38.159  34.116  39.208  1.00  0.00    -0.376 OA
BRANCH  35  36
ATOM     36  C   UNL A   1      38.626  34.322  40.539  1.00  0.00     0.202 C 
BRANCH  36  37
ATOM     37  C   UNL A   1      39.496  35.566  40.747  1.00  0.00     0.261 C 
BRANCH  37  38
ATOM     38  O   UNL A   1      40.148  36.008  39.535  1.00  0.00    -0.460 OA
BRANCH  38  39
ATOM     39  C   UNL A   1      41.437  35.637  39.393  1.00  0.00     0.338 C 
ATOM     40  O   UNL A   1      42.242  35.396  40.287  1.00  0.00    -0.246 OA
BRANCH  39  41
ATOM     41  C   UNL A   1      41.780  35.421  37.974  1.00  0.00     0.060 A 
ATOM     42  C   UNL A   1      40.741  35.083  37.099  1.00  0.00     0.016 A 
ATOM     43  C   UNL A   1      43.107  35.373  37.539  1.00  0.00     0.016 A 
ATOM     44  C   UNL A   1      41.028  34.619  35.815  1.00  0.00     0.010 A 
ATOM     45  C   UNL A   1      43.391  34.907  36.246  1.00  0.00     0.010 A 
ATOM     46  C   UNL A   1      42.356  34.476  35.396  1.00  0.00    -0.014 A 
BRANCH  46  47
ATOM     47  C   UNL A   1      42.653  33.684  34.170  1.00  0.00     0.031 A 
ATOM     48  C   UNL A   1      42.726  32.182  34.278  1.00  0.00     0.074 A 
ATOM     49  C   UNL A   1      42.783  34.264  32.963  1.00  0.00     0.049 A 
ATOM     50  N   UNL A   1      43.047  31.292  33.371  1.00  0.00    -0.248 NA
ATOM     51  C   UNL A   1      42.378  31.604  35.586  1.00  0.00     0.031 C 
ATOM     52  C   UNL A   1      42.644  35.692  32.690  1.00  0.00     0.029 A 
ATOM     53  N   UNL A   1      43.066  33.712  31.736  1.00  0.00    -0.354 N 
ATOM     54  C   UNL A   1      42.965  30.058  34.006  1.00  0.00     0.074 A 
ATOM     55  C   UNL A   1      42.576  30.312  35.376  1.00  0.00     0.031 C 
ATOM     56  C   UNL A   1      42.855  35.907  31.379  1.00  0.00     0.029 A 
ATOM     57  C   UNL A   1      43.189  34.638  30.730  1.00  0.00     0.049 A 
ATOM     58  H   UNL A   1      43.171  32.743  31.592  1.00  0.00     0.167 HD
ATOM     59  C   UNL A   1      43.189  28.824  33.494  1.00  0.00     0.037 A 
ATOM     60  C   UNL A   1      43.561  34.484  29.443  1.00  0.00     0.037 A 
ATOM     61  C   UNL A   1      43.554  28.560  32.128  1.00  0.00     0.049 A 
ATOM     62  C   UNL A   1      43.898  33.110  28.920  1.00  0.00     0.074 A 
ATOM     63  C   UNL A   1      43.803  27.341  31.520  1.00  0.00     0.029 A 
ATOM     64  N   UNL A   1      43.724  29.532  31.154  1.00  0.00    -0.354 N 
ATOM     65  N   UNL A   1      43.844  31.952  29.531  1.00  0.00    -0.248 NA
ATOM     66  C   UNL A   1      44.355  33.024  27.523  1.00  0.00     0.031 C 
ATOM     67  C   UNL A   1      44.167  27.579  30.192  1.00  0.00     0.029 A 
ATOM     68  C   UNL A   1      44.095  28.943  29.957  1.00  0.00     0.049 A 
ATOM     69  H   UNL A   1      43.598  30.499  31.293  1.00  0.00     0.167 HD
ATOM     70  C   UNL A   1      44.232  31.003  28.591  1.00  0.00     0.074 A 
ATOM     71  C   UNL A   1      44.507  31.718  27.363  1.00  0.00     0.031 C 
ATOM     72  C   UNL A   1      44.352  29.660  28.735  1.00  0.00     0.037 A 
BRANCH  59  73
ATOM     73  C   UNL A   1      43.083  27.657  34.432  1.00  0.00     0.064 A 
ATOM     74  C   UNL A   1      44.173  27.219  35.196  1.00  0.00     0.173 A 
ATOM     75  C   UNL A   1      41.858  26.990  34.590  1.00  0.00     0.173 A 
ATOM     76  F   UNL A   1      45.369  27.813  35.070  1.00  0.00    -0.203 F 
ATOM     77  C   UNL A   1      44.048  26.138  36.066  1.00  0.00     0.198 A 
ATOM     78  C   UNL A   1      41.728  25.929  35.480  1.00  0.00     0.198 A 
ATOM     79  F   UNL A   1      40.783  27.374  33.884  1.00  0.00    -0.203 F 
ATOM     80  F   UNL A   1      45.114  25.706  36.753  1.00  0.00    -0.200 F 
ATOM     81  C   UNL A   1      42.825  25.499  36.212  1.00  0.00     0.200 A 
ATOM     82  F   UNL A   1      40.544  25.321  35.629  1.00  0.00    -0.200 F 
ATOM     83  F   UNL A   1      42.705  24.463  37.054  1.00  0.00    -0.200 F 
ENDBRANCH  59  73
BRANCH  60  84
ATOM     84  C   UNL A   1      43.681  35.673  28.556  1.00  0.00     0.064 A 
ATOM     85  C   UNL A   1      44.913  36.312  28.361  1.00  0.00     0.173 A 
ATOM     86  C   UNL A   1      42.555  36.219  27.921  1.00  0.00     0.173 A 
ATOM     87  F   UNL A   1      46.013  35.848  28.973  1.00  0.00    -0.203 F 
ATOM     88  C   UNL A   1      45.011  37.463  27.580  1.00  0.00     0.198 A 
ATOM     89  C   UNL A   1      42.660  37.351  27.116  1.00  0.00     0.198 A 
ATOM     90  F   UNL A   1      41.351  35.651  28.084  1.00  0.00    -0.203 F 
ATOM     91  F   UNL A   1      46.191  38.085  27.453  1.00  0.00    -0.200 F 
ATOM     92  C   UNL A   1      43.886  37.978  26.953  1.00  0.00     0.200 A 
ATOM     93  F   UNL A   1      41.571  37.840  26.508  1.00  0.00    -0.200 F 
ATOM     94  F   UNL A   1      43.980  39.084  26.205  1.00  0.00    -0.200 F 
ENDBRANCH  60  84
BRANCH  72  95
ATOM     95  C   UNL A   1      44.758  28.863  27.529  1.00  0.00     0.064 A 
ATOM     96  C   UNL A   1      46.107  28.646  27.207  1.00  0.00     0.173 A 
ATOM     97  C   UNL A   1      43.785  28.266  26.712  1.00  0.00     0.173 A 
ATOM     98  F   UNL A   1      47.075  29.206  27.947  1.00  0.00    -0.203 F 
ATOM     99  C   UNL A   1      46.464  27.879  26.100  1.00  0.00     0.198 A 
ATOM    100  C   UNL A   1      44.147  27.476  25.623  1.00  0.00     0.198 A 
ATOM    101  F   UNL A   1      42.482  28.434  26.980  1.00  0.00    -0.203 F 
ATOM    102  F   UNL A   1      47.758  27.721  25.787  1.00  0.00    -0.200 F 
ATOM    103  C   UNL A   1      45.486  27.289  25.314  1.00  0.00     0.200 A 
ATOM    104  F   UNL A   1      43.200  26.895  24.874  1.00  0.00    -0.200 F 
ATOM    105  F   UNL A   1      45.833  26.546  24.256  1.00  0.00    -0.200 F 
ENDBRANCH  72  95
ENDBRANCH  46  47
ENDBRANCH  39  41
ENDBRANCH  38  39
ENDBRANCH  37  38
ENDBRANCH  36  37
ENDBRANCH  35  36
ENDBRANCH  34  35
ENDBRANCH   1  34
TORSDOF 22
ENDMDL
MODEL 3
REMARK VINA RESULT:      -9.9      5.887     12.637
REMARK SMILES O=C(N[C@H](C(=O)OCCOCCOCCOC(=O)c1ccc(-c2c3nc(c(-c4c(F)c(F)c(F)c(F)c4F)c4ccc([nH]4)c(-c4c(F)c(F)c(F)c(F)c4F)c4nc(c(-c5c(F)c(F)c(F)c(F)c5F)c5ccc2[nH]5)C=C4)C=C3)cc1)c1ccccc1F)c1ccc(C[NH+]2CCCCC2)cc1
REMARK SMILES IDX 11 1 10 2 9 3 8 4 7 5 5 6 6 7 4 8 3 9 1 10 2 11 89 13 90 14
REMARK SMILES IDX 101 15 91 16 100 17 92 18 93 19 94 20 95 21 99 22 96 24
REMARK SMILES IDX 98 25 97 26 82 27 83 28 87 29 84 30 86 31 88 32 85 33 12 34
REMARK SMILES IDX 13 35 14 36 15 37 16 38 17 39 18 40 19 41 20 42 81 43 21 44
REMARK SMILES IDX 80 45 22 46 23 47 24 48 74 49 25 50 79 51 73 52 75 53 26 54
REMARK SMILES IDX 78 55 72 56 71 57 27 59 59 60 39 61 58 62 40 63 43 64 57 65
REMARK SMILES IDX 76 66 41 67 42 68 56 70 77 71 44 72 28 73 29 74 37 75 30 76
REMARK SMILES IDX 31 77 35 78 38 79 32 80 33 81 36 82 34 83 60 84 61 85 69 86
REMARK SMILES IDX 62 87 63 88 67 89 70 90 64 91 65 92 68 93 66 94 45 95 46 96
REMARK SMILES IDX 54 97 47 98 48 99 52 100 55 101 49 102 50 103 53 104 51 105
REMARK H PARENT 3 12 94 23 75 58 43 69
REMARK Flexibility Score: inf
ROOT
ATOM      1  C   UNL A   1      38.016  33.073  37.470  1.00  0.00     0.188 C 
ENDROOT
BRANCH   1   2
ATOM      2  O   UNL A   1      37.571  31.833  36.926  1.00  0.00    -0.376 OA
BRANCH   2   3
ATOM      3  C   UNL A   1      37.819  31.540  35.558  1.00  0.00     0.202 C 
BRANCH   3   4
ATOM      4  C   UNL A   1      37.287  32.570  34.564  1.00  0.00     0.261 C 
BRANCH   4   5
ATOM      5  O   UNL A   1      37.956  32.604  33.292  1.00  0.00    -0.461 OA
BRANCH   5   6
ATOM      6  C   UNL A   1      37.112  32.544  32.227  1.00  0.00     0.333 C 
ATOM      7  O   UNL A   1      36.491  31.544  31.904  1.00  0.00    -0.249 OA
BRANCH   6   8
ATOM      8  C   UNL A   1      37.147  33.805  31.369  1.00  0.00     0.226 C 
BRANCH   8   9
ATOM      9  N   UNL A   1      38.515  34.077  30.883  1.00  0.00    -0.335 N 
ATOM     10  O   UNL A   1      40.458  33.822  29.783  1.00  0.00    -0.269 OA
ATOM     11  C   UNL A   1      39.452  33.292  30.249  1.00  0.00     0.252 C 
ATOM     12  H   UNL A   1      38.816  34.999  31.045  1.00  0.00     0.165 HD
BRANCH  11  13
ATOM     13  C   UNL A   1      39.343  31.818  30.200  1.00  0.00     0.039 A 
ATOM     14  C   UNL A   1      38.539  31.171  29.261  1.00  0.00     0.014 A 
ATOM     15  C   UNL A   1      40.063  31.066  31.136  1.00  0.00     0.014 A 
ATOM     16  C   UNL A   1      38.380  29.779  29.321  1.00  0.00     0.010 A 
ATOM     17  C   UNL A   1      39.904  29.673  31.190  1.00  0.00     0.010 A 
ATOM     18  C   UNL A   1      39.045  29.012  30.297  1.00  0.00     0.006 A 
BRANCH  18  19
ATOM     19  C   UNL A   1      38.896  27.500  30.331  1.00  0.00     0.299 C 
BRANCH  19  20
ATOM     20  N   UNL A   1      39.619  26.681  29.346  1.00  0.00    -0.331 N 
ATOM     21  C   UNL A   1      38.904  26.488  28.084  1.00  0.00     0.262 C 
ATOM     22  C   UNL A   1      41.007  27.085  29.124  1.00  0.00     0.262 C 
ATOM     23  H   UNL A   1      39.660  25.767  29.796  1.00  0.00     0.348 HD
ATOM     24  C   UNL A   1      39.585  25.413  27.224  1.00  0.00     0.062 C 
ATOM     25  C   UNL A   1      41.759  25.998  28.348  1.00  0.00     0.062 C 
ATOM     26  C   UNL A   1      41.074  25.668  27.031  1.00  0.00     0.012 C 
ENDBRANCH  19  20
ENDBRANCH  18  19
ENDBRANCH  11  13
ENDBRANCH   8   9
BRANCH   8  27
ATOM     27  C   UNL A   1      36.085  33.799  30.278  1.00  0.00     0.021 A 
ATOM     28  C   UNL A   1      36.334  33.423  28.951  1.00  0.00     0.009 A 
ATOM     29  C   UNL A   1      34.779  34.197  30.603  1.00  0.00     0.129 A 
ATOM     30  C   UNL A   1      35.304  33.393  28.005  1.00  0.00     0.001 A 
ATOM     31  C   UNL A   1      33.754  34.203  29.658  1.00  0.00     0.039 A 
ATOM     32  F   UNL A   1      34.495  34.584  31.855  1.00  0.00    -0.207 F 
ATOM     33  C   UNL A   1      34.014  33.782  28.358  1.00  0.00     0.003 A 
ENDBRANCH   8  27
ENDBRANCH   6   8
ENDBRANCH   5   6
ENDBRANCH   4   5
ENDBRANCH   3   4
ENDBRANCH   2   3
ENDBRANCH   1   2
BRANCH   1  34
ATOM     34  C   UNL A   1      39.057  33.019  38.584  1.00  0.00     0.188 C 
BRANCH  34  35
ATOM     35  O   UNL A   1      38.637  33.478  39.865  1.00  0.00    -0.376 OA
BRANCH  35  36
ATOM     36  C   UNL A   1      39.385  34.531  40.471  1.00  0.00     0.202 C 
BRANCH  36  37
ATOM     37  C   UNL A   1      38.905  35.950  40.147  1.00  0.00     0.261 C 
BRANCH  37  38
ATOM     38  O   UNL A   1      39.315  36.398  38.836  1.00  0.00    -0.460 OA
BRANCH  38  39
ATOM     39  C   UNL A   1      40.605  36.778  38.722  1.00  0.00     0.338 C 
ATOM     40  O   UNL A   1      41.304  37.297  39.586  1.00  0.00    -0.246 OA
BRANCH  39  41
ATOM     41  C   UNL A   1      41.168  36.378  37.418  1.00  0.00     0.060 A 
ATOM     42  C   UNL A   1      40.272  35.991  36.414  1.00  0.00     0.016 A 
ATOM     43  C   UNL A   1      42.543  36.213  37.232  1.00  0.00     0.016 A 
ATOM     44  C   UNL A   1      40.740  35.365  35.259  1.00  0.00     0.010 A 
ATOM     45  C   UNL A   1      43.009  35.584  36.068  1.00  0.00     0.010 A 
ATOM     46  C   UNL A   1      42.107  35.107  35.099  1.00  0.00    -0.014 A 
BRANCH  46  47
ATOM     47  C   UNL A   1      42.552  34.161  34.038  1.00  0.00     0.031 A 
ATOM     48  C   UNL A   1      42.894  34.710  32.676  1.00  0.00     0.074 A 
ATOM     49  C   UNL A   1      42.727  32.850  34.281  1.00  0.00     0.049 A 
ATOM     50  N   UNL A   1      43.224  34.077  31.576  1.00  0.00    -0.248 NA
ATOM     51  C   UNL A   1      42.869  36.175  32.538  1.00  0.00     0.031 C 
ATOM     52  C   UNL A   1      42.528  32.194  35.572  1.00  0.00     0.029 A 
ATOM     53  N   UNL A   1      43.113  31.832  33.442  1.00  0.00    -0.354 N 
ATOM     54  C   UNL A   1      43.420  35.062  30.617  1.00  0.00     0.074 A 
ATOM     55  C   UNL A   1      43.161  36.334  31.256  1.00  0.00     0.031 C 
ATOM     56  C   UNL A   1      42.781  30.880  35.436  1.00  0.00     0.029 A 
ATOM     57  C   UNL A   1      43.115  30.596  34.039  1.00  0.00     0.049 A 
ATOM     58  H   UNL A   1      43.365  31.976  32.501  1.00  0.00     0.167 HD
ATOM     59  C   UNL A   1      43.787  34.923  29.320  1.00  0.00     0.037 A 
ATOM     60  C   UNL A   1      43.327  29.373  33.512  1.00  0.00     0.037 A 
ATOM     61  C   UNL A   1      44.069  33.664  28.681  1.00  0.00     0.049 A 
ATOM     62  C   UNL A   1      43.642  29.234  32.043  1.00  0.00     0.074 A 
ATOM     63  C   UNL A   1      44.446  33.426  27.371  1.00  0.00     0.029 A 
ATOM     64  N   UNL A   1      44.004  32.429  29.308  1.00  0.00    -0.354 N 
ATOM     65  N   UNL A   1      43.800  30.166  31.136  1.00  0.00    -0.248 NA
ATOM     66  C   UNL A   1      43.801  27.866  31.524  1.00  0.00     0.031 C 
ATOM     67  C   UNL A   1      44.565  32.045  27.193  1.00  0.00     0.029 A 
ATOM     68  C   UNL A   1      44.312  31.425  28.406  1.00  0.00     0.049 A 
ATOM     69  H   UNL A   1      43.773  32.288  30.254  1.00  0.00     0.167 HD
ATOM     70  C   UNL A   1      44.102  29.503  29.952  1.00  0.00     0.074 A 
ATOM     71  C   UNL A   1      44.119  28.088  30.257  1.00  0.00     0.031 C 
ATOM     72  C   UNL A   1      44.341  30.020  28.721  1.00  0.00     0.037 A 
BRANCH  59  73
ATOM     73  C   UNL A   1      43.868  36.168  28.487  1.00  0.00     0.064 A 
ATOM     74  C   UNL A   1      45.084  36.826  28.254  1.00  0.00     0.173 A 
ATOM     75  C   UNL A   1      42.712  36.690  27.886  1.00  0.00     0.173 A 
ATOM     76  F   UNL A   1      46.214  36.376  28.818  1.00  0.00    -0.203 F 
ATOM     77  C   UNL A   1      45.135  37.977  27.470  1.00  0.00     0.198 A 
ATOM     78  C   UNL A   1      42.771  37.823  27.081  1.00  0.00     0.198 A 
ATOM     79  F   UNL A   1      41.524  36.094  28.074  1.00  0.00    -0.203 F 
ATOM     80  F   UNL A   1      46.300  38.616  27.298  1.00  0.00    -0.200 F 
ATOM     81  C   UNL A   1      43.981  38.470  26.879  1.00  0.00     0.200 A 
ATOM     82  F   UNL A   1      41.657  38.291  26.501  1.00  0.00    -0.200 F 
ATOM     83  F   UNL A   1      44.033  39.573  26.121  1.00  0.00    -0.200 F 
ENDBRANCH  59  73
BRANCH  60  84
ATOM     84  C   UNL A   1      43.208  28.162  34.369  1.00  0.00     0.064 A 
ATOM     85  C   UNL A   1      42.019  27.422  34.419  1.00  0.00     0.173 A 
ATOM     86  C   UNL A   1      44.269  27.749  35.189  1.00  0.00     0.173 A 
ATOM     87  F   UNL A   1      40.965  27.797  33.679  1.00  0.00    -0.203 F 
ATOM     88  C   UNL A   1      41.889  26.326  35.271  1.00  0.00     0.198 A 
ATOM     89  C   UNL A   1      44.148  26.635  36.017  1.00  0.00     0.198 A 
ATOM     90  F   UNL A   1      45.424  28.429  35.186  1.00  0.00    -0.203 F 
ATOM     91  F   UNL A   1      40.723  25.668  35.339  1.00  0.00    -0.200 F 
ATOM     92  C   UNL A   1      42.955  25.930  36.064  1.00  0.00     0.200 A 
ATOM     93  F   UNL A   1      45.183  26.253  36.777  1.00  0.00    -0.200 F 
ATOM     94  F   UNL A   1      42.829  24.878  36.884  1.00  0.00    -0.200 F 
ENDBRANCH  60  84
BRANCH  72  95
ATOM     95  C   UNL A   1      44.684  29.062  27.617  1.00  0.00     0.064 A 
ATOM     96  C   UNL A   1      45.979  28.542  27.466  1.00  0.00     0.173 A 
ATOM     97  C   UNL A   1      43.693  28.620  26.727  1.00  0.00     0.173 A 
ATOM     98  F   UNL A   1      46.965  28.943  28.282  1.00  0.00    -0.203 F 
ATOM     99  C   UNL A   1      46.271  27.632  26.453  1.00  0.00     0.198 A 
ATOM    100  C   UNL A   1      43.982  27.687  25.734  1.00  0.00     0.198 A 
ATOM    101  F   UNL A   1      42.437  29.079  26.832  1.00  0.00    -0.203 F 
ATOM    102  F   UNL A   1      47.525  27.180  26.303  1.00  0.00    -0.200 F 
ATOM    103  C   UNL A   1      45.273  27.199  25.594  1.00  0.00     0.200 A 
ATOM    104  F   UNL A   1      43.012  27.260  24.913  1.00  0.00    -0.200 F 
ATOM    105  F   UNL A   1      45.555  26.317  24.626  1.00  0.00    -0.200 F 
ENDBRANCH  72  95
ENDBRANCH  46  47
ENDBRANCH  39  41
ENDBRANCH  38  39
ENDBRANCH  37  38
ENDBRANCH  36  37
ENDBRANCH  35  36
ENDBRANCH  34  35
ENDBRANCH   1  34
TORSDOF 22
ENDMDL
