MODEL 1
REMARK VINA RESULT:     -12.9      0.000      0.000
REMARK SMILES Cc1ccc(S(=O)(=O)n2cc(C(=O)C(=O)N[C@H](Cc3c[nH]c4ccccc34)C(=O)NCC(=O)OCCOCCOCCOC(=O)c3ccc(-c4c5nc(c(-c6c(F)c(F)c(F)c(F)c6F)c6ccc([nH]6)c(-c6c(F)c(F)c(F)c(F)c6F)c6nc(c(-c7c(F)c(F)c(F)c(F)c7F)c7ccc4[nH]7)C=C6)C=C5)cc3)c3ccccc32)cc1
REMARK SMILES IDX 36 1 35 2 34 3 32 4 33 5 31 6 30 7 28 8 29 9 17 11 16 12
REMARK SMILES IDX 14 13 15 14 12 16 13 17 11 18 9 19 10 20 114 21 109 22
REMARK SMILES IDX 113 23 110 24 112 25 111 26 6 27 7 28 8 29 5 30 1 31 2 32
REMARK SMILES IDX 3 33 116 34 4 35 115 36 18 37 19 38 20 39 27 40 21 41 22 42
REMARK SMILES IDX 26 43 23 45 25 46 24 47 37 48 38 49 39 50 40 51 41 52 42 53
REMARK SMILES IDX 43 54 44 55 45 56 46 57 47 58 108 59 48 60 107 61 49 62
REMARK SMILES IDX 50 63 51 64 101 65 52 66 106 67 100 68 102 69 53 70 105 71
REMARK SMILES IDX 99 72 98 73 54 75 86 76 66 77 85 78 67 79 70 80 84 81 103 82
REMARK SMILES IDX 68 83 69 84 83 86 104 87 71 88 55 89 56 90 64 91 57 92 58 93
REMARK SMILES IDX 62 94 65 95 59 96 60 97 63 98 61 99 87 100 88 101 96 102
REMARK SMILES IDX 89 103 90 104 94 105 97 106 91 107 92 108 95 109 93 110
REMARK SMILES IDX 72 111 73 112 81 113 74 114 75 115 79 116 82 117 76 118
REMARK SMILES IDX 77 119 80 120 78 121
REMARK H PARENT 30 10 16 15 21 44 102 74 70 85
REMARK Flexibility Score: inf
ROOT
ATOM      1  C   UNL A   1      33.359  30.885  27.247  1.00  0.00     0.202 C 
ENDROOT
BRANCH   1   2
ATOM      2  C   UNL A   1      32.580  29.619  26.822  1.00  0.00     0.261 C 
BRANCH   2   3
ATOM      3  O   UNL A   1      33.106  28.256  26.056  1.00  0.00    -0.462 OA
BRANCH   3   4
ATOM      4  C   UNL A   1      33.072  26.875  25.746  1.00  0.00     0.325 C 
ATOM      5  O   UNL A   1      33.815  26.339  24.986  1.00  0.00    -0.250 OA
BRANCH   4   6
ATOM      6  C   UNL A   1      31.699  25.974  26.548  1.00  0.00     0.238 C 
BRANCH   6   7
ATOM      7  N   UNL A   1      31.193  24.541  26.575  1.00  0.00    -0.343 N 
ATOM      8  C   UNL A   1      31.309  23.416  25.757  1.00  0.00     0.243 C 
ATOM      9  O   UNL A   1      30.532  22.491  26.048  1.00  0.00    -0.273 OA
ATOM     10  H   UNL A   1      30.645  24.360  27.372  1.00  0.00     0.164 HD
BRANCH   8  11
ATOM     11  C   UNL A   1      32.182  23.221  24.412  1.00  0.00     0.176 C 
BRANCH  11  12
ATOM     12  N   UNL A   1      33.677  23.159  24.754  1.00  0.00    -0.337 N 
ATOM     13  C   UNL A   1      34.837  22.676  24.070  1.00  0.00     0.293 C 
ATOM     14  O   UNL A   1      35.270  23.331  23.124  1.00  0.00    -0.265 OA
ATOM     15  H   UNL A   1      33.883  23.535  25.641  1.00  0.00     0.164 HD
BRANCH  13  16
ATOM     16  C   UNL A   1      35.840  21.745  24.881  1.00  0.00     0.252 C 
ATOM     17  O   UNL A   1      35.161  20.734  25.157  1.00  0.00    -0.283 OA
BRANCH  16  18
ATOM     18  C   UNL A   1      37.360  22.000  25.555  1.00  0.00     0.054 A 
ATOM     19  N   UNL A   1      39.428  20.996  25.926  1.00  0.00    -0.240 N 
ATOM     20  C   UNL A   1      38.082  20.869  25.683  1.00  0.00     0.117 A 
ATOM     21  C   UNL A   1      39.602  22.294  26.394  1.00  0.00     0.065 A 
ATOM     22  C   UNL A   1      38.379  22.973  26.236  1.00  0.00     0.012 A 
ATOM     23  C   UNL A   1      40.726  22.862  27.047  1.00  0.00     0.028 A 
ATOM     24  C   UNL A   1      38.406  24.268  26.905  1.00  0.00     0.011 A 
ATOM     25  C   UNL A   1      40.665  24.098  27.654  1.00  0.00     0.002 A 
ATOM     26  C   UNL A   1      39.499  24.802  27.595  1.00  0.00     0.001 A 
BRANCH  19  27
ATOM     27  S   UNL A   1      40.809  19.938  26.223  1.00  0.00     0.268 S 
ATOM     28  O   UNL A   1      40.287  18.684  25.678  1.00  0.00    -0.201 OA
ATOM     29  O   UNL A   1      40.929  20.095  27.673  1.00  0.00    -0.201 OA
BRANCH  27  30
ATOM     30  C   UNL A   1      42.560  19.753  25.862  1.00  0.00     0.088 A 
ATOM     31  C   UNL A   1      46.680  20.459  24.560  1.00  0.00     0.044 C 
ATOM     32  C   UNL A   1      45.282  20.181  25.032  1.00  0.00    -0.051 A 
ATOM     33  C   UNL A   1      44.409  21.250  25.150  1.00  0.00     0.005 A 
ATOM     34  C   UNL A   1      44.789  18.898  25.303  1.00  0.00     0.005 A 
ATOM     35  C   UNL A   1      43.100  21.034  25.568  1.00  0.00     0.022 A 
ATOM     36  C   UNL A   1      43.430  18.682  25.676  1.00  0.00     0.022 A 
ENDBRANCH  27  30
ENDBRANCH  19  27
ENDBRANCH  16  18
ENDBRANCH  13  16
ENDBRANCH  11  12
BRANCH  11  37
ATOM     37  C   UNL A   1      31.581  24.064  23.184  1.00  0.00     0.072 C 
BRANCH  37  38
ATOM     38  C   UNL A   1      31.582  25.502  22.448  1.00  0.00    -0.020 A 
ATOM     39  C   UNL A   1      32.545  26.002  21.553  1.00  0.00     0.087 A 
ATOM     40  C   UNL A   1      30.853  26.695  22.774  1.00  0.00     0.003 A 
ATOM     41  N   UNL A   1      32.609  27.362  21.578  1.00  0.00    -0.361 N 
ATOM     42  C   UNL A   1      31.616  27.812  22.381  1.00  0.00     0.046 A 
ATOM     43  C   UNL A   1      29.655  26.947  23.444  1.00  0.00     0.010 A 
ATOM     44  H   UNL A   1      33.262  27.920  21.098  1.00  0.00     0.166 HD
ATOM     45  C   UNL A   1      31.359  29.122  22.771  1.00  0.00     0.026 A 
ATOM     46  C   UNL A   1      29.323  28.270  23.760  1.00  0.00     0.001 A 
ATOM     47  C   UNL A   1      30.187  29.331  23.481  1.00  0.00     0.002 A 
ENDBRANCH  37  38
ENDBRANCH  11  37
ENDBRANCH   8  11
ENDBRANCH   6   7
ENDBRANCH   4   6
ENDBRANCH   3   4
ENDBRANCH   2   3
ENDBRANCH   1   2
BRANCH   1  48
ATOM     48  O   UNL A   1      34.568  30.697  27.959  1.00  0.00    -0.376 OA
BRANCH  48  49
ATOM     49  C   UNL A   1      35.333  31.887  27.984  1.00  0.00     0.188 C 
BRANCH  49  50
ATOM     50  C   UNL A   1      35.410  32.472  29.400  1.00  0.00     0.188 C 
BRANCH  50  51
ATOM     51  O   UNL A   1      35.044  33.836  29.486  1.00  0.00    -0.376 OA
BRANCH  51  52
ATOM     52  C   UNL A   1      33.757  34.277  29.113  1.00  0.00     0.202 C 
BRANCH  52  53
ATOM     53  C   UNL A   1      33.323  35.380  30.066  1.00  0.00     0.261 C 
BRANCH  53  54
ATOM     54  O   UNL A   1      34.101  35.269  31.283  1.00  0.00    -0.460 OA
BRANCH  54  55
ATOM     55  C   UNL A   1      33.415  34.769  32.344  1.00  0.00     0.338 C 
ATOM     56  O   UNL A   1      32.258  35.049  32.621  1.00  0.00    -0.246 OA
BRANCH  55  57
ATOM     57  C   UNL A   1      34.358  34.047  33.267  1.00  0.00     0.060 A 
ATOM     58  C   UNL A   1      34.894  34.749  34.296  1.00  0.00     0.016 A 
ATOM     59  C   UNL A   1      34.979  32.820  32.986  1.00  0.00     0.016 A 
ATOM     60  C   UNL A   1      36.130  34.290  34.816  1.00  0.00     0.010 A 
ATOM     61  C   UNL A   1      36.319  32.495  33.449  1.00  0.00     0.010 A 
ATOM     62  C   UNL A   1      37.052  33.299  34.329  1.00  0.00    -0.014 A 
BRANCH  62  63
ATOM     63  C   UNL A   1      38.770  33.128  34.727  1.00  0.00     0.031 A 
ATOM     64  C   UNL A   1      39.512  34.321  35.814  1.00  0.00     0.074 A 
ATOM     65  C   UNL A   1      39.677  32.041  34.266  1.00  0.00     0.049 A 
ATOM     66  N   UNL A   1      40.383  34.025  36.747  1.00  0.00    -0.248 NA
ATOM     67  C   UNL A   1      39.574  35.813  35.778  1.00  0.00     0.031 C 
ATOM     68  C   UNL A   1      39.872  30.614  34.782  1.00  0.00     0.029 A 
ATOM     69  N   UNL A   1      40.345  31.743  32.975  1.00  0.00    -0.354 N 
ATOM     70  C   UNL A   1      41.121  35.067  37.263  1.00  0.00     0.074 A 
ATOM     71  C   UNL A   1      40.502  36.204  36.653  1.00  0.00     0.031 C 
ATOM     72  C   UNL A   1      40.628  29.811  33.987  1.00  0.00     0.029 A 
ATOM     73  C   UNL A   1      41.200  30.598  32.916  1.00  0.00     0.049 A 
ATOM     74  H   UNL A   1      40.205  32.314  32.185  1.00  0.00     0.167 HD
ATOM     75  C   UNL A   1      42.411  35.114  37.755  1.00  0.00     0.037 A 
ATOM     76  C   UNL A   1      41.970  30.132  31.873  1.00  0.00     0.037 A 
ATOM     77  C   UNL A   1      43.557  34.224  37.197  1.00  0.00     0.049 A 
ATOM     78  C   UNL A   1      43.380  30.902  31.823  1.00  0.00     0.074 A 
ATOM     79  C   UNL A   1      44.325  33.160  37.658  1.00  0.00     0.029 A 
ATOM     80  N   UNL A   1      44.152  34.401  35.889  1.00  0.00    -0.354 N 
ATOM     81  N   UNL A   1      44.117  31.160  32.894  1.00  0.00    -0.248 NA
ATOM     82  C   UNL A   1      44.113  31.441  30.689  1.00  0.00     0.031 C 
ATOM     83  C   UNL A   1      45.205  32.647  36.592  1.00  0.00     0.029 A 
ATOM     84  C   UNL A   1      44.926  33.274  35.369  1.00  0.00     0.049 A 
ATOM     85  H   UNL A   1      44.041  35.234  35.378  1.00  0.00     0.167 HD
ATOM     86  C   UNL A   1      44.941  32.307  32.766  1.00  0.00     0.074 A 
ATOM     87  C   UNL A   1      45.035  32.257  31.280  1.00  0.00     0.031 C 
ATOM     88  C   UNL A   1      45.448  33.162  33.830  1.00  0.00     0.037 A 
BRANCH  75  89
ATOM     89  C   UNL A   1      42.408  35.868  39.133  1.00  0.00     0.064 A 
ATOM     90  C   UNL A   1      41.908  35.262  40.298  1.00  0.00     0.173 A 
ATOM     91  C   UNL A   1      42.791  37.239  39.335  1.00  0.00     0.173 A 
ATOM     92  F   UNL A   1      41.449  34.007  40.282  1.00  0.00    -0.203 F 
ATOM     93  C   UNL A   1      41.820  35.939  41.532  1.00  0.00     0.198 A 
ATOM     94  C   UNL A   1      42.738  37.895  40.571  1.00  0.00     0.198 A 
ATOM     95  F   UNL A   1      43.199  38.042  38.344  1.00  0.00    -0.203 F 
ATOM     96  F   UNL A   1      41.292  35.314  42.594  1.00  0.00    -0.200 F 
ATOM     97  C   UNL A   1      42.247  37.246  41.673  1.00  0.00     0.200 A 
ATOM     98  F   UNL A   1      43.143  39.172  40.666  1.00  0.00    -0.200 F 
ATOM     99  F   UNL A   1      42.168  37.879  42.851  1.00  0.00    -0.200 F 
ENDBRANCH  75  89
BRANCH  76 100
ATOM    100  C   UNL A   1      41.063  29.680  30.731  1.00  0.00     0.064 A 
ATOM    101  C   UNL A   1      40.514  28.366  30.749  1.00  0.00     0.173 A 
ATOM    102  C   UNL A   1      40.390  30.589  29.906  1.00  0.00     0.173 A 
ATOM    103  F   UNL A   1      41.092  27.410  31.491  1.00  0.00    -0.203 F 
ATOM    104  C   UNL A   1      39.306  28.035  30.104  1.00  0.00     0.198 A 
ATOM    105  C   UNL A   1      39.174  30.262  29.269  1.00  0.00     0.198 A 
ATOM    106  F   UNL A   1      40.803  31.862  29.850  1.00  0.00    -0.203 F 
ATOM    107  F   UNL A   1      38.755  26.823  30.279  1.00  0.00    -0.200 F 
ATOM    108  C   UNL A   1      38.622  28.994  29.383  1.00  0.00     0.200 A 
ATOM    109  F   UNL A   1      38.461  31.234  28.680  1.00  0.00    -0.200 F 
ATOM    110  F   UNL A   1      37.402  28.733  28.889  1.00  0.00    -0.200 F 
ENDBRANCH  76 100
BRANCH  88 111
ATOM    111  C   UNL A   1      46.728  34.003  33.652  1.00  0.00     0.064 A 
ATOM    112  C   UNL A   1      48.027  33.487  33.753  1.00  0.00     0.173 A 
ATOM    113  C   UNL A   1      46.666  35.426  33.681  1.00  0.00     0.173 A 
ATOM    114  F   UNL A   1      48.269  32.174  33.800  1.00  0.00    -0.203 F 
ATOM    115  C   UNL A   1      49.148  34.311  33.900  1.00  0.00     0.198 A 
ATOM    116  C   UNL A   1      47.769  36.237  33.921  1.00  0.00     0.198 A 
ATOM    117  F   UNL A   1      45.531  36.109  33.494  1.00  0.00    -0.203 F 
ATOM    118  F   UNL A   1      50.365  33.754  33.968  1.00  0.00    -0.200 F 
ATOM    119  C   UNL A   1      49.016  35.678  34.031  1.00  0.00     0.200 A 
ATOM    120  F   UNL A   1      47.599  37.559  34.059  1.00  0.00    -0.200 F 
ATOM    121  F   UNL A   1      50.082  36.450  34.269  1.00  0.00    -0.200 F 
ENDBRANCH  88 111
ENDBRANCH  62  63
ENDBRANCH  55  57
ENDBRANCH  54  55
ENDBRANCH  53  54
ENDBRANCH  52  53
ENDBRANCH  51  52
ENDBRANCH  50  51
ENDBRANCH  49  50
ENDBRANCH  48  49
ENDBRANCH   1  48
TORSDOF 26
ENDMDL
MODEL 2
REMARK VINA RESULT:     -12.7      5.190     11.537
REMARK SMILES Cc1ccc(S(=O)(=O)n2cc(C(=O)C(=O)N[C@H](Cc3c[nH]c4ccccc34)C(=O)NCC(=O)OCCOCCOCCOC(=O)c3ccc(-c4c5nc(c(-c6c(F)c(F)c(F)c(F)c6F)c6ccc([nH]6)c(-c6c(F)c(F)c(F)c(F)c6F)c6nc(c(-c7c(F)c(F)c(F)c(F)c7F)c7ccc4[nH]7)C=C6)C=C5)cc3)c3ccccc32)cc1
REMARK SMILES IDX 36 1 35 2 34 3 32 4 33 5 31 6 30 7 28 8 29 9 17 11 16 12
REMARK SMILES IDX 14 13 15 14 12 16 13 17 11 18 9 19 10 20 114 21 109 22
REMARK SMILES IDX 113 23 110 24 112 25 111 26 6 27 7 28 8 29 5 30 1 31 2 32
REMARK SMILES IDX 3 33 116 34 4 35 115 36 18 37 19 38 20 39 27 40 21 41 22 42
REMARK SMILES IDX 26 43 23 45 25 46 24 47 37 48 38 49 39 50 40 51 41 52 42 53
REMARK SMILES IDX 43 54 44 55 45 56 46 57 47 58 108 59 48 60 107 61 49 62
REMARK SMILES IDX 50 63 51 64 101 65 52 66 106 67 100 68 102 69 53 70 105 71
REMARK SMILES IDX 99 72 98 73 54 75 86 76 66 77 85 78 67 79 70 80 84 81 103 82
REMARK SMILES IDX 68 83 69 84 83 86 104 87 71 88 55 89 56 90 64 91 57 92 58 93
REMARK SMILES IDX 62 94 65 95 59 96 60 97 63 98 61 99 87 100 88 101 96 102
REMARK SMILES IDX 89 103 90 104 94 105 97 106 91 107 92 108 95 109 93 110
REMARK SMILES IDX 72 111 73 112 81 113 74 114 75 115 79 116 82 117 76 118
REMARK SMILES IDX 77 119 80 120 78 121
REMARK H PARENT 30 10 16 15 21 44 102 74 70 85
REMARK Flexibility Score: inf
ROOT
ATOM      1  C   UNL A   1      38.454  21.202  25.376  1.00  0.00     0.202 C 
ENDROOT
BRANCH   1   2
ATOM      2  C   UNL A   1      37.041  21.730  25.042  1.00  0.00     0.261 C 
BRANCH   2   3
ATOM      3  O   UNL A   1      36.112  22.848  25.824  1.00  0.00    -0.462 OA
BRANCH   3   4
ATOM      4  C   UNL A   1      34.946  23.295  26.490  1.00  0.00     0.325 C 
ATOM      5  O   UNL A   1      34.365  22.671  27.320  1.00  0.00    -0.250 OA
BRANCH   4   6
ATOM      6  C   UNL A   1      34.326  24.906  25.886  1.00  0.00     0.238 C 
BRANCH   6   7
ATOM      7  N   UNL A   1      34.157  25.581  24.535  1.00  0.00    -0.343 N 
ATOM      8  C   UNL A   1      33.160  26.319  23.895  1.00  0.00     0.243 C 
ATOM      9  O   UNL A   1      33.354  26.494  22.681  1.00  0.00    -0.273 OA
ATOM     10  H   UNL A   1      34.953  25.471  23.967  1.00  0.00     0.164 HD
BRANCH   8  11
ATOM     11  C   UNL A   1      31.738  26.825  24.474  1.00  0.00     0.176 C 
BRANCH  11  12
ATOM     12  N   UNL A   1      31.854  28.271  24.974  1.00  0.00    -0.337 N 
ATOM     13  C   UNL A   1      32.933  29.204  25.084  1.00  0.00     0.293 C 
ATOM     14  O   UNL A   1      33.363  29.721  24.055  1.00  0.00    -0.265 OA
ATOM     15  H   UNL A   1      30.996  28.637  25.288  1.00  0.00     0.164 HD
BRANCH  13  16
ATOM     16  C   UNL A   1      33.099  29.984  26.461  1.00  0.00     0.252 C 
ATOM     17  O   UNL A   1      31.978  30.500  26.656  1.00  0.00    -0.283 OA
BRANCH  16  18
ATOM     18  C   UNL A   1      34.431  30.383  27.407  1.00  0.00     0.054 A 
ATOM     19  N   UNL A   1      35.134  31.748  29.158  1.00  0.00    -0.240 N 
ATOM     20  C   UNL A   1      34.251  31.504  28.135  1.00  0.00     0.117 A 
ATOM     21  C   UNL A   1      36.245  30.956  28.889  1.00  0.00     0.065 A 
ATOM     22  C   UNL A   1      35.918  30.111  27.811  1.00  0.00     0.012 A 
ATOM     23  C   UNL A   1      37.543  31.021  29.457  1.00  0.00     0.028 A 
ATOM     24  C   UNL A   1      37.095  29.407  27.318  1.00  0.00     0.011 A 
ATOM     25  C   UNL A   1      38.604  30.317  28.927  1.00  0.00     0.002 A 
ATOM     26  C   UNL A   1      38.386  29.515  27.847  1.00  0.00     0.001 A 
BRANCH  19  27
ATOM     27  S   UNL A   1      35.426  33.005  30.361  1.00  0.00     0.268 S 
ATOM     28  O   UNL A   1      34.112  33.048  31.005  1.00  0.00    -0.201 OA
ATOM     29  O   UNL A   1      35.827  34.100  29.477  1.00  0.00    -0.201 OA
BRANCH  27  30
ATOM     30  C   UNL A   1      36.489  33.424  31.749  1.00  0.00     0.088 A 
ATOM     31  C   UNL A   1      38.223  33.793  35.751  1.00  0.00     0.044 C 
ATOM     32  C   UNL A   1      37.669  33.679  34.361  1.00  0.00    -0.051 A 
ATOM     33  C   UNL A   1      36.675  32.743  34.130  1.00  0.00     0.005 A 
ATOM     34  C   UNL A   1      38.054  34.504  33.296  1.00  0.00     0.005 A 
ATOM     35  C   UNL A   1      36.123  32.616  32.859  1.00  0.00     0.022 A 
ATOM     36  C   UNL A   1      37.442  34.404  32.012  1.00  0.00     0.022 A 
ENDBRANCH  27  30
ENDBRANCH  19  27
ENDBRANCH  16  18
ENDBRANCH  13  16
ENDBRANCH  11  12
BRANCH  11  37
ATOM     37  C   UNL A   1      30.972  25.661  25.273  1.00  0.00     0.072 C 
BRANCH  37  38
ATOM     38  C   UNL A   1      30.872  24.064  25.497  1.00  0.00    -0.020 A 
ATOM     39  C   UNL A   1      30.664  23.383  26.711  1.00  0.00     0.087 A 
ATOM     40  C   UNL A   1      31.301  22.993  24.643  1.00  0.00     0.003 A 
ATOM     41  N   UNL A   1      31.204  22.134  26.695  1.00  0.00    -0.361 N 
ATOM     42  C   UNL A   1      31.667  21.896  25.445  1.00  0.00     0.046 A 
ATOM     43  C   UNL A   1      31.500  22.870  23.267  1.00  0.00     0.010 A 
ATOM     44  H   UNL A   1      31.251  21.514  27.457  1.00  0.00     0.166 HD
ATOM     45  C   UNL A   1      32.375  20.786  24.993  1.00  0.00     0.026 A 
ATOM     46  C   UNL A   1      32.122  21.717  22.774  1.00  0.00     0.001 A 
ATOM     47  C   UNL A   1      32.603  20.721  23.627  1.00  0.00     0.002 A 
ENDBRANCH  37  38
ENDBRANCH  11  37
ENDBRANCH   8  11
ENDBRANCH   6   7
ENDBRANCH   4   6
ENDBRANCH   3   4
ENDBRANCH   2   3
ENDBRANCH   1   2
BRANCH   1  48
ATOM     48  O   UNL A   1      39.234  21.959  26.284  1.00  0.00    -0.376 OA
BRANCH  48  49
ATOM     49  C   UNL A   1      40.605  21.627  26.175  1.00  0.00     0.188 C 
BRANCH  49  50
ATOM     50  C   UNL A   1      40.831  20.119  26.350  1.00  0.00     0.188 C 
BRANCH  50  51
ATOM     51  O   UNL A   1      41.657  19.537  25.360  1.00  0.00    -0.376 OA
BRANCH  51  52
ATOM     52  C   UNL A   1      42.860  18.883  25.698  1.00  0.00     0.202 C 
BRANCH  52  53
ATOM     53  C   UNL A   1      44.014  19.596  25.009  1.00  0.00     0.261 C 
BRANCH  53  54
ATOM     54  O   UNL A   1      44.254  20.851  25.693  1.00  0.00    -0.460 OA
BRANCH  54  55
ATOM     55  C   UNL A   1      44.486  21.905  24.867  1.00  0.00     0.338 C 
ATOM     56  O   UNL A   1      44.047  22.010  23.731  1.00  0.00    -0.246 OA
BRANCH  55  57
ATOM     57  C   UNL A   1      45.567  22.777  25.444  1.00  0.00     0.060 A 
ATOM     58  C   UNL A   1      45.628  22.896  26.794  1.00  0.00     0.016 A 
ATOM     59  C   UNL A   1      46.310  23.723  24.722  1.00  0.00     0.016 A 
ATOM     60  C   UNL A   1      46.234  24.066  27.313  1.00  0.00     0.010 A 
ATOM     61  C   UNL A   1      46.771  24.972  25.307  1.00  0.00     0.010 A 
ATOM     62  C   UNL A   1      46.648  25.283  26.666  1.00  0.00    -0.014 A 
BRANCH  62  63
ATOM     63  C   UNL A   1      46.925  26.867  27.411  1.00  0.00     0.031 A 
ATOM     64  C   UNL A   1      45.517  27.873  27.813  1.00  0.00     0.074 A 
ATOM     65  C   UNL A   1      48.245  27.447  27.782  1.00  0.00     0.049 A 
ATOM     66  N   UNL A   1      45.413  28.589  28.906  1.00  0.00    -0.248 NA
ATOM     67  C   UNL A   1      44.360  28.355  27.000  1.00  0.00     0.031 C 
ATOM     68  C   UNL A   1      49.134  27.212  29.004  1.00  0.00     0.029 A 
ATOM     69  N   UNL A   1      49.353  28.053  27.002  1.00  0.00    -0.354 N 
ATOM     70  C   UNL A   1      44.447  29.571  28.916  1.00  0.00     0.074 A 
ATOM     71  C   UNL A   1      43.752  29.322  27.690  1.00  0.00     0.031 C 
ATOM     72  C   UNL A   1      50.383  27.740  28.919  1.00  0.00     0.029 A 
ATOM     73  C   UNL A   1      50.481  28.551  27.725  1.00  0.00     0.049 A 
ATOM     74  H   UNL A   1      49.312  28.110  26.020  1.00  0.00     0.167 HD
ATOM     75  C   UNL A   1      44.406  30.803  29.541  1.00  0.00     0.037 A 
ATOM     76  C   UNL A   1      51.605  29.199  27.259  1.00  0.00     0.037 A 
ATOM     77  C   UNL A   1      45.674  31.670  29.773  1.00  0.00     0.049 A 
ATOM     78  C   UNL A   1      51.318  30.769  27.075  1.00  0.00     0.074 A 
ATOM     79  C   UNL A   1      46.426  32.090  30.865  1.00  0.00     0.029 A 
ATOM     80  N   UNL A   1      46.397  32.341  28.713  1.00  0.00    -0.354 N 
ATOM     81  N   UNL A   1      50.665  31.508  27.960  1.00  0.00    -0.248 NA
ATOM     82  C   UNL A   1      51.683  31.667  25.991  1.00  0.00     0.031 C 
ATOM     83  C   UNL A   1      47.624  32.829  30.426  1.00  0.00     0.029 A 
ATOM     84  C   UNL A   1      47.754  32.785  29.030  1.00  0.00     0.049 A 
ATOM     85  H   UNL A   1      45.997  32.489  27.826  1.00  0.00     0.167 HD
ATOM     86  C   UNL A   1      49.996  32.626  27.400  1.00  0.00     0.074 A 
ATOM     87  C   UNL A   1      50.894  32.759  26.219  1.00  0.00     0.031 C 
ATOM     88  C   UNL A   1      48.822  33.313  27.919  1.00  0.00     0.037 A 
BRANCH  75  89
ATOM     89  C   UNL A   1      43.026  30.959  30.276  1.00  0.00     0.064 A 
ATOM     90  C   UNL A   1      42.315  32.171  30.250  1.00  0.00     0.173 A 
ATOM     91  C   UNL A   1      42.410  29.967  31.115  1.00  0.00     0.173 A 
ATOM     92  F   UNL A   1      42.772  33.226  29.569  1.00  0.00    -0.203 F 
ATOM     93  C   UNL A   1      41.114  32.366  30.964  1.00  0.00     0.198 A 
ATOM     94  C   UNL A   1      41.198  30.152  31.791  1.00  0.00     0.198 A 
ATOM     95  F   UNL A   1      42.963  28.774  31.370  1.00  0.00    -0.203 F 
ATOM     96  F   UNL A   1      40.511  33.563  30.929  1.00  0.00    -0.200 F 
ATOM     97  C   UNL A   1      40.549  31.356  31.719  1.00  0.00     0.200 A 
ATOM     98  F   UNL A   1      40.689  29.154  32.532  1.00  0.00    -0.200 F 
ATOM     99  F   UNL A   1      39.403  31.547  32.386  1.00  0.00    -0.200 F 
ENDBRANCH  75  89
BRANCH  76 100
ATOM    100  C   UNL A   1      52.417  28.244  26.385  1.00  0.00     0.064 A 
ATOM    101  C   UNL A   1      53.260  27.275  27.000  1.00  0.00     0.173 A 
ATOM    102  C   UNL A   1      52.068  27.966  25.058  1.00  0.00     0.173 A 
ATOM    103  F   UNL A   1      53.671  27.454  28.264  1.00  0.00    -0.203 F 
ATOM    104  C   UNL A   1      53.604  26.059  26.379  1.00  0.00     0.198 A 
ATOM    105  C   UNL A   1      52.402  26.743  24.439  1.00  0.00     0.198 A 
ATOM    106  F   UNL A   1      51.246  28.795  24.403  1.00  0.00    -0.203 F 
ATOM    107  F   UNL A   1      54.273  25.116  27.061  1.00  0.00    -0.200 F 
ATOM    108  C   UNL A   1      53.151  25.782  25.104  1.00  0.00     0.200 A 
ATOM    109  F   UNL A   1      51.852  26.437  23.254  1.00  0.00    -0.200 F 
ATOM    110  F   UNL A   1      53.347  24.571  24.560  1.00  0.00    -0.200 F 
ENDBRANCH  76 100
BRANCH  88 111
ATOM    111  C   UNL A   1      48.523  34.784  27.567  1.00  0.00     0.064 A 
ATOM    112  C   UNL A   1      47.436  35.200  26.788  1.00  0.00     0.173 A 
ATOM    113  C   UNL A   1      49.519  35.786  27.754  1.00  0.00     0.173 A 
ATOM    114  F   UNL A   1      46.438  34.375  26.461  1.00  0.00    -0.203 F 
ATOM    115  C   UNL A   1      47.365  36.480  26.227  1.00  0.00     0.198 A 
ATOM    116  C   UNL A   1      49.491  37.023  27.121  1.00  0.00     0.198 A 
ATOM    117  F   UNL A   1      50.580  35.617  28.551  1.00  0.00    -0.203 F 
ATOM    118  F   UNL A   1      46.285  36.822  25.512  1.00  0.00    -0.200 F 
ATOM    119  C   UNL A   1      48.410  37.372  26.354  1.00  0.00     0.200 A 
ATOM    120  F   UNL A   1      50.532  37.856  27.253  1.00  0.00    -0.200 F 
ATOM    121  F   UNL A   1      48.379  38.557  25.734  1.00  0.00    -0.200 F 
ENDBRANCH  88 111
ENDBRANCH  62  63
ENDBRANCH  55  57
ENDBRANCH  54  55
ENDBRANCH  53  54
ENDBRANCH  52  53
ENDBRANCH  51  52
ENDBRANCH  50  51
ENDBRANCH  49  50
ENDBRANCH  48  49
ENDBRANCH   1  48
TORSDOF 26
ENDMDL
MODEL 3
REMARK VINA RESULT:     -12.6      4.229     11.535
REMARK SMILES Cc1ccc(S(=O)(=O)n2cc(C(=O)C(=O)N[C@H](Cc3c[nH]c4ccccc34)C(=O)NCC(=O)OCCOCCOCCOC(=O)c3ccc(-c4c5nc(c(-c6c(F)c(F)c(F)c(F)c6F)c6ccc([nH]6)c(-c6c(F)c(F)c(F)c(F)c6F)c6nc(c(-c7c(F)c(F)c(F)c(F)c7F)c7ccc4[nH]7)C=C6)C=C5)cc3)c3ccccc32)cc1
REMARK SMILES IDX 36 1 35 2 34 3 32 4 33 5 31 6 30 7 28 8 29 9 17 11 16 12
REMARK SMILES IDX 14 13 15 14 12 16 13 17 11 18 9 19 10 20 114 21 109 22
REMARK SMILES IDX 113 23 110 24 112 25 111 26 6 27 7 28 8 29 5 30 1 31 2 32
REMARK SMILES IDX 3 33 116 34 4 35 115 36 18 37 19 38 20 39 27 40 21 41 22 42
REMARK SMILES IDX 26 43 23 45 25 46 24 47 37 48 38 49 39 50 40 51 41 52 42 53
REMARK SMILES IDX 43 54 44 55 45 56 46 57 47 58 108 59 48 60 107 61 49 62
REMARK SMILES IDX 50 63 51 64 101 65 52 66 106 67 100 68 102 69 53 70 105 71
REMARK SMILES IDX 99 72 98 73 54 75 86 76 66 77 85 78 67 79 70 80 84 81 103 82
REMARK SMILES IDX 68 83 69 84 83 86 104 87 71 88 55 89 56 90 64 91 57 92 58 93
REMARK SMILES IDX 62 94 65 95 59 96 60 97 63 98 61 99 87 100 88 101 96 102
REMARK SMILES IDX 89 103 90 104 94 105 97 106 91 107 92 108 95 109 93 110
REMARK SMILES IDX 72 111 73 112 81 113 74 114 75 115 79 116 82 117 76 118
REMARK SMILES IDX 77 119 80 120 78 121
REMARK H PARENT 30 10 16 15 21 44 102 74 70 85
REMARK Flexibility Score: inf
ROOT
ATOM      1  C   UNL A   1      39.135  20.112  25.513  1.00  0.00     0.202 C 
ENDROOT
BRANCH   1   2
ATOM      2  C   UNL A   1      37.799  20.650  24.951  1.00  0.00     0.261 C 
BRANCH   2   3
ATOM      3  O   UNL A   1      36.681  21.647  25.643  1.00  0.00    -0.462 OA
BRANCH   3   4
ATOM      4  C   UNL A   1      35.442  22.331  25.696  1.00  0.00     0.325 C 
ATOM      5  O   UNL A   1      34.539  22.031  26.411  1.00  0.00    -0.250 OA
BRANCH   4   6
ATOM      6  C   UNL A   1      35.296  23.682  24.474  1.00  0.00     0.238 C 
BRANCH   6   7
ATOM      7  N   UNL A   1      34.731  23.839  23.072  1.00  0.00    -0.343 N 
ATOM      8  C   UNL A   1      33.565  23.457  22.407  1.00  0.00     0.243 C 
ATOM      9  O   UNL A   1      33.609  23.601  21.174  1.00  0.00    -0.273 OA
ATOM     10  H   UNL A   1      35.342  24.338  22.483  1.00  0.00     0.164 HD
BRANCH   8  11
ATOM     11  C   UNL A   1      32.254  22.717  22.995  1.00  0.00     0.176 C 
BRANCH  11  12
ATOM     12  N   UNL A   1      32.068  23.066  24.478  1.00  0.00    -0.337 N 
ATOM     13  C   UNL A   1      30.937  23.137  25.351  1.00  0.00     0.293 C 
ATOM     14  O   UNL A   1      30.421  22.085  25.725  1.00  0.00    -0.265 OA
ATOM     15  H   UNL A   1      32.914  23.289  24.928  1.00  0.00     0.164 HD
BRANCH  13  16
ATOM     16  C   UNL A   1      30.789  24.430  26.266  1.00  0.00     0.252 C 
ATOM     17  O   UNL A   1      30.178  24.020  27.276  1.00  0.00    -0.283 OA
BRANCH  16  18
ATOM     18  C   UNL A   1      31.049  26.070  25.995  1.00  0.00     0.054 A 
ATOM     19  N   UNL A   1      30.622  27.804  24.500  1.00  0.00    -0.240 N 
ATOM     20  C   UNL A   1      30.744  26.457  24.740  1.00  0.00     0.117 A 
ATOM     21  C   UNL A   1      31.269  28.431  25.560  1.00  0.00     0.065 A 
ATOM     22  C   UNL A   1      31.596  27.443  26.508  1.00  0.00     0.012 A 
ATOM     23  C   UNL A   1      31.682  29.784  25.676  1.00  0.00     0.028 A 
ATOM     24  C   UNL A   1      32.472  27.976  27.544  1.00  0.00     0.011 A 
ATOM     25  C   UNL A   1      32.513  30.205  26.692  1.00  0.00     0.002 A 
ATOM     26  C   UNL A   1      32.921  29.299  27.625  1.00  0.00     0.001 A 
BRANCH  19  27
ATOM     27  S   UNL A   1      30.308  28.865  23.126  1.00  0.00     0.268 S 
ATOM     28  O   UNL A   1      29.684  27.909  22.208  1.00  0.00    -0.201 OA
ATOM     29  O   UNL A   1      31.670  29.330  22.860  1.00  0.00    -0.201 OA
BRANCH  27  30
ATOM     30  C   UNL A   1      29.450  30.376  22.664  1.00  0.00     0.088 A 
ATOM     31  C   UNL A   1      27.308  33.479  20.442  1.00  0.00     0.044 C 
ATOM     32  C   UNL A   1      28.029  32.435  21.243  1.00  0.00    -0.051 A 
ATOM     33  C   UNL A   1      28.139  31.162  20.708  1.00  0.00     0.005 A 
ATOM     34  C   UNL A   1      28.651  32.685  22.474  1.00  0.00     0.005 A 
ATOM     35  C   UNL A   1      28.813  30.169  21.412  1.00  0.00     0.022 A 
ATOM     36  C   UNL A   1      29.388  31.675  23.159  1.00  0.00     0.022 A 
ENDBRANCH  27  30
ENDBRANCH  19  27
ENDBRANCH  16  18
ENDBRANCH  13  16
ENDBRANCH  11  12
BRANCH  11  37
ATOM     37  C   UNL A   1      32.088  21.235  22.397  1.00  0.00     0.072 C 
BRANCH  37  38
ATOM     38  C   UNL A   1      32.450  19.678  22.621  1.00  0.00    -0.020 A 
ATOM     39  C   UNL A   1      32.243  18.614  21.724  1.00  0.00     0.087 A 
ATOM     40  C   UNL A   1      32.719  18.968  23.840  1.00  0.00     0.003 A 
ATOM     41  N   UNL A   1      32.080  17.426  22.367  1.00  0.00    -0.361 N 
ATOM     42  C   UNL A   1      32.302  17.633  23.687  1.00  0.00     0.046 A 
ATOM     43  C   UNL A   1      33.197  19.345  25.097  1.00  0.00     0.010 A 
ATOM     44  H   UNL A   1      31.843  16.568  21.948  1.00  0.00     0.166 HD
ATOM     45  C   UNL A   1      32.159  16.723  24.730  1.00  0.00     0.026 A 
ATOM     46  C   UNL A   1      33.157  18.415  26.142  1.00  0.00     0.001 A 
ATOM     47  C   UNL A   1      32.594  17.148  25.976  1.00  0.00     0.002 A 
ENDBRANCH  37  38
ENDBRANCH  11  37
ENDBRANCH   8  11
ENDBRANCH   6   7
ENDBRANCH   4   6
ENDBRANCH   3   4
ENDBRANCH   2   3
ENDBRANCH   1   2
BRANCH   1  48
ATOM     48  O   UNL A   1      39.813  20.916  26.461  1.00  0.00    -0.376 OA
BRANCH  48  49
ATOM     49  C   UNL A   1      41.161  21.120  26.080  1.00  0.00     0.188 C 
BRANCH  49  50
ATOM     50  C   UNL A   1      42.012  19.871  26.347  1.00  0.00     0.188 C 
BRANCH  50  51
ATOM     51  O   UNL A   1      42.634  19.336  25.194  1.00  0.00    -0.376 OA
BRANCH  51  52
ATOM     52  C   UNL A   1      43.956  18.845  25.232  1.00  0.00     0.202 C 
BRANCH  52  53
ATOM     53  C   UNL A   1      44.801  19.641  24.250  1.00  0.00     0.261 C 
BRANCH  53  54
ATOM     54  O   UNL A   1      45.306  20.819  24.926  1.00  0.00    -0.460 OA
BRANCH  54  55
ATOM     55  C   UNL A   1      44.867  21.995  24.407  1.00  0.00     0.338 C 
ATOM     56  O   UNL A   1      44.447  22.142  23.269  1.00  0.00    -0.246 OA
BRANCH  55  57
ATOM     57  C   UNL A   1      45.225  23.127  25.332  1.00  0.00     0.060 A 
ATOM     58  C   UNL A   1      45.625  22.811  26.588  1.00  0.00     0.016 A 
ATOM     59  C   UNL A   1      44.884  24.472  25.128  1.00  0.00     0.016 A 
ATOM     60  C   UNL A   1      45.445  23.796  27.590  1.00  0.00     0.010 A 
ATOM     61  C   UNL A   1      44.573  25.378  26.223  1.00  0.00     0.010 A 
ATOM     62  C   UNL A   1      44.725  25.042  27.573  1.00  0.00    -0.014 A 
BRANCH  62  63
ATOM     63  C   UNL A   1      44.122  25.966  28.960  1.00  0.00     0.031 A 
ATOM     64  C   UNL A   1      42.941  27.261  28.669  1.00  0.00     0.074 A 
ATOM     65  C   UNL A   1      44.480  25.744  30.388  1.00  0.00     0.049 A 
ATOM     66  N   UNL A   1      41.912  27.505  29.442  1.00  0.00    -0.248 NA
ATOM     67  C   UNL A   1      42.955  28.450  27.765  1.00  0.00     0.031 C 
ATOM     68  C   UNL A   1      43.959  24.727  31.404  1.00  0.00     0.029 A 
ATOM     69  N   UNL A   1      45.683  26.049  31.202  1.00  0.00    -0.354 N 
ATOM     70  C   UNL A   1      41.300  28.731  29.294  1.00  0.00     0.074 A 
ATOM     71  C   UNL A   1      41.970  29.264  28.148  1.00  0.00     0.031 C 
ATOM     72  C   UNL A   1      44.663  24.657  32.565  1.00  0.00     0.029 A 
ATOM     73  C   UNL A   1      45.649  25.716  32.591  1.00  0.00     0.049 A 
ATOM     74  H   UNL A   1      46.478  26.468  30.798  1.00  0.00     0.167 HD
ATOM     75  C   UNL A   1      40.654  29.543  30.207  1.00  0.00     0.037 A 
ATOM     76  C   UNL A   1      46.595  25.935  33.570  1.00  0.00     0.037 A 
ATOM     77  C   UNL A   1      41.077  29.632  31.699  1.00  0.00     0.049 A 
ATOM     78  C   UNL A   1      46.465  27.425  34.158  1.00  0.00     0.074 A 
ATOM     79  C   UNL A   1      40.536  29.262  32.926  1.00  0.00     0.029 A 
ATOM     80  N   UNL A   1      42.301  30.257  32.155  1.00  0.00    -0.354 N 
ATOM     81  N   UNL A   1      45.310  28.000  34.462  1.00  0.00    -0.248 NA
ATOM     82  C   UNL A   1      47.496  28.401  34.472  1.00  0.00     0.031 C 
ATOM     83  C   UNL A   1      41.492  29.516  34.020  1.00  0.00     0.029 A 
ATOM     84  C   UNL A   1      42.734  29.926  33.513  1.00  0.00     0.049 A 
ATOM     85  H   UNL A   1      42.814  30.871  31.582  1.00  0.00     0.167 HD
ATOM     86  C   UNL A   1      45.326  29.415  34.369  1.00  0.00     0.074 A 
ATOM     87  C   UNL A   1      46.789  29.562  34.603  1.00  0.00     0.031 C 
ATOM     88  C   UNL A   1      44.199  30.302  34.117  1.00  0.00     0.037 A 
BRANCH  75  89
ATOM     89  C   UNL A   1      39.279  30.002  29.601  1.00  0.00     0.064 A 
ATOM     90  C   UNL A   1      38.381  29.079  29.039  1.00  0.00     0.173 A 
ATOM     91  C   UNL A   1      38.845  31.365  29.456  1.00  0.00     0.173 A 
ATOM     92  F   UNL A   1      38.651  27.770  29.029  1.00  0.00    -0.203 F 
ATOM     93  C   UNL A   1      37.176  29.469  28.419  1.00  0.00     0.198 A 
ATOM     94  C   UNL A   1      37.630  31.745  28.874  1.00  0.00     0.198 A 
ATOM     95  F   UNL A   1      39.588  32.416  29.827  1.00  0.00    -0.203 F 
ATOM     96  F   UNL A   1      36.387  28.538  27.863  1.00  0.00    -0.200 F 
ATOM     97  C   UNL A   1      36.793  30.795  28.350  1.00  0.00     0.200 A 
ATOM     98  F   UNL A   1      37.300  33.044  28.807  1.00  0.00    -0.200 F 
ATOM     99  F   UNL A   1      35.642  31.155  27.768  1.00  0.00    -0.200 F 
ENDBRANCH  75  89
BRANCH  76 100
ATOM    100  C   UNL A   1      47.843  25.110  33.265  1.00  0.00     0.064 A 
ATOM    101  C   UNL A   1      48.941  25.720  32.592  1.00  0.00     0.173 A 
ATOM    102  C   UNL A   1      48.159  23.943  33.970  1.00  0.00     0.173 A 
ATOM    103  F   UNL A   1      48.746  26.833  31.870  1.00  0.00    -0.203 F 
ATOM    104  C   UNL A   1      50.268  25.272  32.737  1.00  0.00     0.198 A 
ATOM    105  C   UNL A   1      49.490  23.500  34.125  1.00  0.00     0.198 A 
ATOM    106  F   UNL A   1      47.205  23.315  34.669  1.00  0.00    -0.203 F 
ATOM    107  F   UNL A   1      51.281  25.975  32.205  1.00  0.00    -0.200 F 
ATOM    108  C   UNL A   1      50.545  24.174  33.527  1.00  0.00     0.200 A 
ATOM    109  F   UNL A   1      49.754  22.512  34.993  1.00  0.00    -0.200 F 
ATOM    110  F   UNL A   1      51.814  23.828  33.791  1.00  0.00    -0.200 F 
ENDBRANCH  76 100
BRANCH  88 111
ATOM    111  C   UNL A   1      44.212  31.775  34.573  1.00  0.00     0.064 A 
ATOM    112  C   UNL A   1      43.956  32.193  35.885  1.00  0.00     0.173 A 
ATOM    113  C   UNL A   1      44.179  32.827  33.613  1.00  0.00     0.173 A 
ATOM    114  F   UNL A   1      43.890  31.334  36.905  1.00  0.00    -0.203 F 
ATOM    115  C   UNL A   1      43.666  33.525  36.202  1.00  0.00     0.198 A 
ATOM    116  C   UNL A   1      43.799  34.130  33.914  1.00  0.00     0.198 A 
ATOM    117  F   UNL A   1      44.499  32.648  32.326  1.00  0.00    -0.203 F 
ATOM    118  F   UNL A   1      43.454  33.862  37.480  1.00  0.00    -0.200 F 
ATOM    119  C   UNL A   1      43.541  34.481  35.214  1.00  0.00     0.200 A 
ATOM    120  F   UNL A   1      43.672  35.026  32.927  1.00  0.00    -0.200 F 
ATOM    121  F   UNL A   1      43.167  35.730  35.513  1.00  0.00    -0.200 F 
ENDBRANCH  88 111
ENDBRANCH  62  63
ENDBRANCH  55  57
ENDBRANCH  54  55
ENDBRANCH  53  54
ENDBRANCH  52  53
ENDBRANCH  51  52
ENDBRANCH  50  51
ENDBRANCH  49  50
ENDBRANCH  48  49
ENDBRANCH   1  48
TORSDOF 26
ENDMDL
