MODEL 1
REMARK VINA RESULT:      -9.1      0.000      0.000
REMARK SMILES CCC([NH3+])(CC)C(=O)N(CCC(=O)OCCOCCOCCOC(=O)c1ccc(-c2c3nc(c(-c4c(F)c(F)c(F)c(F)c4F)c4ccc([nH]4)c(-c4c(F)c(F)c(F)c(F)c4F)c4nc(c(-c5c(F)c(F)c(F)c(F)c5F)c5ccc2[nH]5)C=C4)C=C3)cc1)C(C)C
REMARK SMILES IDX 17 1 16 2 15 3 14 4 12 5 13 6 11 7 10 8 9 9 7 10 8 11 3 12
REMARK SMILES IDX 2 13 1 14 4 15 5 19 6 20 89 21 90 22 91 23 18 24 19 25 20 26
REMARK SMILES IDX 21 27 22 28 23 29 24 30 25 31 26 32 27 33 88 34 28 35 87 36
REMARK SMILES IDX 29 37 30 38 31 39 81 40 32 41 86 42 80 43 82 44 33 45 85 46
REMARK SMILES IDX 79 47 78 48 34 50 66 51 46 52 65 53 47 54 50 55 64 56 83 57
REMARK SMILES IDX 48 58 49 59 63 61 84 62 51 63 35 64 36 65 44 66 37 67 38 68
REMARK SMILES IDX 42 69 45 70 39 71 40 72 43 73 41 74 67 75 68 76 76 77 69 78
REMARK SMILES IDX 70 79 74 80 77 81 71 82 72 83 75 84 73 85 52 86 53 87 61 88
REMARK SMILES IDX 54 89 55 90 59 91 62 92 56 93 57 94 60 95 58 96
REMARK H PARENT 4 16 4 17 4 18 82 49 50 60
REMARK Flexibility Score: inf
ROOT
ATOM      1  O   UNL A   1      38.952  21.471  26.446  1.00  0.00    -0.376 OA
ENDROOT
BRANCH   1   2
ATOM      2  C   UNL A   1      38.102  21.475  25.299  1.00  0.00     0.202 C 
BRANCH   2   3
ATOM      3  C   UNL A   1      36.763  22.195  25.487  1.00  0.00     0.261 C 
BRANCH   3   4
ATOM      4  O   UNL A   1      35.645  21.395  25.047  1.00  0.00    -0.463 OA
BRANCH   4   5
ATOM      5  C   UNL A   1      34.465  22.031  24.871  1.00  0.00     0.307 C 
ATOM      6  O   UNL A   1      33.422  21.482  24.533  1.00  0.00    -0.252 OA
BRANCH   5   7
ATOM      7  C   UNL A   1      34.519  23.521  25.126  1.00  0.00     0.144 C 
BRANCH   7   8
ATOM      8  C   UNL A   1      33.771  24.122  26.321  1.00  0.00     0.131 C 
BRANCH   8   9
ATOM      9  N   UNL A   1      33.024  25.363  26.039  1.00  0.00    -0.334 N 
BRANCH   9  10
ATOM     10  C   UNL A   1      31.687  25.644  26.349  1.00  0.00     0.284 C 
ATOM     11  O   UNL A   1      31.426  26.631  27.050  1.00  0.00    -0.268 OA
BRANCH  10  12
ATOM     12  C   UNL A   1      30.482  24.747  25.860  1.00  0.00     0.173 C 
BRANCH  12  13
ATOM     13  C   UNL A   1      30.375  24.821  24.295  1.00  0.00     0.075 C 
ATOM     14  C   UNL A   1      30.906  23.613  23.517  1.00  0.00     0.011 C 
ENDBRANCH  12  13
BRANCH  12  15
ATOM     15  N   UNL A   1      29.189  25.259  26.384  1.00  0.00    -0.345 N 
ATOM     16  H   UNL A   1      28.951  24.764  27.243  1.00  0.00     0.345 HD
ATOM     17  H   UNL A   1      28.457  25.107  25.690  1.00  0.00     0.345 HD
ATOM     18  H   UNL A   1      29.273  26.257  26.578  1.00  0.00     0.345 HD
ENDBRANCH  12  15
BRANCH  12  19
ATOM     19  C   UNL A   1      30.658  23.261  26.258  1.00  0.00     0.075 C 
ATOM     20  C   UNL A   1      29.539  22.704  27.136  1.00  0.00     0.011 C 
ENDBRANCH  12  19
ENDBRANCH  10  12
ENDBRANCH   9  10
BRANCH   9  21
ATOM     21  C   UNL A   1      33.759  26.370  25.236  1.00  0.00     0.079 C 
ATOM     22  C   UNL A   1      33.027  26.764  23.952  1.00  0.00     0.031 C 
ATOM     23  C   UNL A   1      34.180  27.592  26.059  1.00  0.00     0.031 C 
ENDBRANCH   9  21
ENDBRANCH   8   9
ENDBRANCH   7   8
ENDBRANCH   5   7
ENDBRANCH   4   5
ENDBRANCH   3   4
ENDBRANCH   2   3
ENDBRANCH   1   2
BRANCH   1  24
ATOM     24  C   UNL A   1      40.286  21.923  26.248  1.00  0.00     0.188 C 
BRANCH  24  25
ATOM     25  C   UNL A   1      41.272  21.577  27.363  1.00  0.00     0.188 C 
BRANCH  25  26
ATOM     26  O   UNL A   1      41.823  20.270  27.289  1.00  0.00    -0.376 OA
BRANCH  26  27
ATOM     27  C   UNL A   1      41.708  19.604  26.027  1.00  0.00     0.202 C 
BRANCH  27  28
ATOM     28  C   UNL A   1      42.871  18.688  25.596  1.00  0.00     0.261 C 
BRANCH  28  29
ATOM     29  O   UNL A   1      43.509  19.051  24.355  1.00  0.00    -0.460 OA
BRANCH  29  30
ATOM     30  C   UNL A   1      44.782  19.508  24.399  1.00  0.00     0.338 C 
ATOM     31  O   UNL A   1      45.763  18.982  23.900  1.00  0.00    -0.246 OA
BRANCH  30  32
ATOM     32  C   UNL A   1      44.744  20.907  24.908  1.00  0.00     0.060 A 
ATOM     33  C   UNL A   1      44.141  21.891  24.109  1.00  0.00     0.016 A 
ATOM     34  C   UNL A   1      45.189  21.233  26.194  1.00  0.00     0.016 A 
ATOM     35  C   UNL A   1      44.005  23.199  24.585  1.00  0.00     0.010 A 
ATOM     36  C   UNL A   1      45.061  22.543  26.666  1.00  0.00     0.010 A 
ATOM     37  C   UNL A   1      44.492  23.539  25.854  1.00  0.00    -0.014 A 
BRANCH  37  38
ATOM     38  C   UNL A   1      44.602  24.963  26.256  1.00  0.00     0.031 A 
ATOM     39  C   UNL A   1      45.958  25.613  26.177  1.00  0.00     0.074 A 
ATOM     40  C   UNL A   1      43.541  25.671  26.682  1.00  0.00     0.049 A 
ATOM     41  N   UNL A   1      46.328  26.817  26.528  1.00  0.00    -0.248 NA
ATOM     42  C   UNL A   1      47.045  24.784  25.629  1.00  0.00     0.031 C 
ATOM     43  C   UNL A   1      42.170  25.175  26.777  1.00  0.00     0.029 A 
ATOM     44  N   UNL A   1      43.459  26.969  27.131  1.00  0.00    -0.354 N 
ATOM     45  C   UNL A   1      47.686  26.888  26.248  1.00  0.00     0.074 A 
ATOM     46  C   UNL A   1      48.083  25.600  25.723  1.00  0.00     0.031 C 
ATOM     47  C   UNL A   1      41.386  26.152  27.269  1.00  0.00     0.029 A 
ATOM     48  C   UNL A   1      42.203  27.331  27.553  1.00  0.00     0.049 A 
ATOM     49  H   UNL A   1      44.231  27.581  27.147  1.00  0.00     0.167 HD
ATOM     50  C   UNL A   1      48.527  27.936  26.406  1.00  0.00     0.037 A 
ATOM     51  C   UNL A   1      41.775  28.475  28.126  1.00  0.00     0.037 A 
ATOM     52  C   UNL A   1      48.138  29.217  26.925  1.00  0.00     0.049 A 
ATOM     53  C   UNL A   1      42.753  29.603  28.359  1.00  0.00     0.074 A 
ATOM     54  C   UNL A   1      48.917  30.347  27.099  1.00  0.00     0.029 A 
ATOM     55  N   UNL A   1      46.863  29.538  27.363  1.00  0.00    -0.354 N 
ATOM     56  N   UNL A   1      44.026  29.675  28.055  1.00  0.00    -0.248 NA
ATOM     57  C   UNL A   1      42.230  30.810  29.018  1.00  0.00     0.031 C 
ATOM     58  C   UNL A   1      48.127  31.336  27.692  1.00  0.00     0.029 A 
ATOM     59  C   UNL A   1      46.841  30.840  27.834  1.00  0.00     0.049 A 
ATOM     60  H   UNL A   1      46.089  28.929  27.342  1.00  0.00     0.167 HD
ATOM     61  C   UNL A   1      44.445  30.940  28.452  1.00  0.00     0.074 A 
ATOM     62  C   UNL A   1      43.289  31.608  29.008  1.00  0.00     0.031 C 
ATOM     63  C   UNL A   1      45.678  31.498  28.367  1.00  0.00     0.037 A 
BRANCH  50  64
ATOM     64  C   UNL A   1      49.964  27.732  26.033  1.00  0.00     0.064 A 
ATOM     65  C   UNL A   1      50.948  27.485  27.001  1.00  0.00     0.173 A 
ATOM     66  C   UNL A   1      50.350  27.732  24.685  1.00  0.00     0.173 A 
ATOM     67  F   UNL A   1      50.630  27.495  28.305  1.00  0.00    -0.203 F 
ATOM     68  C   UNL A   1      52.271  27.259  26.633  1.00  0.00     0.198 A 
ATOM     69  C   UNL A   1      51.668  27.479  24.319  1.00  0.00     0.198 A 
ATOM     70  F   UNL A   1      49.445  27.965  23.722  1.00  0.00    -0.203 F 
ATOM     71  F   UNL A   1      53.203  27.061  27.575  1.00  0.00    -0.200 F 
ATOM     72  C   UNL A   1      52.628  27.246  25.292  1.00  0.00     0.200 A 
ATOM     73  F   UNL A   1      52.010  27.457  23.022  1.00  0.00    -0.200 F 
ATOM     74  F   UNL A   1      53.899  27.013  24.938  1.00  0.00    -0.200 F 
ENDBRANCH  50  64
BRANCH  51  75
ATOM     75  C   UNL A   1      40.356  28.621  28.554  1.00  0.00     0.064 A 
ATOM     76  C   UNL A   1      39.379  29.113  27.677  1.00  0.00     0.173 A 
ATOM     77  C   UNL A   1      39.964  28.338  29.872  1.00  0.00     0.173 A 
ATOM     78  F   UNL A   1      39.710  29.431  26.416  1.00  0.00    -0.203 F 
ATOM     79  C   UNL A   1      38.074  29.346  28.107  1.00  0.00     0.198 A 
ATOM     80  C   UNL A   1      38.651  28.542  30.293  1.00  0.00     0.198 A 
ATOM     81  F   UNL A   1      40.859  27.876  30.755  1.00  0.00    -0.203 F 
ATOM     82  F   UNL A   1      37.179  29.883  27.267  1.00  0.00    -0.200 F 
ATOM     83  C   UNL A   1      37.710  29.058  29.414  1.00  0.00     0.200 A 
ATOM     84  F   UNL A   1      38.302  28.256  31.555  1.00  0.00    -0.200 F 
ATOM     85  F   UNL A   1      36.459  29.293  29.832  1.00  0.00    -0.200 F 
ENDBRANCH  51  75
BRANCH  63  86
ATOM     86  C   UNL A   1      45.836  32.916  28.841  1.00  0.00     0.064 A 
ATOM     87  C   UNL A   1      46.233  33.216  30.153  1.00  0.00     0.173 A 
ATOM     88  C   UNL A   1      45.640  33.986  27.954  1.00  0.00     0.173 A 
ATOM     89  F   UNL A   1      46.423  32.230  31.043  1.00  0.00    -0.203 F 
ATOM     90  C   UNL A   1      46.404  34.535  30.565  1.00  0.00     0.198 A 
ATOM     91  C   UNL A   1      45.842  35.301  28.361  1.00  0.00     0.198 A 
ATOM     92  F   UNL A   1      45.271  33.753  26.685  1.00  0.00    -0.203 F 
ATOM     93  F   UNL A   1      46.740  34.800  31.835  1.00  0.00    -0.200 F 
ATOM     94  C   UNL A   1      46.216  35.575  29.667  1.00  0.00     0.200 A 
ATOM     95  F   UNL A   1      45.677  36.304  27.487  1.00  0.00    -0.200 F 
ATOM     96  F   UNL A   1      46.391  36.844  30.063  1.00  0.00    -0.200 F 
ENDBRANCH  63  86
ENDBRANCH  37  38
ENDBRANCH  30  32
ENDBRANCH  29  30
ENDBRANCH  28  29
ENDBRANCH  27  28
ENDBRANCH  26  27
ENDBRANCH  25  26
ENDBRANCH  24  25
ENDBRANCH   1  24
TORSDOF 25
ENDMDL
MODEL 2
REMARK VINA RESULT:      -9.0      6.469     12.219
REMARK SMILES CCC([NH3+])(CC)C(=O)N(CCC(=O)OCCOCCOCCOC(=O)c1ccc(-c2c3nc(c(-c4c(F)c(F)c(F)c(F)c4F)c4ccc([nH]4)c(-c4c(F)c(F)c(F)c(F)c4F)c4nc(c(-c5c(F)c(F)c(F)c(F)c5F)c5ccc2[nH]5)C=C4)C=C3)cc1)C(C)C
REMARK SMILES IDX 17 1 16 2 15 3 14 4 12 5 13 6 11 7 10 8 9 9 7 10 8 11 3 12
REMARK SMILES IDX 2 13 1 14 4 15 5 19 6 20 89 21 90 22 91 23 18 24 19 25 20 26
REMARK SMILES IDX 21 27 22 28 23 29 24 30 25 31 26 32 27 33 88 34 28 35 87 36
REMARK SMILES IDX 29 37 30 38 31 39 81 40 32 41 86 42 80 43 82 44 33 45 85 46
REMARK SMILES IDX 79 47 78 48 34 50 66 51 46 52 65 53 47 54 50 55 64 56 83 57
REMARK SMILES IDX 48 58 49 59 63 61 84 62 51 63 35 64 36 65 44 66 37 67 38 68
REMARK SMILES IDX 42 69 45 70 39 71 40 72 43 73 41 74 67 75 68 76 76 77 69 78
REMARK SMILES IDX 70 79 74 80 77 81 71 82 72 83 75 84 73 85 52 86 53 87 61 88
REMARK SMILES IDX 54 89 55 90 59 91 62 92 56 93 57 94 60 95 58 96
REMARK H PARENT 4 16 4 17 4 18 82 49 50 60
REMARK Flexibility Score: inf
ROOT
ATOM      1  O   UNL A   1      34.926  32.078  28.462  1.00  0.00    -0.376 OA
ENDROOT
BRANCH   1   2
ATOM      2  C   UNL A   1      35.449  30.860  27.932  1.00  0.00     0.202 C 
BRANCH   2   3
ATOM      3  C   UNL A   1      34.494  30.089  27.014  1.00  0.00     0.261 C 
BRANCH   3   4
ATOM      4  O   UNL A   1      34.030  28.862  27.614  1.00  0.00    -0.463 OA
BRANCH   4   5
ATOM      5  C   UNL A   1      32.954  28.269  27.049  1.00  0.00     0.307 C 
ATOM      6  O   UNL A   1      31.841  28.777  26.968  1.00  0.00    -0.252 OA
BRANCH   5   7
ATOM      7  C   UNL A   1      33.225  26.883  26.503  1.00  0.00     0.144 C 
BRANCH   7   8
ATOM      8  C   UNL A   1      32.056  25.954  26.158  1.00  0.00     0.131 C 
BRANCH   8   9
ATOM      9  N   UNL A   1      32.128  25.319  24.828  1.00  0.00    -0.334 N 
BRANCH   9  10
ATOM     10  C   UNL A   1      32.641  25.869  23.645  1.00  0.00     0.284 C 
ATOM     11  O   UNL A   1      33.610  25.324  23.098  1.00  0.00    -0.268 OA
BRANCH  10  12
ATOM     12  C   UNL A   1      32.054  27.174  22.976  1.00  0.00     0.173 C 
BRANCH  12  13
ATOM     13  C   UNL A   1      30.633  27.474  23.573  1.00  0.00     0.075 C 
ATOM     14  C   UNL A   1      29.662  28.245  22.672  1.00  0.00     0.011 C 
ENDBRANCH  12  13
BRANCH  12  15
ATOM     15  N   UNL A   1      31.854  26.981  21.517  1.00  0.00    -0.345 N 
ATOM     16  H   UNL A   1      31.566  26.019  21.337  1.00  0.00     0.345 HD
ATOM     17  H   UNL A   1      32.727  27.173  21.026  1.00  0.00     0.345 HD
ATOM     18  H   UNL A   1      31.131  27.620  21.187  1.00  0.00     0.345 HD
ENDBRANCH  12  15
BRANCH  12  19
ATOM     19  C   UNL A   1      32.949  28.414  23.224  1.00  0.00     0.075 C 
ATOM     20  C   UNL A   1      34.073  28.596  22.206  1.00  0.00     0.011 C 
ENDBRANCH  12  19
ENDBRANCH  10  12
ENDBRANCH   9  10
BRANCH   9  21
ATOM     21  C   UNL A   1      31.476  23.991  24.730  1.00  0.00     0.079 C 
ATOM     22  C   UNL A   1      30.759  23.579  26.018  1.00  0.00     0.031 C 
ATOM     23  C   UNL A   1      30.572  23.863  23.500  1.00  0.00     0.031 C 
ENDBRANCH   9  21
ENDBRANCH   8   9
ENDBRANCH   7   8
ENDBRANCH   5   7
ENDBRANCH   4   5
ENDBRANCH   3   4
ENDBRANCH   2   3
ENDBRANCH   1   2
BRANCH   1  24
ATOM     24  C   UNL A   1      33.687  32.522  27.924  1.00  0.00     0.188 C 
BRANCH  24  25
ATOM     25  C   UNL A   1      33.265  33.937  28.320  1.00  0.00     0.188 C 
BRANCH  25  26
ATOM     26  O   UNL A   1      34.310  34.899  28.302  1.00  0.00    -0.376 OA
BRANCH  26  27
ATOM     27  C   UNL A   1      33.967  36.214  28.757  1.00  0.00     0.202 C 
BRANCH  27  28
ATOM     28  C   UNL A   1      32.772  36.345  29.721  1.00  0.00     0.261 C 
BRANCH  28  29
ATOM     29  O   UNL A   1      33.122  36.588  31.099  1.00  0.00    -0.460 OA
BRANCH  29  30
ATOM     30  C   UNL A   1      32.726  35.689  32.029  1.00  0.00     0.338 C 
ATOM     31  O   UNL A   1      31.578  35.387  32.310  1.00  0.00    -0.246 OA
BRANCH  30  32
ATOM     32  C   UNL A   1      33.927  34.916  32.452  1.00  0.00     0.060 A 
ATOM     33  C   UNL A   1      35.190  35.506  32.290  1.00  0.00     0.016 A 
ATOM     34  C   UNL A   1      33.815  33.681  33.101  1.00  0.00     0.016 A 
ATOM     35  C   UNL A   1      36.337  34.853  32.753  1.00  0.00     0.010 A 
ATOM     36  C   UNL A   1      34.963  33.025  33.556  1.00  0.00     0.010 A 
ATOM     37  C   UNL A   1      36.232  33.596  33.361  1.00  0.00    -0.014 A 
BRANCH  37  38
ATOM     38  C   UNL A   1      37.447  32.779  33.605  1.00  0.00     0.031 A 
ATOM     39  C   UNL A   1      38.224  33.034  34.869  1.00  0.00     0.074 A 
ATOM     40  C   UNL A   1      37.863  31.837  32.739  1.00  0.00     0.049 A 
ATOM     41  N   UNL A   1      39.345  32.503  35.281  1.00  0.00    -0.248 NA
ATOM     42  C   UNL A   1      37.653  34.031  35.792  1.00  0.00     0.031 C 
ATOM     43  C   UNL A   1      37.189  31.468  31.497  1.00  0.00     0.029 A 
ATOM     44  N   UNL A   1      38.971  31.024  32.774  1.00  0.00    -0.354 N 
ATOM     45  C   UNL A   1      39.616  33.102  36.504  1.00  0.00     0.074 A 
ATOM     46  C   UNL A   1      38.558  34.055  36.758  1.00  0.00     0.031 C 
ATOM     47  C   UNL A   1      37.907  30.511  30.879  1.00  0.00     0.029 A 
ATOM     48  C   UNL A   1      39.105  30.222  31.666  1.00  0.00     0.049 A 
ATOM     49  H   UNL A   1      39.609  31.017  33.525  1.00  0.00     0.167 HD
ATOM     50  C   UNL A   1      40.650  32.873  37.346  1.00  0.00     0.037 A 
ATOM     51  C   UNL A   1      40.097  29.376  31.321  1.00  0.00     0.037 A 
ATOM     52  C   UNL A   1      41.702  31.927  37.100  1.00  0.00     0.049 A 
ATOM     53  C   UNL A   1      41.277  29.194  32.246  1.00  0.00     0.074 A 
ATOM     54  C   UNL A   1      42.780  31.609  37.908  1.00  0.00     0.029 A 
ATOM     55  N   UNL A   1      41.816  31.152  35.957  1.00  0.00    -0.354 N 
ATOM     56  N   UNL A   1      41.505  29.736  33.419  1.00  0.00    -0.248 NA
ATOM     57  C   UNL A   1      42.341  28.283  31.796  1.00  0.00     0.031 C 
ATOM     58  C   UNL A   1      43.575  30.680  37.231  1.00  0.00     0.029 A 
ATOM     59  C   UNL A   1      42.962  30.377  36.025  1.00  0.00     0.049 A 
ATOM     60  H   UNL A   1      41.176  31.153  35.208  1.00  0.00     0.167 HD
ATOM     61  C   UNL A   1      42.714  29.206  33.858  1.00  0.00     0.074 A 
ATOM     62  C   UNL A   1      43.166  28.291  32.833  1.00  0.00     0.031 C 
ATOM     63  C   UNL A   1      43.390  29.457  35.006  1.00  0.00     0.037 A 
BRANCH  50  64
ATOM     64  C   UNL A   1      40.707  33.679  38.608  1.00  0.00     0.064 A 
ATOM     65  C   UNL A   1      41.502  34.829  38.712  1.00  0.00     0.173 A 
ATOM     66  C   UNL A   1      39.914  33.324  39.709  1.00  0.00     0.173 A 
ATOM     67  F   UNL A   1      42.293  35.198  37.692  1.00  0.00    -0.203 F 
ATOM     68  C   UNL A   1      41.512  35.588  39.878  1.00  0.00     0.198 A 
ATOM     69  C   UNL A   1      39.906  34.100  40.864  1.00  0.00     0.198 A 
ATOM     70  F   UNL A   1      39.138  32.231  39.659  1.00  0.00    -0.203 F 
ATOM     71  F   UNL A   1      42.306  36.664  39.971  1.00  0.00    -0.200 F 
ATOM     72  C   UNL A   1      40.706  35.229  40.949  1.00  0.00     0.200 A 
ATOM     73  F   UNL A   1      39.119  33.757  41.894  1.00  0.00    -0.200 F 
ATOM     74  F   UNL A   1      40.706  35.969  42.066  1.00  0.00    -0.200 F 
ENDBRANCH  50  64
BRANCH  51  75
ATOM     75  C   UNL A   1      40.049  28.644  30.025  1.00  0.00     0.064 A 
ATOM     76  C   UNL A   1      39.441  27.383  29.924  1.00  0.00     0.173 A 
ATOM     77  C   UNL A   1      40.673  29.158  28.878  1.00  0.00     0.173 A 
ATOM     78  F   UNL A   1      38.861  26.833  31.000  1.00  0.00    -0.203 F 
ATOM     79  C   UNL A   1      39.486  26.654  28.737  1.00  0.00     0.198 A 
ATOM     80  C   UNL A   1      40.690  28.441  27.683  1.00  0.00     0.198 A 
ATOM     81  F   UNL A   1      41.278  30.353  28.921  1.00  0.00    -0.203 F 
ATOM     82  F   UNL A   1      38.958  25.423  28.690  1.00  0.00    -0.200 F 
ATOM     83  C   UNL A   1      40.108  27.184  27.617  1.00  0.00     0.200 A 
ATOM     84  F   UNL A   1      41.287  28.960  26.601  1.00  0.00    -0.200 F 
ATOM     85  F   UNL A   1      40.162  26.477  26.480  1.00  0.00    -0.200 F 
ENDBRANCH  51  75
BRANCH  63  86
ATOM     86  C   UNL A   1      44.667  28.700  35.243  1.00  0.00     0.064 A 
ATOM     87  C   UNL A   1      45.912  29.210  34.847  1.00  0.00     0.173 A 
ATOM     88  C   UNL A   1      44.648  27.474  35.925  1.00  0.00     0.173 A 
ATOM     89  F   UNL A   1      45.984  30.374  34.182  1.00  0.00    -0.203 F 
ATOM     90  C   UNL A   1      47.088  28.508  35.102  1.00  0.00     0.198 A 
ATOM     91  C   UNL A   1      45.828  26.790  36.206  1.00  0.00     0.198 A 
ATOM     92  F   UNL A   1      43.484  26.947  36.337  1.00  0.00    -0.203 F 
ATOM     93  F   UNL A   1      48.261  28.993  34.674  1.00  0.00    -0.200 F 
ATOM     94  C   UNL A   1      47.045  27.304  35.788  1.00  0.00     0.200 A 
ATOM     95  F   UNL A   1      45.786  25.635  36.885  1.00  0.00    -0.200 F 
ATOM     96  F   UNL A   1      48.178  26.636  36.042  1.00  0.00    -0.200 F 
ENDBRANCH  63  86
ENDBRANCH  37  38
ENDBRANCH  30  32
ENDBRANCH  29  30
ENDBRANCH  28  29
ENDBRANCH  27  28
ENDBRANCH  26  27
ENDBRANCH  25  26
ENDBRANCH  24  25
ENDBRANCH   1  24
TORSDOF 25
ENDMDL
MODEL 3
REMARK VINA RESULT:      -8.8      1.068      2.081
REMARK SMILES CCC([NH3+])(CC)C(=O)N(CCC(=O)OCCOCCOCCOC(=O)c1ccc(-c2c3nc(c(-c4c(F)c(F)c(F)c(F)c4F)c4ccc([nH]4)c(-c4c(F)c(F)c(F)c(F)c4F)c4nc(c(-c5c(F)c(F)c(F)c(F)c5F)c5ccc2[nH]5)C=C4)C=C3)cc1)C(C)C
REMARK SMILES IDX 17 1 16 2 15 3 14 4 12 5 13 6 11 7 10 8 9 9 7 10 8 11 3 12
REMARK SMILES IDX 2 13 1 14 4 15 5 19 6 20 89 21 90 22 91 23 18 24 19 25 20 26
REMARK SMILES IDX 21 27 22 28 23 29 24 30 25 31 26 32 27 33 88 34 28 35 87 36
REMARK SMILES IDX 29 37 30 38 31 39 81 40 32 41 86 42 80 43 82 44 33 45 85 46
REMARK SMILES IDX 79 47 78 48 34 50 66 51 46 52 65 53 47 54 50 55 64 56 83 57
REMARK SMILES IDX 48 58 49 59 63 61 84 62 51 63 35 64 36 65 44 66 37 67 38 68
REMARK SMILES IDX 42 69 45 70 39 71 40 72 43 73 41 74 67 75 68 76 76 77 69 78
REMARK SMILES IDX 70 79 74 80 77 81 71 82 72 83 75 84 73 85 52 86 53 87 61 88
REMARK SMILES IDX 54 89 55 90 59 91 62 92 56 93 57 94 60 95 58 96
REMARK H PARENT 4 16 4 17 4 18 82 49 50 60
REMARK Flexibility Score: inf
ROOT
ATOM      1  O   UNL A   1      39.098  19.987  25.764  1.00  0.00    -0.376 OA
ENDROOT
BRANCH   1   2
ATOM      2  C   UNL A   1      38.012  20.103  24.844  1.00  0.00     0.202 C 
BRANCH   2   3
ATOM      3  C   UNL A   1      37.333  21.476  24.811  1.00  0.00     0.261 C 
BRANCH   3   4
ATOM      4  O   UNL A   1      36.616  21.762  26.030  1.00  0.00    -0.463 OA
BRANCH   4   5
ATOM      5  C   UNL A   1      35.914  22.917  26.075  1.00  0.00     0.307 C 
ATOM      6  O   UNL A   1      36.126  23.889  25.357  1.00  0.00    -0.252 OA
BRANCH   5   7
ATOM      7  C   UNL A   1      34.810  22.933  27.109  1.00  0.00     0.144 C 
BRANCH   7   8
ATOM      8  C   UNL A   1      33.734  21.842  27.098  1.00  0.00     0.131 C 
BRANCH   8   9
ATOM      9  N   UNL A   1      32.835  21.854  25.929  1.00  0.00    -0.334 N 
BRANCH   9  10
ATOM     10  C   UNL A   1      31.719  22.676  25.719  1.00  0.00     0.284 C 
ATOM     11  O   UNL A   1      30.585  22.198  25.858  1.00  0.00    -0.268 OA
BRANCH  10  12
ATOM     12  C   UNL A   1      31.833  24.192  25.291  1.00  0.00     0.173 C 
BRANCH  12  13
ATOM     13  C   UNL A   1      30.575  24.592  24.440  1.00  0.00     0.075 C 
ATOM     14  C   UNL A   1      30.641  24.288  22.940  1.00  0.00     0.011 C 
ENDBRANCH  12  13
BRANCH  12  15
ATOM     15  N   UNL A   1      33.010  24.412  24.412  1.00  0.00    -0.345 N 
ATOM     16  H   UNL A   1      33.731  24.916  24.929  1.00  0.00     0.345 HD
ATOM     17  H   UNL A   1      32.730  24.958  23.598  1.00  0.00     0.345 HD
ATOM     18  H   UNL A   1      33.378  23.510  24.107  1.00  0.00     0.345 HD
ENDBRANCH  12  15
BRANCH  12  19
ATOM     19  C   UNL A   1      31.905  25.142  26.512  1.00  0.00     0.075 C 
ATOM     20  C   UNL A   1      32.791  26.370  26.307  1.00  0.00     0.011 C 
ENDBRANCH  12  19
ENDBRANCH  10  12
ENDBRANCH   9  10
BRANCH   9  21
ATOM     21  C   UNL A   1      33.093  20.793  24.926  1.00  0.00     0.079 C 
ATOM     22  C   UNL A   1      32.752  19.391  25.436  1.00  0.00     0.031 C 
ATOM     23  C   UNL A   1      32.444  21.087  23.570  1.00  0.00     0.031 C 
ENDBRANCH   9  21
ENDBRANCH   8   9
ENDBRANCH   7   8
ENDBRANCH   5   7
ENDBRANCH   4   5
ENDBRANCH   3   4
ENDBRANCH   2   3
ENDBRANCH   1   2
BRANCH   1  24
ATOM     24  C   UNL A   1      39.960  21.113  25.869  1.00  0.00     0.188 C 
BRANCH  24  25
ATOM     25  C   UNL A   1      40.890  21.120  27.082  1.00  0.00     0.188 C 
BRANCH  25  26
ATOM     26  O   UNL A   1      41.967  20.195  27.014  1.00  0.00    -0.376 OA
BRANCH  26  27
ATOM     27  C   UNL A   1      42.028  19.379  25.838  1.00  0.00     0.202 C 
BRANCH  27  28
ATOM     28  C   UNL A   1      43.361  18.668  25.533  1.00  0.00     0.261 C 
BRANCH  28  29
ATOM     29  O   UNL A   1      43.910  18.931  24.226  1.00  0.00    -0.460 OA
BRANCH  29  30
ATOM     30  C   UNL A   1      45.154  19.457  24.147  1.00  0.00     0.338 C 
ATOM     31  O   UNL A   1      46.107  18.989  23.547  1.00  0.00    -0.246 OA
BRANCH  30  32
ATOM     32  C   UNL A   1      45.091  20.850  24.671  1.00  0.00     0.060 A 
ATOM     33  C   UNL A   1      44.573  21.853  23.838  1.00  0.00     0.016 A 
ATOM     34  C   UNL A   1      45.426  21.152  25.996  1.00  0.00     0.016 A 
ATOM     35  C   UNL A   1      44.415  23.157  24.319  1.00  0.00     0.010 A 
ATOM     36  C   UNL A   1      45.275  22.457  26.474  1.00  0.00     0.010 A 
ATOM     37  C   UNL A   1      44.793  23.472  25.631  1.00  0.00    -0.014 A 
BRANCH  37  38
ATOM     38  C   UNL A   1      44.887  24.889  26.062  1.00  0.00     0.031 A 
ATOM     39  C   UNL A   1      46.234  25.556  25.995  1.00  0.00     0.074 A 
ATOM     40  C   UNL A   1      43.818  25.575  26.505  1.00  0.00     0.049 A 
ATOM     41  N   UNL A   1      46.591  26.757  26.371  1.00  0.00    -0.248 NA
ATOM     42  C   UNL A   1      47.330  24.751  25.428  1.00  0.00     0.031 C 
ATOM     43  C   UNL A   1      42.454  25.061  26.591  1.00  0.00     0.029 A 
ATOM     44  N   UNL A   1      43.722  26.862  26.981  1.00  0.00    -0.354 N 
ATOM     45  C   UNL A   1      47.948  26.849  26.090  1.00  0.00     0.074 A 
ATOM     46  C   UNL A   1      48.359  25.577  25.538  1.00  0.00     0.031 C 
ATOM     47  C   UNL A   1      41.658  26.019  27.104  1.00  0.00     0.029 A 
ATOM     48  C   UNL A   1      42.462  27.201  27.411  1.00  0.00     0.049 A 
ATOM     49  H   UNL A   1      44.487  27.483  27.008  1.00  0.00     0.167 HD
ATOM     50  C   UNL A   1      48.777  27.903  26.269  1.00  0.00     0.037 A 
ATOM     51  C   UNL A   1      42.022  28.327  28.009  1.00  0.00     0.037 A 
ATOM     52  C   UNL A   1      48.374  29.169  26.815  1.00  0.00     0.049 A 
ATOM     53  C   UNL A   1      42.987  29.461  28.264  1.00  0.00     0.074 A 
ATOM     54  C   UNL A   1      49.140  30.305  27.012  1.00  0.00     0.029 A 
ATOM     55  N   UNL A   1      47.096  29.466  27.261  1.00  0.00    -0.354 N 
ATOM     56  N   UNL A   1      44.259  29.555  27.960  1.00  0.00    -0.248 NA
ATOM     57  C   UNL A   1      42.451  30.649  28.949  1.00  0.00     0.031 C 
ATOM     58  C   UNL A   1      48.339  31.271  27.626  1.00  0.00     0.029 A 
ATOM     59  C   UNL A   1      47.059  30.757  27.759  1.00  0.00     0.049 A 
ATOM     60  H   UNL A   1      46.329  28.849  27.229  1.00  0.00     0.167 HD
ATOM     61  C   UNL A   1      44.663  30.816  28.383  1.00  0.00     0.074 A 
ATOM     62  C   UNL A   1      43.500  31.458  28.954  1.00  0.00     0.031 C 
ATOM     63  C   UNL A   1      45.889  31.391  28.308  1.00  0.00     0.037 A 
BRANCH  50  64
ATOM     64  C   UNL A   1      50.215  27.725  25.890  1.00  0.00     0.064 A 
ATOM     65  C   UNL A   1      50.648  27.847  24.562  1.00  0.00     0.173 A 
ATOM     66  C   UNL A   1      51.181  27.481  26.878  1.00  0.00     0.173 A 
ATOM     67  F   UNL A   1      49.759  28.060  23.580  1.00  0.00    -0.203 F 
ATOM     68  C   UNL A   1      51.994  27.718  24.234  1.00  0.00     0.198 A 
ATOM     69  C   UNL A   1      52.529  27.380  26.550  1.00  0.00     0.198 A 
ATOM     70  F   UNL A   1      50.817  27.355  28.163  1.00  0.00    -0.203 F 
ATOM     71  F   UNL A   1      52.382  27.801  22.954  1.00  0.00    -0.200 F 
ATOM     72  C   UNL A   1      52.935  27.495  25.229  1.00  0.00     0.200 A 
ATOM     73  F   UNL A   1      53.438  27.174  27.514  1.00  0.00    -0.200 F 
ATOM     74  F   UNL A   1      54.232  27.385  24.914  1.00  0.00    -0.200 F 
ENDBRANCH  50  64
BRANCH  51  75
ATOM     75  C   UNL A   1      40.602  28.447  28.442  1.00  0.00     0.064 A 
ATOM     76  C   UNL A   1      39.634  29.030  27.610  1.00  0.00     0.173 A 
ATOM     77  C   UNL A   1      40.199  28.048  29.726  1.00  0.00     0.173 A 
ATOM     78  F   UNL A   1      39.976  29.460  26.386  1.00  0.00    -0.203 F 
ATOM     79  C   UNL A   1      38.329  29.235  28.054  1.00  0.00     0.198 A 
ATOM     80  C   UNL A   1      38.886  28.225  30.158  1.00  0.00     0.198 A 
ATOM     81  F   UNL A   1      41.085  27.495  30.566  1.00  0.00    -0.203 F 
ATOM     82  F   UNL A   1      37.445  29.857  27.263  1.00  0.00    -0.200 F 
ATOM     83  C   UNL A   1      37.956  28.830  29.326  1.00  0.00     0.200 A 
ATOM     84  F   UNL A   1      38.527  27.827  31.386  1.00  0.00    -0.200 F 
ATOM     85  F   UNL A   1      36.704  29.039  29.758  1.00  0.00    -0.200 F 
ENDBRANCH  51  75
BRANCH  63  86
ATOM     86  C   UNL A   1      46.032  32.800  28.811  1.00  0.00     0.064 A 
ATOM     87  C   UNL A   1      46.417  33.077  30.131  1.00  0.00     0.173 A 
ATOM     88  C   UNL A   1      45.832  33.885  27.944  1.00  0.00     0.173 A 
ATOM     89  F   UNL A   1      46.610  32.075  31.003  1.00  0.00    -0.203 F 
ATOM     90  C   UNL A   1      46.573  34.390  30.570  1.00  0.00     0.198 A 
ATOM     91  C   UNL A   1      46.019  35.195  28.378  1.00  0.00     0.198 A 
ATOM     92  F   UNL A   1      45.473  33.675  26.668  1.00  0.00    -0.203 F 
ATOM     93  F   UNL A   1      46.898  34.632  31.847  1.00  0.00    -0.200 F 
ATOM     94  C   UNL A   1      46.382  35.446  29.692  1.00  0.00     0.200 A 
ATOM     95  F   UNL A   1      45.851  36.213  27.524  1.00  0.00    -0.200 F 
ATOM     96  F   UNL A   1      46.543  36.707  30.114  1.00  0.00    -0.200 F 
ENDBRANCH  63  86
ENDBRANCH  37  38
ENDBRANCH  30  32
ENDBRANCH  29  30
ENDBRANCH  28  29
ENDBRANCH  27  28
ENDBRANCH  26  27
ENDBRANCH  25  26
ENDBRANCH  24  25
ENDBRANCH   1  24
TORSDOF 25
ENDMDL
