MODEL 1
REMARK VINA RESULT:     -11.3      0.000      0.000
REMARK SMILES NC(=O)[C@H]1CC(C(=O)OCCOCCOCCOC(=O)c2ccc(-c3c4nc(c(-c5c(F)c(F)c(F)c(F)c5F)c5ccc([nH]5)c(-c5c(F)c(F)c(F)c(F)c5F)c5nc(c(-c6c(F)c(F)c(F)c(F)c6F)c6ccc3[nH]6)C=C5)C=C4)cc2)=NN1c1ccc(F)cc1
REMARK SMILES IDX 14 1 13 2 12 3 11 4 10 5 9 6 7 7 8 8 6 9 4 10 5 11 85 12
REMARK SMILES IDX 84 13 2 14 1 15 3 18 86 19 87 20 92 21 88 22 91 23 89 24
REMARK SMILES IDX 90 25 15 26 16 27 17 28 18 29 19 30 20 31 21 32 22 33 83 34
REMARK SMILES IDX 23 35 82 36 24 37 25 38 26 39 76 40 27 41 81 42 75 43 77 44
REMARK SMILES IDX 28 45 80 46 74 47 73 48 29 50 61 51 41 52 60 53 42 54 45 55
REMARK SMILES IDX 59 56 78 57 43 58 44 59 58 61 79 62 46 63 30 64 31 65 39 66
REMARK SMILES IDX 32 67 33 68 37 69 40 70 34 71 35 72 38 73 36 74 62 75 63 76
REMARK SMILES IDX 71 77 64 78 65 79 69 80 72 81 66 82 67 83 70 84 68 85 47 86
REMARK SMILES IDX 48 87 56 88 49 89 50 90 54 91 57 92 51 93 52 94 55 95 53 96
REMARK H PARENT 1 16 1 17 77 49 45 60
REMARK Flexibility Score: inf
ROOT
ATOM      1  C   UNL A   1      40.677  20.116  26.147  1.00  0.00     0.188 C 
ENDROOT
BRANCH   1   2
ATOM      2  C   UNL A   1      40.171  21.533  26.496  1.00  0.00     0.188 C 
BRANCH   2   3
ATOM      3  O   UNL A   1      38.842  21.920  26.154  1.00  0.00    -0.376 OA
BRANCH   3   4
ATOM      4  C   UNL A   1      38.460  23.287  26.259  1.00  0.00     0.202 C 
BRANCH   4   5
ATOM      5  C   UNL A   1      36.968  23.612  26.135  1.00  0.00     0.261 C 
BRANCH   5   6
ATOM      6  O   UNL A   1      36.463  23.319  24.824  1.00  0.00    -0.459 OA
BRANCH   6   7
ATOM      7  C   UNL A   1      35.438  22.445  24.784  1.00  0.00     0.354 C 
ATOM      8  O   UNL A   1      35.461  21.266  24.504  1.00  0.00    -0.245 OA
BRANCH   7   9
ATOM      9  C   UNL A   1      34.176  23.136  25.229  1.00  0.00     0.148 C 
ATOM     10  C   UNL A   1      32.441  23.722  26.592  1.00  0.00     0.203 C 
ATOM     11  C   UNL A   1      33.271  22.495  26.224  1.00  0.00     0.103 C 
ATOM     12  N   UNL A   1      32.685  24.634  25.467  1.00  0.00    -0.252 N 
ATOM     13  N   UNL A   1      33.815  24.297  24.772  1.00  0.00    -0.169 NA
BRANCH  10  14
ATOM     14  C   UNL A   1      30.960  23.361  26.715  1.00  0.00     0.242 C 
ATOM     15  N   UNL A   1      30.630  22.093  26.309  1.00  0.00    -0.368 N 
ATOM     16  H   UNL A   1      29.696  21.788  26.359  1.00  0.00     0.159 HD
ATOM     17  H   UNL A   1      31.329  21.488  25.969  1.00  0.00     0.159 HD
ATOM     18  O   UNL A   1      30.078  24.126  27.093  1.00  0.00    -0.273 OA
ENDBRANCH  10  14
BRANCH  12  19
ATOM     19  C   UNL A   1      32.325  25.981  25.492  1.00  0.00     0.061 A 
ATOM     20  C   UNL A   1      32.274  26.706  24.290  1.00  0.00     0.031 A 
ATOM     21  C   UNL A   1      32.045  26.661  26.686  1.00  0.00     0.031 A 
ATOM     22  C   UNL A   1      31.928  28.061  24.275  1.00  0.00     0.041 A 
ATOM     23  C   UNL A   1      31.719  28.020  26.680  1.00  0.00     0.041 A 
ATOM     24  C   UNL A   1      31.657  28.706  25.475  1.00  0.00     0.123 A 
ATOM     25  F   UNL A   1      31.342  30.007  25.472  1.00  0.00    -0.207 F 
ENDBRANCH  12  19
ENDBRANCH   7   9
ENDBRANCH   6   7
ENDBRANCH   5   6
ENDBRANCH   4   5
ENDBRANCH   3   4
ENDBRANCH   2   3
ENDBRANCH   1   2
BRANCH   1  26
ATOM     26  O   UNL A   1      41.976  20.080  25.577  1.00  0.00    -0.376 OA
BRANCH  26  27
ATOM     27  C   UNL A   1      42.964  20.849  26.252  1.00  0.00     0.202 C 
BRANCH  27  28
ATOM     28  C   UNL A   1      43.782  21.779  25.345  1.00  0.00     0.261 C 
BRANCH  28  29
ATOM     29  O   UNL A   1      43.117  22.998  24.969  1.00  0.00    -0.460 OA
BRANCH  29  30
ATOM     30  C   UNL A   1      43.853  24.131  25.016  1.00  0.00     0.338 C 
ATOM     31  O   UNL A   1      44.818  24.412  24.331  1.00  0.00    -0.246 OA
BRANCH  30  32
ATOM     32  C   UNL A   1      43.185  25.066  25.945  1.00  0.00     0.060 A 
ATOM     33  C   UNL A   1      43.742  26.333  26.153  1.00  0.00     0.016 A 
ATOM     34  C   UNL A   1      42.018  24.685  26.614  1.00  0.00     0.016 A 
ATOM     35  C   UNL A   1      43.150  27.212  27.062  1.00  0.00     0.010 A 
ATOM     36  C   UNL A   1      41.436  25.561  27.535  1.00  0.00     0.010 A 
ATOM     37  C   UNL A   1      42.017  26.817  27.788  1.00  0.00    -0.014 A 
BRANCH  37  38
ATOM     38  C   UNL A   1      41.556  27.633  28.938  1.00  0.00     0.031 A 
ATOM     39  C   UNL A   1      42.303  27.525  30.239  1.00  0.00     0.074 A 
ATOM     40  C   UNL A   1      40.509  28.470  28.832  1.00  0.00     0.049 A 
ATOM     41  N   UNL A   1      42.083  28.126  31.380  1.00  0.00    -0.248 NA
ATOM     42  C   UNL A   1      43.457  26.612  30.252  1.00  0.00     0.031 C 
ATOM     43  C   UNL A   1      39.718  28.690  27.624  1.00  0.00     0.029 A 
ATOM     44  N   UNL A   1      39.929  29.290  29.770  1.00  0.00    -0.354 N 
ATOM     45  C   UNL A   1      43.071  27.668  32.243  1.00  0.00     0.074 A 
ATOM     46  C   UNL A   1      43.869  26.712  31.506  1.00  0.00     0.031 C 
ATOM     47  C   UNL A   1      38.747  29.580  27.896  1.00  0.00     0.029 A 
ATOM     48  C   UNL A   1      38.836  29.975  29.301  1.00  0.00     0.049 A 
ATOM     49  H   UNL A   1      40.266  29.379  30.690  1.00  0.00     0.167 HD
ATOM     50  C   UNL A   1      43.301  28.021  33.530  1.00  0.00     0.037 A 
ATOM     51  C   UNL A   1      37.998  30.815  29.940  1.00  0.00     0.037 A 
ATOM     52  C   UNL A   1      42.506  28.964  34.270  1.00  0.00     0.049 A 
ATOM     53  C   UNL A   1      38.239  31.146  31.392  1.00  0.00     0.074 A 
ATOM     54  C   UNL A   1      42.665  29.392  35.577  1.00  0.00     0.029 A 
ATOM     55  N   UNL A   1      41.395  29.624  33.766  1.00  0.00    -0.354 N 
ATOM     56  N   UNL A   1      39.192  30.733  32.192  1.00  0.00    -0.248 NA
ATOM     57  C   UNL A   1      37.288  32.071  32.028  1.00  0.00     0.031 C 
ATOM     58  C   UNL A   1      41.625  30.276  35.878  1.00  0.00     0.029 A 
ATOM     59  C   UNL A   1      40.847  30.440  34.743  1.00  0.00     0.049 A 
ATOM     60  H   UNL A   1      41.047  29.526  32.850  1.00  0.00     0.167 HD
ATOM     61  C   UNL A   1      38.979  31.372  33.407  1.00  0.00     0.074 A 
ATOM     62  C   UNL A   1      37.810  32.209  33.239  1.00  0.00     0.031 C 
ATOM     63  C   UNL A   1      39.690  31.279  34.558  1.00  0.00     0.037 A 
BRANCH  50  64
ATOM     64  C   UNL A   1      44.453  27.360  34.227  1.00  0.00     0.064 A 
ATOM     65  C   UNL A   1      45.722  27.956  34.276  1.00  0.00     0.173 A 
ATOM     66  C   UNL A   1      44.280  26.128  34.876  1.00  0.00     0.173 A 
ATOM     67  F   UNL A   1      45.944  29.125  33.658  1.00  0.00    -0.203 F 
ATOM     68  C   UNL A   1      46.783  27.329  34.925  1.00  0.00     0.198 A 
ATOM     69  C   UNL A   1      45.335  25.517  35.548  1.00  0.00     0.198 A 
ATOM     70  F   UNL A   1      43.085  25.518  34.861  1.00  0.00    -0.203 F 
ATOM     71  F   UNL A   1      47.998  27.894  34.920  1.00  0.00    -0.200 F 
ATOM     72  C   UNL A   1      46.586  26.115  35.567  1.00  0.00     0.200 A 
ATOM     73  F   UNL A   1      45.141  24.349  36.176  1.00  0.00    -0.200 F 
ATOM     74  F   UNL A   1      47.607  25.516  36.196  1.00  0.00    -0.200 F 
ENDBRANCH  50  64
BRANCH  51  75
ATOM     75  C   UNL A   1      36.844  31.411  29.216  1.00  0.00     0.064 A 
ATOM     76  C   UNL A   1      36.821  32.773  28.885  1.00  0.00     0.173 A 
ATOM     77  C   UNL A   1      35.725  30.637  28.873  1.00  0.00     0.173 A 
ATOM     78  F   UNL A   1      37.852  33.561  29.222  1.00  0.00    -0.203 F 
ATOM     79  C   UNL A   1      35.715  33.343  28.257  1.00  0.00     0.198 A 
ATOM     80  C   UNL A   1      34.631  31.202  28.221  1.00  0.00     0.198 A 
ATOM     81  F   UNL A   1      35.693  29.332  29.177  1.00  0.00    -0.203 F 
ATOM     82  F   UNL A   1      35.696  34.658  28.002  1.00  0.00    -0.200 F 
ATOM     83  C   UNL A   1      34.624  32.557  27.921  1.00  0.00     0.200 A 
ATOM     84  F   UNL A   1      33.580  30.439  27.896  1.00  0.00    -0.200 F 
ATOM     85  F   UNL A   1      33.557  33.106  27.323  1.00  0.00    -0.200 F 
ENDBRANCH  51  75
BRANCH  63  86
ATOM     86  C   UNL A   1      39.256  32.137  35.711  1.00  0.00     0.064 A 
ATOM     87  C   UNL A   1      38.393  31.657  36.707  1.00  0.00     0.173 A 
ATOM     88  C   UNL A   1      39.738  33.449  35.839  1.00  0.00     0.173 A 
ATOM     89  F   UNL A   1      37.894  30.414  36.627  1.00  0.00    -0.203 F 
ATOM     90  C   UNL A   1      38.004  32.468  37.770  1.00  0.00     0.198 A 
ATOM     91  C   UNL A   1      39.371  34.247  36.918  1.00  0.00     0.198 A 
ATOM     92  F   UNL A   1      40.574  33.955  34.919  1.00  0.00    -0.203 F 
ATOM     93  F   UNL A   1      37.138  32.006  38.682  1.00  0.00    -0.200 F 
ATOM     94  C   UNL A   1      38.497  33.760  37.878  1.00  0.00     0.200 A 
ATOM     95  F   UNL A   1      39.861  35.491  37.028  1.00  0.00    -0.200 F 
ATOM     96  F   UNL A   1      38.124  34.538  38.903  1.00  0.00    -0.200 F 
ENDBRANCH  63  86
ENDBRANCH  37  38
ENDBRANCH  30  32
ENDBRANCH  29  30
ENDBRANCH  28  29
ENDBRANCH  27  28
ENDBRANCH  26  27
ENDBRANCH   1  26
TORSDOF 19
ENDMDL
MODEL 2
REMARK VINA RESULT:     -11.0      2.265      3.446
REMARK SMILES NC(=O)[C@H]1CC(C(=O)OCCOCCOCCOC(=O)c2ccc(-c3c4nc(c(-c5c(F)c(F)c(F)c(F)c5F)c5ccc([nH]5)c(-c5c(F)c(F)c(F)c(F)c5F)c5nc(c(-c6c(F)c(F)c(F)c(F)c6F)c6ccc3[nH]6)C=C5)C=C4)cc2)=NN1c1ccc(F)cc1
REMARK SMILES IDX 14 1 13 2 12 3 11 4 10 5 9 6 7 7 8 8 6 9 4 10 5 11 85 12
REMARK SMILES IDX 84 13 2 14 1 15 3 18 86 19 87 20 92 21 88 22 91 23 89 24
REMARK SMILES IDX 90 25 15 26 16 27 17 28 18 29 19 30 20 31 21 32 22 33 83 34
REMARK SMILES IDX 23 35 82 36 24 37 25 38 26 39 76 40 27 41 81 42 75 43 77 44
REMARK SMILES IDX 28 45 80 46 74 47 73 48 29 50 61 51 41 52 60 53 42 54 45 55
REMARK SMILES IDX 59 56 78 57 43 58 44 59 58 61 79 62 46 63 30 64 31 65 39 66
REMARK SMILES IDX 32 67 33 68 37 69 40 70 34 71 35 72 38 73 36 74 62 75 63 76
REMARK SMILES IDX 71 77 64 78 65 79 69 80 72 81 66 82 67 83 70 84 68 85 47 86
REMARK SMILES IDX 48 87 56 88 49 89 50 90 54 91 57 92 51 93 52 94 55 95 53 96
REMARK H PARENT 1 16 1 17 77 49 45 60
REMARK Flexibility Score: inf
ROOT
ATOM      1  C   UNL A   1      42.616  21.139  27.075  1.00  0.00     0.188 C 
ENDROOT
BRANCH   1   2
ATOM      2  C   UNL A   1      41.261  20.620  27.605  1.00  0.00     0.188 C 
BRANCH   2   3
ATOM      3  O   UNL A   1      40.105  21.452  27.543  1.00  0.00    -0.376 OA
BRANCH   3   4
ATOM      4  C   UNL A   1      39.819  22.167  26.346  1.00  0.00     0.202 C 
BRANCH   4   5
ATOM      5  C   UNL A   1      38.619  21.697  25.516  1.00  0.00     0.261 C 
BRANCH   5   6
ATOM      6  O   UNL A   1      37.538  22.639  25.555  1.00  0.00    -0.459 OA
BRANCH   6   7
ATOM      7  C   UNL A   1      36.747  22.655  24.465  1.00  0.00     0.354 C 
ATOM      8  O   UNL A   1      36.979  23.122  23.371  1.00  0.00    -0.245 OA
BRANCH   7   9
ATOM      9  C   UNL A   1      35.473  21.908  24.761  1.00  0.00     0.148 C 
ATOM     10  C   UNL A   1      33.249  21.399  24.722  1.00  0.00     0.203 C 
ATOM     11  C   UNL A   1      34.165  22.618  24.785  1.00  0.00     0.103 C 
ATOM     12  N   UNL A   1      34.131  20.303  25.142  1.00  0.00    -0.252 N 
ATOM     13  N   UNL A   1      35.453  20.634  25.017  1.00  0.00    -0.169 NA
BRANCH  10  14
ATOM     14  C   UNL A   1      32.060  21.562  25.669  1.00  0.00     0.242 C 
ATOM     15  N   UNL A   1      32.383  21.837  26.974  1.00  0.00    -0.368 N 
ATOM     16  H   UNL A   1      31.670  21.955  27.643  1.00  0.00     0.159 HD
ATOM     17  H   UNL A   1      33.328  21.916  27.240  1.00  0.00     0.159 HD
ATOM     18  O   UNL A   1      30.882  21.416  25.354  1.00  0.00    -0.273 OA
ENDBRANCH  10  14
BRANCH  12  19
ATOM     19  C   UNL A   1      33.790  18.958  24.997  1.00  0.00     0.061 A 
ATOM     20  C   UNL A   1      32.720  18.431  25.738  1.00  0.00     0.031 A 
ATOM     21  C   UNL A   1      34.505  18.089  24.159  1.00  0.00     0.031 A 
ATOM     22  C   UNL A   1      32.356  17.086  25.628  1.00  0.00     0.041 A 
ATOM     23  C   UNL A   1      34.158  16.739  24.061  1.00  0.00     0.041 A 
ATOM     24  C   UNL A   1      33.083  16.252  24.791  1.00  0.00     0.123 A 
ATOM     25  F   UNL A   1      32.753  14.958  24.693  1.00  0.00    -0.207 F 
ENDBRANCH  12  19
ENDBRANCH   7   9
ENDBRANCH   6   7
ENDBRANCH   5   6
ENDBRANCH   4   5
ENDBRANCH   3   4
ENDBRANCH   2   3
ENDBRANCH   1   2
BRANCH   1  26
ATOM     26  O   UNL A   1      42.782  21.023  25.671  1.00  0.00    -0.376 OA
BRANCH  26  27
ATOM     27  C   UNL A   1      44.128  20.982  25.213  1.00  0.00     0.202 C 
BRANCH  27  28
ATOM     28  C   UNL A   1      44.577  22.225  24.431  1.00  0.00     0.261 C 
BRANCH  28  29
ATOM     29  O   UNL A   1      43.848  23.427  24.733  1.00  0.00    -0.460 OA
BRANCH  29  30
ATOM     30  C   UNL A   1      44.580  24.532  25.001  1.00  0.00     0.338 C 
ATOM     31  O   UNL A   1      45.625  24.868  24.478  1.00  0.00    -0.246 OA
BRANCH  30  32
ATOM     32  C   UNL A   1      43.807  25.369  25.942  1.00  0.00     0.060 A 
ATOM     33  C   UNL A   1      44.128  26.726  26.066  1.00  0.00     0.016 A 
ATOM     34  C   UNL A   1      42.776  24.811  26.703  1.00  0.00     0.016 A 
ATOM     35  C   UNL A   1      43.438  27.522  26.984  1.00  0.00     0.010 A 
ATOM     36  C   UNL A   1      42.098  25.606  27.631  1.00  0.00     0.010 A 
ATOM     37  C   UNL A   1      42.447  26.958  27.800  1.00  0.00    -0.014 A 
BRANCH  37  38
ATOM     38  C   UNL A   1      41.913  27.728  28.950  1.00  0.00     0.031 A 
ATOM     39  C   UNL A   1      42.634  27.642  30.267  1.00  0.00     0.074 A 
ATOM     40  C   UNL A   1      40.822  28.505  28.831  1.00  0.00     0.049 A 
ATOM     41  N   UNL A   1      42.354  28.211  31.412  1.00  0.00    -0.248 NA
ATOM     42  C   UNL A   1      43.839  26.797  30.295  1.00  0.00     0.031 C 
ATOM     43  C   UNL A   1      40.048  28.698  27.608  1.00  0.00     0.029 A 
ATOM     44  N   UNL A   1      40.174  29.275  29.767  1.00  0.00    -0.354 N 
ATOM     45  C   UNL A   1      43.346  27.796  32.291  1.00  0.00     0.074 A 
ATOM     46  C   UNL A   1      44.215  26.900  31.560  1.00  0.00     0.031 C 
ATOM     47  C   UNL A   1      39.021  29.526  27.870  1.00  0.00     0.029 A 
ATOM     48  C   UNL A   1      39.054  29.903  29.283  1.00  0.00     0.049 A 
ATOM     49  H   UNL A   1      40.484  29.368  30.696  1.00  0.00     0.167 HD
ATOM     50  C   UNL A   1      43.525  28.141  33.589  1.00  0.00     0.037 A 
ATOM     51  C   UNL A   1      38.154  30.683  29.913  1.00  0.00     0.037 A 
ATOM     52  C   UNL A   1      42.661  29.025  34.323  1.00  0.00     0.049 A 
ATOM     53  C   UNL A   1      38.342  31.004  31.375  1.00  0.00     0.074 A 
ATOM     54  C   UNL A   1      42.764  29.440  35.639  1.00  0.00     0.029 A 
ATOM     55  N   UNL A   1      41.525  29.628  33.802  1.00  0.00    -0.354 N 
ATOM     56  N   UNL A   1      39.299  30.633  32.191  1.00  0.00    -0.248 NA
ATOM     57  C   UNL A   1      37.325  31.862  32.001  1.00  0.00     0.031 C 
ATOM     58  C   UNL A   1      41.667  30.258  35.928  1.00  0.00     0.029 A 
ATOM     59  C   UNL A   1      40.908  30.395  34.777  1.00  0.00     0.049 A 
ATOM     60  H   UNL A   1      41.204  29.525  32.877  1.00  0.00     0.167 HD
ATOM     61  C   UNL A   1      39.021  31.240  33.410  1.00  0.00     0.074 A 
ATOM     62  C   UNL A   1      37.810  32.011  33.226  1.00  0.00     0.031 C 
ATOM     63  C   UNL A   1      39.709  31.169  34.577  1.00  0.00     0.037 A 
BRANCH  50  64
ATOM     64  C   UNL A   1      44.697  27.536  34.304  1.00  0.00     0.064 A 
ATOM     65  C   UNL A   1      44.598  26.303  34.966  1.00  0.00     0.173 A 
ATOM     66  C   UNL A   1      45.941  28.186  34.306  1.00  0.00     0.173 A 
ATOM     67  F   UNL A   1      43.427  25.651  35.007  1.00  0.00    -0.203 F 
ATOM     68  C   UNL A   1      45.695  25.756  35.627  1.00  0.00     0.198 A 
ATOM     69  C   UNL A   1      47.042  27.622  34.943  1.00  0.00     0.198 A 
ATOM     70  F   UNL A   1      46.089  29.365  33.684  1.00  0.00    -0.203 F 
ATOM     71  F   UNL A   1      45.566  24.600  36.293  1.00  0.00    -0.200 F 
ATOM     72  C   UNL A   1      46.917  26.411  35.608  1.00  0.00     0.200 A 
ATOM     73  F   UNL A   1      48.226  28.252  34.916  1.00  0.00    -0.200 F 
ATOM     74  F   UNL A   1      47.973  25.880  36.240  1.00  0.00    -0.200 F 
ENDBRANCH  50  64
BRANCH  51  75
ATOM     75  C   UNL A   1      36.985  31.223  29.170  1.00  0.00     0.064 A 
ATOM     76  C   UNL A   1      36.929  32.570  28.788  1.00  0.00     0.173 A 
ATOM     77  C   UNL A   1      35.884  30.411  28.861  1.00  0.00     0.173 A 
ATOM     78  F   UNL A   1      37.942  33.396  29.091  1.00  0.00    -0.203 F 
ATOM     79  C   UNL A   1      35.808  33.090  28.141  1.00  0.00     0.198 A 
ATOM     80  C   UNL A   1      34.776  30.924  28.191  1.00  0.00     0.198 A 
ATOM     81  F   UNL A   1      35.884  29.118  29.215  1.00  0.00    -0.203 F 
ATOM     82  F   UNL A   1      35.757  34.393  27.836  1.00  0.00    -0.200 F 
ATOM     83  C   UNL A   1      34.735  32.266  27.839  1.00  0.00     0.200 A 
ATOM     84  F   UNL A   1      33.742  30.124  27.898  1.00  0.00    -0.200 F 
ATOM     85  F   UNL A   1      33.655  32.766  27.224  1.00  0.00    -0.200 F 
ENDBRANCH  51  75
BRANCH  63  86
ATOM     86  C   UNL A   1      39.199  31.982  35.732  1.00  0.00     0.064 A 
ATOM     87  C   UNL A   1      38.316  31.447  36.680  1.00  0.00     0.173 A 
ATOM     88  C   UNL A   1      39.629  33.307  35.910  1.00  0.00     0.173 A 
ATOM     89  F   UNL A   1      37.866  30.189  36.552  1.00  0.00    -0.203 F 
ATOM     90  C   UNL A   1      37.857  32.217  37.746  1.00  0.00     0.198 A 
ATOM     91  C   UNL A   1      39.190  34.064  36.992  1.00  0.00     0.198 A 
ATOM     92  F   UNL A   1      40.481  33.864  35.037  1.00  0.00    -0.203 F 
ATOM     93  F   UNL A   1      36.973  31.701  38.612  1.00  0.00    -0.200 F 
ATOM     94  C   UNL A   1      38.298  33.523  37.904  1.00  0.00     0.200 A 
ATOM     95  F   UNL A   1      39.630  35.321  37.151  1.00  0.00    -0.200 F 
ATOM     96  F   UNL A   1      37.857  34.261  38.932  1.00  0.00    -0.200 F 
ENDBRANCH  63  86
ENDBRANCH  37  38
ENDBRANCH  30  32
ENDBRANCH  29  30
ENDBRANCH  28  29
ENDBRANCH  27  28
ENDBRANCH  26  27
ENDBRANCH   1  26
TORSDOF 19
ENDMDL
MODEL 3
REMARK VINA RESULT:     -10.8      4.448      6.763
REMARK SMILES NC(=O)[C@H]1CC(C(=O)OCCOCCOCCOC(=O)c2ccc(-c3c4nc(c(-c5c(F)c(F)c(F)c(F)c5F)c5ccc([nH]5)c(-c5c(F)c(F)c(F)c(F)c5F)c5nc(c(-c6c(F)c(F)c(F)c(F)c6F)c6ccc3[nH]6)C=C5)C=C4)cc2)=NN1c1ccc(F)cc1
REMARK SMILES IDX 14 1 13 2 12 3 11 4 10 5 9 6 7 7 8 8 6 9 4 10 5 11 85 12
REMARK SMILES IDX 84 13 2 14 1 15 3 18 86 19 87 20 92 21 88 22 91 23 89 24
REMARK SMILES IDX 90 25 15 26 16 27 17 28 18 29 19 30 20 31 21 32 22 33 83 34
REMARK SMILES IDX 23 35 82 36 24 37 25 38 26 39 76 40 27 41 81 42 75 43 77 44
REMARK SMILES IDX 28 45 80 46 74 47 73 48 29 50 61 51 41 52 60 53 42 54 45 55
REMARK SMILES IDX 59 56 78 57 43 58 44 59 58 61 79 62 46 63 30 64 31 65 39 66
REMARK SMILES IDX 32 67 33 68 37 69 40 70 34 71 35 72 38 73 36 74 62 75 63 76
REMARK SMILES IDX 71 77 64 78 65 79 69 80 72 81 66 82 67 83 70 84 68 85 47 86
REMARK SMILES IDX 48 87 56 88 49 89 50 90 54 91 57 92 51 93 52 94 55 95 53 96
REMARK H PARENT 1 16 1 17 77 49 45 60
REMARK Flexibility Score: inf
ROOT
ATOM      1  C   UNL A   1      36.115  21.445  24.624  1.00  0.00     0.188 C 
ENDROOT
BRANCH   1   2
ATOM      2  C   UNL A   1      34.845  21.247  25.480  1.00  0.00     0.188 C 
BRANCH   2   3
ATOM      3  O   UNL A   1      34.876  21.527  26.877  1.00  0.00    -0.376 OA
BRANCH   3   4
ATOM      4  C   UNL A   1      34.171  22.656  27.383  1.00  0.00     0.202 C 
BRANCH   4   5
ATOM      5  C   UNL A   1      32.714  22.444  27.805  1.00  0.00     0.261 C 
BRANCH   5   6
ATOM      6  O   UNL A   1      31.817  22.502  26.686  1.00  0.00    -0.459 OA
BRANCH   6   7
ATOM      7  C   UNL A   1      30.670  23.175  26.900  1.00  0.00     0.354 C 
ATOM      8  O   UNL A   1      29.835  22.991  27.759  1.00  0.00    -0.245 OA
BRANCH   7   9
ATOM      9  C   UNL A   1      30.571  24.314  25.920  1.00  0.00     0.148 C 
ATOM     10  C   UNL A   1      29.908  26.317  25.050  1.00  0.00     0.203 C 
ATOM     11  C   UNL A   1      29.339  25.149  25.850  1.00  0.00     0.103 C 
ATOM     12  N   UNL A   1      31.115  25.743  24.442  1.00  0.00    -0.252 N 
ATOM     13  N   UNL A   1      31.529  24.615  25.096  1.00  0.00    -0.169 NA
BRANCH  10  14
ATOM     14  C   UNL A   1      28.912  26.788  23.989  1.00  0.00     0.242 C 
ATOM     15  N   UNL A   1      27.690  26.164  24.016  1.00  0.00    -0.368 N 
ATOM     16  H   UNL A   1      26.996  26.414  23.364  1.00  0.00     0.159 HD
ATOM     17  H   UNL A   1      27.508  25.467  24.687  1.00  0.00     0.159 HD
ATOM     18  O   UNL A   1      29.149  27.621  23.120  1.00  0.00    -0.273 OA
ENDBRANCH  10  14
BRANCH  12  19
ATOM     19  C   UNL A   1      32.094  26.519  23.820  1.00  0.00     0.061 A 
ATOM     20  C   UNL A   1      32.551  26.161  22.541  1.00  0.00     0.031 A 
ATOM     21  C   UNL A   1      32.674  27.635  24.442  1.00  0.00     0.031 A 
ATOM     22  C   UNL A   1      33.539  26.907  21.890  1.00  0.00     0.041 A 
ATOM     23  C   UNL A   1      33.675  28.372  23.804  1.00  0.00     0.041 A 
ATOM     24  C   UNL A   1      34.093  28.006  22.533  1.00  0.00     0.123 A 
ATOM     25  F   UNL A   1      35.052  28.716  21.924  1.00  0.00    -0.207 F 
ENDBRANCH  12  19
ENDBRANCH   7   9
ENDBRANCH   6   7
ENDBRANCH   5   6
ENDBRANCH   4   5
ENDBRANCH   3   4
ENDBRANCH   2   3
ENDBRANCH   1   2
BRANCH   1  26
ATOM     26  O   UNL A   1      37.325  21.093  25.276  1.00  0.00    -0.376 OA
BRANCH  26  27
ATOM     27  C   UNL A   1      37.897  19.851  24.883  1.00  0.00     0.202 C 
BRANCH  27  28
ATOM     28  C   UNL A   1      39.133  19.431  25.689  1.00  0.00     0.261 C 
BRANCH  28  29
ATOM     29  O   UNL A   1      40.131  20.454  25.846  1.00  0.00    -0.460 OA
BRANCH  29  30
ATOM     30  C   UNL A   1      40.815  20.464  27.013  1.00  0.00     0.338 C 
ATOM     31  O   UNL A   1      41.299  19.509  27.592  1.00  0.00    -0.246 OA
BRANCH  30  32
ATOM     32  C   UNL A   1      41.023  21.874  27.403  1.00  0.00     0.060 A 
ATOM     33  C   UNL A   1      40.327  22.879  26.720  1.00  0.00     0.016 A 
ATOM     34  C   UNL A   1      41.909  22.199  28.433  1.00  0.00     0.016 A 
ATOM     35  C   UNL A   1      40.545  24.219  27.045  1.00  0.00     0.010 A 
ATOM     36  C   UNL A   1      42.137  23.542  28.746  1.00  0.00     0.010 A 
ATOM     37  C   UNL A   1      41.481  24.561  28.032  1.00  0.00    -0.014 A 
BRANCH  37  38
ATOM     38  C   UNL A   1      41.909  25.973  28.184  1.00  0.00     0.031 A 
ATOM     39  C   UNL A   1      43.247  26.380  27.628  1.00  0.00     0.074 A 
ATOM     40  C   UNL A   1      41.125  26.886  28.784  1.00  0.00     0.049 A 
ATOM     41  N   UNL A   1      43.840  27.547  27.649  1.00  0.00    -0.248 NA
ATOM     42  C   UNL A   1      44.020  25.324  26.956  1.00  0.00     0.031 C 
ATOM     43  C   UNL A   1      39.800  26.630  29.339  1.00  0.00     0.029 A 
ATOM     44  N   UNL A   1      41.344  28.220  29.029  1.00  0.00    -0.354 N 
ATOM     45  C   UNL A   1      45.050  27.365  26.992  1.00  0.00     0.074 A 
ATOM     46  C   UNL A   1      45.125  25.970  26.616  1.00  0.00     0.031 C 
ATOM     47  C   UNL A   1      39.324  27.770  29.872  1.00  0.00     0.029 A 
ATOM     48  C   UNL A   1      40.320  28.829  29.713  1.00  0.00     0.049 A 
ATOM     49  H   UNL A   1      42.156  28.695  28.742  1.00  0.00     0.167 HD
ATOM     50  C   UNL A   1      46.009  28.281  26.716  1.00  0.00     0.037 A 
ATOM     51  C   UNL A   1      40.210  30.092  30.167  1.00  0.00     0.037 A 
ATOM     52  C   UNL A   1      45.943  29.667  27.094  1.00  0.00     0.049 A 
ATOM     53  C   UNL A   1      41.319  31.079  29.899  1.00  0.00     0.074 A 
ATOM     54  C   UNL A   1      46.862  30.674  26.852  1.00  0.00     0.029 A 
ATOM     55  N   UNL A   1      44.898  30.242  27.801  1.00  0.00    -0.354 N 
ATOM     56  N   UNL A   1      42.445  30.908  29.252  1.00  0.00    -0.248 NA
ATOM     57  C   UNL A   1      41.133  32.442  30.421  1.00  0.00     0.031 C 
ATOM     58  C   UNL A   1      46.394  31.848  27.451  1.00  0.00     0.029 A 
ATOM     59  C   UNL A   1      45.159  31.585  28.022  1.00  0.00     0.049 A 
ATOM     60  H   UNL A   1      44.090  29.766  28.103  1.00  0.00     0.167 HD
ATOM     61  C   UNL A   1      43.082  32.143  29.255  1.00  0.00     0.074 A 
ATOM     62  C   UNL A   1      42.213  33.059  29.962  1.00  0.00     0.031 C 
ATOM     63  C   UNL A   1      44.278  32.489  28.717  1.00  0.00     0.037 A 
BRANCH  50  64
ATOM     64  C   UNL A   1      47.226  27.800  25.983  1.00  0.00     0.064 A 
ATOM     65  C   UNL A   1      48.381  27.390  26.666  1.00  0.00     0.173 A 
ATOM     66  C   UNL A   1      47.229  27.726  24.582  1.00  0.00     0.173 A 
ATOM     67  F   UNL A   1      48.434  27.457  28.004  1.00  0.00    -0.203 F 
ATOM     68  C   UNL A   1      49.504  26.948  25.971  1.00  0.00     0.198 A 
ATOM     69  C   UNL A   1      48.343  27.257  23.892  1.00  0.00     0.198 A 
ATOM     70  F   UNL A   1      46.149  28.104  23.882  1.00  0.00    -0.203 F 
ATOM     71  F   UNL A   1      50.613  26.604  26.642  1.00  0.00    -0.200 F 
ATOM     72  C   UNL A   1      49.481  26.874  24.586  1.00  0.00     0.200 A 
ATOM     73  F   UNL A   1      48.317  27.177  22.554  1.00  0.00    -0.200 F 
ATOM     74  F   UNL A   1      50.561  26.443  23.920  1.00  0.00    -0.200 F 
ENDBRANCH  50  64
BRANCH  51  75
ATOM     75  C   UNL A   1      39.001  30.509  30.926  1.00  0.00     0.064 A 
ATOM     76  C   UNL A   1      37.877  31.030  30.271  1.00  0.00     0.173 A 
ATOM     77  C   UNL A   1      38.961  30.428  32.326  1.00  0.00     0.173 A 
ATOM     78  F   UNL A   1      37.881  31.159  28.936  1.00  0.00    -0.203 F 
ATOM     79  C   UNL A   1      36.767  31.473  30.988  1.00  0.00     0.198 A 
ATOM     80  C   UNL A   1      37.840  30.846  33.040  1.00  0.00     0.198 A 
ATOM     81  F   UNL A   1      40.015  29.947  33.001  1.00  0.00    -0.203 F 
ATOM     82  F   UNL A   1      35.728  32.018  30.340  1.00  0.00    -0.200 F 
ATOM     83  C   UNL A   1      36.747  31.376  32.370  1.00  0.00     0.200 A 
ATOM     84  F   UNL A   1      37.823  30.748  34.376  1.00  0.00    -0.200 F 
ATOM     85  F   UNL A   1      35.682  31.808  33.059  1.00  0.00    -0.200 F 
ENDBRANCH  51  75
BRANCH  63  86
ATOM     86  C   UNL A   1      44.697  33.928  28.827  1.00  0.00     0.064 A 
ATOM     87  C   UNL A   1      44.331  34.880  27.865  1.00  0.00     0.173 A 
ATOM     88  C   UNL A   1      45.446  34.365  29.931  1.00  0.00     0.173 A 
ATOM     89  F   UNL A   1      43.625  34.514  26.785  1.00  0.00    -0.203 F 
ATOM     90  C   UNL A   1      44.728  36.210  27.987  1.00  0.00     0.198 A 
ATOM     91  C   UNL A   1      45.815  35.700  30.065  1.00  0.00     0.198 A 
ATOM     92  F   UNL A   1      45.813  33.496  30.885  1.00  0.00    -0.203 F 
ATOM     93  F   UNL A   1      44.412  37.092  27.029  1.00  0.00    -0.200 F 
ATOM     94  C   UNL A   1      45.464  36.620  29.089  1.00  0.00     0.200 A 
ATOM     95  F   UNL A   1      46.514  36.097  31.138  1.00  0.00    -0.200 F 
ATOM     96  F   UNL A   1      45.842  37.900  29.206  1.00  0.00    -0.200 F 
ENDBRANCH  63  86
ENDBRANCH  37  38
ENDBRANCH  30  32
ENDBRANCH  29  30
ENDBRANCH  28  29
ENDBRANCH  27  28
ENDBRANCH  26  27
ENDBRANCH   1  26
TORSDOF 19
ENDMDL
