MODEL 1
REMARK VINA RESULT:     -12.5      0.000      0.000
REMARK SMILES Cc1ccc(NC(=O)C[C@@H]2C[NH2+]CCO2)c(C(=O)OCCOCCOCCOC(=O)c2ccc(-c3c4nc(c(-c5c(F)c(F)c(F)c(F)c5F)c5ccc([nH]5)c(-c5c(F)c(F)c(F)c(F)c5F)c5nc(c(-c6c(F)c(F)c(F)c(F)c6F)c6ccc3[nH]6)C=C5)C=C4)cc2)c1
REMARK SMILES IDX 23 1 22 2 21 3 20 4 19 5 17 6 18 7 16 8 1 9 2 10 3 11 94 12
REMARK SMILES IDX 4 13 5 14 6 15 7 16 8 18 9 19 10 20 11 21 15 22 12 23 14 24
REMARK SMILES IDX 13 25 24 28 25 29 26 30 27 31 28 32 29 33 30 34 31 35 32 36
REMARK SMILES IDX 93 37 33 38 92 39 34 40 35 41 36 42 86 43 37 44 91 45 85 46
REMARK SMILES IDX 87 47 38 48 90 49 84 50 83 51 39 53 71 54 51 55 70 56 52 57
REMARK SMILES IDX 55 58 69 59 88 60 53 61 54 62 68 64 89 65 56 66 40 67 41 68
REMARK SMILES IDX 49 69 42 70 43 71 47 72 50 73 44 74 45 75 48 76 46 77 72 78
REMARK SMILES IDX 73 79 81 80 74 81 75 82 79 83 82 84 76 85 77 86 80 87 78 88
REMARK SMILES IDX 57 89 58 90 66 91 59 92 60 93 64 94 67 95 61 96 62 97 65 98
REMARK SMILES IDX 63 99
REMARK H PARENT 6 17 12 26 12 27 87 52 55 63
REMARK Flexibility Score: inf
ROOT
ATOM      1  C   UNL A   1      41.023  20.954  26.210  1.00  0.00     0.188 C 
ENDROOT
BRANCH   1   2
ATOM      2  O   UNL A   1      39.641  21.111  26.606  1.00  0.00    -0.376 OA
BRANCH   2   3
ATOM      3  C   UNL A   1      38.523  21.317  25.725  1.00  0.00     0.202 C 
BRANCH   3   4
ATOM      4  C   UNL A   1      37.740  22.792  25.278  1.00  0.00     0.261 C 
BRANCH   4   5
ATOM      5  O   UNL A   1      36.090  23.222  24.876  1.00  0.00    -0.460 OA
BRANCH   5   6
ATOM      6  C   UNL A   1      35.262  23.395  23.687  1.00  0.00     0.340 C 
ATOM      7  O   UNL A   1      35.537  23.087  22.525  1.00  0.00    -0.246 OA
BRANCH   6   8
ATOM      8  C   UNL A   1      34.023  24.167  23.564  1.00  0.00     0.083 A 
ATOM      9  C   UNL A   1      33.182  27.525  22.081  1.00  0.00     0.044 C 
ATOM     10  C   UNL A   1      33.039  26.142  22.627  1.00  0.00    -0.050 A 
ATOM     11  C   UNL A   1      31.786  25.516  22.600  1.00  0.00     0.005 A 
ATOM     12  C   UNL A   1      34.159  25.473  23.126  1.00  0.00     0.021 A 
ATOM     13  C   UNL A   1      31.632  24.203  23.029  1.00  0.00     0.027 A 
ATOM     14  C   UNL A   1      32.731  23.498  23.512  1.00  0.00     0.055 A 
BRANCH  14  15
ATOM     15  N   UNL A   1      32.566  22.103  23.793  1.00  0.00    -0.325 N 
ATOM     16  C   UNL A   1      32.395  21.393  24.952  1.00  0.00     0.227 C 
ATOM     17  H   UNL A   1      32.579  21.539  22.987  1.00  0.00     0.169 HD
ATOM     18  O   UNL A   1      31.871  20.275  24.890  1.00  0.00    -0.275 OA
BRANCH  16  19
ATOM     19  C   UNL A   1      32.760  21.905  26.334  1.00  0.00     0.138 C 
BRANCH  19  20
ATOM     20  C   UNL A   1      31.981  23.090  26.929  1.00  0.00     0.182 C 
ATOM     21  C   UNL A   1      30.481  22.904  26.568  1.00  0.00     0.293 C 
ATOM     22  O   UNL A   1      32.522  24.327  26.472  1.00  0.00    -0.366 OA
ATOM     23  N   UNL A   1      29.645  24.098  26.768  1.00  0.00    -0.342 N 
ATOM     24  C   UNL A   1      31.691  25.462  26.654  1.00  0.00     0.222 C 
ATOM     25  C   UNL A   1      30.299  25.220  26.073  1.00  0.00     0.289 C 
ATOM     26  H   UNL A   1      29.567  24.304  27.764  1.00  0.00     0.346 HD
ATOM     27  H   UNL A   1      28.708  23.945  26.398  1.00  0.00     0.346 HD
ENDBRANCH  19  20
ENDBRANCH  16  19
ENDBRANCH  14  15
ENDBRANCH   6   8
ENDBRANCH   5   6
ENDBRANCH   4   5
ENDBRANCH   3   4
ENDBRANCH   2   3
ENDBRANCH   1   2
BRANCH   1  28
ATOM     28  C   UNL A   1      41.761  19.615  26.240  1.00  0.00     0.188 C 
BRANCH  28  29
ATOM     29  O   UNL A   1      42.595  19.500  25.106  1.00  0.00    -0.376 OA
BRANCH  29  30
ATOM     30  C   UNL A   1      43.693  18.615  25.228  1.00  0.00     0.202 C 
BRANCH  30  31
ATOM     31  C   UNL A   1      44.978  19.166  24.581  1.00  0.00     0.261 C 
BRANCH  31  32
ATOM     32  O   UNL A   1      45.593  20.177  25.418  1.00  0.00    -0.460 OA
BRANCH  32  33
ATOM     33  C   UNL A   1      45.819  21.424  24.858  1.00  0.00     0.338 C 
ATOM     34  O   UNL A   1      46.820  21.747  24.285  1.00  0.00    -0.246 OA
BRANCH  33  35
ATOM     35  C   UNL A   1      44.725  22.372  25.301  1.00  0.00     0.060 A 
ATOM     36  C   UNL A   1      44.391  23.601  24.706  1.00  0.00     0.016 A 
ATOM     37  C   UNL A   1      44.335  22.221  26.581  1.00  0.00     0.016 A 
ATOM     38  C   UNL A   1      43.882  24.724  25.494  1.00  0.00     0.010 A 
ATOM     39  C   UNL A   1      44.226  23.407  27.291  1.00  0.00     0.010 A 
ATOM     40  C   UNL A   1      43.881  24.726  26.891  1.00  0.00    -0.014 A 
BRANCH  40  41
ATOM     41  C   UNL A   1      43.613  26.071  27.913  1.00  0.00     0.031 A 
ATOM     42  C   UNL A   1      42.255  27.168  28.143  1.00  0.00     0.074 A 
ATOM     43  C   UNL A   1      44.694  26.517  28.595  1.00  0.00     0.049 A 
ATOM     44  N   UNL A   1      42.371  28.418  28.565  1.00  0.00    -0.248 NA
ATOM     45  C   UNL A   1      40.766  27.032  27.812  1.00  0.00     0.031 C 
ATOM     46  C   UNL A   1      44.703  27.464  29.708  1.00  0.00     0.029 A 
ATOM     47  N   UNL A   1      46.057  26.270  28.351  1.00  0.00    -0.354 N 
ATOM     48  C   UNL A   1      41.087  28.962  28.705  1.00  0.00     0.074 A 
ATOM     49  C   UNL A   1      40.214  28.222  27.907  1.00  0.00     0.031 C 
ATOM     50  C   UNL A   1      45.939  27.961  29.842  1.00  0.00     0.029 A 
ATOM     51  C   UNL A   1      46.728  27.445  28.744  1.00  0.00     0.049 A 
ATOM     52  H   UNL A   1      46.457  25.448  27.985  1.00  0.00     0.167 HD
ATOM     53  C   UNL A   1      40.735  29.843  29.674  1.00  0.00     0.037 A 
ATOM     54  C   UNL A   1      47.454  28.192  27.866  1.00  0.00     0.037 A 
ATOM     55  C   UNL A   1      41.899  30.590  30.041  1.00  0.00     0.049 A 
ATOM     56  C   UNL A   1      47.024  29.642  27.776  1.00  0.00     0.074 A 
ATOM     57  C   UNL A   1      42.752  30.576  31.120  1.00  0.00     0.029 A 
ATOM     58  N   UNL A   1      42.536  31.274  29.017  1.00  0.00    -0.354 N 
ATOM     59  N   UNL A   1      45.975  30.140  28.373  1.00  0.00    -0.248 NA
ATOM     60  C   UNL A   1      47.729  30.646  26.985  1.00  0.00     0.031 C 
ATOM     61  C   UNL A   1      43.987  31.129  30.672  1.00  0.00     0.029 A 
ATOM     62  C   UNL A   1      43.840  31.541  29.357  1.00  0.00     0.049 A 
ATOM     63  H   UNL A   1      42.113  31.532  28.166  1.00  0.00     0.167 HD
ATOM     64  C   UNL A   1      45.801  31.448  27.996  1.00  0.00     0.074 A 
ATOM     65  C   UNL A   1      46.958  31.732  27.172  1.00  0.00     0.031 C 
ATOM     66  C   UNL A   1      44.699  32.170  28.363  1.00  0.00     0.037 A 
BRANCH  53  67
ATOM     67  C   UNL A   1      39.356  29.901  30.343  1.00  0.00     0.064 A 
ATOM     68  C   UNL A   1      38.409  30.847  29.908  1.00  0.00     0.173 A 
ATOM     69  C   UNL A   1      38.951  29.180  31.504  1.00  0.00     0.173 A 
ATOM     70  F   UNL A   1      38.657  31.621  28.843  1.00  0.00    -0.203 F 
ATOM     71  C   UNL A   1      37.186  31.058  30.571  1.00  0.00     0.198 A 
ATOM     72  C   UNL A   1      37.703  29.342  32.120  1.00  0.00     0.198 A 
ATOM     73  F   UNL A   1      39.758  28.336  32.159  1.00  0.00    -0.203 F 
ATOM     74  F   UNL A   1      36.362  32.027  30.151  1.00  0.00    -0.200 F 
ATOM     75  C   UNL A   1      36.828  30.297  31.666  1.00  0.00     0.200 A 
ATOM     76  F   UNL A   1      37.385  28.589  33.186  1.00  0.00    -0.200 F 
ATOM     77  F   UNL A   1      35.665  30.503  32.301  1.00  0.00    -0.200 F 
ENDBRANCH  53  67
BRANCH  54  78
ATOM     78  C   UNL A   1      48.097  27.372  26.802  1.00  0.00     0.064 A 
ATOM     79  C   UNL A   1      47.532  27.404  25.511  1.00  0.00     0.173 A 
ATOM     80  C   UNL A   1      49.420  26.931  26.908  1.00  0.00     0.173 A 
ATOM     81  F   UNL A   1      46.267  27.823  25.348  1.00  0.00    -0.203 F 
ATOM     82  C   UNL A   1      48.290  27.136  24.373  1.00  0.00     0.198 A 
ATOM     83  C   UNL A   1      50.173  26.634  25.761  1.00  0.00     0.198 A 
ATOM     84  F   UNL A   1      50.014  26.951  28.107  1.00  0.00    -0.203 F 
ATOM     85  F   UNL A   1      47.758  27.309  23.155  1.00  0.00    -0.200 F 
ATOM     86  C   UNL A   1      49.620  26.782  24.499  1.00  0.00     0.200 A 
ATOM     87  F   UNL A   1      51.482  26.360  25.847  1.00  0.00    -0.200 F 
ATOM     88  F   UNL A   1      50.390  26.655  23.407  1.00  0.00    -0.200 F 
ENDBRANCH  54  78
BRANCH  66  89
ATOM     89  C   UNL A   1      44.280  33.524  27.823  1.00  0.00     0.064 A 
ATOM     90  C   UNL A   1      43.862  33.764  26.505  1.00  0.00     0.173 A 
ATOM     91  C   UNL A   1      44.133  34.623  28.711  1.00  0.00     0.173 A 
ATOM     92  F   UNL A   1      43.828  32.786  25.592  1.00  0.00    -0.203 F 
ATOM     93  C   UNL A   1      43.395  35.017  26.092  1.00  0.00     0.198 A 
ATOM     94  C   UNL A   1      43.596  35.847  28.314  1.00  0.00     0.198 A 
ATOM     95  F   UNL A   1      44.475  34.529  30.005  1.00  0.00    -0.203 F 
ATOM     96  F   UNL A   1      43.055  35.210  24.810  1.00  0.00    -0.200 F 
ATOM     97  C   UNL A   1      43.247  36.051  26.998  1.00  0.00     0.200 A 
ATOM     98  F   UNL A   1      43.401  36.816  29.221  1.00  0.00    -0.200 F 
ATOM     99  F   UNL A   1      42.749  37.232  26.607  1.00  0.00    -0.200 F 
ENDBRANCH  66  89
ENDBRANCH  40  41
ENDBRANCH  33  35
ENDBRANCH  32  33
ENDBRANCH  31  32
ENDBRANCH  30  31
ENDBRANCH  29  30
ENDBRANCH  28  29
ENDBRANCH   1  28
TORSDOF 20
ENDMDL
MODEL 2
REMARK VINA RESULT:     -12.5      2.579      4.192
REMARK SMILES Cc1ccc(NC(=O)C[C@@H]2C[NH2+]CCO2)c(C(=O)OCCOCCOCCOC(=O)c2ccc(-c3c4nc(c(-c5c(F)c(F)c(F)c(F)c5F)c5ccc([nH]5)c(-c5c(F)c(F)c(F)c(F)c5F)c5nc(c(-c6c(F)c(F)c(F)c(F)c6F)c6ccc3[nH]6)C=C5)C=C4)cc2)c1
REMARK SMILES IDX 23 1 22 2 21 3 20 4 19 5 17 6 18 7 16 8 1 9 2 10 3 11 94 12
REMARK SMILES IDX 4 13 5 14 6 15 7 16 8 18 9 19 10 20 11 21 15 22 12 23 14 24
REMARK SMILES IDX 13 25 24 28 25 29 26 30 27 31 28 32 29 33 30 34 31 35 32 36
REMARK SMILES IDX 93 37 33 38 92 39 34 40 35 41 36 42 86 43 37 44 91 45 85 46
REMARK SMILES IDX 87 47 38 48 90 49 84 50 83 51 39 53 71 54 51 55 70 56 52 57
REMARK SMILES IDX 55 58 69 59 88 60 53 61 54 62 68 64 89 65 56 66 40 67 41 68
REMARK SMILES IDX 49 69 42 70 43 71 47 72 50 73 44 74 45 75 48 76 46 77 72 78
REMARK SMILES IDX 73 79 81 80 74 81 75 82 79 83 82 84 76 85 77 86 80 87 78 88
REMARK SMILES IDX 57 89 58 90 66 91 59 92 60 93 64 94 67 95 61 96 62 97 65 98
REMARK SMILES IDX 63 99
REMARK H PARENT 6 17 12 26 12 27 87 52 55 63
REMARK Flexibility Score: inf
ROOT
ATOM      1  C   UNL A   1      38.512  21.232  25.467  1.00  0.00     0.188 C 
ENDROOT
BRANCH   1   2
ATOM      2  O   UNL A   1      37.076  21.391  25.534  1.00  0.00    -0.376 OA
BRANCH   2   3
ATOM      3  C   UNL A   1      36.319  22.503  25.024  1.00  0.00     0.202 C 
BRANCH   3   4
ATOM      4  C   UNL A   1      36.136  23.045  23.393  1.00  0.00     0.261 C 
BRANCH   4   5
ATOM      5  O   UNL A   1      34.779  23.620  22.446  1.00  0.00    -0.460 OA
BRANCH   5   6
ATOM      6  C   UNL A   1      33.866  24.757  22.419  1.00  0.00     0.340 C 
ATOM      7  O   UNL A   1      34.076  25.882  21.960  1.00  0.00    -0.246 OA
BRANCH   6   8
ATOM      8  C   UNL A   1      32.587  24.894  23.119  1.00  0.00     0.083 A 
ATOM      9  C   UNL A   1      30.397  27.831  23.993  1.00  0.00     0.044 C 
ATOM     10  C   UNL A   1      30.855  26.433  23.735  1.00  0.00    -0.050 A 
ATOM     11  C   UNL A   1      29.925  25.384  23.774  1.00  0.00     0.005 A 
ATOM     12  C   UNL A   1      32.193  26.186  23.423  1.00  0.00     0.021 A 
ATOM     13  C   UNL A   1      30.300  24.082  23.465  1.00  0.00     0.027 A 
ATOM     14  C   UNL A   1      31.621  23.804  23.128  1.00  0.00     0.055 A 
BRANCH  14  15
ATOM     15  N   UNL A   1      31.935  22.486  22.662  1.00  0.00    -0.325 N 
ATOM     16  C   UNL A   1      32.241  21.313  23.299  1.00  0.00     0.227 C 
ATOM     17  H   UNL A   1      31.928  22.407  21.681  1.00  0.00     0.169 HD
ATOM     18  O   UNL A   1      32.063  20.247  22.699  1.00  0.00    -0.275 OA
BRANCH  16  19
ATOM     19  C   UNL A   1      32.744  21.220  24.729  1.00  0.00     0.138 C 
BRANCH  19  20
ATOM     20  C   UNL A   1      33.144  19.849  25.299  1.00  0.00     0.182 C 
ATOM     21  C   UNL A   1      34.450  19.399  24.586  1.00  0.00     0.293 C 
ATOM     22  O   UNL A   1      32.075  18.917  25.162  1.00  0.00    -0.366 OA
ATOM     23  N   UNL A   1      34.792  17.979  24.765  1.00  0.00    -0.342 N 
ATOM     24  C   UNL A   1      32.431  17.552  25.316  1.00  0.00     0.222 C 
ATOM     25  C   UNL A   1      33.604  17.186  24.407  1.00  0.00     0.289 C 
ATOM     26  H   UNL A   1      35.048  17.803  25.737  1.00  0.00     0.346 HD
ATOM     27  H   UNL A   1      35.583  17.724  24.175  1.00  0.00     0.346 HD
ENDBRANCH  19  20
ENDBRANCH  16  19
ENDBRANCH  14  15
ENDBRANCH   6   8
ENDBRANCH   5   6
ENDBRANCH   4   5
ENDBRANCH   3   4
ENDBRANCH   2   3
ENDBRANCH   1   2
BRANCH   1  28
ATOM     28  C   UNL A   1      39.223  19.897  25.696  1.00  0.00     0.188 C 
BRANCH  28  29
ATOM     29  O   UNL A   1      40.493  20.122  26.273  1.00  0.00    -0.376 OA
BRANCH  29  30
ATOM     30  C   UNL A   1      40.881  21.475  26.418  1.00  0.00     0.202 C 
BRANCH  30  31
ATOM     31  C   UNL A   1      42.380  21.635  26.734  1.00  0.00     0.261 C 
BRANCH  31  32
ATOM     32  O   UNL A   1      42.714  23.021  26.996  1.00  0.00    -0.460 OA
BRANCH  32  33
ATOM     33  C   UNL A   1      42.477  23.941  25.988  1.00  0.00     0.338 C 
ATOM     34  O   UNL A   1      43.105  24.020  24.970  1.00  0.00    -0.246 OA
BRANCH  33  35
ATOM     35  C   UNL A   1      41.486  24.974  26.481  1.00  0.00     0.060 A 
ATOM     36  C   UNL A   1      41.244  26.238  25.916  1.00  0.00     0.016 A 
ATOM     37  C   UNL A   1      41.125  24.834  27.771  1.00  0.00     0.016 A 
ATOM     38  C   UNL A   1      40.861  27.386  26.738  1.00  0.00     0.010 A 
ATOM     39  C   UNL A   1      41.144  26.012  28.502  1.00  0.00     0.010 A 
ATOM     40  C   UNL A   1      40.904  27.363  28.134  1.00  0.00    -0.014 A 
BRANCH  40  41
ATOM     41  C   UNL A   1      40.789  28.708  29.185  1.00  0.00     0.031 A 
ATOM     42  C   UNL A   1      39.651  30.044  29.324  1.00  0.00     0.074 A 
ATOM     43  C   UNL A   1      41.853  28.915  29.996  1.00  0.00     0.049 A 
ATOM     44  N   UNL A   1      39.957  31.236  29.813  1.00  0.00    -0.248 NA
ATOM     45  C   UNL A   1      38.209  30.212  28.834  1.00  0.00     0.031 C 
ATOM     46  C   UNL A   1      41.921  29.813  31.147  1.00  0.00     0.029 A 
ATOM     47  N   UNL A   1      43.161  28.411  29.883  1.00  0.00    -0.354 N 
ATOM     48  C   UNL A   1      38.795  32.018  29.845  1.00  0.00     0.074 A 
ATOM     49  C   UNL A   1      37.890  31.485  28.927  1.00  0.00     0.031 C 
ATOM     50  C   UNL A   1      43.206  30.053  31.432  1.00  0.00     0.029 A 
ATOM     51  C   UNL A   1      43.998  29.421  30.399  1.00  0.00     0.049 A 
ATOM     52  H   UNL A   1      43.433  27.537  29.522  1.00  0.00     0.167 HD
ATOM     53  C   UNL A   1      38.514  32.926  30.812  1.00  0.00     0.037 A 
ATOM     54  C   UNL A   1      44.948  30.033  29.637  1.00  0.00     0.037 A 
ATOM     55  C   UNL A   1      39.752  33.420  31.333  1.00  0.00     0.049 A 
ATOM     56  C   UNL A   1      44.817  31.541  29.571  1.00  0.00     0.074 A 
ATOM     57  C   UNL A   1      40.461  33.210  32.493  1.00  0.00     0.029 A 
ATOM     58  N   UNL A   1      40.618  33.991  30.414  1.00  0.00    -0.354 N 
ATOM     59  N   UNL A   1      43.824  32.220  30.078  1.00  0.00    -0.248 NA
ATOM     60  C   UNL A   1      45.786  32.406  28.905  1.00  0.00     0.031 C 
ATOM     61  C   UNL A   1      41.822  33.521  32.202  1.00  0.00     0.029 A 
ATOM     62  C   UNL A   1      41.904  33.988  30.900  1.00  0.00     0.049 A 
ATOM     63  H   UNL A   1      40.351  34.349  29.537  1.00  0.00     0.167 HD
ATOM     64  C   UNL A   1      43.949  33.545  29.747  1.00  0.00     0.074 A 
ATOM     65  C   UNL A   1      45.223  33.618  29.062  1.00  0.00     0.031 C 
ATOM     66  C   UNL A   1      42.972  34.460  30.031  1.00  0.00     0.037 A 
BRANCH  53  67
ATOM     67  C   UNL A   1      37.107  33.236  31.337  1.00  0.00     0.064 A 
ATOM     68  C   UNL A   1      36.201  33.947  30.527  1.00  0.00     0.173 A 
ATOM     69  C   UNL A   1      36.632  33.012  32.662  1.00  0.00     0.173 A 
ATOM     70  F   UNL A   1      36.516  34.256  29.261  1.00  0.00    -0.203 F 
ATOM     71  C   UNL A   1      34.954  34.396  30.995  1.00  0.00     0.198 A 
ATOM     72  C   UNL A   1      35.359  33.399  33.105  1.00  0.00     0.198 A 
ATOM     73  F   UNL A   1      37.389  32.480  33.629  1.00  0.00    -0.203 F 
ATOM     74  F   UNL A   1      34.171  35.134  30.196  1.00  0.00    -0.200 F 
ATOM     75  C   UNL A   1      34.527  34.110  32.277  1.00  0.00     0.200 A 
ATOM     76  F   UNL A   1      34.976  33.109  34.359  1.00  0.00    -0.200 F 
ATOM     77  F   UNL A   1      33.340  34.545  32.724  1.00  0.00    -0.200 F 
ENDBRANCH  53  67
BRANCH  54  78
ATOM     78  C   UNL A   1      45.534  29.130  28.607  1.00  0.00     0.064 A 
ATOM     79  C   UNL A   1      46.558  28.249  29.008  1.00  0.00     0.173 A 
ATOM     80  C   UNL A   1      44.858  28.826  27.422  1.00  0.00     0.173 A 
ATOM     81  F   UNL A   1      47.239  28.488  30.140  1.00  0.00    -0.203 F 
ATOM     82  C   UNL A   1      46.805  27.057  28.329  1.00  0.00     0.198 A 
ATOM     83  C   UNL A   1      45.127  27.637  26.724  1.00  0.00     0.198 A 
ATOM     84  F   UNL A   1      43.833  29.600  27.044  1.00  0.00    -0.203 F 
ATOM     85  F   UNL A   1      47.692  26.178  28.816  1.00  0.00    -0.200 F 
ATOM     86  C   UNL A   1      46.066  26.738  27.205  1.00  0.00     0.200 A 
ATOM     87  F   UNL A   1      44.379  27.267  25.676  1.00  0.00    -0.200 F 
ATOM     88  F   UNL A   1      46.203  25.535  26.628  1.00  0.00    -0.200 F 
ENDBRANCH  54  78
BRANCH  66  89
ATOM     89  C   UNL A   1      42.885  35.884  29.515  1.00  0.00     0.064 A 
ATOM     90  C   UNL A   1      43.462  36.999  30.144  1.00  0.00     0.173 A 
ATOM     91  C   UNL A   1      42.332  36.137  28.231  1.00  0.00     0.173 A 
ATOM     92  F   UNL A   1      44.127  36.884  31.300  1.00  0.00    -0.203 F 
ATOM     93  C   UNL A   1      43.431  38.274  29.568  1.00  0.00     0.198 A 
ATOM     94  C   UNL A   1      42.371  37.393  27.628  1.00  0.00     0.198 A 
ATOM     95  F   UNL A   1      41.765  35.160  27.507  1.00  0.00    -0.203 F 
ATOM     96  F   UNL A   1      43.951  39.316  30.233  1.00  0.00    -0.200 F 
ATOM     97  C   UNL A   1      42.901  38.468  28.306  1.00  0.00     0.200 A 
ATOM     98  F   UNL A   1      41.910  37.547  26.377  1.00  0.00    -0.200 F 
ATOM     99  F   UNL A   1      42.923  39.681  27.737  1.00  0.00    -0.200 F 
ENDBRANCH  66  89
ENDBRANCH  40  41
ENDBRANCH  33  35
ENDBRANCH  32  33
ENDBRANCH  31  32
ENDBRANCH  30  31
ENDBRANCH  29  30
ENDBRANCH  28  29
ENDBRANCH   1  28
TORSDOF 20
ENDMDL
MODEL 3
REMARK VINA RESULT:     -12.4      5.054     11.198
REMARK SMILES Cc1ccc(NC(=O)C[C@@H]2C[NH2+]CCO2)c(C(=O)OCCOCCOCCOC(=O)c2ccc(-c3c4nc(c(-c5c(F)c(F)c(F)c(F)c5F)c5ccc([nH]5)c(-c5c(F)c(F)c(F)c(F)c5F)c5nc(c(-c6c(F)c(F)c(F)c(F)c6F)c6ccc3[nH]6)C=C5)C=C4)cc2)c1
REMARK SMILES IDX 23 1 22 2 21 3 20 4 19 5 17 6 18 7 16 8 1 9 2 10 3 11 94 12
REMARK SMILES IDX 4 13 5 14 6 15 7 16 8 18 9 19 10 20 11 21 15 22 12 23 14 24
REMARK SMILES IDX 13 25 24 28 25 29 26 30 27 31 28 32 29 33 30 34 31 35 32 36
REMARK SMILES IDX 93 37 33 38 92 39 34 40 35 41 36 42 86 43 37 44 91 45 85 46
REMARK SMILES IDX 87 47 38 48 90 49 84 50 83 51 39 53 71 54 51 55 70 56 52 57
REMARK SMILES IDX 55 58 69 59 88 60 53 61 54 62 68 64 89 65 56 66 40 67 41 68
REMARK SMILES IDX 49 69 42 70 43 71 47 72 50 73 44 74 45 75 48 76 46 77 72 78
REMARK SMILES IDX 73 79 81 80 74 81 75 82 79 83 82 84 76 85 77 86 80 87 78 88
REMARK SMILES IDX 57 89 58 90 66 91 59 92 60 93 64 94 67 95 61 96 62 97 65 98
REMARK SMILES IDX 63 99
REMARK H PARENT 6 17 12 26 12 27 87 52 55 63
REMARK Flexibility Score: inf
ROOT
ATOM      1  C   UNL A   1      35.129  33.547  28.422  1.00  0.00     0.188 C 
ENDROOT
BRANCH   1   2
ATOM      2  O   UNL A   1      34.971  32.393  27.566  1.00  0.00    -0.376 OA
BRANCH   2   3
ATOM      3  C   UNL A   1      34.465  31.105  27.959  1.00  0.00     0.202 C 
BRANCH   3   4
ATOM      4  C   UNL A   1      34.301  29.662  27.022  1.00  0.00     0.261 C 
BRANCH   4   5
ATOM      5  O   UNL A   1      33.239  28.271  27.103  1.00  0.00    -0.460 OA
BRANCH   5   6
ATOM      6  C   UNL A   1      31.817  27.969  26.981  1.00  0.00     0.340 C 
ATOM      7  O   UNL A   1      31.029  27.673  27.882  1.00  0.00    -0.246 OA
BRANCH   6   8
ATOM      8  C   UNL A   1      31.054  27.734  25.753  1.00  0.00     0.083 A 
ATOM      9  C   UNL A   1      31.057  29.324  22.340  1.00  0.00     0.044 C 
ATOM     10  C   UNL A   1      30.832  28.347  23.446  1.00  0.00    -0.050 A 
ATOM     11  C   UNL A   1      30.279  27.092  23.156  1.00  0.00     0.005 A 
ATOM     12  C   UNL A   1      31.206  28.677  24.751  1.00  0.00     0.021 A 
ATOM     13  C   UNL A   1      30.127  26.130  24.148  1.00  0.00     0.027 A 
ATOM     14  C   UNL A   1      30.509  26.416  25.455  1.00  0.00     0.055 A 
BRANCH  14  15
ATOM     15  N   UNL A   1      30.486  25.351  26.413  1.00  0.00    -0.325 N 
ATOM     16  C   UNL A   1      31.163  24.166  26.515  1.00  0.00     0.227 C 
ATOM     17  H   UNL A   1      29.851  25.503  27.150  1.00  0.00     0.169 HD
ATOM     18  O   UNL A   1      31.265  23.634  27.626  1.00  0.00    -0.275 OA
BRANCH  16  19
ATOM     19  C   UNL A   1      31.854  23.470  25.355  1.00  0.00     0.138 C 
BRANCH  19  20
ATOM     20  C   UNL A   1      32.287  22.003  25.506  1.00  0.00     0.182 C 
ATOM     21  C   UNL A   1      33.716  21.988  26.118  1.00  0.00     0.293 C 
ATOM     22  O   UNL A   1      32.202  21.323  24.257  1.00  0.00    -0.366 OA
ATOM     23  N   UNL A   1      34.413  20.696  26.027  1.00  0.00    -0.342 N 
ATOM     24  C   UNL A   1      32.899  20.089  24.183  1.00  0.00     0.222 C 
ATOM     25  C   UNL A   1      34.353  20.256  24.623  1.00  0.00     0.289 C 
ATOM     26  H   UNL A   1      33.954  20.011  26.626  1.00  0.00     0.346 HD
ATOM     27  H   UNL A   1      35.381  20.789  26.332  1.00  0.00     0.346 HD
ENDBRANCH  19  20
ENDBRANCH  16  19
ENDBRANCH  14  15
ENDBRANCH   6   8
ENDBRANCH   5   6
ENDBRANCH   4   5
ENDBRANCH   3   4
ENDBRANCH   2   3
ENDBRANCH   1   2
BRANCH   1  28
ATOM     28  C   UNL A   1      34.652  34.950  28.041  1.00  0.00     0.188 C 
BRANCH  28  29
ATOM     29  O   UNL A   1      33.530  35.305  28.821  1.00  0.00    -0.376 OA
BRANCH  29  30
ATOM     30  C   UNL A   1      33.480  34.758  30.126  1.00  0.00     0.202 C 
BRANCH  30  31
ATOM     31  C   UNL A   1      32.874  35.729  31.157  1.00  0.00     0.261 C 
BRANCH  31  32
ATOM     32  O   UNL A   1      33.475  35.546  32.463  1.00  0.00    -0.460 OA
BRANCH  32  33
ATOM     33  C   UNL A   1      33.910  34.274  32.798  1.00  0.00     0.338 C 
ATOM     34  O   UNL A   1      33.196  33.366  33.115  1.00  0.00    -0.246 OA
BRANCH  33  35
ATOM     35  C   UNL A   1      35.417  34.289  32.947  1.00  0.00     0.060 A 
ATOM     36  C   UNL A   1      36.340  34.849  32.046  1.00  0.00     0.016 A 
ATOM     37  C   UNL A   1      35.909  33.351  33.777  1.00  0.00     0.016 A 
ATOM     38  C   UNL A   1      37.673  34.276  31.857  1.00  0.00     0.010 A 
ATOM     39  C   UNL A   1      37.000  32.658  33.275  1.00  0.00     0.010 A 
ATOM     40  C   UNL A   1      38.047  33.042  32.393  1.00  0.00    -0.014 A 
BRANCH  40  41
ATOM     41  C   UNL A   1      39.437  32.129  31.993  1.00  0.00     0.031 A 
ATOM     42  C   UNL A   1      39.686  30.612  31.136  1.00  0.00     0.074 A 
ATOM     43  C   UNL A   1      40.595  32.539  32.561  1.00  0.00     0.049 A 
ATOM     44  N   UNL A   1      40.709  29.797  31.345  1.00  0.00    -0.248 NA
ATOM     45  C   UNL A   1      38.808  29.845  30.142  1.00  0.00     0.031 C 
ATOM     46  C   UNL A   1      41.948  32.117  32.206  1.00  0.00     0.029 A 
ATOM     47  N   UNL A   1      40.785  33.376  33.676  1.00  0.00    -0.354 N 
ATOM     48  C   UNL A   1      40.626  28.733  30.436  1.00  0.00     0.074 A 
ATOM     49  C   UNL A   1      39.302  28.632  30.009  1.00  0.00     0.031 C 
ATOM     50  C   UNL A   1      42.771  32.404  33.222  1.00  0.00     0.029 A 
ATOM     51  C   UNL A   1      41.953  32.903  34.307  1.00  0.00     0.049 A 
ATOM     52  H   UNL A   1      40.221  34.133  33.955  1.00  0.00     0.167 HD
ATOM     53  C   UNL A   1      41.699  28.132  29.867  1.00  0.00     0.037 A 
ATOM     54  C   UNL A   1      41.944  32.425  35.582  1.00  0.00     0.037 A 
ATOM     55  C   UNL A   1      42.806  28.251  30.767  1.00  0.00     0.049 A 
ATOM     56  C   UNL A   1      42.478  31.014  35.722  1.00  0.00     0.074 A 
ATOM     57  C   UNL A   1      43.941  29.027  30.801  1.00  0.00     0.029 A 
ATOM     58  N   UNL A   1      42.619  27.733  32.039  1.00  0.00    -0.354 N 
ATOM     59  N   UNL A   1      42.807  30.245  34.720  1.00  0.00    -0.248 NA
ATOM     60  C   UNL A   1      42.662  30.344  37.006  1.00  0.00     0.031 C 
ATOM     61  C   UNL A   1      44.348  29.097  32.165  1.00  0.00     0.029 A 
ATOM     62  C   UNL A   1      43.504  28.301  32.924  1.00  0.00     0.049 A 
ATOM     63  H   UNL A   1      41.947  27.054  32.276  1.00  0.00     0.167 HD
ATOM     64  C   UNL A   1      43.142  28.996  35.180  1.00  0.00     0.074 A 
ATOM     65  C   UNL A   1      43.091  29.129  36.622  1.00  0.00     0.031 C 
ATOM     66  C   UNL A   1      43.393  27.952  34.333  1.00  0.00     0.037 A 
BRANCH  53  67
ATOM     67  C   UNL A   1      41.730  27.564  28.443  1.00  0.00     0.064 A 
ATOM     68  C   UNL A   1      41.865  26.177  28.247  1.00  0.00     0.173 A 
ATOM     69  C   UNL A   1      41.790  28.319  27.235  1.00  0.00     0.173 A 
ATOM     70  F   UNL A   1      41.853  25.337  29.292  1.00  0.00    -0.203 F 
ATOM     71  C   UNL A   1      42.050  25.603  26.977  1.00  0.00     0.198 A 
ATOM     72  C   UNL A   1      41.903  27.739  25.964  1.00  0.00     0.198 A 
ATOM     73  F   UNL A   1      41.821  29.657  27.210  1.00  0.00    -0.203 F 
ATOM     74  F   UNL A   1      42.249  24.282  26.868  1.00  0.00    -0.200 F 
ATOM     75  C   UNL A   1      42.055  26.381  25.836  1.00  0.00     0.200 A 
ATOM     76  F   UNL A   1      41.909  28.523  24.874  1.00  0.00    -0.200 F 
ATOM     77  F   UNL A   1      42.239  25.833  24.626  1.00  0.00    -0.200 F 
ENDBRANCH  53  67
BRANCH  54  78
ATOM     78  C   UNL A   1      40.937  33.100  36.447  1.00  0.00     0.064 A 
ATOM     79  C   UNL A   1      39.686  32.475  36.616  1.00  0.00     0.173 A 
ATOM     80  C   UNL A   1      41.305  34.059  37.396  1.00  0.00     0.173 A 
ATOM     81  F   UNL A   1      39.282  31.544  35.738  1.00  0.00    -0.203 F 
ATOM     82  C   UNL A   1      38.901  32.700  37.746  1.00  0.00     0.198 A 
ATOM     83  C   UNL A   1      40.499  34.304  38.520  1.00  0.00     0.198 A 
ATOM     84  F   UNL A   1      42.514  34.625  37.310  1.00  0.00    -0.203 F 
ATOM     85  F   UNL A   1      37.783  31.987  37.940  1.00  0.00    -0.200 F 
ATOM     86  C   UNL A   1      39.326  33.592  38.713  1.00  0.00     0.200 A 
ATOM     87  F   UNL A   1      40.919  35.107  39.508  1.00  0.00    -0.200 F 
ATOM     88  F   UNL A   1      38.646  33.712  39.863  1.00  0.00    -0.200 F 
ENDBRANCH  54  78
BRANCH  66  89
ATOM     89  C   UNL A   1      43.538  26.490  34.712  1.00  0.00     0.064 A 
ATOM     90  C   UNL A   1      42.467  25.633  35.009  1.00  0.00     0.173 A 
ATOM     91  C   UNL A   1      44.807  25.859  34.620  1.00  0.00     0.173 A 
ATOM     92  F   UNL A   1      41.200  26.066  35.007  1.00  0.00    -0.203 F 
ATOM     93  C   UNL A   1      42.657  24.268  35.257  1.00  0.00     0.198 A 
ATOM     94  C   UNL A   1      44.981  24.487  34.793  1.00  0.00     0.198 A 
ATOM     95  F   UNL A   1      45.915  26.555  34.324  1.00  0.00    -0.203 F 
ATOM     96  F   UNL A   1      41.608  23.501  35.587  1.00  0.00    -0.200 F 
ATOM     97  C   UNL A   1      43.908  23.694  35.133  1.00  0.00     0.200 A 
ATOM     98  F   UNL A   1      46.190  23.939  34.605  1.00  0.00    -0.200 F 
ATOM     99  F   UNL A   1      44.074  22.377  35.320  1.00  0.00    -0.200 F 
ENDBRANCH  66  89
ENDBRANCH  40  41
ENDBRANCH  33  35
ENDBRANCH  32  33
ENDBRANCH  31  32
ENDBRANCH  30  31
ENDBRANCH  29  30
ENDBRANCH  28  29
ENDBRANCH   1  28
TORSDOF 20
ENDMDL
