MODEL 1
REMARK VINA RESULT:      -9.9      0.000      0.000
REMARK SMILES Cc1cc([C@@H]([NH2+]CC[NH+](C)C)C(=O)OCCOCCOCCOC(=O)c2ccc(-c3c4nc(c(-c5c(F)c(F)c(F)c(F)c5F)c5ccc([nH]5)c(-c5c(F)c(F)c(F)c(F)c5F)c5nc(c(-c6c(F)c(F)c(F)c(F)c6F)c6ccc3[nH]6)C=C5)C=C4)cc2)ccc1Br
REMARK SMILES IDX 18 1 17 2 16 3 15 4 14 5 12 6 13 7 5 8 4 9 1 10 2 11 3 12
REMARK SMILES IDX 91 13 90 14 92 15 89 16 6 17 7 20 8 21 9 22 10 23 11 24
REMARK SMILES IDX 19 26 20 27 21 28 22 29 23 30 24 31 25 32 26 33 27 34 88 35
REMARK SMILES IDX 28 36 87 37 29 38 30 39 31 40 81 41 32 42 86 43 80 44 82 45
REMARK SMILES IDX 33 46 85 47 79 48 78 49 34 51 66 52 46 53 65 54 47 55 50 56
REMARK SMILES IDX 64 57 83 58 48 59 49 60 63 62 84 63 51 64 35 65 36 66 44 67
REMARK SMILES IDX 37 68 38 69 42 70 45 71 39 72 40 73 43 74 41 75 67 76 68 77
REMARK SMILES IDX 76 78 69 79 70 80 74 81 77 82 71 83 72 84 75 85 73 86 52 87
REMARK SMILES IDX 53 88 61 89 54 90 55 91 59 92 62 93 56 94 57 95 60 96 58 97
REMARK H PARENT 6 18 6 19 9 25 82 50 50 61
REMARK Flexibility Score: inf
ROOT
ATOM      1  C   UNL A   1      32.377  28.605  25.306  1.00  0.00     0.188 C 
ENDROOT
BRANCH   1   2
ATOM      2  O   UNL A   1      32.447  27.467  26.154  1.00  0.00    -0.376 OA
BRANCH   2   3
ATOM      3  C   UNL A   1      33.618  26.662  26.189  1.00  0.00     0.202 C 
BRANCH   3   4
ATOM      4  C   UNL A   1      33.899  25.659  25.053  1.00  0.00     0.261 C 
BRANCH   4   5
ATOM      5  O   UNL A   1      34.168  26.208  23.745  1.00  0.00    -0.459 OA
BRANCH   5   6
ATOM      6  C   UNL A   1      33.416  25.699  22.737  1.00  0.00     0.369 C 
ATOM      7  O   UNL A   1      33.822  25.622  21.575  1.00  0.00    -0.245 OA
BRANCH   6   8
ATOM      8  C   UNL A   1      32.003  25.182  23.114  1.00  0.00     0.324 C 
BRANCH   8   9
ATOM      9  C   UNL A   1      30.807  26.136  23.189  1.00  0.00     0.021 A 
ATOM     10  C   UNL A   1      30.067  29.681  21.906  1.00  0.00     0.045 C 
ATOM     11  C   UNL A   1      29.870  28.350  22.583  1.00  0.00    -0.036 A 
ATOM     12  C   UNL A   1      30.928  27.426  22.606  1.00  0.00     0.015 A 
ATOM     13  C   UNL A   1      28.665  27.980  23.187  1.00  0.00     0.020 A 
ATOM     14  C   UNL A   1      28.533  26.725  23.794  1.00  0.00     0.016 A 
ATOM     15  Br  UNL A   1      27.161  29.141  23.210  1.00  0.00    -0.051 Br
ATOM     16  C   UNL A   1      29.596  25.809  23.800  1.00  0.00     0.012 A 
ENDBRANCH   8   9
BRANCH   8  17
ATOM     17  N   UNL A   1      31.666  23.959  22.360  1.00  0.00    -0.326 N 
ATOM     18  H   UNL A   1      32.376  23.817  21.640  1.00  0.00     0.347 HD
ATOM     19  H   UNL A   1      30.737  24.097  21.963  1.00  0.00     0.347 HD
BRANCH  17  20
ATOM     20  C   UNL A   1      31.605  22.747  23.201  1.00  0.00     0.323 C 
BRANCH  20  21
ATOM     21  C   UNL A   1      32.041  22.814  24.697  1.00  0.00     0.323 C 
BRANCH  21  22
ATOM     22  N   UNL A   1      33.245  22.052  25.087  1.00  0.00    -0.335 N 
ATOM     23  C   UNL A   1      33.424  22.145  26.541  1.00  0.00     0.332 C 
ATOM     24  C   UNL A   1      33.214  20.644  24.707  1.00  0.00     0.332 C 
ATOM     25  H   UNL A   1      34.022  22.474  24.579  1.00  0.00     0.347 HD
ENDBRANCH  21  22
ENDBRANCH  20  21
ENDBRANCH  17  20
ENDBRANCH   8  17
ENDBRANCH   6   8
ENDBRANCH   5   6
ENDBRANCH   4   5
ENDBRANCH   3   4
ENDBRANCH   2   3
ENDBRANCH   1   2
BRANCH   1  26
ATOM     26  C   UNL A   1      32.753  29.992  25.843  1.00  0.00     0.188 C 
BRANCH  26  27
ATOM     27  O   UNL A   1      31.738  30.956  25.750  1.00  0.00    -0.376 OA
BRANCH  27  28
ATOM     28  C   UNL A   1      31.456  31.754  26.880  1.00  0.00     0.202 C 
BRANCH  28  29
ATOM     29  C   UNL A   1      31.781  33.258  26.878  1.00  0.00     0.261 C 
BRANCH  29  30
ATOM     30  O   UNL A   1      33.158  33.643  27.025  1.00  0.00    -0.460 OA
BRANCH  30  31
ATOM     31  C   UNL A   1      33.569  34.051  28.245  1.00  0.00     0.338 C 
ATOM     32  O   UNL A   1      33.001  34.838  28.991  1.00  0.00    -0.246 OA
BRANCH  31  33
ATOM     33  C   UNL A   1      34.729  33.220  28.640  1.00  0.00     0.060 A 
ATOM     34  C   UNL A   1      34.541  31.853  28.899  1.00  0.00     0.016 A 
ATOM     35  C   UNL A   1      36.000  33.786  28.751  1.00  0.00     0.016 A 
ATOM     36  C   UNL A   1      35.617  31.057  29.300  1.00  0.00     0.010 A 
ATOM     37  C   UNL A   1      37.071  32.994  29.176  1.00  0.00     0.010 A 
ATOM     38  C   UNL A   1      36.882  31.634  29.483  1.00  0.00    -0.014 A 
BRANCH  38  39
ATOM     39  C   UNL A   1      37.959  30.883  30.178  1.00  0.00     0.031 A 
ATOM     40  C   UNL A   1      38.222  31.190  31.627  1.00  0.00     0.074 A 
ATOM     41  C   UNL A   1      38.704  29.960  29.542  1.00  0.00     0.049 A 
ATOM     42  N   UNL A   1      39.172  30.757  32.415  1.00  0.00    -0.248 NA
ATOM     43  C   UNL A   1      37.285  32.124  32.271  1.00  0.00     0.031 C 
ATOM     44  C   UNL A   1      38.527  29.537  28.157  1.00  0.00     0.029 A 
ATOM     45  N   UNL A   1      39.779  29.227  29.986  1.00  0.00    -0.354 N 
ATOM     46  C   UNL A   1      38.958  31.377  33.640  1.00  0.00     0.074 A 
ATOM     47  C   UNL A   1      37.805  32.236  33.484  1.00  0.00     0.031 C 
ATOM     48  C   UNL A   1      39.475  28.634  27.854  1.00  0.00     0.029 A 
ATOM     49  C   UNL A   1      40.351  28.446  29.011  1.00  0.00     0.049 A 
ATOM     50  H   UNL A   1      40.107  29.257  30.913  1.00  0.00     0.167 HD
ATOM     51  C   UNL A   1      39.657  31.239  34.791  1.00  0.00     0.037 A 
ATOM     52  C   UNL A   1      41.471  27.696  29.042  1.00  0.00     0.037 A 
ATOM     53  C   UNL A   1      40.806  30.386  34.944  1.00  0.00     0.049 A 
ATOM     54  C   UNL A   1      42.280  27.619  30.314  1.00  0.00     0.074 A 
ATOM     55  C   UNL A   1      41.569  30.161  36.077  1.00  0.00     0.029 A 
ATOM     56  N   UNL A   1      41.367  29.626  33.927  1.00  0.00    -0.354 N 
ATOM     57  N   UNL A   1      42.059  28.186  31.476  1.00  0.00    -0.248 NA
ATOM     58  C   UNL A   1      43.497  26.793  30.279  1.00  0.00     0.031 C 
ATOM     59  C   UNL A   1      42.628  29.317  35.731  1.00  0.00     0.029 A 
ATOM     60  C   UNL A   1      42.484  28.955  34.401  1.00  0.00     0.049 A 
ATOM     61  H   UNL A   1      41.022  29.571  33.007  1.00  0.00     0.167 HD
ATOM     62  C   UNL A   1      43.083  27.759  32.314  1.00  0.00     0.074 A 
ATOM     63  C   UNL A   1      43.921  26.876  31.531  1.00  0.00     0.031 C 
ATOM     64  C   UNL A   1      43.304  28.067  33.617  1.00  0.00     0.037 A 
BRANCH  51  65
ATOM     65  C   UNL A   1      39.220  32.059  35.971  1.00  0.00     0.064 A 
ATOM     66  C   UNL A   1      39.687  33.366  36.182  1.00  0.00     0.173 A 
ATOM     67  C   UNL A   1      38.293  31.541  36.889  1.00  0.00     0.173 A 
ATOM     68  F   UNL A   1      40.585  33.906  35.342  1.00  0.00    -0.203 F 
ATOM     69  C   UNL A   1      39.268  34.109  37.283  1.00  0.00     0.198 A 
ATOM     70  C   UNL A   1      37.849  32.299  37.968  1.00  0.00     0.198 A 
ATOM     71  F   UNL A   1      37.810  30.299  36.733  1.00  0.00    -0.203 F 
ATOM     72  F   UNL A   1      39.770  35.333  37.493  1.00  0.00    -0.200 F 
ATOM     73  C   UNL A   1      38.344  33.578  38.169  1.00  0.00     0.200 A 
ATOM     74  F   UNL A   1      36.944  31.790  38.815  1.00  0.00    -0.200 F 
ATOM     75  F   UNL A   1      37.935  34.297  39.224  1.00  0.00    -0.200 F 
ENDBRANCH  51  65
BRANCH  52  76
ATOM     76  C   UNL A   1      41.913  26.966  27.822  1.00  0.00     0.064 A 
ATOM     77  C   UNL A   1      41.484  25.655  27.568  1.00  0.00     0.173 A 
ATOM     78  C   UNL A   1      42.796  27.551  26.902  1.00  0.00     0.173 A 
ATOM     79  F   UNL A   1      40.663  25.041  28.433  1.00  0.00    -0.203 F 
ATOM     80  C   UNL A   1      41.936  24.953  26.453  1.00  0.00     0.198 A 
ATOM     81  C   UNL A   1      43.221  26.859  25.770  1.00  0.00     0.198 A 
ATOM     82  F   UNL A   1      43.242  28.800  27.100  1.00  0.00    -0.203 F 
ATOM     83  F   UNL A   1      41.551  23.682  26.265  1.00  0.00    -0.200 F 
ATOM     84  C   UNL A   1      42.798  25.556  25.551  1.00  0.00     0.200 A 
ATOM     85  F   UNL A   1      44.045  27.451  24.895  1.00  0.00    -0.200 F 
ATOM     86  F   UNL A   1      43.230  24.881  24.478  1.00  0.00    -0.200 F 
ENDBRANCH  52  76
BRANCH  64  87
ATOM     87  C   UNL A   1      44.468  27.405  34.304  1.00  0.00     0.064 A 
ATOM     88  C   UNL A   1      44.356  26.144  34.907  1.00  0.00     0.173 A 
ATOM     89  C   UNL A   1      45.727  28.024  34.312  1.00  0.00     0.173 A 
ATOM     90  F   UNL A   1      43.173  25.511  34.937  1.00  0.00    -0.203 F 
ATOM     91  C   UNL A   1      45.455  25.541  35.516  1.00  0.00     0.198 A 
ATOM     92  C   UNL A   1      46.831  27.403  34.891  1.00  0.00     0.198 A 
ATOM     93  F   UNL A   1      45.894  29.228  33.742  1.00  0.00    -0.203 F 
ATOM     94  F   UNL A   1      45.312  24.358  36.130  1.00  0.00    -0.200 F 
ATOM     95  C   UNL A   1      46.692  26.166  35.500  1.00  0.00     0.200 A 
ATOM     96  F   UNL A   1      48.029  28.002  34.856  1.00  0.00    -0.200 F 
ATOM     97  F   UNL A   1      47.749  25.579  36.077  1.00  0.00    -0.200 F 
ENDBRANCH  64  87
ENDBRANCH  38  39
ENDBRANCH  31  33
ENDBRANCH  30  31
ENDBRANCH  29  30
ENDBRANCH  28  29
ENDBRANCH  27  28
ENDBRANCH  26  27
ENDBRANCH   1  26
TORSDOF 22
ENDMDL
MODEL 2
REMARK VINA RESULT:      -9.6      2.439      8.018
REMARK SMILES Cc1cc([C@@H]([NH2+]CC[NH+](C)C)C(=O)OCCOCCOCCOC(=O)c2ccc(-c3c4nc(c(-c5c(F)c(F)c(F)c(F)c5F)c5ccc([nH]5)c(-c5c(F)c(F)c(F)c(F)c5F)c5nc(c(-c6c(F)c(F)c(F)c(F)c6F)c6ccc3[nH]6)C=C5)C=C4)cc2)ccc1Br
REMARK SMILES IDX 18 1 17 2 16 3 15 4 14 5 12 6 13 7 5 8 4 9 1 10 2 11 3 12
REMARK SMILES IDX 91 13 90 14 92 15 89 16 6 17 7 20 8 21 9 22 10 23 11 24
REMARK SMILES IDX 19 26 20 27 21 28 22 29 23 30 24 31 25 32 26 33 27 34 88 35
REMARK SMILES IDX 28 36 87 37 29 38 30 39 31 40 81 41 32 42 86 43 80 44 82 45
REMARK SMILES IDX 33 46 85 47 79 48 78 49 34 51 66 52 46 53 65 54 47 55 50 56
REMARK SMILES IDX 64 57 83 58 48 59 49 60 63 62 84 63 51 64 35 65 36 66 44 67
REMARK SMILES IDX 37 68 38 69 42 70 45 71 39 72 40 73 43 74 41 75 67 76 68 77
REMARK SMILES IDX 76 78 69 79 70 80 74 81 77 82 71 83 72 84 75 85 73 86 52 87
REMARK SMILES IDX 53 88 61 89 54 90 55 91 59 92 62 93 56 94 57 95 60 96 58 97
REMARK H PARENT 6 18 6 19 9 25 82 50 50 61
REMARK Flexibility Score: inf
ROOT
ATOM      1  C   UNL A   1      32.150  27.611  26.953  1.00  0.00     0.188 C 
ENDROOT
BRANCH   1   2
ATOM      2  O   UNL A   1      32.049  26.985  25.682  1.00  0.00    -0.376 OA
BRANCH   2   3
ATOM      3  C   UNL A   1      30.791  26.535  25.196  1.00  0.00     0.202 C 
BRANCH   3   4
ATOM      4  C   UNL A   1      30.284  25.125  25.557  1.00  0.00     0.261 C 
BRANCH   4   5
ATOM      5  O   UNL A   1      31.244  24.210  26.127  1.00  0.00    -0.459 OA
BRANCH   5   6
ATOM      6  C   UNL A   1      31.097  22.912  25.758  1.00  0.00     0.369 C 
ATOM      7  O   UNL A   1      30.146  22.218  26.125  1.00  0.00    -0.245 OA
BRANCH   6   8
ATOM      8  C   UNL A   1      32.181  22.329  24.814  1.00  0.00     0.324 C 
BRANCH   8   9
ATOM      9  C   UNL A   1      32.464  20.824  24.770  1.00  0.00     0.021 A 
ATOM     10  C   UNL A   1      32.263  18.093  22.075  1.00  0.00     0.045 C 
ATOM     11  C   UNL A   1      32.501  18.752  23.408  1.00  0.00    -0.036 A 
ATOM     12  C   UNL A   1      32.227  20.122  23.558  1.00  0.00     0.015 A 
ATOM     13  C   UNL A   1      33.001  18.061  24.516  1.00  0.00     0.020 A 
ATOM     14  C   UNL A   1      33.214  18.726  25.729  1.00  0.00     0.016 A 
ATOM     15  Br  UNL A   1      33.419  16.209  24.431  1.00  0.00    -0.051 Br
ATOM     16  C   UNL A   1      32.944  20.097  25.860  1.00  0.00     0.012 A 
ENDBRANCH   8   9
BRANCH   8  17
ATOM     17  N   UNL A   1      32.059  22.890  23.454  1.00  0.00    -0.326 N 
ATOM     18  H   UNL A   1      31.321  23.595  23.461  1.00  0.00     0.347 HD
ATOM     19  H   UNL A   1      31.846  22.115  22.827  1.00  0.00     0.347 HD
BRANCH  17  20
ATOM     20  C   UNL A   1      33.301  23.519  22.963  1.00  0.00     0.323 C 
BRANCH  20  21
ATOM     21  C   UNL A   1      34.521  23.685  23.921  1.00  0.00     0.323 C 
BRANCH  21  22
ATOM     22  N   UNL A   1      35.506  22.584  23.961  1.00  0.00    -0.335 N 
ATOM     23  C   UNL A   1      36.656  22.936  23.119  1.00  0.00     0.332 C 
ATOM     24  C   UNL A   1      35.986  22.256  25.298  1.00  0.00     0.332 C 
ATOM     25  H   UNL A   1      35.018  21.757  23.615  1.00  0.00     0.347 HD
ENDBRANCH  21  22
ENDBRANCH  20  21
ENDBRANCH  17  20
ENDBRANCH   8  17
ENDBRANCH   6   8
ENDBRANCH   5   6
ENDBRANCH   4   5
ENDBRANCH   3   4
ENDBRANCH   2   3
ENDBRANCH   1   2
BRANCH   1  26
ATOM     26  C   UNL A   1      31.921  29.122  27.089  1.00  0.00     0.188 C 
BRANCH  26  27
ATOM     27  O   UNL A   1      33.003  29.837  27.623  1.00  0.00    -0.376 OA
BRANCH  27  28
ATOM     28  C   UNL A   1      33.332  31.089  27.059  1.00  0.00     0.202 C 
BRANCH  28  29
ATOM     29  C   UNL A   1      33.674  32.289  27.961  1.00  0.00     0.261 C 
BRANCH  29  30
ATOM     30  O   UNL A   1      32.982  33.524  27.718  1.00  0.00    -0.460 OA
BRANCH  30  31
ATOM     31  C   UNL A   1      33.227  34.557  28.554  1.00  0.00     0.338 C 
ATOM     32  O   UNL A   1      32.521  35.538  28.742  1.00  0.00    -0.246 OA
BRANCH  31  33
ATOM     33  C   UNL A   1      34.403  34.207  29.381  1.00  0.00     0.060 A 
ATOM     34  C   UNL A   1      35.693  34.442  28.881  1.00  0.00     0.016 A 
ATOM     35  C   UNL A   1      34.235  33.649  30.650  1.00  0.00     0.016 A 
ATOM     36  C   UNL A   1      36.817  34.092  29.634  1.00  0.00     0.010 A 
ATOM     37  C   UNL A   1      35.360  33.278  31.393  1.00  0.00     0.010 A 
ATOM     38  C   UNL A   1      36.656  33.467  30.879  1.00  0.00    -0.014 A 
BRANCH  38  39
ATOM     39  C   UNL A   1      37.814  32.832  31.559  1.00  0.00     0.031 A 
ATOM     40  C   UNL A   1      38.458  31.640  30.905  1.00  0.00     0.074 A 
ATOM     41  C   UNL A   1      38.280  33.285  32.737  1.00  0.00     0.049 A 
ATOM     42  N   UNL A   1      39.400  30.849  31.351  1.00  0.00    -0.248 NA
ATOM     43  C   UNL A   1      37.961  31.288  29.566  1.00  0.00     0.031 C 
ATOM     44  C   UNL A   1      37.778  34.452  33.454  1.00  0.00     0.029 A 
ATOM     45  N   UNL A   1      39.276  32.792  33.546  1.00  0.00    -0.354 N 
ATOM     46  C   UNL A   1      39.596  29.899  30.357  1.00  0.00     0.074 A 
ATOM     47  C   UNL A   1      38.658  30.195  29.297  1.00  0.00     0.031 C 
ATOM     48  C   UNL A   1      38.453  34.575  34.610  1.00  0.00     0.029 A 
ATOM     49  C   UNL A   1      39.405  33.472  34.733  1.00  0.00     0.049 A 
ATOM     50  H   UNL A   1      39.844  32.027  33.299  1.00  0.00     0.167 HD
ATOM     51  C   UNL A   1      40.481  28.874  30.329  1.00  0.00     0.037 A 
ATOM     52  C   UNL A   1      40.179  33.210  35.806  1.00  0.00     0.037 A 
ATOM     53  C   UNL A   1      41.413  28.579  31.386  1.00  0.00     0.049 A 
ATOM     54  C   UNL A   1      41.102  32.016  35.785  1.00  0.00     0.074 A 
ATOM     55  C   UNL A   1      42.365  27.576  31.441  1.00  0.00     0.029 A 
ATOM     56  N   UNL A   1      41.499  29.279  32.581  1.00  0.00    -0.354 N 
ATOM     57  N   UNL A   1      41.302  31.137  34.833  1.00  0.00    -0.248 NA
ATOM     58  C   UNL A   1      41.910  31.779  36.991  1.00  0.00     0.031 C 
ATOM     59  C   UNL A   1      42.983  27.628  32.694  1.00  0.00     0.029 A 
ATOM     60  C   UNL A   1      42.469  28.710  33.391  1.00  0.00     0.049 A 
ATOM     61  H   UNL A   1      40.953  30.063  32.817  1.00  0.00     0.167 HD
ATOM     62  C   UNL A   1      42.280  30.269  35.309  1.00  0.00     0.074 A 
ATOM     63  C   UNL A   1      42.641  30.734  36.631  1.00  0.00     0.031 C 
ATOM     64  C   UNL A   1      42.831  29.189  34.702  1.00  0.00     0.037 A 
BRANCH  51  65
ATOM     65  C   UNL A   1      40.460  27.972  29.129  1.00  0.00     0.064 A 
ATOM     66  C   UNL A   1      39.654  26.824  29.077  1.00  0.00     0.173 A 
ATOM     67  C   UNL A   1      41.235  28.278  27.999  1.00  0.00     0.173 A 
ATOM     68  F   UNL A   1      38.904  26.477  30.134  1.00  0.00    -0.203 F 
ATOM     69  C   UNL A   1      39.650  26.000  27.953  1.00  0.00     0.198 A 
ATOM     70  C   UNL A   1      41.201  27.473  26.864  1.00  0.00     0.198 A 
ATOM     71  F   UNL A   1      42.019  29.366  27.992  1.00  0.00    -0.203 F 
ATOM     72  F   UNL A   1      38.914  24.880  27.948  1.00  0.00    -0.200 F 
ATOM     73  C   UNL A   1      40.416  26.330  26.846  1.00  0.00     0.200 A 
ATOM     74  F   UNL A   1      41.930  27.801  25.789  1.00  0.00    -0.200 F 
ATOM     75  F   UNL A   1      40.405  25.541  25.762  1.00  0.00    -0.200 F 
ENDBRANCH  51  65
BRANCH  52  76
ATOM     76  C   UNL A   1      40.106  34.085  37.009  1.00  0.00     0.064 A 
ATOM     77  C   UNL A   1      39.201  33.814  38.046  1.00  0.00     0.173 A 
ATOM     78  C   UNL A   1      40.916  35.223  37.132  1.00  0.00     0.173 A 
ATOM     79  F   UNL A   1      38.384  32.754  37.962  1.00  0.00    -0.203 F 
ATOM     80  C   UNL A   1      39.096  34.660  39.149  1.00  0.00     0.198 A 
ATOM     81  C   UNL A   1      40.833  36.049  38.252  1.00  0.00     0.198 A 
ATOM     82  F   UNL A   1      41.794  35.531  36.167  1.00  0.00    -0.203 F 
ATOM     83  F   UNL A   1      38.185  34.407  40.099  1.00  0.00    -0.200 F 
ATOM     84  C   UNL A   1      39.917  35.772  39.255  1.00  0.00     0.200 A 
ATOM     85  F   UNL A   1      41.636  37.117  38.355  1.00  0.00    -0.200 F 
ATOM     86  F   UNL A   1      39.817  36.583  40.317  1.00  0.00    -0.200 F 
ENDBRANCH  52  76
BRANCH  64  87
ATOM     87  C   UNL A   1      43.926  28.460  35.432  1.00  0.00     0.064 A 
ATOM     88  C   UNL A   1      43.654  27.437  36.352  1.00  0.00     0.173 A 
ATOM     89  C   UNL A   1      45.272  28.759  35.165  1.00  0.00     0.173 A 
ATOM     90  F   UNL A   1      42.387  27.118  36.653  1.00  0.00    -0.203 F 
ATOM     91  C   UNL A   1      44.688  26.761  36.998  1.00  0.00     0.198 A 
ATOM     92  C   UNL A   1      46.302  28.057  35.786  1.00  0.00     0.198 A 
ATOM     93  F   UNL A   1      45.590  29.722  34.287  1.00  0.00    -0.203 F 
ATOM     94  F   UNL A   1      44.403  25.822  37.911  1.00  0.00    -0.200 F 
ATOM     95  C   UNL A   1      46.009  27.065  36.708  1.00  0.00     0.200 A 
ATOM     96  F   UNL A   1      47.578  28.340  35.489  1.00  0.00    -0.200 F 
ATOM     97  F   UNL A   1      47.001  26.405  37.322  1.00  0.00    -0.200 F 
ENDBRANCH  64  87
ENDBRANCH  38  39
ENDBRANCH  31  33
ENDBRANCH  30  31
ENDBRANCH  29  30
ENDBRANCH  28  29
ENDBRANCH  27  28
ENDBRANCH  26  27
ENDBRANCH   1  26
TORSDOF 22
ENDMDL
MODEL 3
REMARK VINA RESULT:      -9.5      2.257      3.809
REMARK SMILES Cc1cc([C@@H]([NH2+]CC[NH+](C)C)C(=O)OCCOCCOCCOC(=O)c2ccc(-c3c4nc(c(-c5c(F)c(F)c(F)c(F)c5F)c5ccc([nH]5)c(-c5c(F)c(F)c(F)c(F)c5F)c5nc(c(-c6c(F)c(F)c(F)c(F)c6F)c6ccc3[nH]6)C=C5)C=C4)cc2)ccc1Br
REMARK SMILES IDX 18 1 17 2 16 3 15 4 14 5 12 6 13 7 5 8 4 9 1 10 2 11 3 12
REMARK SMILES IDX 91 13 90 14 92 15 89 16 6 17 7 20 8 21 9 22 10 23 11 24
REMARK SMILES IDX 19 26 20 27 21 28 22 29 23 30 24 31 25 32 26 33 27 34 88 35
REMARK SMILES IDX 28 36 87 37 29 38 30 39 31 40 81 41 32 42 86 43 80 44 82 45
REMARK SMILES IDX 33 46 85 47 79 48 78 49 34 51 66 52 46 53 65 54 47 55 50 56
REMARK SMILES IDX 64 57 83 58 48 59 49 60 63 62 84 63 51 64 35 65 36 66 44 67
REMARK SMILES IDX 37 68 38 69 42 70 45 71 39 72 40 73 43 74 41 75 67 76 68 77
REMARK SMILES IDX 76 78 69 79 70 80 74 81 77 82 71 83 72 84 75 85 73 86 52 87
REMARK SMILES IDX 53 88 61 89 54 90 55 91 59 92 62 93 56 94 57 95 60 96 58 97
REMARK H PARENT 6 18 6 19 9 25 82 50 50 61
REMARK Flexibility Score: inf
ROOT
ATOM      1  C   UNL A   1      32.282  27.890  26.723  1.00  0.00     0.188 C 
ENDROOT
BRANCH   1   2
ATOM      2  O   UNL A   1      32.717  26.996  25.707  1.00  0.00    -0.376 OA
BRANCH   2   3
ATOM      3  C   UNL A   1      31.797  26.489  24.749  1.00  0.00     0.202 C 
BRANCH   3   4
ATOM      4  C   UNL A   1      30.651  25.561  25.197  1.00  0.00     0.261 C 
BRANCH   4   5
ATOM      5  O   UNL A   1      30.983  24.176  25.433  1.00  0.00    -0.459 OA
BRANCH   5   6
ATOM      6  C   UNL A   1      31.331  23.467  24.329  1.00  0.00     0.369 C 
ATOM      7  O   UNL A   1      30.650  23.460  23.300  1.00  0.00    -0.245 OA
BRANCH   6   8
ATOM      8  C   UNL A   1      32.659  22.671  24.401  1.00  0.00     0.324 C 
BRANCH   8   9
ATOM      9  C   UNL A   1      32.659  21.143  24.515  1.00  0.00     0.021 A 
ATOM     10  C   UNL A   1      32.273  18.229  22.040  1.00  0.00     0.045 C 
ATOM     11  C   UNL A   1      32.470  18.969  23.337  1.00  0.00    -0.036 A 
ATOM     12  C   UNL A   1      32.441  20.373  23.340  1.00  0.00     0.015 A 
ATOM     13  C   UNL A   1      32.695  18.317  24.553  1.00  0.00     0.020 A 
ATOM     14  C   UNL A   1      32.883  19.054  25.728  1.00  0.00     0.016 A 
ATOM     15  Br  UNL A   1      32.766  16.422  24.671  1.00  0.00    -0.051 Br
ATOM     16  C   UNL A   1      32.860  20.457  25.713  1.00  0.00     0.012 A 
ENDBRANCH   8   9
BRANCH   8  17
ATOM     17  N   UNL A   1      33.612  23.130  23.371  1.00  0.00    -0.326 N 
ATOM     18  H   UNL A   1      33.145  23.826  22.788  1.00  0.00     0.347 HD
ATOM     19  H   UNL A   1      33.898  22.309  22.839  1.00  0.00     0.347 HD
BRANCH  17  20
ATOM     20  C   UNL A   1      34.837  23.735  23.931  1.00  0.00     0.323 C 
BRANCH  20  21
ATOM     21  C   UNL A   1      34.881  24.157  25.432  1.00  0.00     0.323 C 
BRANCH  21  22
ATOM     22  N   UNL A   1      35.582  23.255  26.369  1.00  0.00    -0.335 N 
ATOM     23  C   UNL A   1      34.643  22.820  27.411  1.00  0.00     0.332 C 
ATOM     24  C   UNL A   1      36.167  22.075  25.742  1.00  0.00     0.332 C 
ATOM     25  H   UNL A   1      36.357  23.795  26.755  1.00  0.00     0.347 HD
ENDBRANCH  21  22
ENDBRANCH  20  21
ENDBRANCH  17  20
ENDBRANCH   8  17
ENDBRANCH   6   8
ENDBRANCH   5   6
ENDBRANCH   4   5
ENDBRANCH   3   4
ENDBRANCH   2   3
ENDBRANCH   1   2
BRANCH   1  26
ATOM     26  C   UNL A   1      31.899  29.333  26.368  1.00  0.00     0.188 C 
BRANCH  26  27
ATOM     27  O   UNL A   1      32.557  30.319  27.119  1.00  0.00    -0.376 OA
BRANCH  27  28
ATOM     28  C   UNL A   1      32.271  31.676  26.853  1.00  0.00     0.202 C 
BRANCH  28  29
ATOM     29  C   UNL A   1      33.038  32.795  27.580  1.00  0.00     0.261 C 
BRANCH  29  30
ATOM     30  O   UNL A   1      32.282  33.921  28.056  1.00  0.00    -0.460 OA
BRANCH  30  31
ATOM     31  C   UNL A   1      32.965  34.948  28.607  1.00  0.00     0.338 C 
ATOM     32  O   UNL A   1      32.623  36.123  28.651  1.00  0.00    -0.246 OA
BRANCH  31  33
ATOM     33  C   UNL A   1      34.115  34.387  29.351  1.00  0.00     0.060 A 
ATOM     34  C   UNL A   1      35.404  34.488  28.806  1.00  0.00     0.016 A 
ATOM     35  C   UNL A   1      33.923  33.765  30.586  1.00  0.00     0.016 A 
ATOM     36  C   UNL A   1      36.499  33.940  29.479  1.00  0.00     0.010 A 
ATOM     37  C   UNL A   1      35.016  33.196  31.247  1.00  0.00     0.010 A 
ATOM     38  C   UNL A   1      36.304  33.252  30.684  1.00  0.00    -0.014 A 
BRANCH  38  39
ATOM     39  C   UNL A   1      37.393  32.422  31.263  1.00  0.00     0.031 A 
ATOM     40  C   UNL A   1      37.914  32.781  32.628  1.00  0.00     0.074 A 
ATOM     41  C   UNL A   1      37.923  31.382  30.594  1.00  0.00     0.049 A 
ATOM     42  N   UNL A   1      38.926  32.287  33.293  1.00  0.00    -0.248 NA
ATOM     43  C   UNL A   1      37.196  33.855  33.333  1.00  0.00     0.031 C 
ATOM     44  C   UNL A   1      37.484  30.901  29.288  1.00  0.00     0.029 A 
ATOM     45  N   UNL A   1      38.971  30.555  30.925  1.00  0.00    -0.354 N 
ATOM     46  C   UNL A   1      38.977  32.999  34.485  1.00  0.00     0.074 A 
ATOM     47  C   UNL A   1      37.912  33.977  34.440  1.00  0.00     0.031 C 
ATOM     48  C   UNL A   1      38.270  29.876  28.916  1.00  0.00     0.029 A 
ATOM     49  C   UNL A   1      39.294  29.657  29.937  1.00  0.00     0.049 A 
ATOM     50  H   UNL A   1      39.445  30.602  31.787  1.00  0.00     0.167 HD
ATOM     51  C   UNL A   1      39.832  32.849  35.524  1.00  0.00     0.037 A 
ATOM     52  C   UNL A   1      40.318  28.784  29.856  1.00  0.00     0.037 A 
ATOM     53  C   UNL A   1      40.893  31.877  35.567  1.00  0.00     0.049 A 
ATOM     54  C   UNL A   1      41.307  28.688  30.993  1.00  0.00     0.074 A 
ATOM     55  C   UNL A   1      41.798  31.632  36.585  1.00  0.00     0.029 A 
ATOM     56  N   UNL A   1      41.200  30.998  34.538  1.00  0.00    -0.354 N 
ATOM     57  N   UNL A   1      41.335  29.345  32.128  1.00  0.00    -0.248 NA
ATOM     58  C   UNL A   1      42.407  27.724  30.837  1.00  0.00     0.031 C 
ATOM     59  C   UNL A   1      42.692  30.651  36.147  1.00  0.00     0.029 A 
ATOM     60  C   UNL A   1      42.300  30.230  34.886  1.00  0.00     0.049 A 
ATOM     61  H   UNL A   1      40.709  30.930  33.688  1.00  0.00     0.167 HD
ATOM     62  C   UNL A   1      42.428  28.850  32.831  1.00  0.00     0.074 A 
ATOM     63  C   UNL A   1      43.032  27.830  32.001  1.00  0.00     0.031 C 
ATOM     64  C   UNL A   1      42.886  29.207  34.058  1.00  0.00     0.037 A 
BRANCH  51  65
ATOM     65  C   UNL A   1      39.677  33.783  36.690  1.00  0.00     0.064 A 
ATOM     66  C   UNL A   1      40.302  35.040  36.722  1.00  0.00     0.173 A 
ATOM     67  C   UNL A   1      38.867  33.428  37.779  1.00  0.00     0.173 A 
ATOM     68  F   UNL A   1      41.099  35.424  35.713  1.00  0.00    -0.203 F 
ATOM     69  C   UNL A   1      40.145  35.891  37.814  1.00  0.00     0.198 A 
ATOM     70  C   UNL A   1      38.683  34.295  38.852  1.00  0.00     0.198 A 
ATOM     71  F   UNL A   1      38.243  32.241  37.799  1.00  0.00    -0.203 F 
ATOM     72  F   UNL A   1      40.795  37.063  37.846  1.00  0.00    -0.200 F 
ATOM     73  C   UNL A   1      39.330  35.522  38.873  1.00  0.00     0.200 A 
ATOM     74  F   UNL A   1      37.883  33.943  39.868  1.00  0.00    -0.200 F 
ATOM     75  F   UNL A   1      39.174  36.345  39.919  1.00  0.00    -0.200 F 
ENDBRANCH  51  65
BRANCH  52  76
ATOM     76  C   UNL A   1      40.480  27.935  28.643  1.00  0.00     0.064 A 
ATOM     77  C   UNL A   1      41.234  28.378  27.546  1.00  0.00     0.173 A 
ATOM     78  C   UNL A   1      39.862  26.680  28.543  1.00  0.00     0.173 A 
ATOM     79  F   UNL A   1      41.821  29.584  27.580  1.00  0.00    -0.203 F 
ATOM     80  C   UNL A   1      41.346  27.607  26.390  1.00  0.00     0.198 A 
ATOM     81  C   UNL A   1      40.002  25.896  27.399  1.00  0.00     0.198 A 
ATOM     82  F   UNL A   1      39.126  26.212  29.561  1.00  0.00    -0.203 F 
ATOM     83  F   UNL A   1      42.027  28.080  25.337  1.00  0.00    -0.200 F 
ATOM     84  C   UNL A   1      40.736  26.365  26.320  1.00  0.00     0.200 A 
ATOM     85  F   UNL A   1      39.420  24.691  27.342  1.00  0.00    -0.200 F 
ATOM     86  F   UNL A   1      40.846  25.623  25.210  1.00  0.00    -0.200 F 
ENDBRANCH  52  76
BRANCH  64  87
ATOM     87  C   UNL A   1      44.066  28.455  34.609  1.00  0.00     0.064 A 
ATOM     88  C   UNL A   1      45.381  28.917  34.454  1.00  0.00     0.173 A 
ATOM     89  C   UNL A   1      43.870  27.277  35.348  1.00  0.00     0.173 A 
ATOM     90  F   UNL A   1      45.628  30.030  33.748  1.00  0.00    -0.203 F 
ATOM     91  C   UNL A   1      46.456  28.213  34.995  1.00  0.00     0.198 A 
ATOM     92  C   UNL A   1      44.943  26.597  35.917  1.00  0.00     0.198 A 
ATOM     93  F   UNL A   1      42.632  26.794  35.535  1.00  0.00    -0.203 F 
ATOM     94  F   UNL A   1      47.708  28.647  34.791  1.00  0.00    -0.200 F 
ATOM     95  C   UNL A   1      46.235  27.061  35.733  1.00  0.00     0.200 A 
ATOM     96  F   UNL A   1      44.724  25.493  36.646  1.00  0.00    -0.200 F 
ATOM     97  F   UNL A   1      47.271  26.392  36.261  1.00  0.00    -0.200 F 
ENDBRANCH  64  87
ENDBRANCH  38  39
ENDBRANCH  31  33
ENDBRANCH  30  31
ENDBRANCH  29  30
ENDBRANCH  28  29
ENDBRANCH  27  28
ENDBRANCH  26  27
ENDBRANCH   1  26
TORSDOF 22
ENDMDL
