MODEL 1
REMARK VINA RESULT:     -10.3      0.000      0.000
REMARK SMILES CC(C)n1ccc(C#CC(=O)OCCOCCOCCOC(=O)c2ccc(-c3c4nc(c(-c5c(F)c(F)c(F)c(F)c5F)c5ccc([nH]5)c(-c5c(F)c(F)c(F)c(F)c5F)c5nc(c(-c6c(F)c(F)c(F)c(F)c6F)c6ccc3[nH]6)C=C5)C=C4)cc2)n1
REMARK SMILES IDX 16 1 15 2 14 3 13 4 12 5 10 6 11 7 9 8 8 9 7 10 4 11 5 12
REMARK SMILES IDX 87 13 6 14 2 15 1 16 3 17 17 18 18 19 19 20 20 21 21 22
REMARK SMILES IDX 22 23 23 24 24 25 25 26 86 27 26 28 85 29 27 30 28 31 29 32
REMARK SMILES IDX 79 33 30 34 84 35 78 36 80 37 31 38 83 39 77 40 76 41 32 43
REMARK SMILES IDX 64 44 44 45 63 46 45 47 48 48 62 49 81 50 46 51 47 52 61 54
REMARK SMILES IDX 82 55 49 56 33 57 34 58 42 59 35 60 36 61 40 62 43 63 37 64
REMARK SMILES IDX 38 65 41 66 39 67 65 68 66 69 74 70 67 71 68 72 72 73 75 74
REMARK SMILES IDX 69 75 70 76 73 77 71 78 50 79 51 80 59 81 52 82 53 83 57 84
REMARK SMILES IDX 60 85 54 86 55 87 58 88 56 89
REMARK H PARENT 80 42 48 53
REMARK Flexibility Score: inf
ROOT
ATOM      1  C   UNL A   1      41.439  19.524  26.727  1.00  0.00     0.188 C 
ENDROOT
BRANCH   1   2
ATOM      2  O   UNL A   1      41.407  20.917  26.439  1.00  0.00    -0.376 OA
BRANCH   2   3
ATOM      3  C   UNL A   1      40.746  21.803  27.338  1.00  0.00     0.202 C 
BRANCH   3   4
ATOM      4  C   UNL A   1      39.572  22.680  26.859  1.00  0.00     0.262 C 
BRANCH   4   5
ATOM      5  O   UNL A   1      38.627  21.991  26.029  1.00  0.00    -0.454 OA
BRANCH   5   6
ATOM      6  C   UNL A   1      37.566  22.708  25.586  1.00  0.00     0.384 C 
ATOM      7  O   UNL A   1      37.541  23.909  25.373  1.00  0.00    -0.236 OA
BRANCH   6   8
ATOM      8  C   UNL A   1      36.441  21.874  25.241  1.00  0.00     0.024 C 
ATOM      9  C   UNL A   1      35.479  21.185  25.042  1.00  0.00    -0.033 C 
BRANCH   9  10
ATOM     10  C   UNL A   1      34.350  20.334  24.863  1.00  0.00     0.135 A 
ATOM     11  N   UNL A   1      33.333  18.508  24.559  1.00  0.00    -0.269 N 
ATOM     12  C   UNL A   1      32.343  19.437  24.726  1.00  0.00     0.110 A 
ATOM     13  N   UNL A   1      34.571  19.041  24.629  1.00  0.00    -0.164 NA
ATOM     14  C   UNL A   1      32.979  20.642  24.933  1.00  0.00     0.059 A 
BRANCH  11  15
ATOM     15  C   UNL A   1      33.206  17.076  24.304  1.00  0.00     0.101 C 
ATOM     16  C   UNL A   1      34.173  16.553  23.241  1.00  0.00     0.033 C 
ATOM     17  C   UNL A   1      33.339  16.285  25.604  1.00  0.00     0.033 C 
ENDBRANCH  11  15
ENDBRANCH   9  10
ENDBRANCH   6   8
ENDBRANCH   5   6
ENDBRANCH   4   5
ENDBRANCH   3   4
ENDBRANCH   2   3
ENDBRANCH   1   2
BRANCH   1  18
ATOM     18  C   UNL A   1      42.557  18.634  26.135  1.00  0.00     0.188 C 
BRANCH  18  19
ATOM     19  O   UNL A   1      43.090  19.094  24.913  1.00  0.00    -0.376 OA
BRANCH  19  20
ATOM     20  C   UNL A   1      44.439  18.878  24.539  1.00  0.00     0.202 C 
BRANCH  20  21
ATOM     21  C   UNL A   1      45.442  19.995  24.240  1.00  0.00     0.261 C 
BRANCH  21  22
ATOM     22  O   UNL A   1      45.407  21.115  25.098  1.00  0.00    -0.460 OA
BRANCH  22  23
ATOM     23  C   UNL A   1      44.857  22.211  24.541  1.00  0.00     0.338 C 
ATOM     24  O   UNL A   1      45.053  22.642  23.416  1.00  0.00    -0.246 OA
BRANCH  23  25
ATOM     25  C   UNL A   1      44.030  22.887  25.542  1.00  0.00     0.060 A 
ATOM     26  C   UNL A   1      43.012  23.702  25.045  1.00  0.00     0.016 A 
ATOM     27  C   UNL A   1      44.479  22.972  26.869  1.00  0.00     0.016 A 
ATOM     28  C   UNL A   1      42.629  24.783  25.800  1.00  0.00     0.010 A 
ATOM     29  C   UNL A   1      44.101  24.059  27.620  1.00  0.00     0.010 A 
ATOM     30  C   UNL A   1      43.267  25.002  27.026  1.00  0.00    -0.014 A 
BRANCH  30  31
ATOM     31  C   UNL A   1      43.077  26.302  27.627  1.00  0.00     0.031 A 
ATOM     32  C   UNL A   1      44.118  27.295  27.302  1.00  0.00     0.074 A 
ATOM     33  C   UNL A   1      42.008  26.572  28.398  1.00  0.00     0.049 A 
ATOM     34  N   UNL A   1      44.905  27.919  28.113  1.00  0.00    -0.248 NA
ATOM     35  C   UNL A   1      44.373  27.551  25.879  1.00  0.00     0.031 C 
ATOM     36  C   UNL A   1      40.789  25.776  28.568  1.00  0.00     0.029 A 
ATOM     37  N   UNL A   1      41.756  27.692  29.125  1.00  0.00    -0.354 N 
ATOM     38  C   UNL A   1      45.656  28.773  27.315  1.00  0.00     0.074 A 
ATOM     39  C   UNL A   1      45.380  28.418  25.946  1.00  0.00     0.031 C 
ATOM     40  C   UNL A   1      39.848  26.539  29.168  1.00  0.00     0.029 A 
ATOM     41  C   UNL A   1      40.438  27.818  29.527  1.00  0.00     0.049 A 
ATOM     42  H   UNL A   1      42.450  28.355  29.345  1.00  0.00     0.167 HD
ATOM     43  C   UNL A   1      46.280  29.860  27.833  1.00  0.00     0.037 A 
ATOM     44  C   UNL A   1      39.864  28.936  30.029  1.00  0.00     0.037 A 
ATOM     45  C   UNL A   1      46.516  29.726  29.246  1.00  0.00     0.049 A 
ATOM     46  C   UNL A   1      40.949  29.830  30.510  1.00  0.00     0.074 A 
ATOM     47  C   UNL A   1      47.226  28.830  30.023  1.00  0.00     0.029 A 
ATOM     48  N   UNL A   1      45.715  30.416  30.118  1.00  0.00    -0.354 N 
ATOM     49  N   UNL A   1      41.688  29.593  31.559  1.00  0.00    -0.248 NA
ATOM     50  C   UNL A   1      41.488  30.810  29.578  1.00  0.00     0.031 C 
ATOM     51  C   UNL A   1      46.480  28.708  31.232  1.00  0.00     0.029 A 
ATOM     52  C   UNL A   1      45.373  29.549  31.124  1.00  0.00     0.049 A 
ATOM     53  H   UNL A   1      45.439  31.358  30.039  1.00  0.00     0.167 HD
ATOM     54  C   UNL A   1      42.947  30.071  31.220  1.00  0.00     0.074 A 
ATOM     55  C   UNL A   1      42.737  30.903  30.043  1.00  0.00     0.031 C 
ATOM     56  C   UNL A   1      44.076  29.523  31.757  1.00  0.00     0.037 A 
BRANCH  43  57
ATOM     57  C   UNL A   1      46.362  31.174  27.106  1.00  0.00     0.064 A 
ATOM     58  C   UNL A   1      47.608  31.811  26.963  1.00  0.00     0.173 A 
ATOM     59  C   UNL A   1      45.230  31.964  26.802  1.00  0.00     0.173 A 
ATOM     60  F   UNL A   1      48.744  31.162  27.260  1.00  0.00    -0.203 F 
ATOM     61  C   UNL A   1      47.707  33.155  26.598  1.00  0.00     0.198 A 
ATOM     62  C   UNL A   1      45.336  33.287  26.382  1.00  0.00     0.198 A 
ATOM     63  F   UNL A   1      43.981  31.527  27.005  1.00  0.00    -0.203 F 
ATOM     64  F   UNL A   1      48.906  33.754  26.593  1.00  0.00    -0.200 F 
ATOM     65  C   UNL A   1      46.572  33.892  26.311  1.00  0.00     0.200 A 
ATOM     66  F   UNL A   1      44.223  33.988  26.128  1.00  0.00    -0.200 F 
ATOM     67  F   UNL A   1      46.662  35.195  26.017  1.00  0.00    -0.200 F 
ENDBRANCH  43  57
BRANCH  44  68
ATOM     68  C   UNL A   1      38.473  29.401  29.838  1.00  0.00     0.064 A 
ATOM     69  C   UNL A   1      37.671  29.757  30.932  1.00  0.00     0.173 A 
ATOM     70  C   UNL A   1      37.981  29.747  28.563  1.00  0.00     0.173 A 
ATOM     71  F   UNL A   1      38.088  29.510  32.183  1.00  0.00    -0.203 F 
ATOM     72  C   UNL A   1      36.458  30.432  30.763  1.00  0.00     0.198 A 
ATOM     73  C   UNL A   1      36.766  30.407  28.392  1.00  0.00     0.198 A 
ATOM     74  F   UNL A   1      38.715  29.536  27.459  1.00  0.00    -0.203 F 
ATOM     75  F   UNL A   1      35.749  30.812  31.835  1.00  0.00    -0.200 F 
ATOM     76  C   UNL A   1      36.010  30.762  29.493  1.00  0.00     0.200 A 
ATOM     77  F   UNL A   1      36.362  30.749  27.161  1.00  0.00    -0.200 F 
ATOM     78  F   UNL A   1      34.874  31.454  29.333  1.00  0.00    -0.200 F 
ENDBRANCH  44  68
BRANCH  56  79
ATOM     79  C   UNL A   1      43.911  28.599  32.928  1.00  0.00     0.064 A 
ATOM     80  C   UNL A   1      43.704  27.214  32.799  1.00  0.00     0.173 A 
ATOM     81  C   UNL A   1      44.109  29.106  34.219  1.00  0.00     0.173 A 
ATOM     82  F   UNL A   1      43.613  26.642  31.592  1.00  0.00    -0.203 F 
ATOM     83  C   UNL A   1      43.646  26.387  33.919  1.00  0.00     0.198 A 
ATOM     84  C   UNL A   1      44.089  28.271  35.333  1.00  0.00     0.198 A 
ATOM     85  F   UNL A   1      44.373  30.411  34.396  1.00  0.00    -0.203 F 
ATOM     86  F   UNL A   1      43.434  25.070  33.771  1.00  0.00    -0.200 F 
ATOM     87  C   UNL A   1      43.846  26.914  35.184  1.00  0.00     0.200 A 
ATOM     88  F   UNL A   1      44.333  28.777  36.550  1.00  0.00    -0.200 F 
ATOM     89  F   UNL A   1      43.832  26.113  36.258  1.00  0.00    -0.200 F 
ENDBRANCH  56  79
ENDBRANCH  30  31
ENDBRANCH  23  25
ENDBRANCH  22  23
ENDBRANCH  21  22
ENDBRANCH  20  21
ENDBRANCH  19  20
ENDBRANCH  18  19
ENDBRANCH   1  18
TORSDOF 19
ENDMDL
MODEL 2
REMARK VINA RESULT:     -10.2      2.132      3.205
REMARK SMILES CC(C)n1ccc(C#CC(=O)OCCOCCOCCOC(=O)c2ccc(-c3c4nc(c(-c5c(F)c(F)c(F)c(F)c5F)c5ccc([nH]5)c(-c5c(F)c(F)c(F)c(F)c5F)c5nc(c(-c6c(F)c(F)c(F)c(F)c6F)c6ccc3[nH]6)C=C5)C=C4)cc2)n1
REMARK SMILES IDX 16 1 15 2 14 3 13 4 12 5 10 6 11 7 9 8 8 9 7 10 4 11 5 12
REMARK SMILES IDX 87 13 6 14 2 15 1 16 3 17 17 18 18 19 19 20 20 21 21 22
REMARK SMILES IDX 22 23 23 24 24 25 25 26 86 27 26 28 85 29 27 30 28 31 29 32
REMARK SMILES IDX 79 33 30 34 84 35 78 36 80 37 31 38 83 39 77 40 76 41 32 43
REMARK SMILES IDX 64 44 44 45 63 46 45 47 48 48 62 49 81 50 46 51 47 52 61 54
REMARK SMILES IDX 82 55 49 56 33 57 34 58 42 59 35 60 36 61 40 62 43 63 37 64
REMARK SMILES IDX 38 65 41 66 39 67 65 68 66 69 74 70 67 71 68 72 72 73 75 74
REMARK SMILES IDX 69 75 70 76 73 77 71 78 50 79 51 80 59 81 52 82 53 83 57 84
REMARK SMILES IDX 60 85 54 86 55 87 58 88 56 89
REMARK H PARENT 80 42 48 53
REMARK Flexibility Score: inf
ROOT
ATOM      1  C   UNL A   1      44.628  18.620  25.305  1.00  0.00     0.188 C 
ENDROOT
BRANCH   1   2
ATOM      2  O   UNL A   1      43.279  18.170  25.298  1.00  0.00    -0.376 OA
BRANCH   2   3
ATOM      3  C   UNL A   1      42.397  18.582  26.339  1.00  0.00     0.202 C 
BRANCH   3   4
ATOM      4  C   UNL A   1      41.127  19.396  26.019  1.00  0.00     0.262 C 
BRANCH   4   5
ATOM      5  O   UNL A   1      41.377  20.775  25.713  1.00  0.00    -0.454 OA
BRANCH   5   6
ATOM      6  C   UNL A   1      40.667  21.693  26.412  1.00  0.00     0.384 C 
ATOM      7  O   UNL A   1      41.110  22.485  27.227  1.00  0.00    -0.236 OA
BRANCH   6   8
ATOM      8  C   UNL A   1      39.286  21.756  25.998  1.00  0.00     0.024 C 
ATOM      9  C   UNL A   1      38.145  21.719  25.633  1.00  0.00    -0.033 C 
BRANCH   9  10
ATOM     10  C   UNL A   1      36.807  21.638  25.146  1.00  0.00     0.135 A 
ATOM     11  N   UNL A   1      34.969  20.704  24.688  1.00  0.00    -0.269 N 
ATOM     12  C   UNL A   1      34.777  22.025  24.386  1.00  0.00     0.110 A 
ATOM     13  N   UNL A   1      36.212  20.446  25.146  1.00  0.00    -0.164 NA
ATOM     14  C   UNL A   1      35.963  22.662  24.681  1.00  0.00     0.059 A 
BRANCH  11  15
ATOM     15  C   UNL A   1      34.030  19.593  24.557  1.00  0.00     0.101 C 
ATOM     16  C   UNL A   1      34.707  18.224  24.476  1.00  0.00     0.033 C 
ATOM     17  C   UNL A   1      32.996  19.629  25.680  1.00  0.00     0.033 C 
ENDBRANCH  11  15
ENDBRANCH   9  10
ENDBRANCH   6   8
ENDBRANCH   5   6
ENDBRANCH   4   5
ENDBRANCH   3   4
ENDBRANCH   2   3
ENDBRANCH   1   2
BRANCH   1  18
ATOM     18  C   UNL A   1      45.207  19.358  24.074  1.00  0.00     0.188 C 
BRANCH  18  19
ATOM     19  O   UNL A   1      44.466  20.486  23.664  1.00  0.00    -0.376 OA
BRANCH  19  20
ATOM     20  C   UNL A   1      44.835  21.809  24.014  1.00  0.00     0.202 C 
BRANCH  20  21
ATOM     21  C   UNL A   1      44.289  22.564  25.228  1.00  0.00     0.261 C 
BRANCH  21  22
ATOM     22  O   UNL A   1      43.306  23.543  24.969  1.00  0.00    -0.460 OA
BRANCH  22  23
ATOM     23  C   UNL A   1      43.730  24.806  25.168  1.00  0.00     0.338 C 
ATOM     24  O   UNL A   1      44.744  25.320  24.725  1.00  0.00    -0.246 OA
BRANCH  23  25
ATOM     25  C   UNL A   1      42.816  25.471  26.099  1.00  0.00     0.060 A 
ATOM     26  C   UNL A   1      41.910  26.368  25.531  1.00  0.00     0.016 A 
ATOM     27  C   UNL A   1      43.095  25.457  27.474  1.00  0.00     0.016 A 
ATOM     28  C   UNL A   1      41.487  27.425  26.297  1.00  0.00     0.010 A 
ATOM     29  C   UNL A   1      42.677  26.520  28.238  1.00  0.00     0.010 A 
ATOM     30  C   UNL A   1      41.973  27.540  27.604  1.00  0.00    -0.014 A 
BRANCH  30  31
ATOM     31  C   UNL A   1      41.771  28.813  28.257  1.00  0.00     0.031 A 
ATOM     32  C   UNL A   1      42.841  29.803  28.033  1.00  0.00     0.074 A 
ATOM     33  C   UNL A   1      40.668  29.063  28.985  1.00  0.00     0.049 A 
ATOM     34  N   UNL A   1      43.595  30.374  28.911  1.00  0.00    -0.248 NA
ATOM     35  C   UNL A   1      43.172  30.121  26.638  1.00  0.00     0.031 C 
ATOM     36  C   UNL A   1      39.430  28.281  29.055  1.00  0.00     0.029 A 
ATOM     37  N   UNL A   1      40.395  30.153  29.751  1.00  0.00    -0.354 N 
ATOM     38  C   UNL A   1      44.397  31.252  28.193  1.00  0.00     0.074 A 
ATOM     39  C   UNL A   1      44.187  30.967  26.797  1.00  0.00     0.031 C 
ATOM     40  C   UNL A   1      38.471  29.030  29.643  1.00  0.00     0.029 A 
ATOM     41  C   UNL A   1      39.060  30.281  30.092  1.00  0.00     0.049 A 
ATOM     42  H   UNL A   1      41.086  30.793  30.038  1.00  0.00     0.167 HD
ATOM     43  C   UNL A   1      45.010  32.304  28.794  1.00  0.00     0.037 A 
ATOM     44  C   UNL A   1      38.478  31.384  30.617  1.00  0.00     0.037 A 
ATOM     45  C   UNL A   1      45.171  32.099  30.208  1.00  0.00     0.049 A 
ATOM     46  C   UNL A   1      39.549  32.235  31.195  1.00  0.00     0.074 A 
ATOM     47  C   UNL A   1      45.827  31.155  30.977  1.00  0.00     0.029 A 
ATOM     48  N   UNL A   1      44.337  32.761  31.072  1.00  0.00    -0.354 N 
ATOM     49  N   UNL A   1      40.230  31.937  32.267  1.00  0.00    -0.248 NA
ATOM     50  C   UNL A   1      40.149  33.250  30.339  1.00  0.00     0.031 C 
ATOM     51  C   UNL A   1      45.019  30.990  32.140  1.00  0.00     0.029 A 
ATOM     52  C   UNL A   1      43.931  31.853  32.016  1.00  0.00     0.049 A 
ATOM     53  H   UNL A   1      44.078  33.710  31.024  1.00  0.00     0.167 HD
ATOM     54  C   UNL A   1      41.511  32.410  32.015  1.00  0.00     0.074 A 
ATOM     55  C   UNL A   1      41.373  33.300  30.870  1.00  0.00     0.031 C 
ATOM     56  C   UNL A   1      42.603  31.819  32.581  1.00  0.00     0.037 A 
BRANCH  43  57
ATOM     57  C   UNL A   1      45.147  33.649  28.136  1.00  0.00     0.064 A 
ATOM     58  C   UNL A   1      46.426  34.206  27.958  1.00  0.00     0.173 A 
ATOM     59  C   UNL A   1      44.060  34.530  27.938  1.00  0.00     0.173 A 
ATOM     60  F   UNL A   1      47.527  33.464  28.155  1.00  0.00    -0.203 F 
ATOM     61  C   UNL A   1      46.602  35.559  27.662  1.00  0.00     0.198 A 
ATOM     62  C   UNL A   1      44.238  35.865  27.586  1.00  0.00     0.198 A 
ATOM     63  F   UNL A   1      42.795  34.169  28.187  1.00  0.00    -0.203 F 
ATOM     64  F   UNL A   1      47.838  36.074  27.622  1.00  0.00    -0.200 F 
ATOM     65  C   UNL A   1      45.509  36.387  27.478  1.00  0.00     0.200 A 
ATOM     66  F   UNL A   1      43.166  36.654  27.433  1.00  0.00    -0.200 F 
ATOM     67  F   UNL A   1      45.676  37.696  27.251  1.00  0.00    -0.200 F 
ENDBRANCH  43  57
BRANCH  44  68
ATOM     68  C   UNL A   1      37.104  31.880  30.379  1.00  0.00     0.064 A 
ATOM     69  C   UNL A   1      36.165  31.941  31.419  1.00  0.00     0.173 A 
ATOM     70  C   UNL A   1      36.759  32.542  29.183  1.00  0.00     0.173 A 
ATOM     71  F   UNL A   1      36.437  31.381  32.607  1.00  0.00    -0.203 F 
ATOM     72  C   UNL A   1      34.960  32.636  31.277  1.00  0.00     0.198 A 
ATOM     73  C   UNL A   1      35.551  33.222  29.037  1.00  0.00     0.198 A 
ATOM     74  F   UNL A   1      37.626  32.623  28.163  1.00  0.00    -0.203 F 
ATOM     75  F   UNL A   1      34.114  32.725  32.313  1.00  0.00    -0.200 F 
ATOM     76  C   UNL A   1      34.657  33.280  30.088  1.00  0.00     0.200 A 
ATOM     77  F   UNL A   1      35.287  33.869  27.893  1.00  0.00    -0.200 F 
ATOM     78  F   UNL A   1      33.526  33.989  29.970  1.00  0.00    -0.200 F 
ENDBRANCH  44  68
BRANCH  56  79
ATOM     79  C   UNL A   1      42.365  30.843  33.697  1.00  0.00     0.064 A 
ATOM     80  C   UNL A   1      42.342  31.209  35.055  1.00  0.00     0.173 A 
ATOM     81  C   UNL A   1      42.009  29.527  33.376  1.00  0.00     0.173 A 
ATOM     82  F   UNL A   1      42.565  32.475  35.430  1.00  0.00    -0.203 F 
ATOM     83  C   UNL A   1      42.028  30.281  36.046  1.00  0.00     0.198 A 
ATOM     84  C   UNL A   1      41.658  28.613  34.366  1.00  0.00     0.198 A 
ATOM     85  F   UNL A   1      41.953  29.139  32.091  1.00  0.00    -0.203 F 
ATOM     86  F   UNL A   1      42.026  30.651  37.335  1.00  0.00    -0.200 F 
ATOM     87  C   UNL A   1      41.680  28.986  35.700  1.00  0.00     0.200 A 
ATOM     88  F   UNL A   1      41.273  27.375  34.024  1.00  0.00    -0.200 F 
ATOM     89  F   UNL A   1      41.337  28.105  36.650  1.00  0.00    -0.200 F 
ENDBRANCH  56  79
ENDBRANCH  30  31
ENDBRANCH  23  25
ENDBRANCH  22  23
ENDBRANCH  21  22
ENDBRANCH  20  21
ENDBRANCH  19  20
ENDBRANCH  18  19
ENDBRANCH   1  18
TORSDOF 19
ENDMDL
MODEL 3
REMARK VINA RESULT:     -10.1      5.451     11.936
REMARK SMILES CC(C)n1ccc(C#CC(=O)OCCOCCOCCOC(=O)c2ccc(-c3c4nc(c(-c5c(F)c(F)c(F)c(F)c5F)c5ccc([nH]5)c(-c5c(F)c(F)c(F)c(F)c5F)c5nc(c(-c6c(F)c(F)c(F)c(F)c6F)c6ccc3[nH]6)C=C5)C=C4)cc2)n1
REMARK SMILES IDX 16 1 15 2 14 3 13 4 12 5 10 6 11 7 9 8 8 9 7 10 4 11 5 12
REMARK SMILES IDX 87 13 6 14 2 15 1 16 3 17 17 18 18 19 19 20 20 21 21 22
REMARK SMILES IDX 22 23 23 24 24 25 25 26 86 27 26 28 85 29 27 30 28 31 29 32
REMARK SMILES IDX 79 33 30 34 84 35 78 36 80 37 31 38 83 39 77 40 76 41 32 43
REMARK SMILES IDX 64 44 44 45 63 46 45 47 48 48 62 49 81 50 46 51 47 52 61 54
REMARK SMILES IDX 82 55 49 56 33 57 34 58 42 59 35 60 36 61 40 62 43 63 37 64
REMARK SMILES IDX 38 65 41 66 39 67 65 68 66 69 74 70 67 71 68 72 72 73 75 74
REMARK SMILES IDX 69 75 70 76 73 77 71 78 50 79 51 80 59 81 52 82 53 83 57 84
REMARK SMILES IDX 60 85 54 86 55 87 58 88 56 89
REMARK H PARENT 80 42 48 53
REMARK Flexibility Score: inf
ROOT
ATOM      1  C   UNL A   1      34.058  36.388  32.362  1.00  0.00     0.188 C 
ENDROOT
BRANCH   1   2
ATOM      2  O   UNL A   1      35.148  35.793  33.057  1.00  0.00    -0.376 OA
BRANCH   2   3
ATOM      3  C   UNL A   1      35.727  34.592  32.553  1.00  0.00     0.202 C 
BRANCH   3   4
ATOM      4  C   UNL A   1      35.504  33.248  33.275  1.00  0.00     0.262 C 
BRANCH   4   5
ATOM      5  O   UNL A   1      36.565  32.301  33.091  1.00  0.00    -0.454 OA
BRANCH   5   6
ATOM      6  C   UNL A   1      37.534  32.280  34.038  1.00  0.00     0.384 C 
ATOM      7  O   UNL A   1      37.515  31.647  35.081  1.00  0.00    -0.236 OA
BRANCH   6   8
ATOM      8  C   UNL A   1      38.716  33.002  33.635  1.00  0.00     0.024 C 
ATOM      9  C   UNL A   1      39.688  33.566  33.217  1.00  0.00    -0.033 C 
BRANCH   9  10
ATOM     10  C   UNL A   1      40.862  34.180  32.689  1.00  0.00     0.135 A 
ATOM     11  N   UNL A   1      42.685  35.244  32.754  1.00  0.00    -0.269 N 
ATOM     12  C   UNL A   1      42.538  34.879  31.443  1.00  0.00     0.110 A 
ATOM     13  N   UNL A   1      41.661  34.833  33.531  1.00  0.00    -0.164 NA
ATOM     14  C   UNL A   1      41.356  34.175  31.372  1.00  0.00     0.059 A 
BRANCH  11  15
ATOM     15  C   UNL A   1      43.763  36.010  33.372  1.00  0.00     0.101 C 
ATOM     16  C   UNL A   1      45.152  35.656  32.838  1.00  0.00     0.033 C 
ATOM     17  C   UNL A   1      43.495  37.509  33.252  1.00  0.00     0.033 C 
ENDBRANCH  11  15
ENDBRANCH   9  10
ENDBRANCH   6   8
ENDBRANCH   5   6
ENDBRANCH   4   5
ENDBRANCH   3   4
ENDBRANCH   2   3
ENDBRANCH   1   2
BRANCH   1  18
ATOM     18  C   UNL A   1      32.781  35.564  32.069  1.00  0.00     0.188 C 
BRANCH  18  19
ATOM     19  O   UNL A   1      32.570  35.274  30.704  1.00  0.00    -0.376 OA
BRANCH  19  20
ATOM     20  C   UNL A   1      33.480  35.667  29.691  1.00  0.00     0.202 C 
BRANCH  20  21
ATOM     21  C   UNL A   1      33.986  34.744  28.581  1.00  0.00     0.261 C 
BRANCH  21  22
ATOM     22  O   UNL A   1      35.319  34.294  28.698  1.00  0.00    -0.460 OA
BRANCH  22  23
ATOM     23  C   UNL A   1      35.483  32.993  28.392  1.00  0.00     0.338 C 
ATOM     24  O   UNL A   1      34.929  32.371  27.500  1.00  0.00    -0.246 OA
BRANCH  23  25
ATOM     25  C   UNL A   1      36.384  32.386  29.373  1.00  0.00     0.060 A 
ATOM     26  C   UNL A   1      37.609  33.028  29.558  1.00  0.00     0.016 A 
ATOM     27  C   UNL A   1      36.153  31.071  29.806  1.00  0.00     0.016 A 
ATOM     28  C   UNL A   1      38.685  32.262  29.935  1.00  0.00     0.010 A 
ATOM     29  C   UNL A   1      37.233  30.304  30.175  1.00  0.00     0.010 A 
ATOM     30  C   UNL A   1      38.495  30.889  30.124  1.00  0.00    -0.014 A 
BRANCH  30  31
ATOM     31  C   UNL A   1      39.688  30.078  30.197  1.00  0.00     0.031 A 
ATOM     32  C   UNL A   1      40.294  29.983  31.538  1.00  0.00     0.074 A 
ATOM     33  C   UNL A   1      40.175  29.444  29.115  1.00  0.00     0.049 A 
ATOM     34  N   UNL A   1      41.478  30.343  31.905  1.00  0.00    -0.248 NA
ATOM     35  C   UNL A   1      39.428  29.512  32.627  1.00  0.00     0.031 C 
ATOM     36  C   UNL A   1      39.528  29.238  27.816  1.00  0.00     0.029 A 
ATOM     37  N   UNL A   1      41.341  28.756  28.998  1.00  0.00    -0.354 N 
ATOM     38  C   UNL A   1      41.569  29.995  33.248  1.00  0.00     0.074 A 
ATOM     39  C   UNL A   1      40.248  29.608  33.672  1.00  0.00     0.031 C 
ATOM     40  C   UNL A   1      40.214  28.298  27.129  1.00  0.00     0.029 A 
ATOM     41  C   UNL A   1      41.401  27.935  27.885  1.00  0.00     0.049 A 
ATOM     42  H   UNL A   1      42.077  28.834  29.647  1.00  0.00     0.167 HD
ATOM     43  C   UNL A   1      42.770  29.837  33.858  1.00  0.00     0.037 A 
ATOM     44  C   UNL A   1      42.316  26.963  27.664  1.00  0.00     0.037 A 
ATOM     45  C   UNL A   1      43.820  30.545  33.176  1.00  0.00     0.049 A 
ATOM     46  C   UNL A   1      43.485  27.227  28.542  1.00  0.00     0.074 A 
ATOM     47  C   UNL A   1      44.044  31.874  32.869  1.00  0.00     0.029 A 
ATOM     48  N   UNL A   1      44.704  29.835  32.405  1.00  0.00    -0.354 N 
ATOM     49  N   UNL A   1      44.319  28.216  28.380  1.00  0.00    -0.248 NA
ATOM     50  C   UNL A   1      43.499  26.611  29.862  1.00  0.00     0.031 C 
ATOM     51  C   UNL A   1      44.708  31.861  31.607  1.00  0.00     0.029 A 
ATOM     52  C   UNL A   1      44.862  30.527  31.232  1.00  0.00     0.049 A 
ATOM     53  H   UNL A   1      45.143  28.988  32.648  1.00  0.00     0.167 HD
ATOM     54  C   UNL A   1      44.657  28.609  29.668  1.00  0.00     0.074 A 
ATOM     55  C   UNL A   1      44.212  27.521  30.530  1.00  0.00     0.031 C 
ATOM     56  C   UNL A   1      45.011  29.898  29.941  1.00  0.00     0.037 A 
BRANCH  43  57
ATOM     57  C   UNL A   1      43.029  28.762  34.877  1.00  0.00     0.064 A 
ATOM     58  C   UNL A   1      43.571  29.108  36.128  1.00  0.00     0.173 A 
ATOM     59  C   UNL A   1      43.035  27.383  34.564  1.00  0.00     0.173 A 
ATOM     60  F   UNL A   1      43.645  30.392  36.507  1.00  0.00    -0.203 F 
ATOM     61  C   UNL A   1      44.129  28.149  36.975  1.00  0.00     0.198 A 
ATOM     62  C   UNL A   1      43.540  26.424  35.438  1.00  0.00     0.198 A 
ATOM     63  F   UNL A   1      42.661  26.923  33.365  1.00  0.00    -0.203 F 
ATOM     64  F   UNL A   1      44.743  28.537  38.101  1.00  0.00    -0.200 F 
ATOM     65  C   UNL A   1      44.116  26.810  36.629  1.00  0.00     0.200 A 
ATOM     66  F   UNL A   1      43.536  25.135  35.074  1.00  0.00    -0.200 F 
ATOM     67  F   UNL A   1      44.702  25.897  37.414  1.00  0.00    -0.200 F 
ENDBRANCH  43  57
BRANCH  44  68
ATOM     68  C   UNL A   1      42.111  25.670  26.974  1.00  0.00     0.064 A 
ATOM     69  C   UNL A   1      42.926  25.284  25.900  1.00  0.00     0.173 A 
ATOM     70  C   UNL A   1      41.275  24.672  27.516  1.00  0.00     0.173 A 
ATOM     71  F   UNL A   1      43.787  26.158  25.359  1.00  0.00    -0.203 F 
ATOM     72  C   UNL A   1      42.916  23.976  25.406  1.00  0.00     0.198 A 
ATOM     73  C   UNL A   1      41.255  23.372  27.015  1.00  0.00     0.198 A 
ATOM     74  F   UNL A   1      40.528  24.912  28.604  1.00  0.00    -0.203 F 
ATOM     75  F   UNL A   1      43.753  23.628  24.419  1.00  0.00    -0.200 F 
ATOM     76  C   UNL A   1      42.085  23.019  25.969  1.00  0.00     0.200 A 
ATOM     77  F   UNL A   1      40.471  22.450  27.591  1.00  0.00    -0.200 F 
ATOM     78  F   UNL A   1      42.114  21.753  25.530  1.00  0.00    -0.200 F 
ENDBRANCH  44  68
BRANCH  56  79
ATOM     79  C   UNL A   1      45.304  30.800  28.777  1.00  0.00     0.064 A 
ATOM     80  C   UNL A   1      44.313  31.516  28.083  1.00  0.00     0.173 A 
ATOM     81  C   UNL A   1      46.641  31.057  28.444  1.00  0.00     0.173 A 
ATOM     82  F   UNL A   1      43.021  31.404  28.418  1.00  0.00    -0.203 F 
ATOM     83  C   UNL A   1      44.647  32.409  27.067  1.00  0.00     0.198 A 
ATOM     84  C   UNL A   1      46.973  31.978  27.454  1.00  0.00     0.198 A 
ATOM     85  F   UNL A   1      47.631  30.448  29.117  1.00  0.00    -0.203 F 
ATOM     86  F   UNL A   1      43.683  33.071  26.410  1.00  0.00    -0.200 F 
ATOM     87  C   UNL A   1      45.977  32.644  26.758  1.00  0.00     0.200 A 
ATOM     88  F   UNL A   1      48.262  32.240  27.193  1.00  0.00    -0.200 F 
ATOM     89  F   UNL A   1      46.300  33.534  25.809  1.00  0.00    -0.200 F 
ENDBRANCH  56  79
ENDBRANCH  30  31
ENDBRANCH  23  25
ENDBRANCH  22  23
ENDBRANCH  21  22
ENDBRANCH  20  21
ENDBRANCH  19  20
ENDBRANCH  18  19
ENDBRANCH   1  18
TORSDOF 19
ENDMDL
