MODEL 1
REMARK VINA RESULT:     -10.3      0.000      0.000
REMARK SMILES C[C@]12C(=O)N(c3ccc(C(=O)OCCOCCOCCOC(=O)c4ccc(-c5c6nc(c(-c7c(F)c(F)c(F)c(F)c7F)c7ccc([nH]7)c(-c7c(F)c(F)c(F)c(F)c7F)c7nc(c(-c8c(F)c(F)c(F)c(F)c8F)c8ccc5[nH]8)C=C7)C=C6)cc4)cc3)C(=O)[C@H]1[C@H]1c3ccccc3[C@@H]2c2ccccc21
REMARK SMILES IDX 17 1 16 2 15 3 14 4 13 5 12 6 10 7 11 8 9 9 6 10 7 11 88 12
REMARK SMILES IDX 8 13 87 14 5 15 1 16 2 17 3 18 91 19 99 20 4 21 89 22 92 23
REMARK SMILES IDX 98 24 100 25 90 26 93 27 105 28 97 29 101 30 94 31 104 32
REMARK SMILES IDX 96 33 102 34 95 35 103 36 18 37 19 38 20 39 21 40 22 41
REMARK SMILES IDX 23 42 24 43 25 44 86 45 26 46 85 47 27 48 28 49 29 50 79 51
REMARK SMILES IDX 30 52 84 53 78 54 80 55 31 56 83 57 77 58 76 59 32 61 64 62
REMARK SMILES IDX 44 63 63 64 45 65 48 66 62 67 81 68 46 69 47 70 61 72 82 73
REMARK SMILES IDX 49 74 33 75 34 76 42 77 35 78 36 79 40 80 43 81 37 82 38 83
REMARK SMILES IDX 41 84 39 85 65 86 66 87 74 88 67 89 68 90 72 91 75 92 69 93
REMARK SMILES IDX 70 94 73 95 71 96 50 97 51 98 59 99 52 100 53 101 57 102
REMARK SMILES IDX 60 103 54 104 55 105 58 106 56 107
REMARK H PARENT 80 60 48 71
REMARK Flexibility Score: inf
ROOT
ATOM      1  C   UNL A   1      45.114  20.164  24.776  1.00  0.00     0.188 C 
ENDROOT
BRANCH   1   2
ATOM      2  C   UNL A   1      43.731  20.208  25.461  1.00  0.00     0.188 C 
BRANCH   2   3
ATOM      3  O   UNL A   1      42.937  21.384  25.363  1.00  0.00    -0.376 OA
BRANCH   3   4
ATOM      4  C   UNL A   1      42.720  22.174  26.530  1.00  0.00     0.202 C 
BRANCH   4   5
ATOM      5  C   UNL A   1      42.388  23.666  26.373  1.00  0.00     0.261 C 
BRANCH   5   6
ATOM      6  O   UNL A   1      41.887  24.290  27.572  1.00  0.00    -0.460 OA
BRANCH   6   7
ATOM      7  C   UNL A   1      40.553  24.530  27.591  1.00  0.00     0.338 C 
ATOM      8  O   UNL A   1      39.666  23.787  27.203  1.00  0.00    -0.246 OA
BRANCH   7   9
ATOM      9  C   UNL A   1      40.259  25.743  28.385  1.00  0.00     0.060 A 
ATOM     10  C   UNL A   1      39.927  28.028  30.019  1.00  0.00     0.052 A 
ATOM     11  C   UNL A   1      41.081  27.849  29.232  1.00  0.00     0.028 A 
ATOM     12  C   UNL A   1      38.903  27.078  29.890  1.00  0.00     0.028 A 
ATOM     13  C   UNL A   1      41.268  26.701  28.465  1.00  0.00     0.018 A 
ATOM     14  C   UNL A   1      39.052  25.954  29.051  1.00  0.00     0.018 A 
BRANCH  10  15
ATOM     15  N   UNL A   1      39.938  29.038  31.029  1.00  0.00    -0.250 N 
ATOM     16  C   UNL A   1      39.228  30.432  34.196  1.00  0.00     0.024 C 
ATOM     17  C   UNL A   1      38.879  30.306  32.699  1.00  0.00     0.071 C 
ATOM     18  C   UNL A   1      39.224  28.928  32.199  1.00  0.00     0.241 C 
ATOM     19  C   UNL A   1      39.746  31.260  31.823  1.00  0.00     0.107 C 
ATOM     20  C   UNL A   1      37.352  30.513  32.366  1.00  0.00     0.066 C 
ATOM     21  O   UNL A   1      38.858  27.904  32.766  1.00  0.00    -0.273 OA
ATOM     22  C   UNL A   1      40.469  30.305  30.877  1.00  0.00     0.238 C 
ATOM     23  C   UNL A   1      38.822  32.273  31.062  1.00  0.00     0.063 C 
ATOM     24  C   UNL A   1      37.170  30.461  30.836  1.00  0.00    -0.036 A 
ATOM     25  C   UNL A   1      37.050  31.948  32.764  1.00  0.00    -0.036 A 
ATOM     26  O   UNL A   1      41.340  30.681  30.104  1.00  0.00    -0.274 OA
ATOM     27  C   UNL A   1      37.958  31.416  30.138  1.00  0.00    -0.036 A 
ATOM     28  C   UNL A   1      37.856  32.900  32.085  1.00  0.00    -0.036 A 
ATOM     29  C   UNL A   1      36.393  29.553  30.132  1.00  0.00     0.005 A 
ATOM     30  C   UNL A   1      36.052  32.328  33.652  1.00  0.00     0.005 A 
ATOM     31  C   UNL A   1      37.986  31.452  28.751  1.00  0.00     0.004 A 
ATOM     32  C   UNL A   1      37.631  34.253  32.297  1.00  0.00     0.004 A 
ATOM     33  C   UNL A   1      36.435  29.579  28.734  1.00  0.00     0.000 A 
ATOM     34  C   UNL A   1      35.843  33.686  33.866  1.00  0.00     0.000 A 
ATOM     35  C   UNL A   1      37.226  30.517  28.050  1.00  0.00     0.000 A 
ATOM     36  C   UNL A   1      36.624  34.639  33.192  1.00  0.00     0.000 A 
ENDBRANCH  10  15
ENDBRANCH   7   9
ENDBRANCH   6   7
ENDBRANCH   5   6
ENDBRANCH   4   5
ENDBRANCH   3   4
ENDBRANCH   2   3
ENDBRANCH   1   2
BRANCH   1  37
ATOM     37  O   UNL A   1      46.040  21.091  25.282  1.00  0.00    -0.376 OA
BRANCH  37  38
ATOM     38  C   UNL A   1      46.252  22.324  24.626  1.00  0.00     0.202 C 
BRANCH  38  39
ATOM     39  C   UNL A   1      46.355  23.696  25.324  1.00  0.00     0.261 C 
BRANCH  39  40
ATOM     40  O   UNL A   1      46.005  24.867  24.586  1.00  0.00    -0.460 OA
BRANCH  40  41
ATOM     41  C   UNL A   1      46.836  25.932  24.695  1.00  0.00     0.338 C 
ATOM     42  O   UNL A   1      47.790  26.205  23.987  1.00  0.00    -0.246 OA
BRANCH  41  43
ATOM     43  C   UNL A   1      46.281  26.816  25.737  1.00  0.00     0.060 A 
ATOM     44  C   UNL A   1      44.907  27.061  25.779  1.00  0.00     0.016 A 
ATOM     45  C   UNL A   1      47.143  27.431  26.655  1.00  0.00     0.016 A 
ATOM     46  C   UNL A   1      44.392  27.917  26.754  1.00  0.00     0.010 A 
ATOM     47  C   UNL A   1      46.626  28.298  27.623  1.00  0.00     0.010 A 
ATOM     48  C   UNL A   1      45.244  28.533  27.689  1.00  0.00    -0.014 A 
BRANCH  48  49
ATOM     49  C   UNL A   1      44.656  29.285  28.824  1.00  0.00     0.031 A 
ATOM     50  C   UNL A   1      44.359  28.638  30.142  1.00  0.00     0.074 A 
ATOM     51  C   UNL A   1      44.412  30.597  28.647  1.00  0.00     0.049 A 
ATOM     52  N   UNL A   1      43.949  29.195  31.254  1.00  0.00    -0.248 NA
ATOM     53  C   UNL A   1      44.540  27.183  30.226  1.00  0.00     0.031 C 
ATOM     54  C   UNL A   1      44.639  31.327  27.399  1.00  0.00     0.029 A 
ATOM     55  N   UNL A   1      43.940  31.551  29.513  1.00  0.00    -0.354 N 
ATOM     56  C   UNL A   1      43.851  28.168  32.182  1.00  0.00     0.074 A 
ATOM     57  C   UNL A   1      44.192  26.943  31.486  1.00  0.00     0.031 C 
ATOM     58  C   UNL A   1      44.340  32.620  27.588  1.00  0.00     0.029 A 
ATOM     59  C   UNL A   1      43.879  32.806  28.961  1.00  0.00     0.049 A 
ATOM     60  H   UNL A   1      43.672  31.354  30.439  1.00  0.00     0.167 HD
ATOM     61  C   UNL A   1      43.528  28.250  33.496  1.00  0.00     0.037 A 
ATOM     62  C   UNL A   1      43.502  33.981  29.502  1.00  0.00     0.037 A 
ATOM     63  C   UNL A   1      43.172  29.471  34.177  1.00  0.00     0.049 A 
ATOM     64  C   UNL A   1      43.093  34.030  30.947  1.00  0.00     0.074 A 
ATOM     65  C   UNL A   1      42.859  29.652  35.514  1.00  0.00     0.029 A 
ATOM     66  N   UNL A   1      43.069  30.718  33.575  1.00  0.00    -0.354 N 
ATOM     67  N   UNL A   1      43.078  33.066  31.834  1.00  0.00    -0.248 NA
ATOM     68  C   UNL A   1      42.656  35.333  31.468  1.00  0.00     0.031 C 
ATOM     69  C   UNL A   1      42.513  30.993  35.708  1.00  0.00     0.029 A 
ATOM     70  C   UNL A   1      42.667  31.664  34.507  1.00  0.00     0.049 A 
ATOM     71  H   UNL A   1      43.254  30.903  32.626  1.00  0.00     0.167 HD
ATOM     72  C   UNL A   1      42.653  33.647  33.021  1.00  0.00     0.074 A 
ATOM     73  C   UNL A   1      42.441  35.052  32.746  1.00  0.00     0.031 C 
ATOM     74  C   UNL A   1      42.457  33.063  34.228  1.00  0.00     0.037 A 
BRANCH  61  75
ATOM     75  C   UNL A   1      43.559  26.988  34.310  1.00  0.00     0.064 A 
ATOM     76  C   UNL A   1      42.380  26.294  34.621  1.00  0.00     0.173 A 
ATOM     77  C   UNL A   1      44.780  26.406  34.688  1.00  0.00     0.173 A 
ATOM     78  F   UNL A   1      41.187  26.806  34.280  1.00  0.00    -0.203 F 
ATOM     79  C   UNL A   1      42.420  25.072  35.287  1.00  0.00     0.198 A 
ATOM     80  C   UNL A   1      44.817  25.171  35.330  1.00  0.00     0.198 A 
ATOM     81  F   UNL A   1      45.938  27.019  34.403  1.00  0.00    -0.203 F 
ATOM     82  F   UNL A   1      41.278  24.438  35.590  1.00  0.00    -0.200 F 
ATOM     83  C   UNL A   1      43.638  24.507  35.632  1.00  0.00     0.200 A 
ATOM     84  F   UNL A   1      45.997  24.616  35.644  1.00  0.00    -0.200 F 
ATOM     85  F   UNL A   1      43.675  23.319  36.251  1.00  0.00    -0.200 F 
ENDBRANCH  61  75
BRANCH  62  86
ATOM     86  C   UNL A   1      43.540  35.213  28.673  1.00  0.00     0.064 A 
ATOM     87  C   UNL A   1      42.362  35.767  28.157  1.00  0.00     0.173 A 
ATOM     88  C   UNL A   1      44.747  35.874  28.401  1.00  0.00     0.173 A 
ATOM     89  F   UNL A   1      41.185  35.160  28.374  1.00  0.00    -0.203 F 
ATOM     90  C   UNL A   1      42.389  36.929  27.389  1.00  0.00     0.198 A 
ATOM     91  C   UNL A   1      44.771  37.051  27.660  1.00  0.00     0.198 A 
ATOM     92  F   UNL A   1      45.902  35.385  28.879  1.00  0.00    -0.203 F 
ATOM     93  F   UNL A   1      41.253  37.417  26.876  1.00  0.00    -0.200 F 
ATOM     94  C   UNL A   1      43.593  37.574  27.149  1.00  0.00     0.200 A 
ATOM     95  F   UNL A   1      45.933  37.681  27.445  1.00  0.00    -0.200 F 
ATOM     96  F   UNL A   1      43.618  38.699  26.420  1.00  0.00    -0.200 F 
ENDBRANCH  62  86
BRANCH  74  97
ATOM     97  C   UNL A   1      41.998  33.940  35.359  1.00  0.00     0.064 A 
ATOM     98  C   UNL A   1      42.912  34.613  36.183  1.00  0.00     0.173 A 
ATOM     99  C   UNL A   1      40.629  34.162  35.580  1.00  0.00     0.173 A 
ATOM    100  F   UNL A   1      44.231  34.423  36.024  1.00  0.00    -0.203 F 
ATOM    101  C   UNL A   1      42.474  35.463  37.195  1.00  0.00     0.198 A 
ATOM    102  C   UNL A   1      40.196  35.037  36.571  1.00  0.00     0.198 A 
ATOM    103  F   UNL A   1      39.713  33.548  34.817  1.00  0.00    -0.203 F 
ATOM    104  F   UNL A   1      43.365  36.066  37.994  1.00  0.00    -0.200 F 
ATOM    105  C   UNL A   1      41.117  35.684  37.381  1.00  0.00     0.200 A 
ATOM    106  F   UNL A   1      38.885  35.261  36.740  1.00  0.00    -0.200 F 
ATOM    107  F   UNL A   1      40.698  36.516  38.344  1.00  0.00    -0.200 F 
ENDBRANCH  74  97
ENDBRANCH  48  49
ENDBRANCH  41  43
ENDBRANCH  40  41
ENDBRANCH  39  40
ENDBRANCH  38  39
ENDBRANCH  37  38
ENDBRANCH   1  37
TORSDOF 18
ENDMDL
MODEL 2
REMARK VINA RESULT:     -10.1      4.876      8.786
REMARK SMILES C[C@]12C(=O)N(c3ccc(C(=O)OCCOCCOCCOC(=O)c4ccc(-c5c6nc(c(-c7c(F)c(F)c(F)c(F)c7F)c7ccc([nH]7)c(-c7c(F)c(F)c(F)c(F)c7F)c7nc(c(-c8c(F)c(F)c(F)c(F)c8F)c8ccc5[nH]8)C=C7)C=C6)cc4)cc3)C(=O)[C@H]1[C@H]1c3ccccc3[C@@H]2c2ccccc21
REMARK SMILES IDX 17 1 16 2 15 3 14 4 13 5 12 6 10 7 11 8 9 9 6 10 7 11 88 12
REMARK SMILES IDX 8 13 87 14 5 15 1 16 2 17 3 18 91 19 99 20 4 21 89 22 92 23
REMARK SMILES IDX 98 24 100 25 90 26 93 27 105 28 97 29 101 30 94 31 104 32
REMARK SMILES IDX 96 33 102 34 95 35 103 36 18 37 19 38 20 39 21 40 22 41
REMARK SMILES IDX 23 42 24 43 25 44 86 45 26 46 85 47 27 48 28 49 29 50 79 51
REMARK SMILES IDX 30 52 84 53 78 54 80 55 31 56 83 57 77 58 76 59 32 61 64 62
REMARK SMILES IDX 44 63 63 64 45 65 48 66 62 67 81 68 46 69 47 70 61 72 82 73
REMARK SMILES IDX 49 74 33 75 34 76 42 77 35 78 36 79 40 80 43 81 37 82 38 83
REMARK SMILES IDX 41 84 39 85 65 86 66 87 74 88 67 89 68 90 72 91 75 92 69 93
REMARK SMILES IDX 70 94 73 95 71 96 50 97 51 98 59 99 52 100 53 101 57 102
REMARK SMILES IDX 60 103 54 104 55 105 58 106 56 107
REMARK H PARENT 80 60 48 71
REMARK Flexibility Score: inf
ROOT
ATOM      1  C   UNL A   1      41.708  20.514  26.398  1.00  0.00     0.188 C 
ENDROOT
BRANCH   1   2
ATOM      2  C   UNL A   1      40.274  21.044  26.613  1.00  0.00     0.188 C 
BRANCH   2   3
ATOM      3  O   UNL A   1      39.382  21.122  25.508  1.00  0.00    -0.376 OA
BRANCH   3   4
ATOM      4  C   UNL A   1      37.977  21.130  25.750  1.00  0.00     0.202 C 
BRANCH   4   5
ATOM      5  C   UNL A   1      37.012  21.179  24.556  1.00  0.00     0.261 C 
BRANCH   5   6
ATOM      6  O   UNL A   1      36.842  22.492  23.986  1.00  0.00    -0.460 OA
BRANCH   6   7
ATOM      7  C   UNL A   1      36.690  23.501  24.878  1.00  0.00     0.338 C 
ATOM      8  O   UNL A   1      37.575  24.147  25.416  1.00  0.00    -0.246 OA
BRANCH   7   9
ATOM      9  C   UNL A   1      35.272  23.912  24.955  1.00  0.00     0.060 A 
ATOM     10  C   UNL A   1      32.628  24.918  24.986  1.00  0.00     0.052 A 
ATOM     11  C   UNL A   1      33.383  24.873  23.797  1.00  0.00     0.028 A 
ATOM     12  C   UNL A   1      33.200  24.356  26.137  1.00  0.00     0.028 A 
ATOM     13  C   UNL A   1      34.702  24.424  23.790  1.00  0.00     0.018 A 
ATOM     14  C   UNL A   1      34.505  23.824  26.117  1.00  0.00     0.018 A 
BRANCH  10  15
ATOM     15  N   UNL A   1      31.426  25.689  25.003  1.00  0.00    -0.250 N 
ATOM     16  C   UNL A   1      28.235  26.703  23.876  1.00  0.00     0.024 C 
ATOM     17  C   UNL A   1      29.757  26.945  23.927  1.00  0.00     0.071 C 
ATOM     18  C   UNL A   1      30.490  25.631  23.997  1.00  0.00     0.241 C 
ATOM     19  C   UNL A   1      30.180  27.689  25.230  1.00  0.00     0.107 C 
ATOM     20  C   UNL A   1      30.340  27.695  22.669  1.00  0.00     0.066 C 
ATOM     21  O   UNL A   1      30.274  24.707  23.220  1.00  0.00    -0.273 OA
ATOM     22  C   UNL A   1      31.155  26.718  25.887  1.00  0.00     0.238 C 
ATOM     23  C   UNL A   1      30.850  29.060  24.867  1.00  0.00     0.063 C 
ATOM     24  C   UNL A   1      31.842  27.956  22.902  1.00  0.00    -0.036 A 
ATOM     25  C   UNL A   1      29.681  29.064  22.681  1.00  0.00    -0.036 A 
ATOM     26  O   UNL A   1      31.618  26.907  27.004  1.00  0.00    -0.274 OA
ATOM     27  C   UNL A   1      32.111  28.699  24.084  1.00  0.00    -0.036 A 
ATOM     28  C   UNL A   1      29.930  29.795  23.874  1.00  0.00    -0.036 A 
ATOM     29  C   UNL A   1      32.888  27.482  22.125  1.00  0.00     0.005 A 
ATOM     30  C   UNL A   1      28.955  29.601  21.626  1.00  0.00     0.005 A 
ATOM     31  C   UNL A   1      33.412  28.949  24.497  1.00  0.00     0.004 A 
ATOM     32  C   UNL A   1      29.450  31.092  23.986  1.00  0.00     0.004 A 
ATOM     33  C   UNL A   1      34.199  27.721  22.551  1.00  0.00     0.000 A 
ATOM     34  C   UNL A   1      28.469  30.898  21.754  1.00  0.00     0.000 A 
ATOM     35  C   UNL A   1      34.458  28.444  23.727  1.00  0.00     0.000 A 
ATOM     36  C   UNL A   1      28.718  31.637  22.922  1.00  0.00     0.000 A 
ENDBRANCH  10  15
ENDBRANCH   7   9
ENDBRANCH   6   7
ENDBRANCH   5   6
ENDBRANCH   4   5
ENDBRANCH   3   4
ENDBRANCH   2   3
ENDBRANCH   1   2
BRANCH   1  37
ATOM     37  O   UNL A   1      42.452  21.230  25.445  1.00  0.00    -0.376 OA
BRANCH  37  38
ATOM     38  C   UNL A   1      43.806  20.907  25.202  1.00  0.00     0.202 C 
BRANCH  38  39
ATOM     39  C   UNL A   1      45.013  21.769  25.621  1.00  0.00     0.261 C 
BRANCH  39  40
ATOM     40  O   UNL A   1      44.774  22.979  26.340  1.00  0.00    -0.460 OA
BRANCH  40  41
ATOM     41  C   UNL A   1      44.304  24.033  25.628  1.00  0.00     0.338 C 
ATOM     42  O   UNL A   1      44.254  24.148  24.416  1.00  0.00    -0.246 OA
BRANCH  41  43
ATOM     43  C   UNL A   1      43.692  24.972  26.588  1.00  0.00     0.060 A 
ATOM     44  C   UNL A   1      42.736  24.512  27.495  1.00  0.00     0.016 A 
ATOM     45  C   UNL A   1      44.053  26.325  26.558  1.00  0.00     0.016 A 
ATOM     46  C   UNL A   1      42.145  25.411  28.384  1.00  0.00     0.010 A 
ATOM     47  C   UNL A   1      43.452  27.226  27.442  1.00  0.00     0.010 A 
ATOM     48  C   UNL A   1      42.505  26.771  28.373  1.00  0.00    -0.014 A 
BRANCH  48  49
ATOM     49  C   UNL A   1      42.006  27.665  29.446  1.00  0.00     0.031 A 
ATOM     50  C   UNL A   1      40.768  28.493  29.282  1.00  0.00     0.074 A 
ATOM     51  C   UNL A   1      42.690  27.697  30.605  1.00  0.00     0.049 A 
ATOM     52  N   UNL A   1      40.154  29.234  30.172  1.00  0.00    -0.248 NA
ATOM     53  C   UNL A   1      40.139  28.498  27.955  1.00  0.00     0.031 C 
ATOM     54  C   UNL A   1      43.921  26.951  30.867  1.00  0.00     0.029 A 
ATOM     55  N   UNL A   1      42.444  28.363  31.778  1.00  0.00    -0.354 N 
ATOM     56  C   UNL A   1      39.049  29.769  29.525  1.00  0.00     0.074 A 
ATOM     57  C   UNL A   1      39.108  29.313  28.150  1.00  0.00     0.031 C 
ATOM     58  C   UNL A   1      44.306  27.173  32.132  1.00  0.00     0.029 A 
ATOM     59  C   UNL A   1      43.362  28.093  32.762  1.00  0.00     0.049 A 
ATOM     60  H   UNL A   1      41.684  28.976  31.902  1.00  0.00     0.167 HD
ATOM     61  C   UNL A   1      38.069  30.550  30.043  1.00  0.00     0.037 A 
ATOM     62  C   UNL A   1      43.434  28.530  34.034  1.00  0.00     0.037 A 
ATOM     63  C   UNL A   1      38.028  31.014  31.408  1.00  0.00     0.049 A 
ATOM     64  C   UNL A   1      42.363  29.442  34.562  1.00  0.00     0.074 A 
ATOM     65  C   UNL A   1      37.057  31.786  32.026  1.00  0.00     0.029 A 
ATOM     66  N   UNL A   1      39.003  30.765  32.364  1.00  0.00    -0.354 N 
ATOM     67  N   UNL A   1      41.283  29.880  33.964  1.00  0.00    -0.248 NA
ATOM     68  C   UNL A   1      42.517  29.914  35.945  1.00  0.00     0.031 C 
ATOM     69  C   UNL A   1      37.471  32.048  33.336  1.00  0.00     0.029 A 
ATOM     70  C   UNL A   1      38.670  31.392  33.556  1.00  0.00     0.049 A 
ATOM     71  H   UNL A   1      39.810  30.222  32.217  1.00  0.00     0.167 HD
ATOM     72  C   UNL A   1      40.618  30.659  34.901  1.00  0.00     0.074 A 
ATOM     73  C   UNL A   1      41.406  30.617  36.115  1.00  0.00     0.031 C 
ATOM     74  C   UNL A   1      39.458  31.347  34.763  1.00  0.00     0.037 A 
BRANCH  61  75
ATOM     75  C   UNL A   1      36.934  30.947  29.142  1.00  0.00     0.064 A 
ATOM     76  C   UNL A   1      35.930  30.031  28.792  1.00  0.00     0.173 A 
ATOM     77  C   UNL A   1      36.786  32.276  28.714  1.00  0.00     0.173 A 
ATOM     78  F   UNL A   1      36.022  28.749  29.177  1.00  0.00    -0.203 F 
ATOM     79  C   UNL A   1      34.827  30.429  28.041  1.00  0.00     0.198 A 
ATOM     80  C   UNL A   1      35.669  32.675  27.987  1.00  0.00     0.198 A 
ATOM     81  F   UNL A   1      37.710  33.195  29.033  1.00  0.00    -0.203 F 
ATOM     82  F   UNL A   1      33.890  29.531  27.703  1.00  0.00    -0.200 F 
ATOM     83  C   UNL A   1      34.692  31.752  27.648  1.00  0.00     0.200 A 
ATOM     84  F   UNL A   1      35.529  33.959  27.625  1.00  0.00    -0.200 F 
ATOM     85  F   UNL A   1      33.617  32.137  26.946  1.00  0.00    -0.200 F 
ENDBRANCH  61  75
BRANCH  62  86
ATOM     86  C   UNL A   1      44.545  28.066  34.905  1.00  0.00     0.064 A 
ATOM     87  C   UNL A   1      45.724  28.814  35.023  1.00  0.00     0.173 A 
ATOM     88  C   UNL A   1      44.443  26.884  35.652  1.00  0.00     0.173 A 
ATOM     89  F   UNL A   1      45.875  29.942  34.313  1.00  0.00    -0.203 F 
ATOM     90  C   UNL A   1      46.764  28.391  35.847  1.00  0.00     0.198 A 
ATOM     91  C   UNL A   1      45.470  26.477  36.499  1.00  0.00     0.198 A 
ATOM     92  F   UNL A   1      43.331  26.136  35.577  1.00  0.00    -0.203 F 
ATOM     93  F   UNL A   1      47.895  29.105  35.913  1.00  0.00    -0.200 F 
ATOM     94  C   UNL A   1      46.632  27.228  36.590  1.00  0.00     0.200 A 
ATOM     95  F   UNL A   1      45.333  25.362  37.228  1.00  0.00    -0.200 F 
ATOM     96  F   UNL A   1      47.629  26.827  37.392  1.00  0.00    -0.200 F 
ENDBRANCH  62  86
BRANCH  74  97
ATOM     97  C   UNL A   1      38.954  32.108  35.956  1.00  0.00     0.064 A 
ATOM     98  C   UNL A   1      38.166  31.493  36.939  1.00  0.00     0.173 A 
ATOM     99  C   UNL A   1      39.318  33.450  36.153  1.00  0.00     0.173 A 
ATOM    100  F   UNL A   1      37.777  30.217  36.792  1.00  0.00    -0.203 F 
ATOM    101  C   UNL A   1      37.747  32.195  38.066  1.00  0.00     0.198 A 
ATOM    102  C   UNL A   1      38.925  34.139  37.296  1.00  0.00     0.198 A 
ATOM    103  F   UNL A   1      40.076  34.085  35.247  1.00  0.00    -0.203 F 
ATOM    104  F   UNL A   1      36.963  31.597  38.973  1.00  0.00    -0.200 F 
ATOM    105  C   UNL A   1      38.136  33.514  38.250  1.00  0.00     0.200 A 
ATOM    106  F   UNL A   1      39.314  35.409  37.479  1.00  0.00    -0.200 F 
ATOM    107  F   UNL A   1      37.747  34.183  39.344  1.00  0.00    -0.200 F 
ENDBRANCH  74  97
ENDBRANCH  48  49
ENDBRANCH  41  43
ENDBRANCH  40  41
ENDBRANCH  39  40
ENDBRANCH  38  39
ENDBRANCH  37  38
ENDBRANCH   1  37
TORSDOF 18
ENDMDL
MODEL 3
REMARK VINA RESULT:     -10.1      0.526      1.629
REMARK SMILES C[C@]12C(=O)N(c3ccc(C(=O)OCCOCCOCCOC(=O)c4ccc(-c5c6nc(c(-c7c(F)c(F)c(F)c(F)c7F)c7ccc([nH]7)c(-c7c(F)c(F)c(F)c(F)c7F)c7nc(c(-c8c(F)c(F)c(F)c(F)c8F)c8ccc5[nH]8)C=C7)C=C6)cc4)cc3)C(=O)[C@H]1[C@H]1c3ccccc3[C@@H]2c2ccccc21
REMARK SMILES IDX 17 1 16 2 15 3 14 4 13 5 12 6 10 7 11 8 9 9 6 10 7 11 88 12
REMARK SMILES IDX 8 13 87 14 5 15 1 16 2 17 3 18 91 19 99 20 4 21 89 22 92 23
REMARK SMILES IDX 98 24 100 25 90 26 93 27 105 28 97 29 101 30 94 31 104 32
REMARK SMILES IDX 96 33 102 34 95 35 103 36 18 37 19 38 20 39 21 40 22 41
REMARK SMILES IDX 23 42 24 43 25 44 86 45 26 46 85 47 27 48 28 49 29 50 79 51
REMARK SMILES IDX 30 52 84 53 78 54 80 55 31 56 83 57 77 58 76 59 32 61 64 62
REMARK SMILES IDX 44 63 63 64 45 65 48 66 62 67 81 68 46 69 47 70 61 72 82 73
REMARK SMILES IDX 49 74 33 75 34 76 42 77 35 78 36 79 40 80 43 81 37 82 38 83
REMARK SMILES IDX 41 84 39 85 65 86 66 87 74 88 67 89 68 90 72 91 75 92 69 93
REMARK SMILES IDX 70 94 73 95 71 96 50 97 51 98 59 99 52 100 53 101 57 102
REMARK SMILES IDX 60 103 54 104 55 105 58 106 56 107
REMARK H PARENT 80 60 48 71
REMARK Flexibility Score: inf
ROOT
ATOM      1  C   UNL A   1      44.349  20.538  24.841  1.00  0.00     0.188 C 
ENDROOT
BRANCH   1   2
ATOM      2  C   UNL A   1      43.260  21.038  25.814  1.00  0.00     0.188 C 
BRANCH   2   3
ATOM      3  O   UNL A   1      42.351  22.047  25.391  1.00  0.00    -0.376 OA
BRANCH   3   4
ATOM      4  C   UNL A   1      42.419  23.338  25.992  1.00  0.00     0.202 C 
BRANCH   4   5
ATOM      5  C   UNL A   1      41.315  23.768  26.971  1.00  0.00     0.261 C 
BRANCH   5   6
ATOM      6  O   UNL A   1      40.814  25.101  26.750  1.00  0.00    -0.460 OA
BRANCH   6   7
ATOM      7  C   UNL A   1      39.625  25.383  27.338  1.00  0.00     0.338 C 
ATOM      8  O   UNL A   1      38.557  24.827  27.141  1.00  0.00    -0.246 OA
BRANCH   7   9
ATOM      9  C   UNL A   1      39.818  26.321  28.465  1.00  0.00     0.060 A 
ATOM     10  C   UNL A   1      39.936  28.177  30.597  1.00  0.00     0.052 A 
ATOM     11  C   UNL A   1      38.968  27.153  30.566  1.00  0.00     0.028 A 
ATOM     12  C   UNL A   1      40.901  28.184  29.579  1.00  0.00     0.028 A 
ATOM     13  C   UNL A   1      38.878  26.270  29.492  1.00  0.00     0.018 A 
ATOM     14  C   UNL A   1      40.865  27.240  28.533  1.00  0.00     0.018 A 
BRANCH  10  15
ATOM     15  N   UNL A   1      39.773  29.244  31.532  1.00  0.00    -0.250 N 
ATOM     16  C   UNL A   1      38.557  30.800  34.460  1.00  0.00     0.024 C 
ATOM     17  C   UNL A   1      38.446  30.578  32.938  1.00  0.00     0.071 C 
ATOM     18  C   UNL A   1      38.889  29.183  32.584  1.00  0.00     0.241 C 
ATOM     19  C   UNL A   1      39.421  31.502  32.148  1.00  0.00     0.107 C 
ATOM     20  C   UNL A   1      36.986  30.723  32.364  1.00  0.00     0.066 C 
ATOM     21  O   UNL A   1      38.458  28.184  33.150  1.00  0.00    -0.273 OA
ATOM     22  C   UNL A   1      40.299  30.514  31.385  1.00  0.00     0.238 C 
ATOM     23  C   UNL A   1      38.608  32.443  31.194  1.00  0.00     0.063 C 
ATOM     24  C   UNL A   1      37.043  30.577  30.830  1.00  0.00    -0.036 A 
ATOM     25  C   UNL A   1      36.600  32.170  32.621  1.00  0.00    -0.036 A 
ATOM     26  O   UNL A   1      41.272  30.868  30.733  1.00  0.00    -0.274 OA
ATOM     27  C   UNL A   1      37.912  31.511  30.204  1.00  0.00    -0.036 A 
ATOM     28  C   UNL A   1      37.483  33.103  32.016  1.00  0.00    -0.036 A 
ATOM     29  C   UNL A   1      36.401  29.609  30.072  1.00  0.00     0.005 A 
ATOM     30  C   UNL A   1      35.470  32.574  33.321  1.00  0.00     0.005 A 
ATOM     31  C   UNL A   1      38.154  31.467  28.837  1.00  0.00     0.004 A 
ATOM     32  C   UNL A   1      37.205  34.459  32.108  1.00  0.00     0.004 A 
ATOM     33  C   UNL A   1      36.658  29.555  28.699  1.00  0.00     0.000 A 
ATOM     34  C   UNL A   1      35.206  33.936  33.416  1.00  0.00     0.000 A 
ATOM     35  C   UNL A   1      37.528  30.472  28.088  1.00  0.00     0.000 A 
ATOM     36  C   UNL A   1      36.064  34.868  32.812  1.00  0.00     0.000 A 
ENDBRANCH  10  15
ENDBRANCH   7   9
ENDBRANCH   6   7
ENDBRANCH   5   6
ENDBRANCH   4   5
ENDBRANCH   3   4
ENDBRANCH   2   3
ENDBRANCH   1   2
BRANCH   1  37
ATOM     37  O   UNL A   1      45.070  21.561  24.204  1.00  0.00    -0.376 OA
BRANCH  37  38
ATOM     38  C   UNL A   1      45.962  22.374  24.939  1.00  0.00     0.202 C 
BRANCH  38  39
ATOM     39  C   UNL A   1      46.639  23.654  24.409  1.00  0.00     0.261 C 
BRANCH  39  40
ATOM     40  O   UNL A   1      45.990  24.908  24.616  1.00  0.00    -0.460 OA
BRANCH  40  41
ATOM     41  C   UNL A   1      46.779  26.009  24.651  1.00  0.00     0.338 C 
ATOM     42  O   UNL A   1      47.694  26.292  23.898  1.00  0.00    -0.246 OA
BRANCH  41  43
ATOM     43  C   UNL A   1      46.224  26.912  25.679  1.00  0.00     0.060 A 
ATOM     44  C   UNL A   1      44.850  27.149  25.725  1.00  0.00     0.016 A 
ATOM     45  C   UNL A   1      47.089  27.551  26.578  1.00  0.00     0.016 A 
ATOM     46  C   UNL A   1      44.336  28.022  26.685  1.00  0.00     0.010 A 
ATOM     47  C   UNL A   1      46.573  28.434  27.531  1.00  0.00     0.010 A 
ATOM     48  C   UNL A   1      45.190  28.663  27.602  1.00  0.00    -0.014 A 
BRANCH  48  49
ATOM     49  C   UNL A   1      44.604  29.435  28.725  1.00  0.00     0.031 A 
ATOM     50  C   UNL A   1      44.265  28.799  30.038  1.00  0.00     0.074 A 
ATOM     51  C   UNL A   1      44.404  30.753  28.542  1.00  0.00     0.049 A 
ATOM     52  N   UNL A   1      43.851  29.370  31.142  1.00  0.00    -0.248 NA
ATOM     53  C   UNL A   1      44.400  27.339  30.128  1.00  0.00     0.031 C 
ATOM     54  C   UNL A   1      44.675  31.473  27.297  1.00  0.00     0.029 A 
ATOM     55  N   UNL A   1      43.946  31.722  29.397  1.00  0.00    -0.354 N 
ATOM     56  C   UNL A   1      43.706  28.348  32.069  1.00  0.00     0.074 A 
ATOM     57  C   UNL A   1      44.022  27.112  31.382  1.00  0.00     0.031 C 
ATOM     58  C   UNL A   1      44.413  32.775  27.478  1.00  0.00     0.029 A 
ATOM     59  C   UNL A   1      43.932  32.978  28.843  1.00  0.00     0.049 A 
ATOM     60  H   UNL A   1      43.655  31.535  30.319  1.00  0.00     0.167 HD
ATOM     61  C   UNL A   1      43.362  28.443  33.377  1.00  0.00     0.037 A 
ATOM     62  C   UNL A   1      43.582  34.164  29.375  1.00  0.00     0.037 A 
ATOM     63  C   UNL A   1      43.031  29.676  34.050  1.00  0.00     0.049 A 
ATOM     64  C   UNL A   1      43.149  34.228  30.813  1.00  0.00     0.074 A 
ATOM     65  C   UNL A   1      42.700  29.869  35.381  1.00  0.00     0.029 A 
ATOM     66  N   UNL A   1      42.977  30.924  33.444  1.00  0.00    -0.354 N 
ATOM     67  N   UNL A   1      43.088  33.267  31.701  1.00  0.00    -0.248 NA
ATOM     68  C   UNL A   1      42.743  35.545  31.324  1.00  0.00     0.031 C 
ATOM     69  C   UNL A   1      42.391  31.220  35.567  1.00  0.00     0.029 A 
ATOM     70  C   UNL A   1      42.588  31.883  34.368  1.00  0.00     0.049 A 
ATOM     71  H   UNL A   1      43.185  31.101  32.499  1.00  0.00     0.167 HD
ATOM     72  C   UNL A   1      42.660  33.863  32.879  1.00  0.00     0.074 A 
ATOM     73  C   UNL A   1      42.496  35.273  32.599  1.00  0.00     0.031 C 
ATOM     74  C   UNL A   1      42.425  33.288  34.083  1.00  0.00     0.037 A 
BRANCH  61  75
ATOM     75  C   UNL A   1      43.340  27.182  34.193  1.00  0.00     0.064 A 
ATOM     76  C   UNL A   1      44.518  26.650  34.741  1.00  0.00     0.173 A 
ATOM     77  C   UNL A   1      42.126  26.560  34.525  1.00  0.00     0.173 A 
ATOM     78  F   UNL A   1      45.705  27.208  34.458  1.00  0.00    -0.203 F 
ATOM     79  C   UNL A   1      44.481  25.540  35.581  1.00  0.00     0.198 A 
ATOM     80  C   UNL A   1      42.091  25.467  35.386  1.00  0.00     0.198 A 
ATOM     81  F   UNL A   1      40.969  27.037  34.041  1.00  0.00    -0.203 F 
ATOM     82  F   UNL A   1      45.622  25.039  36.076  1.00  0.00    -0.200 F 
ATOM     83  C   UNL A   1      43.267  24.956  35.910  1.00  0.00     0.200 A 
ATOM     84  F   UNL A   1      40.915  24.917  35.721  1.00  0.00    -0.200 F 
ATOM     85  F   UNL A   1      43.233  23.903  36.738  1.00  0.00    -0.200 F 
ENDBRANCH  61  75
BRANCH  62  86
ATOM     86  C   UNL A   1      43.673  35.393  28.546  1.00  0.00     0.064 A 
ATOM     87  C   UNL A   1      42.527  35.951  27.963  1.00  0.00     0.173 A 
ATOM     88  C   UNL A   1      44.896  36.046  28.339  1.00  0.00     0.173 A 
ATOM     89  F   UNL A   1      41.337  35.351  28.118  1.00  0.00    -0.203 F 
ATOM     90  C   UNL A   1      42.603  37.110  27.194  1.00  0.00     0.198 A 
ATOM     91  C   UNL A   1      44.968  37.221  27.596  1.00  0.00     0.198 A 
ATOM     92  F   UNL A   1      46.020  35.553  28.880  1.00  0.00    -0.203 F 
ATOM     93  F   UNL A   1      41.500  37.602  26.618  1.00  0.00    -0.200 F 
ATOM     94  C   UNL A   1      43.822  37.748  27.019  1.00  0.00     0.200 A 
ATOM     95  F   UNL A   1      46.143  37.844  27.442  1.00  0.00    -0.200 F 
ATOM     96  F   UNL A   1      43.894  38.871  26.289  1.00  0.00    -0.200 F 
ENDBRANCH  62  86
BRANCH  74  97
ATOM     97  C   UNL A   1      41.972  34.180  35.205  1.00  0.00     0.064 A 
ATOM     98  C   UNL A   1      40.613  34.431  35.439  1.00  0.00     0.173 A 
ATOM     99  C   UNL A   1      42.905  34.737  36.094  1.00  0.00     0.173 A 
ATOM    100  F   UNL A   1      39.682  33.934  34.610  1.00  0.00    -0.203 F 
ATOM    101  C   UNL A   1      40.204  35.218  36.512  1.00  0.00     0.198 A 
ATOM    102  C   UNL A   1      42.491  35.497  37.184  1.00  0.00     0.198 A 
ATOM    103  F   UNL A   1      44.217  34.524  35.919  1.00  0.00    -0.203 F 
ATOM    104  F   UNL A   1      38.901  35.475  36.695  1.00  0.00    -0.200 F 
ATOM    105  C   UNL A   1      41.141  35.741  37.391  1.00  0.00     0.200 A 
ATOM    106  F   UNL A   1      43.397  35.989  38.040  1.00  0.00    -0.200 F 
ATOM    107  F   UNL A   1      40.745  36.484  38.433  1.00  0.00    -0.200 F 
ENDBRANCH  74  97
ENDBRANCH  48  49
ENDBRANCH  41  43
ENDBRANCH  40  41
ENDBRANCH  39  40
ENDBRANCH  38  39
ENDBRANCH  37  38
ENDBRANCH   1  37
TORSDOF 18
ENDMDL
