MODEL 1
REMARK VINA RESULT:     -10.5      0.000      0.000
REMARK SMILES COc1ccc([N+](=O)[O-])cc1OCC(C)(C)C(=O)OCCOCCOCCOC(=O)c1ccc(-c2c3nc(c(-c4c(F)c(F)c(F)c(F)c4F)c4ccc([nH]4)c(-c4c(F)c(F)c(F)c(F)c4F)c4nc(c(-c5c(F)c(F)c(F)c(F)c5F)c5ccc2[nH]5)C=C4)C=C3)cc1
REMARK SMILES IDX 23 1 22 2 21 3 20 4 19 5 17 6 18 7 14 8 15 9 16 10 13 11
REMARK SMILES IDX 12 12 11 13 3 14 4 15 5 16 10 17 6 18 2 19 1 20 7 21 8 22
REMARK SMILES IDX 9 23 24 24 25 25 26 26 27 27 28 28 29 29 30 30 31 31 32 32
REMARK SMILES IDX 93 33 33 34 92 35 34 36 35 37 36 38 86 39 37 40 91 41 85 42
REMARK SMILES IDX 87 43 38 44 90 45 84 46 83 47 39 49 71 50 51 51 70 52 52 53
REMARK SMILES IDX 55 54 69 55 88 56 53 57 54 58 68 60 89 61 56 62 40 63 41 64
REMARK SMILES IDX 49 65 42 66 43 67 47 68 50 69 44 70 45 71 48 72 46 73 72 74
REMARK SMILES IDX 73 75 81 76 74 77 75 78 79 79 82 80 76 81 77 82 80 83 78 84
REMARK SMILES IDX 57 85 58 86 66 87 59 88 60 89 64 90 67 91 61 92 62 93 65 94
REMARK SMILES IDX 63 95
REMARK H PARENT 87 48 55 59
REMARK Flexibility Score: inf
ROOT
ATOM      1  C   UNL A   1      39.696  21.731  26.291  1.00  0.00     0.188 C 
ENDROOT
BRANCH   1   2
ATOM      2  O   UNL A   1      38.927  20.769  25.589  1.00  0.00    -0.376 OA
BRANCH   2   3
ATOM      3  C   UNL A   1      37.541  21.027  25.385  1.00  0.00     0.202 C 
BRANCH   3   4
ATOM      4  C   UNL A   1      37.119  21.857  24.165  1.00  0.00     0.261 C 
BRANCH   4   5
ATOM      5  O   UNL A   1      35.896  22.601  24.333  1.00  0.00    -0.463 OA
BRANCH   5   6
ATOM      6  C   UNL A   1      35.698  23.139  25.562  1.00  0.00     0.315 C 
ATOM      7  O   UNL A   1      36.592  23.631  26.243  1.00  0.00    -0.251 OA
BRANCH   6   8
ATOM      8  C   UNL A   1      34.261  23.008  26.062  1.00  0.00     0.096 C 
ATOM      9  C   UNL A   1      34.452  22.129  27.309  1.00  0.00     0.027 C 
ATOM     10  C   UNL A   1      33.271  22.241  25.152  1.00  0.00     0.027 C 
BRANCH   8  11
ATOM     11  C   UNL A   1      33.662  24.448  26.208  1.00  0.00     0.248 C 
BRANCH  11  12
ATOM     12  O   UNL A   1      34.301  25.577  25.608  1.00  0.00    -0.488 OA
BRANCH  12  13
ATOM     13  C   UNL A   1      33.534  26.308  24.752  1.00  0.00     0.168 A 
ATOM     14  C   UNL A   1      33.011  27.579  25.028  1.00  0.00     0.161 A 
ATOM     15  C   UNL A   1      32.494  28.340  23.979  1.00  0.00     0.057 A 
ATOM     16  C   UNL A   1      32.395  27.782  22.692  1.00  0.00     0.090 A 
ATOM     17  C   UNL A   1      33.339  25.705  23.510  1.00  0.00     0.136 A 
ATOM     18  C   UNL A   1      32.754  26.442  22.485  1.00  0.00     0.273 A 
BRANCH  14  19
ATOM     19  O   UNL A   1      32.866  27.939  26.338  1.00  0.00    -0.493 OA
ATOM     20  C   UNL A   1      31.608  27.699  26.955  1.00  0.00     0.278 C 
ENDBRANCH  14  19
BRANCH  18  21
ATOM     21  N   UNL A   1      32.510  25.796  21.192  1.00  0.00     0.062 N 
ATOM     22  O   UNL A   1      33.333  24.954  20.807  1.00  0.00    -0.258 OA
ATOM     23  O   UNL A   1      31.512  26.151  20.549  1.00  0.00    -0.258 OA
ENDBRANCH  18  21
ENDBRANCH  12  13
ENDBRANCH  11  12
ENDBRANCH   8  11
ENDBRANCH   6   8
ENDBRANCH   5   6
ENDBRANCH   4   5
ENDBRANCH   3   4
ENDBRANCH   2   3
ENDBRANCH   1   2
BRANCH   1  24
ATOM     24  C   UNL A   1      40.639  21.245  27.396  1.00  0.00     0.188 C 
BRANCH  24  25
ATOM     25  O   UNL A   1      41.533  20.216  27.032  1.00  0.00    -0.376 OA
BRANCH  25  26
ATOM     26  C   UNL A   1      42.284  20.387  25.833  1.00  0.00     0.202 C 
BRANCH  26  27
ATOM     27  C   UNL A   1      43.258  21.588  25.803  1.00  0.00     0.261 C 
BRANCH  27  28
ATOM     28  O   UNL A   1      42.852  22.745  25.034  1.00  0.00    -0.460 OA
BRANCH  28  29
ATOM     29  C   UNL A   1      43.638  23.855  25.091  1.00  0.00     0.338 C 
ATOM     30  O   UNL A   1      44.541  24.135  24.334  1.00  0.00    -0.246 OA
BRANCH  29  31
ATOM     31  C   UNL A   1      43.005  24.828  26.040  1.00  0.00     0.060 A 
ATOM     32  C   UNL A   1      43.553  26.120  26.126  1.00  0.00     0.016 A 
ATOM     33  C   UNL A   1      41.844  24.529  26.756  1.00  0.00     0.016 A 
ATOM     34  C   UNL A   1      42.981  27.086  26.966  1.00  0.00     0.010 A 
ATOM     35  C   UNL A   1      41.280  25.491  27.608  1.00  0.00     0.010 A 
ATOM     36  C   UNL A   1      41.865  26.765  27.750  1.00  0.00    -0.014 A 
BRANCH  36  37
ATOM     37  C   UNL A   1      41.441  27.655  28.871  1.00  0.00     0.031 A 
ATOM     38  C   UNL A   1      42.220  27.588  30.161  1.00  0.00     0.074 A 
ATOM     39  C   UNL A   1      40.405  28.510  28.776  1.00  0.00     0.049 A 
ATOM     40  N   UNL A   1      42.008  28.194  31.304  1.00  0.00    -0.248 NA
ATOM     41  C   UNL A   1      43.399  26.709  30.158  1.00  0.00     0.031 C 
ATOM     42  C   UNL A   1      39.596  28.736  27.583  1.00  0.00     0.029 A 
ATOM     43  N   UNL A   1      39.852  29.345  29.722  1.00  0.00    -0.354 N 
ATOM     44  C   UNL A   1      43.014  27.754  32.155  1.00  0.00     0.074 A 
ATOM     45  C   UNL A   1      43.820  26.812  31.407  1.00  0.00     0.031 C 
ATOM     46  C   UNL A   1      38.644  29.644  27.869  1.00  0.00     0.029 A 
ATOM     47  C   UNL A   1      38.750  30.035  29.276  1.00  0.00     0.049 A 
ATOM     48  H   UNL A   1      40.214  29.439  30.633  1.00  0.00     0.167 HD
ATOM     49  C   UNL A   1      43.253  28.103  33.443  1.00  0.00     0.037 A 
ATOM     50  C   UNL A   1      37.913  30.865  29.933  1.00  0.00     0.037 A 
ATOM     51  C   UNL A   1      42.461  29.039  34.196  1.00  0.00     0.049 A 
ATOM     52  C   UNL A   1      38.137  31.158  31.398  1.00  0.00     0.074 A 
ATOM     53  C   UNL A   1      42.648  29.476  35.496  1.00  0.00     0.029 A 
ATOM     54  N   UNL A   1      41.320  29.670  33.723  1.00  0.00    -0.354 N 
ATOM     55  N   UNL A   1      39.106  30.764  32.189  1.00  0.00    -0.248 NA
ATOM     56  C   UNL A   1      37.142  32.016  32.064  1.00  0.00     0.031 C 
ATOM     57  C   UNL A   1      41.580  30.314  35.834  1.00  0.00     0.029 A 
ATOM     58  C   UNL A   1      40.769  30.461  34.721  1.00  0.00     0.049 A 
ATOM     59  H   UNL A   1      40.956  29.573  32.814  1.00  0.00     0.167 HD
ATOM     60  C   UNL A   1      38.861  31.354  33.424  1.00  0.00     0.074 A 
ATOM     61  C   UNL A   1      37.655  32.141  33.280  1.00  0.00     0.031 C 
ATOM     62  C   UNL A   1      39.575  31.255  34.573  1.00  0.00     0.037 A 
BRANCH  49  63
ATOM     63  C   UNL A   1      44.400  27.426  34.139  1.00  0.00     0.064 A 
ATOM     64  C   UNL A   1      45.690  27.980  34.161  1.00  0.00     0.173 A 
ATOM     65  C   UNL A   1      44.200  26.208  34.807  1.00  0.00     0.173 A 
ATOM     66  F   UNL A   1      45.941  29.136  33.527  1.00  0.00    -0.203 F 
ATOM     67  C   UNL A   1      46.742  27.320  34.791  1.00  0.00     0.198 A 
ATOM     68  C   UNL A   1      45.246  25.570  35.468  1.00  0.00     0.198 A 
ATOM     69  F   UNL A   1      42.986  25.638  34.823  1.00  0.00    -0.203 F 
ATOM     70  F   UNL A   1      47.979  27.835  34.744  1.00  0.00    -0.200 F 
ATOM     71  C   UNL A   1      46.518  26.119  35.449  1.00  0.00     0.200 A 
ATOM     72  F   UNL A   1      45.022  24.418  36.116  1.00  0.00    -0.200 F 
ATOM     73  F   UNL A   1      47.531  25.487  36.057  1.00  0.00    -0.200 F 
ENDBRANCH  49  63
BRANCH  50  74
ATOM     74  C   UNL A   1      36.761  31.485  29.220  1.00  0.00     0.064 A 
ATOM     75  C   UNL A   1      36.735  32.862  28.952  1.00  0.00     0.173 A 
ATOM     76  C   UNL A   1      35.643  30.729  28.837  1.00  0.00     0.173 A 
ATOM     77  F   UNL A   1      37.762  33.636  29.337  1.00  0.00    -0.203 F 
ATOM     78  C   UNL A   1      35.633  33.459  28.344  1.00  0.00     0.198 A 
ATOM     79  C   UNL A   1      34.554  31.323  28.200  1.00  0.00     0.198 A 
ATOM     80  F   UNL A   1      35.605  29.412  29.087  1.00  0.00    -0.203 F 
ATOM     81  F   UNL A   1      35.613  34.786  28.153  1.00  0.00    -0.200 F 
ATOM     82  C   UNL A   1      34.546  32.688  27.962  1.00  0.00     0.200 A 
ATOM     83  F   UNL A   1      33.506  30.573  27.832  1.00  0.00    -0.200 F 
ATOM     84  F   UNL A   1      33.485  33.265  27.381  1.00  0.00    -0.200 F 
ENDBRANCH  50  74
BRANCH  62  85
ATOM     85  C   UNL A   1      39.114  32.055  35.761  1.00  0.00     0.064 A 
ATOM     86  C   UNL A   1      38.287  31.507  36.753  1.00  0.00     0.173 A 
ATOM     87  C   UNL A   1      39.550  33.379  35.936  1.00  0.00     0.173 A 
ATOM     88  F   UNL A   1      37.831  30.251  36.634  1.00  0.00    -0.203 F 
ATOM     89  C   UNL A   1      37.893  32.260  37.858  1.00  0.00     0.198 A 
ATOM     90  C   UNL A   1      39.183  34.117  37.059  1.00  0.00     0.198 A 
ATOM     91  F   UNL A   1      40.351  33.953  35.025  1.00  0.00    -0.203 F 
ATOM     92  F   UNL A   1      37.062  31.730  38.766  1.00  0.00    -0.200 F 
ATOM     93  C   UNL A   1      38.347  33.560  38.014  1.00  0.00     0.200 A 
ATOM     94  F   UNL A   1      39.640  35.367  37.216  1.00  0.00    -0.200 F 
ATOM     95  F   UNL A   1      37.977  34.279  39.083  1.00  0.00    -0.200 F 
ENDBRANCH  62  85
ENDBRANCH  36  37
ENDBRANCH  29  31
ENDBRANCH  28  29
ENDBRANCH  27  28
ENDBRANCH  26  27
ENDBRANCH  25  26
ENDBRANCH  24  25
ENDBRANCH   1  24
TORSDOF 22
ENDMDL
MODEL 2
REMARK VINA RESULT:     -10.2      4.535      6.916
REMARK SMILES COc1ccc([N+](=O)[O-])cc1OCC(C)(C)C(=O)OCCOCCOCCOC(=O)c1ccc(-c2c3nc(c(-c4c(F)c(F)c(F)c(F)c4F)c4ccc([nH]4)c(-c4c(F)c(F)c(F)c(F)c4F)c4nc(c(-c5c(F)c(F)c(F)c(F)c5F)c5ccc2[nH]5)C=C4)C=C3)cc1
REMARK SMILES IDX 23 1 22 2 21 3 20 4 19 5 17 6 18 7 14 8 15 9 16 10 13 11
REMARK SMILES IDX 12 12 11 13 3 14 4 15 5 16 10 17 6 18 2 19 1 20 7 21 8 22
REMARK SMILES IDX 9 23 24 24 25 25 26 26 27 27 28 28 29 29 30 30 31 31 32 32
REMARK SMILES IDX 93 33 33 34 92 35 34 36 35 37 36 38 86 39 37 40 91 41 85 42
REMARK SMILES IDX 87 43 38 44 90 45 84 46 83 47 39 49 71 50 51 51 70 52 52 53
REMARK SMILES IDX 55 54 69 55 88 56 53 57 54 58 68 60 89 61 56 62 40 63 41 64
REMARK SMILES IDX 49 65 42 66 43 67 47 68 50 69 44 70 45 71 48 72 46 73 72 74
REMARK SMILES IDX 73 75 81 76 74 77 75 78 79 79 82 80 76 81 77 82 80 83 78 84
REMARK SMILES IDX 57 85 58 86 66 87 59 88 60 89 64 90 67 91 61 92 62 93 65 94
REMARK SMILES IDX 63 95
REMARK H PARENT 87 48 55 59
REMARK Flexibility Score: inf
ROOT
ATOM      1  C   UNL A   1      37.020  23.292  25.097  1.00  0.00     0.188 C 
ENDROOT
BRANCH   1   2
ATOM      2  O   UNL A   1      36.254  24.179  25.894  1.00  0.00    -0.376 OA
BRANCH   2   3
ATOM      3  C   UNL A   1      34.853  23.947  26.012  1.00  0.00     0.202 C 
BRANCH   3   4
ATOM      4  C   UNL A   1      33.885  24.965  25.396  1.00  0.00     0.261 C 
BRANCH   4   5
ATOM      5  O   UNL A   1      34.041  26.315  25.874  1.00  0.00    -0.463 OA
BRANCH   5   6
ATOM      6  C   UNL A   1      32.901  26.937  26.265  1.00  0.00     0.315 C 
ATOM      7  O   UNL A   1      31.855  26.348  26.516  1.00  0.00    -0.251 OA
BRANCH   6   8
ATOM      8  C   UNL A   1      33.014  28.460  26.294  1.00  0.00     0.096 C 
ATOM      9  C   UNL A   1      34.382  28.650  26.970  1.00  0.00     0.027 C 
ATOM     10  C   UNL A   1      31.995  29.219  27.180  1.00  0.00     0.027 C 
BRANCH   8  11
ATOM     11  C   UNL A   1      32.782  28.995  24.841  1.00  0.00     0.248 C 
BRANCH  11  12
ATOM     12  O   UNL A   1      32.433  28.108  23.775  1.00  0.00    -0.488 OA
BRANCH  12  13
ATOM     13  C   UNL A   1      31.101  27.974  23.525  1.00  0.00     0.168 A 
ATOM     14  C   UNL A   1      30.419  26.752  23.437  1.00  0.00     0.161 A 
ATOM     15  C   UNL A   1      29.024  26.752  23.467  1.00  0.00     0.057 A 
ATOM     16  C   UNL A   1      28.325  27.971  23.465  1.00  0.00     0.090 A 
ATOM     17  C   UNL A   1      30.421  29.186  23.411  1.00  0.00     0.136 A 
ATOM     18  C   UNL A   1      29.031  29.179  23.366  1.00  0.00     0.273 A 
BRANCH  14  19
ATOM     19  O   UNL A   1      31.149  25.635  23.140  1.00  0.00    -0.493 OA
ATOM     20  C   UNL A   1      30.563  24.370  23.414  1.00  0.00     0.278 C 
ENDBRANCH  14  19
BRANCH  18  21
ATOM     21  N   UNL A   1      28.316  30.449  23.203  1.00  0.00     0.062 N 
ATOM     22  O   UNL A   1      28.888  31.481  23.581  1.00  0.00    -0.258 OA
ATOM     23  O   UNL A   1      27.174  30.411  22.725  1.00  0.00    -0.258 OA
ENDBRANCH  18  21
ENDBRANCH  12  13
ENDBRANCH  11  12
ENDBRANCH   8  11
ENDBRANCH   6   8
ENDBRANCH   5   6
ENDBRANCH   4   5
ENDBRANCH   3   4
ENDBRANCH   2   3
ENDBRANCH   1   2
BRANCH   1  24
ATOM     24  C   UNL A   1      37.049  21.809  25.479  1.00  0.00     0.188 C 
BRANCH  24  25
ATOM     25  O   UNL A   1      37.672  20.947  24.551  1.00  0.00    -0.376 OA
BRANCH  25  26
ATOM     26  C   UNL A   1      38.001  19.632  24.990  1.00  0.00     0.202 C 
BRANCH  26  27
ATOM     27  C   UNL A   1      39.433  19.434  25.539  1.00  0.00     0.261 C 
BRANCH  27  28
ATOM     28  O   UNL A   1      39.764  20.111  26.774  1.00  0.00    -0.460 OA
BRANCH  28  29
ATOM     29  C   UNL A   1      41.080  20.289  27.070  1.00  0.00     0.338 C 
ATOM     30  O   UNL A   1      41.976  19.501  26.865  1.00  0.00    -0.246 OA
BRANCH  29  31
ATOM     31  C   UNL A   1      41.294  21.737  27.398  1.00  0.00     0.060 A 
ATOM     32  C   UNL A   1      40.541  22.693  26.695  1.00  0.00     0.016 A 
ATOM     33  C   UNL A   1      42.132  22.154  28.434  1.00  0.00     0.016 A 
ATOM     34  C   UNL A   1      40.668  24.059  26.985  1.00  0.00     0.010 A 
ATOM     35  C   UNL A   1      42.271  23.523  28.714  1.00  0.00     0.010 A 
ATOM     36  C   UNL A   1      41.570  24.490  27.967  1.00  0.00    -0.014 A 
BRANCH  36  37
ATOM     37  C   UNL A   1      41.954  25.928  28.068  1.00  0.00     0.031 A 
ATOM     38  C   UNL A   1      43.278  26.350  27.481  1.00  0.00     0.074 A 
ATOM     39  C   UNL A   1      41.173  26.856  28.653  1.00  0.00     0.049 A 
ATOM     40  N   UNL A   1      43.877  27.515  27.507  1.00  0.00    -0.248 NA
ATOM     41  C   UNL A   1      44.029  25.306  26.768  1.00  0.00     0.031 C 
ATOM     42  C   UNL A   1      39.845  26.621  29.210  1.00  0.00     0.029 A 
ATOM     43  N   UNL A   1      41.403  28.195  28.882  1.00  0.00    -0.354 N 
ATOM     44  C   UNL A   1      45.079  27.337  26.833  1.00  0.00     0.074 A 
ATOM     45  C   UNL A   1      45.137  25.947  26.433  1.00  0.00     0.031 C 
ATOM     46  C   UNL A   1      39.379  27.774  29.724  1.00  0.00     0.029 A 
ATOM     47  C   UNL A   1      40.390  28.821  29.570  1.00  0.00     0.049 A 
ATOM     48  H   UNL A   1      42.216  28.660  28.580  1.00  0.00     0.167 HD
ATOM     49  C   UNL A   1      46.048  28.246  26.566  1.00  0.00     0.037 A 
ATOM     50  C   UNL A   1      40.301  30.083  30.039  1.00  0.00     0.037 A 
ATOM     51  C   UNL A   1      46.002  29.629  26.957  1.00  0.00     0.049 A 
ATOM     52  C   UNL A   1      41.441  31.051  29.819  1.00  0.00     0.074 A 
ATOM     53  C   UNL A   1      46.925  30.628  26.702  1.00  0.00     0.029 A 
ATOM     54  N   UNL A   1      44.984  30.207  27.702  1.00  0.00    -0.354 N 
ATOM     55  N   UNL A   1      42.560  30.885  29.157  1.00  0.00    -0.248 NA
ATOM     56  C   UNL A   1      41.302  32.388  30.421  1.00  0.00     0.031 C 
ATOM     57  C   UNL A   1      46.502  31.792  27.354  1.00  0.00     0.029 A 
ATOM     58  C   UNL A   1      45.278  31.540  27.951  1.00  0.00     0.049 A 
ATOM     59  H   UNL A   1      44.173  29.741  28.008  1.00  0.00     0.167 HD
ATOM     60  C   UNL A   1      43.234  32.100  29.228  1.00  0.00     0.074 A 
ATOM     61  C   UNL A   1      42.397  32.999  29.991  1.00  0.00     0.031 C 
ATOM     62  C   UNL A   1      44.438  32.439  28.701  1.00  0.00     0.037 A 
BRANCH  49  63
ATOM     63  C   UNL A   1      47.275  27.754  25.850  1.00  0.00     0.064 A 
ATOM     64  C   UNL A   1      48.413  27.310  26.541  1.00  0.00     0.173 A 
ATOM     65  C   UNL A   1      47.304  27.715  24.448  1.00  0.00     0.173 A 
ATOM     66  F   UNL A   1      48.445  27.339  27.882  1.00  0.00    -0.203 F 
ATOM     67  C   UNL A   1      49.547  26.884  25.854  1.00  0.00     0.198 A 
ATOM     68  C   UNL A   1      48.426  27.252  23.764  1.00  0.00     0.198 A 
ATOM     69  F   UNL A   1      46.241  28.121  23.737  1.00  0.00    -0.203 F 
ATOM     70  F   UNL A   1      50.646  26.525  26.533  1.00  0.00    -0.200 F 
ATOM     71  C   UNL A   1      49.550  26.849  24.467  1.00  0.00     0.200 A 
ATOM     72  F   UNL A   1      48.419  27.205  22.425  1.00  0.00    -0.200 F 
ATOM     73  F   UNL A   1      50.641  26.436  23.807  1.00  0.00    -0.200 F 
ENDBRANCH  49  63
BRANCH  50  74
ATOM     74  C   UNL A   1      39.087  30.523  30.781  1.00  0.00     0.064 A 
ATOM     75  C   UNL A   1      39.011  30.402  32.177  1.00  0.00     0.173 A 
ATOM     76  C   UNL A   1      37.962  31.028  30.112  1.00  0.00     0.173 A 
ATOM     77  F   UNL A   1      40.045  29.886  32.859  1.00  0.00    -0.203 F 
ATOM     78  C   UNL A   1      37.854  30.752  32.871  1.00  0.00     0.198 A 
ATOM     79  C   UNL A   1      36.816  31.406  30.810  1.00  0.00     0.198 A 
ATOM     80  F   UNL A   1      37.972  31.146  28.776  1.00  0.00    -0.203 F 
ATOM     81  F   UNL A   1      37.790  30.569  34.197  1.00  0.00    -0.200 F 
ATOM     82  C   UNL A   1      36.760  31.260  32.188  1.00  0.00     0.200 A 
ATOM     83  F   UNL A   1      35.761  31.898  30.146  1.00  0.00    -0.200 F 
ATOM     84  F   UNL A   1      35.646  31.592  32.856  1.00  0.00    -0.200 F 
ENDBRANCH  50  74
BRANCH  62  85
ATOM     85  C   UNL A   1      44.911  33.857  28.878  1.00  0.00     0.064 A 
ATOM     86  C   UNL A   1      44.553  34.878  27.985  1.00  0.00     0.173 A 
ATOM     87  C   UNL A   1      45.693  34.209  29.989  1.00  0.00     0.173 A 
ATOM     88  F   UNL A   1      43.816  34.598  26.900  1.00  0.00    -0.203 F 
ATOM     89  C   UNL A   1      44.983  36.189  28.183  1.00  0.00     0.198 A 
ATOM     90  C   UNL A   1      46.092  35.527  30.203  1.00  0.00     0.198 A 
ATOM     91  F   UNL A   1      46.058  33.276  30.884  1.00  0.00    -0.203 F 
ATOM     92  F   UNL A   1      44.669  37.137  27.289  1.00  0.00    -0.200 F 
ATOM     93  C   UNL A   1      45.744  36.514  29.295  1.00  0.00     0.200 A 
ATOM     94  F   UNL A   1      46.811  35.840  31.290  1.00  0.00    -0.200 F 
ATOM     95  F   UNL A   1      46.146  37.778  29.490  1.00  0.00    -0.200 F 
ENDBRANCH  62  85
ENDBRANCH  36  37
ENDBRANCH  29  31
ENDBRANCH  28  29
ENDBRANCH  27  28
ENDBRANCH  26  27
ENDBRANCH  25  26
ENDBRANCH  24  25
ENDBRANCH   1  24
TORSDOF 22
ENDMDL
MODEL 3
REMARK VINA RESULT:     -10.1      2.962      8.824
REMARK SMILES COc1ccc([N+](=O)[O-])cc1OCC(C)(C)C(=O)OCCOCCOCCOC(=O)c1ccc(-c2c3nc(c(-c4c(F)c(F)c(F)c(F)c4F)c4ccc([nH]4)c(-c4c(F)c(F)c(F)c(F)c4F)c4nc(c(-c5c(F)c(F)c(F)c(F)c5F)c5ccc2[nH]5)C=C4)C=C3)cc1
REMARK SMILES IDX 23 1 22 2 21 3 20 4 19 5 17 6 18 7 14 8 15 9 16 10 13 11
REMARK SMILES IDX 12 12 11 13 3 14 4 15 5 16 10 17 6 18 2 19 1 20 7 21 8 22
REMARK SMILES IDX 9 23 24 24 25 25 26 26 27 27 28 28 29 29 30 30 31 31 32 32
REMARK SMILES IDX 93 33 33 34 92 35 34 36 35 37 36 38 86 39 37 40 91 41 85 42
REMARK SMILES IDX 87 43 38 44 90 45 84 46 83 47 39 49 71 50 51 51 70 52 52 53
REMARK SMILES IDX 55 54 69 55 88 56 53 57 54 58 68 60 89 61 56 62 40 63 41 64
REMARK SMILES IDX 49 65 42 66 43 67 47 68 50 69 44 70 45 71 48 72 46 73 72 74
REMARK SMILES IDX 73 75 81 76 74 77 75 78 79 79 82 80 76 81 77 82 80 83 78 84
REMARK SMILES IDX 57 85 58 86 66 87 59 88 60 89 64 90 67 91 61 92 62 93 65 94
REMARK SMILES IDX 63 95
REMARK H PARENT 87 48 55 59
REMARK Flexibility Score: inf
ROOT
ATOM      1  C   UNL A   1      33.720  27.983  25.739  1.00  0.00     0.188 C 
ENDROOT
BRANCH   1   2
ATOM      2  O   UNL A   1      32.315  27.914  25.570  1.00  0.00    -0.376 OA
BRANCH   2   3
ATOM      3  C   UNL A   1      31.686  26.636  25.635  1.00  0.00     0.202 C 
BRANCH   3   4
ATOM      4  C   UNL A   1      30.527  26.338  24.676  1.00  0.00     0.261 C 
BRANCH   4   5
ATOM      5  O   UNL A   1      30.895  25.612  23.487  1.00  0.00    -0.463 OA
BRANCH   5   6
ATOM      6  C   UNL A   1      31.312  26.369  22.440  1.00  0.00     0.315 C 
ATOM      7  O   UNL A   1      30.680  27.321  21.994  1.00  0.00    -0.251 OA
BRANCH   6   8
ATOM      8  C   UNL A   1      32.615  25.879  21.812  1.00  0.00     0.096 C 
ATOM      9  C   UNL A   1      33.520  27.109  21.996  1.00  0.00     0.027 C 
ATOM     10  C   UNL A   1      32.592  25.594  20.290  1.00  0.00     0.027 C 
BRANCH   8  11
ATOM     11  C   UNL A   1      33.001  24.519  22.485  1.00  0.00     0.248 C 
BRANCH  11  12
ATOM     12  O   UNL A   1      34.318  24.297  22.995  1.00  0.00    -0.488 OA
BRANCH  12  13
ATOM     13  C   UNL A   1      34.479  23.180  23.758  1.00  0.00     0.168 A 
ATOM     14  C   UNL A   1      35.468  23.012  24.737  1.00  0.00     0.161 A 
ATOM     15  C   UNL A   1      35.352  21.955  25.642  1.00  0.00     0.057 A 
ATOM     16  C   UNL A   1      34.321  21.013  25.488  1.00  0.00     0.090 A 
ATOM     17  C   UNL A   1      33.521  22.194  23.528  1.00  0.00     0.136 A 
ATOM     18  C   UNL A   1      33.455  21.102  24.388  1.00  0.00     0.273 A 
BRANCH  14  19
ATOM     19  O   UNL A   1      36.594  23.780  24.645  1.00  0.00    -0.493 OA
ATOM     20  C   UNL A   1      37.683  23.465  25.501  1.00  0.00     0.278 C 
ENDBRANCH  14  19
BRANCH  18  21
ATOM     21  N   UNL A   1      32.476  20.043  24.122  1.00  0.00     0.062 N 
ATOM     22  O   UNL A   1      32.262  19.745  22.939  1.00  0.00    -0.258 OA
ATOM     23  O   UNL A   1      31.903  19.530  25.093  1.00  0.00    -0.258 OA
ENDBRANCH  18  21
ENDBRANCH  12  13
ENDBRANCH  11  12
ENDBRANCH   8  11
ENDBRANCH   6   8
ENDBRANCH   5   6
ENDBRANCH   4   5
ENDBRANCH   3   4
ENDBRANCH   2   3
ENDBRANCH   1   2
BRANCH   1  24
ATOM     24  C   UNL A   1      34.275  28.828  26.890  1.00  0.00     0.188 C 
BRANCH  24  25
ATOM     25  O   UNL A   1      33.410  29.822  27.396  1.00  0.00    -0.376 OA
BRANCH  25  26
ATOM     26  C   UNL A   1      33.873  31.170  27.379  1.00  0.00     0.202 C 
BRANCH  26  27
ATOM     27  C   UNL A   1      32.824  32.256  27.713  1.00  0.00     0.261 C 
BRANCH  27  28
ATOM     28  O   UNL A   1      33.187  33.629  27.435  1.00  0.00    -0.460 OA
BRANCH  28  29
ATOM     29  C   UNL A   1      33.263  34.492  28.485  1.00  0.00     0.338 C 
ATOM     30  O   UNL A   1      32.407  35.274  28.835  1.00  0.00    -0.246 OA
BRANCH  29  31
ATOM     31  C   UNL A   1      34.438  34.102  29.329  1.00  0.00     0.060 A 
ATOM     32  C   UNL A   1      35.727  34.294  28.800  1.00  0.00     0.016 A 
ATOM     33  C   UNL A   1      34.299  33.653  30.645  1.00  0.00     0.016 A 
ATOM     34  C   UNL A   1      36.865  33.985  29.559  1.00  0.00     0.010 A 
ATOM     35  C   UNL A   1      35.439  33.330  31.398  1.00  0.00     0.010 A 
ATOM     36  C   UNL A   1      36.731  33.456  30.849  1.00  0.00    -0.014 A 
BRANCH  36  37
ATOM     37  C   UNL A   1      37.895  32.828  31.539  1.00  0.00     0.031 A 
ATOM     38  C   UNL A   1      38.550  31.639  30.883  1.00  0.00     0.074 A 
ATOM     39  C   UNL A   1      38.381  33.278  32.711  1.00  0.00     0.049 A 
ATOM     40  N   UNL A   1      39.520  30.869  31.311  1.00  0.00    -0.248 NA
ATOM     41  C   UNL A   1      38.032  31.267  29.557  1.00  0.00     0.031 C 
ATOM     42  C   UNL A   1      37.900  34.448  33.439  1.00  0.00     0.029 A 
ATOM     43  N   UNL A   1      39.396  32.783  33.501  1.00  0.00    -0.354 N 
ATOM     44  C   UNL A   1      39.712  29.916  30.319  1.00  0.00     0.074 A 
ATOM     45  C   UNL A   1      38.743  30.187  29.279  1.00  0.00     0.031 C 
ATOM     46  C   UNL A   1      38.613  34.578  34.573  1.00  0.00     0.029 A 
ATOM     47  C   UNL A   1      39.574  33.479  34.674  1.00  0.00     0.049 A 
ATOM     48  H   UNL A   1      39.942  32.004  33.249  1.00  0.00     0.167 HD
ATOM     49  C   UNL A   1      40.616  28.907  30.271  1.00  0.00     0.037 A 
ATOM     50  C   UNL A   1      40.400  33.242  35.715  1.00  0.00     0.037 A 
ATOM     51  C   UNL A   1      41.585  28.628  31.298  1.00  0.00     0.049 A 
ATOM     52  C   UNL A   1      41.326  32.048  35.685  1.00  0.00     0.074 A 
ATOM     53  C   UNL A   1      42.559  27.646  31.319  1.00  0.00     0.029 A 
ATOM     54  N   UNL A   1      41.693  29.323  32.494  1.00  0.00    -0.354 N 
ATOM     55  N   UNL A   1      41.524  31.169  34.733  1.00  0.00    -0.248 NA
ATOM     56  C   UNL A   1      42.146  31.814  36.887  1.00  0.00     0.031 C 
ATOM     57  C   UNL A   1      43.208  27.699  32.558  1.00  0.00     0.029 A 
ATOM     58  C   UNL A   1      42.690  28.762  33.278  1.00  0.00     0.049 A 
ATOM     59  H   UNL A   1      41.143  30.098  32.748  1.00  0.00     0.167 HD
ATOM     60  C   UNL A   1      42.512  30.309  35.201  1.00  0.00     0.074 A 
ATOM     61  C   UNL A   1      42.881  30.774  36.520  1.00  0.00     0.031 C 
ATOM     62  C   UNL A   1      43.066  29.233  34.587  1.00  0.00     0.037 A 
BRANCH  49  63
ATOM     63  C   UNL A   1      40.564  27.992  29.080  1.00  0.00     0.064 A 
ATOM     64  C   UNL A   1      41.316  28.235  27.921  1.00  0.00     0.173 A 
ATOM     65  C   UNL A   1      39.757  26.844  29.108  1.00  0.00     0.173 A 
ATOM     66  F   UNL A   1      42.094  29.325  27.835  1.00  0.00    -0.203 F 
ATOM     67  C   UNL A   1      41.231  27.386  26.820  1.00  0.00     0.198 A 
ATOM     68  C   UNL A   1      39.703  25.977  28.020  1.00  0.00     0.198 A 
ATOM     69  F   UNL A   1      39.022  26.559  30.194  1.00  0.00    -0.203 F 
ATOM     70  F   UNL A   1      41.908  27.673  25.700  1.00  0.00    -0.200 F 
ATOM     71  C   UNL A   1      40.430  26.254  26.873  1.00  0.00     0.200 A 
ATOM     72  F   UNL A   1      38.941  24.876  28.081  1.00  0.00    -0.200 F 
ATOM     73  F   UNL A   1      40.351  25.436  25.814  1.00  0.00    -0.200 F 
ENDBRANCH  49  63
BRANCH  50  74
ATOM     74  C   UNL A   1      40.394  34.147  36.898  1.00  0.00     0.064 A 
ATOM     75  C   UNL A   1      41.303  35.211  36.996  1.00  0.00     0.173 A 
ATOM     76  C   UNL A   1      39.517  33.941  37.973  1.00  0.00     0.173 A 
ATOM     77  F   UNL A   1      42.191  35.424  36.013  1.00  0.00    -0.203 F 
ATOM     78  C   UNL A   1      41.346  36.023  38.128  1.00  0.00     0.198 A 
ATOM     79  C   UNL A   1      39.540  34.773  39.092  1.00  0.00     0.198 A 
ATOM     80  F   UNL A   1      38.640  32.927  37.941  1.00  0.00    -0.203 F 
ATOM     81  F   UNL A   1      42.264  36.994  38.219  1.00  0.00    -0.200 F 
ATOM     82  C   UNL A   1      40.460  35.807  39.172  1.00  0.00     0.200 A 
ATOM     83  F   UNL A   1      38.681  34.562  40.099  1.00  0.00    -0.200 F 
ATOM     84  F   UNL A   1      40.505  36.585  40.263  1.00  0.00    -0.200 F 
ENDBRANCH  50  74
BRANCH  62  85
ATOM     85  C   UNL A   1      44.172  28.506  35.303  1.00  0.00     0.064 A 
ATOM     86  C   UNL A   1      45.520  28.869  35.155  1.00  0.00     0.173 A 
ATOM     87  C   UNL A   1      43.874  27.460  36.191  1.00  0.00     0.173 A 
ATOM     88  F   UNL A   1      45.865  29.853  34.312  1.00  0.00    -0.203 F 
ATOM     89  C   UNL A   1      46.525  28.196  35.847  1.00  0.00     0.198 A 
ATOM     90  C   UNL A   1      44.878  26.813  36.908  1.00  0.00     0.198 A 
ATOM     91  F   UNL A   1      42.602  27.076  36.381  1.00  0.00    -0.203 F 
ATOM     92  F   UNL A   1      47.808  28.529  35.652  1.00  0.00    -0.200 F 
ATOM     93  C   UNL A   1      46.204  27.176  36.729  1.00  0.00     0.200 A 
ATOM     94  F   UNL A   1      44.561  25.841  37.774  1.00  0.00    -0.200 F 
ATOM     95  F   UNL A   1      47.171  26.538  37.403  1.00  0.00    -0.200 F 
ENDBRANCH  62  85
ENDBRANCH  36  37
ENDBRANCH  29  31
ENDBRANCH  28  29
ENDBRANCH  27  28
ENDBRANCH  26  27
ENDBRANCH  25  26
ENDBRANCH  24  25
ENDBRANCH   1  24
TORSDOF 22
ENDMDL
