MODEL 1
REMARK VINA RESULT:      -9.9      0.000      0.000
REMARK SMILES C[C@@H](C(=O)OCCOCCOCCOC(=O)c1ccc(-c2c3nc(c(-c4c(F)c(F)c(F)c(F)c4F)c4ccc([nH]4)c(-c4c(F)c(F)c(F)c(F)c4F)c4nc(c(-c5c(F)c(F)c(F)c(F)c5F)c5ccc2[nH]5)C=C4)C=C3)cc1)c1ccc(-c2ccn(C(F)F)c(=O)c2)cc1
REMARK SMILES IDX 9 1 8 2 7 3 6 4 5 5 3 6 4 7 2 8 1 9 80 10 81 11 95 12 82 13
REMARK SMILES IDX 94 14 83 15 84 16 85 17 93 18 86 19 91 20 87 21 92 22 88 23
REMARK SMILES IDX 89 24 90 25 10 26 11 27 12 28 13 29 14 30 15 31 16 32 17 33
REMARK SMILES IDX 18 34 79 35 19 36 78 37 20 38 21 39 22 40 72 41 23 42 77 43
REMARK SMILES IDX 71 44 73 45 24 46 76 47 70 48 69 49 25 51 57 52 37 53 56 54
REMARK SMILES IDX 38 55 41 56 55 57 74 58 39 59 40 60 54 62 75 63 42 64 26 65
REMARK SMILES IDX 27 66 35 67 28 68 29 69 33 70 36 71 30 72 31 73 34 74 32 75
REMARK SMILES IDX 58 76 59 77 67 78 60 79 61 80 65 81 68 82 62 83 63 84 66 85
REMARK SMILES IDX 64 86 43 87 44 88 52 89 45 90 46 91 50 92 53 93 47 94 48 95
REMARK SMILES IDX 51 96 49 97
REMARK H PARENT 73 50 41 61
REMARK Flexibility Score: inf
ROOT
ATOM      1  C   UNL A   1      32.902  36.308  30.555  1.00  0.00     0.188 C 
ENDROOT
BRANCH   1   2
ATOM      2  O   UNL A   1      32.899  37.381  31.484  1.00  0.00    -0.376 OA
BRANCH   2   3
ATOM      3  C   UNL A   1      33.904  37.400  32.493  1.00  0.00     0.202 C 
BRANCH   3   4
ATOM      4  C   UNL A   1      34.081  36.183  33.425  1.00  0.00     0.261 C 
BRANCH   4   5
ATOM      5  O   UNL A   1      35.427  35.665  33.553  1.00  0.00    -0.463 OA
BRANCH   5   6
ATOM      6  C   UNL A   1      35.547  34.352  33.896  1.00  0.00     0.313 C 
ATOM      7  O   UNL A   1      35.380  33.935  35.040  1.00  0.00    -0.252 OA
BRANCH   6   8
ATOM      8  C   UNL A   1      35.918  33.405  32.734  1.00  0.00     0.126 C 
ATOM      9  C   UNL A   1      34.801  32.666  31.989  1.00  0.00     0.025 C 
BRANCH   8  10
ATOM     10  C   UNL A   1      37.025  32.432  33.146  1.00  0.00    -0.034 A 
ATOM     11  C   UNL A   1      38.246  32.887  33.661  1.00  0.00     0.005 A 
ATOM     12  C   UNL A   1      36.854  31.052  32.991  1.00  0.00     0.005 A 
ATOM     13  C   UNL A   1      39.288  32.006  33.948  1.00  0.00     0.009 A 
ATOM     14  C   UNL A   1      37.891  30.163  33.305  1.00  0.00     0.009 A 
ATOM     15  C   UNL A   1      39.123  30.634  33.775  1.00  0.00    -0.018 A 
BRANCH  15  16
ATOM     16  C   UNL A   1      40.214  29.698  34.099  1.00  0.00    -0.011 A 
ATOM     17  C   UNL A   1      40.666  28.669  33.182  1.00  0.00     0.027 A 
ATOM     18  C   UNL A   1      40.778  29.780  35.317  1.00  0.00     0.080 A 
ATOM     19  C   UNL A   1      41.551  27.748  33.582  1.00  0.00     0.095 A 
ATOM     20  C   UNL A   1      41.799  28.791  35.759  1.00  0.00     0.255 A 
ATOM     21  N   UNL A   1      42.088  27.782  34.856  1.00  0.00    -0.258 N 
ATOM     22  O   UNL A   1      42.268  28.903  36.886  1.00  0.00    -0.269 OA
BRANCH  21  23
ATOM     23  C   UNL A   1      42.963  26.735  35.316  1.00  0.00     0.451 C 
ATOM     24  F   UNL A   1      42.317  25.870  36.131  1.00  0.00    -0.185 F 
ATOM     25  F   UNL A   1      43.473  26.036  34.274  1.00  0.00    -0.185 F 
ENDBRANCH  21  23
ENDBRANCH  15  16
ENDBRANCH   8  10
ENDBRANCH   6   8
ENDBRANCH   5   6
ENDBRANCH   4   5
ENDBRANCH   3   4
ENDBRANCH   2   3
ENDBRANCH   1   2
BRANCH   1  26
ATOM     26  C   UNL A   1      33.272  36.611  29.093  1.00  0.00     0.188 C 
BRANCH  26  27
ATOM     27  O   UNL A   1      33.947  35.573  28.433  1.00  0.00    -0.376 OA
BRANCH  27  28
ATOM     28  C   UNL A   1      33.349  34.295  28.346  1.00  0.00     0.202 C 
BRANCH  28  29
ATOM     29  C   UNL A   1      34.094  33.002  28.724  1.00  0.00     0.261 C 
BRANCH  29  30
ATOM     30  O   UNL A   1      34.493  32.115  27.668  1.00  0.00    -0.460 OA
BRANCH  30  31
ATOM     31  C   UNL A   1      34.358  30.783  27.881  1.00  0.00     0.338 C 
ATOM     32  O   UNL A   1      33.357  30.116  27.732  1.00  0.00    -0.246 OA
BRANCH  31  33
ATOM     33  C   UNL A   1      35.720  30.233  28.114  1.00  0.00     0.060 A 
ATOM     34  C   UNL A   1      36.042  29.729  29.380  1.00  0.00     0.016 A 
ATOM     35  C   UNL A   1      36.668  30.201  27.087  1.00  0.00     0.016 A 
ATOM     36  C   UNL A   1      37.319  29.213  29.627  1.00  0.00     0.010 A 
ATOM     37  C   UNL A   1      37.951  29.699  27.341  1.00  0.00     0.010 A 
ATOM     38  C   UNL A   1      38.291  29.218  28.617  1.00  0.00    -0.014 A 
BRANCH  38  39
ATOM     39  C   UNL A   1      39.709  28.904  28.943  1.00  0.00     0.031 A 
ATOM     40  C   UNL A   1      40.499  29.920  29.721  1.00  0.00     0.074 A 
ATOM     41  C   UNL A   1      40.293  27.754  28.558  1.00  0.00     0.049 A 
ATOM     42  N   UNL A   1      41.760  29.910  30.070  1.00  0.00    -0.248 NA
ATOM     43  C   UNL A   1      39.767  31.126  30.141  1.00  0.00     0.031 C 
ATOM     44  C   UNL A   1      39.641  26.695  27.795  1.00  0.00     0.029 A 
ATOM     45  N   UNL A   1      41.572  27.286  28.753  1.00  0.00    -0.354 N 
ATOM     46  C   UNL A   1      41.974  31.105  30.743  1.00  0.00     0.074 A 
ATOM     47  C   UNL A   1      40.722  31.831  30.729  1.00  0.00     0.031 C 
ATOM     48  C   UNL A   1      40.515  25.689  27.608  1.00  0.00     0.029 A 
ATOM     49  C   UNL A   1      41.810  26.060  28.179  1.00  0.00     0.049 A 
ATOM     50  H   UNL A   1      42.254  27.785  29.258  1.00  0.00     0.167 HD
ATOM     51  C   UNL A   1      43.113  31.559  31.319  1.00  0.00     0.037 A 
ATOM     52  C   UNL A   1      42.949  25.336  28.100  1.00  0.00     0.037 A 
ATOM     53  C   UNL A   1      44.363  30.846  31.318  1.00  0.00     0.049 A 
ATOM     54  C   UNL A   1      44.216  25.892  28.713  1.00  0.00     0.074 A 
ATOM     55  C   UNL A   1      45.577  31.232  31.858  1.00  0.00     0.029 A 
ATOM     56  N   UNL A   1      44.559  29.597  30.743  1.00  0.00    -0.354 N 
ATOM     57  N   UNL A   1      44.408  27.020  29.354  1.00  0.00    -0.248 NA
ATOM     58  C   UNL A   1      45.433  25.074  28.583  1.00  0.00     0.031 C 
ATOM     59  C   UNL A   1      46.525  30.252  31.549  1.00  0.00     0.029 A 
ATOM     60  C   UNL A   1      45.886  29.220  30.880  1.00  0.00     0.049 A 
ATOM     61  H   UNL A   1      43.861  29.060  30.306  1.00  0.00     0.167 HD
ATOM     62  C   UNL A   1      45.744  27.026  29.737  1.00  0.00     0.074 A 
ATOM     63  C   UNL A   1      46.317  25.784  29.267  1.00  0.00     0.031 C 
ATOM     64  C   UNL A   1      46.441  27.977  30.410  1.00  0.00     0.037 A 
BRANCH  51  65
ATOM     65  C   UNL A   1      43.070  32.920  31.954  1.00  0.00     0.064 A 
ATOM     66  C   UNL A   1      42.857  33.090  33.330  1.00  0.00     0.173 A 
ATOM     67  C   UNL A   1      43.266  34.070  31.174  1.00  0.00     0.173 A 
ATOM     68  F   UNL A   1      42.643  32.026  34.118  1.00  0.00    -0.203 F 
ATOM     69  C   UNL A   1      42.814  34.362  33.895  1.00  0.00     0.198 A 
ATOM     70  C   UNL A   1      43.258  35.337  31.748  1.00  0.00     0.198 A 
ATOM     71  F   UNL A   1      43.474  33.965  29.853  1.00  0.00    -0.203 F 
ATOM     72  F   UNL A   1      42.552  34.504  35.202  1.00  0.00    -0.200 F 
ATOM     73  C   UNL A   1      43.022  35.483  33.106  1.00  0.00     0.200 A 
ATOM     74  F   UNL A   1      43.473  36.418  30.986  1.00  0.00    -0.200 F 
ATOM     75  F   UNL A   1      42.986  36.706  33.653  1.00  0.00    -0.200 F 
ENDBRANCH  51  65
BRANCH  52  76
ATOM     76  C   UNL A   1      42.961  24.015  27.402  1.00  0.00     0.064 A 
ATOM     77  C   UNL A   1      43.347  23.902  26.058  1.00  0.00     0.173 A 
ATOM     78  C   UNL A   1      42.561  22.836  28.048  1.00  0.00     0.173 A 
ATOM     79  F   UNL A   1      43.696  24.992  25.363  1.00  0.00    -0.203 F 
ATOM     80  C   UNL A   1      43.337  22.678  25.392  1.00  0.00     0.198 A 
ATOM     81  C   UNL A   1      42.579  21.604  27.391  1.00  0.00     0.198 A 
ATOM     82  F   UNL A   1      42.160  22.871  29.326  1.00  0.00    -0.203 F 
ATOM     83  F   UNL A   1      43.683  22.623  24.098  1.00  0.00    -0.200 F 
ATOM     84  C   UNL A   1      42.961  21.527  26.061  1.00  0.00     0.200 A 
ATOM     85  F   UNL A   1      42.225  20.492  28.048  1.00  0.00    -0.200 F 
ATOM     86  F   UNL A   1      42.961  20.349  25.423  1.00  0.00    -0.200 F 
ENDBRANCH  52  76
BRANCH  64  87
ATOM     87  C   UNL A   1      47.893  27.707  30.698  1.00  0.00     0.064 A 
ATOM     88  C   UNL A   1      48.908  28.101  29.813  1.00  0.00     0.173 A 
ATOM     89  C   UNL A   1      48.278  27.091  31.900  1.00  0.00     0.173 A 
ATOM     90  F   UNL A   1      48.598  28.686  28.646  1.00  0.00    -0.203 F 
ATOM     91  C   UNL A   1      50.249  27.859  30.105  1.00  0.00     0.198 A 
ATOM     92  C   UNL A   1      49.622  26.884  32.204  1.00  0.00     0.198 A 
ATOM     93  F   UNL A   1      47.354  26.706  32.792  1.00  0.00    -0.203 F 
ATOM     94  F   UNL A   1      51.197  28.196  29.218  1.00  0.00    -0.200 F 
ATOM     95  C   UNL A   1      50.606  27.259  31.302  1.00  0.00     0.200 A 
ATOM     96  F   UNL A   1      49.965  26.322  33.372  1.00  0.00    -0.200 F 
ATOM     97  F   UNL A   1      51.897  27.037  31.585  1.00  0.00    -0.200 F 
ENDBRANCH  64  87
ENDBRANCH  38  39
ENDBRANCH  31  33
ENDBRANCH  30  31
ENDBRANCH  29  30
ENDBRANCH  28  29
ENDBRANCH  27  28
ENDBRANCH  26  27
ENDBRANCH   1  26
TORSDOF 20
ENDMDL
MODEL 2
REMARK VINA RESULT:      -9.7      2.085      3.990
REMARK SMILES C[C@@H](C(=O)OCCOCCOCCOC(=O)c1ccc(-c2c3nc(c(-c4c(F)c(F)c(F)c(F)c4F)c4ccc([nH]4)c(-c4c(F)c(F)c(F)c(F)c4F)c4nc(c(-c5c(F)c(F)c(F)c(F)c5F)c5ccc2[nH]5)C=C4)C=C3)cc1)c1ccc(-c2ccn(C(F)F)c(=O)c2)cc1
REMARK SMILES IDX 9 1 8 2 7 3 6 4 5 5 3 6 4 7 2 8 1 9 80 10 81 11 95 12 82 13
REMARK SMILES IDX 94 14 83 15 84 16 85 17 93 18 86 19 91 20 87 21 92 22 88 23
REMARK SMILES IDX 89 24 90 25 10 26 11 27 12 28 13 29 14 30 15 31 16 32 17 33
REMARK SMILES IDX 18 34 79 35 19 36 78 37 20 38 21 39 22 40 72 41 23 42 77 43
REMARK SMILES IDX 71 44 73 45 24 46 76 47 70 48 69 49 25 51 57 52 37 53 56 54
REMARK SMILES IDX 38 55 41 56 55 57 74 58 39 59 40 60 54 62 75 63 42 64 26 65
REMARK SMILES IDX 27 66 35 67 28 68 29 69 33 70 36 71 30 72 31 73 34 74 32 75
REMARK SMILES IDX 58 76 59 77 67 78 60 79 61 80 65 81 68 82 62 83 63 84 66 85
REMARK SMILES IDX 64 86 43 87 44 88 52 89 45 90 46 91 50 92 53 93 47 94 48 95
REMARK SMILES IDX 51 96 49 97
REMARK H PARENT 73 50 41 61
REMARK Flexibility Score: inf
ROOT
ATOM      1  C   UNL A   1      32.914  36.557  30.353  1.00  0.00     0.188 C 
ENDROOT
BRANCH   1   2
ATOM      2  O   UNL A   1      32.904  37.600  31.315  1.00  0.00    -0.376 OA
BRANCH   2   3
ATOM      3  C   UNL A   1      33.828  37.526  32.397  1.00  0.00     0.202 C 
BRANCH   3   4
ATOM      4  C   UNL A   1      33.849  36.280  33.307  1.00  0.00     0.261 C 
BRANCH   4   5
ATOM      5  O   UNL A   1      35.154  35.735  33.616  1.00  0.00    -0.463 OA
BRANCH   5   6
ATOM      6  C   UNL A   1      35.285  34.381  33.543  1.00  0.00     0.313 C 
ATOM      7  O   UNL A   1      35.358  33.655  34.533  1.00  0.00    -0.252 OA
BRANCH   6   8
ATOM      8  C   UNL A   1      35.341  33.807  32.111  1.00  0.00     0.126 C 
ATOM      9  C   UNL A   1      34.839  32.380  31.860  1.00  0.00     0.025 C 
BRANCH   8  10
ATOM     10  C   UNL A   1      36.724  34.008  31.489  1.00  0.00    -0.034 A 
ATOM     11  C   UNL A   1      36.970  33.718  30.141  1.00  0.00     0.005 A 
ATOM     12  C   UNL A   1      37.795  34.465  32.266  1.00  0.00     0.005 A 
ATOM     13  C   UNL A   1      38.252  33.813  29.598  1.00  0.00     0.009 A 
ATOM     14  C   UNL A   1      39.077  34.586  31.715  1.00  0.00     0.009 A 
ATOM     15  C   UNL A   1      39.320  34.248  30.378  1.00  0.00    -0.018 A 
BRANCH  15  16
ATOM     16  C   UNL A   1      40.671  34.372  29.803  1.00  0.00    -0.011 A 
ATOM     17  C   UNL A   1      41.012  35.365  28.802  1.00  0.00     0.027 A 
ATOM     18  C   UNL A   1      41.609  33.492  30.195  1.00  0.00     0.080 A 
ATOM     19  C   UNL A   1      42.207  35.335  28.200  1.00  0.00     0.095 A 
ATOM     20  C   UNL A   1      42.959  33.477  29.569  1.00  0.00     0.255 A 
ATOM     21  N   UNL A   1      43.157  34.392  28.548  1.00  0.00    -0.258 N 
ATOM     22  O   UNL A   1      43.771  32.643  29.953  1.00  0.00    -0.269 OA
BRANCH  21  23
ATOM     23  C   UNL A   1      44.403  34.301  27.832  1.00  0.00     0.451 C 
ATOM     24  F   UNL A   1      44.349  33.362  26.860  1.00  0.00    -0.185 F 
ATOM     25  F   UNL A   1      44.722  35.486  27.259  1.00  0.00    -0.185 F 
ENDBRANCH  21  23
ENDBRANCH  15  16
ENDBRANCH   8  10
ENDBRANCH   6   8
ENDBRANCH   5   6
ENDBRANCH   4   5
ENDBRANCH   3   4
ENDBRANCH   2   3
ENDBRANCH   1   2
BRANCH   1  26
ATOM     26  C   UNL A   1      33.571  36.829  28.989  1.00  0.00     0.188 C 
BRANCH  26  27
ATOM     27  O   UNL A   1      34.138  35.701  28.378  1.00  0.00    -0.376 OA
BRANCH  27  28
ATOM     28  C   UNL A   1      33.331  34.574  28.104  1.00  0.00     0.202 C 
BRANCH  28  29
ATOM     29  C   UNL A   1      33.702  33.153  28.567  1.00  0.00     0.261 C 
BRANCH  29  30
ATOM     30  O   UNL A   1      34.629  32.401  27.772  1.00  0.00    -0.460 OA
BRANCH  30  31
ATOM     31  C   UNL A   1      34.450  31.059  27.698  1.00  0.00     0.338 C 
ATOM     32  O   UNL A   1      33.524  30.472  27.180  1.00  0.00    -0.246 OA
BRANCH  31  33
ATOM     33  C   UNL A   1      35.707  30.418  28.166  1.00  0.00     0.060 A 
ATOM     34  C   UNL A   1      35.730  29.803  29.424  1.00  0.00     0.016 A 
ATOM     35  C   UNL A   1      36.852  30.410  27.364  1.00  0.00     0.016 A 
ATOM     36  C   UNL A   1      36.903  29.201  29.892  1.00  0.00     0.010 A 
ATOM     37  C   UNL A   1      38.030  29.820  27.840  1.00  0.00     0.010 A 
ATOM     38  C   UNL A   1      38.069  29.227  29.114  1.00  0.00    -0.014 A 
BRANCH  38  39
ATOM     39  C   UNL A   1      39.371  28.811  29.705  1.00  0.00     0.031 A 
ATOM     40  C   UNL A   1      39.881  29.570  30.899  1.00  0.00     0.074 A 
ATOM     41  C   UNL A   1      40.092  27.794  29.198  1.00  0.00     0.049 A 
ATOM     42  N   UNL A   1      41.009  29.444  31.550  1.00  0.00    -0.248 NA
ATOM     43  C   UNL A   1      39.004  30.635  31.413  1.00  0.00     0.031 C 
ATOM     44  C   UNL A   1      39.714  26.988  28.043  1.00  0.00     0.029 A 
ATOM     45  N   UNL A   1      41.301  27.267  29.591  1.00  0.00    -0.354 N 
ATOM     46  C   UNL A   1      40.981  30.413  32.543  1.00  0.00     0.074 A 
ATOM     47  C   UNL A   1      39.739  31.140  32.392  1.00  0.00     0.031 C 
ATOM     48  C   UNL A   1      40.658  26.052  27.835  1.00  0.00     0.029 A 
ATOM     49  C   UNL A   1      41.742  26.233  28.800  1.00  0.00     0.049 A 
ATOM     50  H   UNL A   1      41.805  27.601  30.368  1.00  0.00     0.167 HD
ATOM     51  C   UNL A   1      41.909  30.676  33.493  1.00  0.00     0.037 A 
ATOM     52  C   UNL A   1      42.899  25.536  28.835  1.00  0.00     0.037 A 
ATOM     53  C   UNL A   1      43.153  29.966  33.632  1.00  0.00     0.049 A 
ATOM     54  C   UNL A   1      43.936  25.885  29.880  1.00  0.00     0.074 A 
ATOM     55  C   UNL A   1      44.166  30.172  34.552  1.00  0.00     0.029 A 
ATOM     56  N   UNL A   1      43.555  28.911  32.824  1.00  0.00    -0.354 N 
ATOM     57  N   UNL A   1      43.899  26.799  30.820  1.00  0.00    -0.248 NA
ATOM     58  C   UNL A   1      45.187  25.109  29.862  1.00  0.00     0.031 C 
ATOM     59  C   UNL A   1      45.212  29.292  34.255  1.00  0.00     0.029 A 
ATOM     60  C   UNL A   1      44.820  28.487  33.198  1.00  0.00     0.049 A 
ATOM     61  H   UNL A   1      43.021  28.523  32.094  1.00  0.00     0.167 HD
ATOM     62  C   UNL A   1      45.090  26.678  31.526  1.00  0.00     0.074 A 
ATOM     63  C   UNL A   1      45.828  25.595  30.914  1.00  0.00     0.031 C 
ATOM     64  C   UNL A   1      45.540  27.403  32.581  1.00  0.00     0.037 A 
BRANCH  51  65
ATOM     65  C   UNL A   1      41.635  31.821  34.428  1.00  0.00     0.064 A 
ATOM     66  C   UNL A   1      42.101  33.118  34.168  1.00  0.00     0.173 A 
ATOM     67  C   UNL A   1      40.875  31.617  35.590  1.00  0.00     0.173 A 
ATOM     68  F   UNL A   1      42.849  33.364  33.082  1.00  0.00    -0.203 F 
ATOM     69  C   UNL A   1      41.841  34.162  35.052  1.00  0.00     0.198 A 
ATOM     70  C   UNL A   1      40.587  32.670  36.453  1.00  0.00     0.198 A 
ATOM     71  F   UNL A   1      40.404  30.397  35.886  1.00  0.00    -0.203 F 
ATOM     72  F   UNL A   1      42.345  35.381  34.814  1.00  0.00    -0.200 F 
ATOM     73  C   UNL A   1      41.078  33.939  36.188  1.00  0.00     0.200 A 
ATOM     74  F   UNL A   1      39.839  32.455  37.543  1.00  0.00    -0.200 F 
ATOM     75  F   UNL A   1      40.824  34.946  37.036  1.00  0.00    -0.200 F 
ENDBRANCH  51  65
BRANCH  52  76
ATOM     76  C   UNL A   1      43.158  24.448  27.844  1.00  0.00     0.064 A 
ATOM     77  C   UNL A   1      43.805  24.706  26.626  1.00  0.00     0.173 A 
ATOM     78  C   UNL A   1      42.742  23.127  28.073  1.00  0.00     0.173 A 
ATOM     79  F   UNL A   1      44.188  25.951  26.317  1.00  0.00    -0.203 F 
ATOM     80  C   UNL A   1      44.028  23.702  25.686  1.00  0.00     0.198 A 
ATOM     81  C   UNL A   1      42.991  22.115  27.145  1.00  0.00     0.198 A 
ATOM     82  F   UNL A   1      42.101  22.811  29.206  1.00  0.00    -0.203 F 
ATOM     83  F   UNL A   1      44.621  24.003  24.522  1.00  0.00    -0.200 F 
ATOM     84  C   UNL A   1      43.629  22.404  25.949  1.00  0.00     0.200 A 
ATOM     85  F   UNL A   1      42.613  20.858  27.411  1.00  0.00    -0.200 F 
ATOM     86  F   UNL A   1      43.852  21.437  25.049  1.00  0.00    -0.200 F 
ENDBRANCH  52  76
BRANCH  64  87
ATOM     87  C   UNL A   1      46.883  27.039  33.157  1.00  0.00     0.064 A 
ATOM     88  C   UNL A   1      47.015  26.089  34.181  1.00  0.00     0.173 A 
ATOM     89  C   UNL A   1      48.057  27.610  32.642  1.00  0.00     0.173 A 
ATOM     90  F   UNL A   1      45.927  25.516  34.718  1.00  0.00    -0.203 F 
ATOM     91  C   UNL A   1      48.267  25.751  34.689  1.00  0.00     0.198 A 
ATOM     92  C   UNL A   1      49.310  27.242  33.128  1.00  0.00     0.198 A 
ATOM     93  F   UNL A   1      47.995  28.513  31.652  1.00  0.00    -0.203 F 
ATOM     94  F   UNL A   1      48.364  24.881  35.705  1.00  0.00    -0.200 F 
ATOM     95  C   UNL A   1      49.414  26.321  34.158  1.00  0.00     0.200 A 
ATOM     96  F   UNL A   1      50.418  27.780  32.598  1.00  0.00    -0.200 F 
ATOM     97  F   UNL A   1      50.618  25.986  34.642  1.00  0.00    -0.200 F 
ENDBRANCH  64  87
ENDBRANCH  38  39
ENDBRANCH  31  33
ENDBRANCH  30  31
ENDBRANCH  29  30
ENDBRANCH  28  29
ENDBRANCH  27  28
ENDBRANCH  26  27
ENDBRANCH   1  26
TORSDOF 20
ENDMDL
MODEL 3
REMARK VINA RESULT:      -9.4      5.729     11.172
REMARK SMILES C[C@@H](C(=O)OCCOCCOCCOC(=O)c1ccc(-c2c3nc(c(-c4c(F)c(F)c(F)c(F)c4F)c4ccc([nH]4)c(-c4c(F)c(F)c(F)c(F)c4F)c4nc(c(-c5c(F)c(F)c(F)c(F)c5F)c5ccc2[nH]5)C=C4)C=C3)cc1)c1ccc(-c2ccn(C(F)F)c(=O)c2)cc1
REMARK SMILES IDX 9 1 8 2 7 3 6 4 5 5 3 6 4 7 2 8 1 9 80 10 81 11 95 12 82 13
REMARK SMILES IDX 94 14 83 15 84 16 85 17 93 18 86 19 91 20 87 21 92 22 88 23
REMARK SMILES IDX 89 24 90 25 10 26 11 27 12 28 13 29 14 30 15 31 16 32 17 33
REMARK SMILES IDX 18 34 79 35 19 36 78 37 20 38 21 39 22 40 72 41 23 42 77 43
REMARK SMILES IDX 71 44 73 45 24 46 76 47 70 48 69 49 25 51 57 52 37 53 56 54
REMARK SMILES IDX 38 55 41 56 55 57 74 58 39 59 40 60 54 62 75 63 42 64 26 65
REMARK SMILES IDX 27 66 35 67 28 68 29 69 33 70 36 71 30 72 31 73 34 74 32 75
REMARK SMILES IDX 58 76 59 77 67 78 60 79 61 80 65 81 68 82 62 83 63 84 66 85
REMARK SMILES IDX 64 86 43 87 44 88 52 89 45 90 46 91 50 92 53 93 47 94 48 95
REMARK SMILES IDX 51 96 49 97
REMARK H PARENT 73 50 41 61
REMARK Flexibility Score: inf
ROOT
ATOM      1  C   UNL A   1      34.024  25.030  25.414  1.00  0.00     0.188 C 
ENDROOT
BRANCH   1   2
ATOM      2  O   UNL A   1      34.317  26.268  26.043  1.00  0.00    -0.376 OA
BRANCH   2   3
ATOM      3  C   UNL A   1      33.557  27.412  25.665  1.00  0.00     0.202 C 
BRANCH   3   4
ATOM      4  C   UNL A   1      33.909  28.175  24.371  1.00  0.00     0.261 C 
BRANCH   4   5
ATOM      5  O   UNL A   1      32.873  28.239  23.363  1.00  0.00    -0.463 OA
BRANCH   5   6
ATOM      6  C   UNL A   1      32.935  27.316  22.362  1.00  0.00     0.313 C 
ATOM      7  O   UNL A   1      33.930  27.147  21.660  1.00  0.00    -0.252 OA
BRANCH   6   8
ATOM      8  C   UNL A   1      31.650  26.484  22.161  1.00  0.00     0.126 C 
ATOM      9  C   UNL A   1      30.323  27.017  22.714  1.00  0.00     0.025 C 
BRANCH   8  10
ATOM     10  C   UNL A   1      31.862  25.028  22.582  1.00  0.00    -0.034 A 
ATOM     11  C   UNL A   1      32.860  24.236  22.001  1.00  0.00     0.005 A 
ATOM     12  C   UNL A   1      31.038  24.439  23.548  1.00  0.00     0.005 A 
ATOM     13  C   UNL A   1      32.992  22.884  22.317  1.00  0.00     0.009 A 
ATOM     14  C   UNL A   1      31.188  23.088  23.887  1.00  0.00     0.009 A 
ATOM     15  C   UNL A   1      32.158  22.294  23.264  1.00  0.00    -0.018 A 
BRANCH  15  16
ATOM     16  C   UNL A   1      32.310  20.871  23.618  1.00  0.00    -0.011 A 
ATOM     17  C   UNL A   1      32.628  20.424  24.960  1.00  0.00     0.027 A 
ATOM     18  C   UNL A   1      32.190  19.959  22.638  1.00  0.00     0.080 A 
ATOM     19  C   UNL A   1      32.906  19.137  25.196  1.00  0.00     0.095 A 
ATOM     20  C   UNL A   1      32.450  18.516  22.895  1.00  0.00     0.255 A 
ATOM     21  N   UNL A   1      32.852  18.199  24.181  1.00  0.00    -0.258 N 
ATOM     22  O   UNL A   1      32.343  17.729  21.961  1.00  0.00    -0.269 OA
BRANCH  21  23
ATOM     23  C   UNL A   1      33.247  16.834  24.416  1.00  0.00     0.451 C 
ATOM     24  F   UNL A   1      34.429  16.550  23.822  1.00  0.00    -0.185 F 
ATOM     25  F   UNL A   1      33.369  16.585  25.742  1.00  0.00    -0.185 F 
ENDBRANCH  21  23
ENDBRANCH  15  16
ENDBRANCH   8  10
ENDBRANCH   6   8
ENDBRANCH   5   6
ENDBRANCH   4   5
ENDBRANCH   3   4
ENDBRANCH   2   3
ENDBRANCH   1   2
BRANCH   1  26
ATOM     26  C   UNL A   1      34.927  23.824  25.721  1.00  0.00     0.188 C 
BRANCH  26  27
ATOM     27  O   UNL A   1      35.768  23.439  24.667  1.00  0.00    -0.376 OA
BRANCH  27  28
ATOM     28  C   UNL A   1      36.006  22.066  24.428  1.00  0.00     0.202 C 
BRANCH  28  29
ATOM     29  C   UNL A   1      37.383  21.412  24.644  1.00  0.00     0.261 C 
BRANCH  29  30
ATOM     30  O   UNL A   1      37.874  21.292  25.988  1.00  0.00    -0.460 OA
BRANCH  30  31
ATOM     31  C   UNL A   1      39.216  21.216  26.163  1.00  0.00     0.338 C 
ATOM     32  O   UNL A   1      39.952  20.326  25.795  1.00  0.00    -0.246 OA
BRANCH  31  33
ATOM     33  C   UNL A   1      39.669  22.530  26.690  1.00  0.00     0.060 A 
ATOM     34  C   UNL A   1      39.008  23.694  26.276  1.00  0.00     0.016 A 
ATOM     35  C   UNL A   1      40.728  22.614  27.598  1.00  0.00     0.016 A 
ATOM     36  C   UNL A   1      39.420  24.944  26.751  1.00  0.00     0.010 A 
ATOM     37  C   UNL A   1      41.150  23.868  28.061  1.00  0.00     0.010 A 
ATOM     38  C   UNL A   1      40.511  25.042  27.627  1.00  0.00    -0.014 A 
BRANCH  38  39
ATOM     39  C   UNL A   1      41.103  26.373  27.936  1.00  0.00     0.031 A 
ATOM     40  C   UNL A   1      42.528  26.625  27.528  1.00  0.00     0.074 A 
ATOM     41  C   UNL A   1      40.406  27.335  28.567  1.00  0.00     0.049 A 
ATOM     42  N   UNL A   1      43.286  27.671  27.740  1.00  0.00    -0.248 NA
ATOM     43  C   UNL A   1      43.197  25.534  26.801  1.00  0.00     0.031 C 
ATOM     44  C   UNL A   1      39.025  27.213  29.021  1.00  0.00     0.029 A 
ATOM     45  N   UNL A   1      40.769  28.608  28.942  1.00  0.00    -0.354 N 
ATOM     46  C   UNL A   1      44.518  27.363  27.180  1.00  0.00     0.074 A 
ATOM     47  C   UNL A   1      44.418  26.022  26.645  1.00  0.00     0.031 C 
ATOM     48  C   UNL A   1      38.647  28.373  29.589  1.00  0.00     0.029 A 
ATOM     49  C   UNL A   1      39.780  29.298  29.602  1.00  0.00     0.049 A 
ATOM     50  H   UNL A   1      41.656  28.990  28.753  1.00  0.00     0.167 HD
ATOM     51  C   UNL A   1      45.634  28.128  27.121  1.00  0.00     0.037 A 
ATOM     52  C   UNL A   1      39.799  30.522  30.174  1.00  0.00     0.037 A 
ATOM     53  C   UNL A   1      45.739  29.454  27.668  1.00  0.00     0.049 A 
ATOM     54  C   UNL A   1      41.076  31.334  30.131  1.00  0.00     0.074 A 
ATOM     55  C   UNL A   1      46.834  30.301  27.675  1.00  0.00     0.029 A 
ATOM     56  N   UNL A   1      44.710  30.127  28.313  1.00  0.00    -0.354 N 
ATOM     57  N   UNL A   1      42.235  31.038  29.594  1.00  0.00    -0.248 NA
ATOM     58  C   UNL A   1      41.049  32.651  30.786  1.00  0.00     0.031 C 
ATOM     59  C   UNL A   1      46.490  31.455  28.385  1.00  0.00     0.029 A 
ATOM     60  C   UNL A   1      45.159  31.360  28.757  1.00  0.00     0.049 A 
ATOM     61  H   UNL A   1      43.797  29.779  28.435  1.00  0.00     0.167 HD
ATOM     62  C   UNL A   1      43.054  32.140  29.806  1.00  0.00     0.074 A 
ATOM     63  C   UNL A   1      42.258  33.119  30.513  1.00  0.00     0.031 C 
ATOM     64  C   UNL A   1      44.352  32.327  29.456  1.00  0.00     0.037 A 
BRANCH  51  65
ATOM     65  C   UNL A   1      46.852  27.522  26.483  1.00  0.00     0.064 A 
ATOM     66  C   UNL A   1      47.811  26.823  27.231  1.00  0.00     0.173 A 
ATOM     67  C   UNL A   1      47.050  27.627  25.097  1.00  0.00     0.173 A 
ATOM     68  F   UNL A   1      47.682  26.711  28.561  1.00  0.00    -0.203 F 
ATOM     69  C   UNL A   1      48.936  26.277  26.619  1.00  0.00     0.198 A 
ATOM     70  C   UNL A   1      48.158  27.049  24.485  1.00  0.00     0.198 A 
ATOM     71  F   UNL A   1      46.164  28.284  24.334  1.00  0.00    -0.203 F 
ATOM     72  F   UNL A   1      49.869  25.663  27.361  1.00  0.00    -0.200 F 
ATOM     73  C   UNL A   1      49.105  26.383  25.247  1.00  0.00     0.200 A 
ATOM     74  F   UNL A   1      48.311  27.142  23.156  1.00  0.00    -0.200 F 
ATOM     75  F   UNL A   1      50.186  25.852  24.659  1.00  0.00    -0.200 F 
ENDBRANCH  51  65
BRANCH  52  76
ATOM     76  C   UNL A   1      38.583  31.059  30.856  1.00  0.00     0.064 A 
ATOM     77  C   UNL A   1      37.559  31.691  30.134  1.00  0.00     0.173 A 
ATOM     78  C   UNL A   1      38.423  30.982  32.248  1.00  0.00     0.173 A 
ATOM     79  F   UNL A   1      37.664  31.844  28.808  1.00  0.00    -0.203 F 
ATOM     80  C   UNL A   1      36.433  32.217  30.765  1.00  0.00     0.198 A 
ATOM     81  C   UNL A   1      37.282  31.483  32.878  1.00  0.00     0.198 A 
ATOM     82  F   UNL A   1      39.370  30.410  33.003  1.00  0.00    -0.203 F 
ATOM     83  F   UNL A   1      35.496  32.841  30.038  1.00  0.00    -0.200 F 
ATOM     84  C   UNL A   1      36.290  32.106  32.137  1.00  0.00     0.200 A 
ATOM     85  F   UNL A   1      37.144  31.361  34.204  1.00  0.00    -0.200 F 
ATOM     86  F   UNL A   1      35.203  32.603  32.742  1.00  0.00    -0.200 F 
ENDBRANCH  52  76
BRANCH  64  87
ATOM     87  C   UNL A   1      44.990  33.643  29.813  1.00  0.00     0.064 A 
ATOM     88  C   UNL A   1      45.657  33.835  31.032  1.00  0.00     0.173 A 
ATOM     89  C   UNL A   1      44.980  34.710  28.900  1.00  0.00     0.173 A 
ATOM     90  F   UNL A   1      45.692  32.853  31.946  1.00  0.00    -0.203 F 
ATOM     91  C   UNL A   1      46.258  35.054  31.338  1.00  0.00     0.198 A 
ATOM     92  C   UNL A   1      45.613  35.915  29.194  1.00  0.00     0.198 A 
ATOM     93  F   UNL A   1      44.371  34.580  27.712  1.00  0.00    -0.203 F 
ATOM     94  F   UNL A   1      46.841  35.231  32.532  1.00  0.00    -0.200 F 
ATOM     95  C   UNL A   1      46.243  36.090  30.417  1.00  0.00     0.200 A 
ATOM     96  F   UNL A   1      45.614  36.908  28.294  1.00  0.00    -0.200 F 
ATOM     97  F   UNL A   1      46.830  37.259  30.709  1.00  0.00    -0.200 F 
ENDBRANCH  64  87
ENDBRANCH  38  39
ENDBRANCH  31  33
ENDBRANCH  30  31
ENDBRANCH  29  30
ENDBRANCH  28  29
ENDBRANCH  27  28
ENDBRANCH  26  27
ENDBRANCH   1  26
TORSDOF 20
ENDMDL
