MODEL 1
REMARK VINA RESULT:     -13.7      0.000      0.000
REMARK SMILES Cc1c(C(=O)OCCOCCOCCOC(=O)c2ccc(-c3c4nc(c(-c5c(F)c(F)c(F)c(F)c5F)c5ccc([nH]5)c(-c5c(F)c(F)c(F)c(F)c5F)c5nc(c(-c6c(F)c(F)c(F)c(F)c6F)c6ccc3[nH]6)C=C5)C=C4)cc2)cccc1-n1c(C)cc(/C=C2/C(=O)NC(=S)N=C2O)c1C
REMARK SMILES IDX 10 1 9 2 8 3 7 4 6 5 4 6 5 7 3 8 1 9 2 10 84 11 81 12 83 13
REMARK SMILES IDX 82 14 85 15 86 16 100 17 87 18 88 19 89 20 101 21 90 22
REMARK SMILES IDX 91 23 92 24 98 25 93 26 94 27 97 28 95 29 96 31 99 32 11 34
REMARK SMILES IDX 12 35 13 36 14 37 15 38 16 39 17 40 18 41 19 42 80 43 20 44
REMARK SMILES IDX 79 45 21 46 22 47 23 48 73 49 24 50 78 51 72 52 74 53 25 54
REMARK SMILES IDX 77 55 71 56 70 57 26 59 58 60 38 61 57 62 39 63 42 64 56 65
REMARK SMILES IDX 75 66 40 67 41 68 55 70 76 71 43 72 27 73 28 74 36 75 29 76
REMARK SMILES IDX 30 77 34 78 37 79 31 80 32 81 35 82 33 83 59 84 60 85 68 86
REMARK SMILES IDX 61 87 62 88 66 89 69 90 63 91 64 92 67 93 65 94 44 95 45 96
REMARK SMILES IDX 53 97 46 98 47 99 51 100 54 101 48 102 49 103 52 104 50 105
REMARK H PARENT 94 30 99 33 74 58 42 69
REMARK Flexibility Score: inf
ROOT
ATOM      1  C   UNL A   1      34.380  30.724  27.127  1.00  0.00     0.188 C 
ENDROOT
BRANCH   1   2
ATOM      2  O   UNL A   1      34.382  29.314  27.446  1.00  0.00    -0.376 OA
BRANCH   2   3
ATOM      3  C   UNL A   1      33.246  28.452  27.280  1.00  0.00     0.202 C 
BRANCH   3   4
ATOM      4  C   UNL A   1      31.782  29.047  26.840  1.00  0.00     0.261 C 
BRANCH   4   5
ATOM      5  O   UNL A   1      31.320  29.892  25.436  1.00  0.00    -0.460 OA
BRANCH   5   6
ATOM      6  C   UNL A   1      30.657  29.663  24.200  1.00  0.00     0.338 C 
ATOM      7  O   UNL A   1      30.108  30.443  23.426  1.00  0.00    -0.246 OA
BRANCH   6   8
ATOM      8  C   UNL A   1      30.433  28.360  23.566  1.00  0.00     0.065 A 
ATOM      9  C   UNL A   1      32.905  28.321  23.381  1.00  0.00     0.047 C 
ATOM     10  C   UNL A   1      31.582  27.607  23.453  1.00  0.00    -0.012 A 
ATOM     11  C   UNL A   1      31.430  26.213  23.565  1.00  0.00     0.049 A 
ATOM     12  C   UNL A   1      29.183  27.692  23.799  1.00  0.00     0.016 A 
ATOM     13  C   UNL A   1      30.209  25.543  23.737  1.00  0.00     0.027 A 
ATOM     14  C   UNL A   1      29.063  26.299  23.856  1.00  0.00     0.003 A 
BRANCH  11  15
ATOM     15  N   UNL A   1      32.559  25.429  23.359  1.00  0.00    -0.318 N 
ATOM     16  C   UNL A   1      32.990  24.959  22.135  1.00  0.00     0.020 A 
ATOM     17  C   UNL A   1      33.112  24.697  24.389  1.00  0.00     0.027 A 
ATOM     18  C   UNL A   1      32.399  25.406  20.838  1.00  0.00     0.065 C 
ATOM     19  C   UNL A   1      33.958  24.014  22.402  1.00  0.00     0.031 A 
ATOM     20  C   UNL A   1      34.057  23.871  23.814  1.00  0.00    -0.003 A 
ATOM     21  C   UNL A   1      32.603  24.864  25.795  1.00  0.00     0.065 C 
BRANCH  20  22
ATOM     22  C   UNL A   1      34.837  22.894  24.488  1.00  0.00     0.029 C 
ATOM     23  C   UNL A   1      34.549  21.606  24.747  1.00  0.00     0.102 C 
ATOM     24  C   UNL A   1      35.682  20.770  25.196  1.00  0.00     0.262 C 
ATOM     25  C   UNL A   1      33.314  20.858  24.501  1.00  0.00     0.226 C 
ATOM     26  O   UNL A   1      36.733  21.211  25.644  1.00  0.00    -0.269 OA
ATOM     27  N   UNL A   1      35.482  19.430  24.998  1.00  0.00    -0.297 N 
ATOM     28  N   UNL A   1      33.203  19.586  24.382  1.00  0.00    -0.184 NA
ATOM     29  C   UNL A   1      34.336  18.831  24.534  1.00  0.00     0.203 C 
ATOM     30  H   UNL A   1      36.238  18.835  25.208  1.00  0.00     0.172 HD
ATOM     31  S   UNL A   1      34.388  17.183  24.233  1.00  0.00    -0.038 S 
BRANCH  25  32
ATOM     32  O   UNL A   1      32.183  21.567  24.446  1.00  0.00    -0.493 OA
ATOM     33  H   UNL A   1      32.200  22.490  24.612  1.00  0.00     0.295 HD
ENDBRANCH  25  32
ENDBRANCH  20  22
ENDBRANCH  11  15
ENDBRANCH   6   8
ENDBRANCH   5   6
ENDBRANCH   4   5
ENDBRANCH   3   4
ENDBRANCH   2   3
ENDBRANCH   1   2
BRANCH   1  34
ATOM     34  C   UNL A   1      33.828  31.783  28.088  1.00  0.00     0.188 C 
BRANCH  34  35
ATOM     35  O   UNL A   1      34.182  33.071  27.623  1.00  0.00    -0.376 OA
BRANCH  35  36
ATOM     36  C   UNL A   1      35.154  33.774  28.375  1.00  0.00     0.202 C 
BRANCH  36  37
ATOM     37  C   UNL A   1      35.044  33.450  29.872  1.00  0.00     0.261 C 
BRANCH  37  38
ATOM     38  O   UNL A   1      36.269  32.837  30.348  1.00  0.00    -0.460 OA
BRANCH  38  39
ATOM     39  C   UNL A   1      36.156  31.679  31.079  1.00  0.00     0.338 C 
ATOM     40  O   UNL A   1      35.883  31.632  32.269  1.00  0.00    -0.246 OA
BRANCH  39  41
ATOM     41  C   UNL A   1      36.674  30.506  30.286  1.00  0.00     0.060 A 
ATOM     42  C   UNL A   1      37.071  29.264  30.801  1.00  0.00     0.016 A 
ATOM     43  C   UNL A   1      37.175  30.801  29.070  1.00  0.00     0.016 A 
ATOM     44  C   UNL A   1      38.115  28.452  30.161  1.00  0.00     0.010 A 
ATOM     45  C   UNL A   1      38.374  30.156  28.753  1.00  0.00     0.010 A 
ATOM     46  C   UNL A   1      38.922  28.908  29.107  1.00  0.00    -0.014 A 
BRANCH  46  47
ATOM     47  C   UNL A   1      40.363  28.230  28.564  1.00  0.00     0.031 A 
ATOM     48  C   UNL A   1      40.863  26.693  27.958  1.00  0.00     0.074 A 
ATOM     49  C   UNL A   1      41.457  28.994  28.793  1.00  0.00     0.049 A 
ATOM     50  N   UNL A   1      41.941  26.045  28.385  1.00  0.00    -0.248 NA
ATOM     51  C   UNL A   1      40.199  25.753  26.968  1.00  0.00     0.031 C 
ATOM     52  C   UNL A   1      42.844  28.699  28.444  1.00  0.00     0.029 A 
ATOM     53  N   UNL A   1      41.554  30.133  29.607  1.00  0.00    -0.354 N 
ATOM     54  C   UNL A   1      42.018  24.790  27.758  1.00  0.00     0.074 A 
ATOM     55  C   UNL A   1      40.889  24.634  26.938  1.00  0.00     0.031 C 
ATOM     56  C   UNL A   1      43.641  29.338  29.315  1.00  0.00     0.029 A 
ATOM     57  C   UNL A   1      42.790  30.027  30.267  1.00  0.00     0.049 A 
ATOM     58  H   UNL A   1      40.892  30.857  29.697  1.00  0.00     0.167 HD
ATOM     59  C   UNL A   1      43.014  23.875  27.847  1.00  0.00     0.037 A 
ATOM     60  C   UNL A   1      42.872  29.995  31.625  1.00  0.00     0.037 A 
ATOM     61  C   UNL A   1      44.125  24.381  28.571  1.00  0.00     0.049 A 
ATOM     62  C   UNL A   1      43.594  28.784  32.173  1.00  0.00     0.074 A 
ATOM     63  C   UNL A   1      45.210  25.150  28.204  1.00  0.00     0.029 A 
ATOM     64  N   UNL A   1      43.985  24.485  29.930  1.00  0.00    -0.354 N 
ATOM     65  N   UNL A   1      44.024  27.784  31.454  1.00  0.00    -0.248 NA
ATOM     66  C   UNL A   1      43.790  28.564  33.609  1.00  0.00     0.031 C 
ATOM     67  C   UNL A   1      45.691  25.783  29.381  1.00  0.00     0.029 A 
ATOM     68  C   UNL A   1      44.932  25.337  30.447  1.00  0.00     0.049 A 
ATOM     69  H   UNL A   1      43.303  24.016  30.461  1.00  0.00     0.167 HD
ATOM     70  C   UNL A   1      44.467  26.797  32.294  1.00  0.00     0.074 A 
ATOM     71  C   UNL A   1      44.302  27.325  33.630  1.00  0.00     0.031 C 
ATOM     72  C   UNL A   1      44.906  25.586  31.864  1.00  0.00     0.037 A 
BRANCH  59  73
ATOM     73  C   UNL A   1      42.961  22.629  27.002  1.00  0.00     0.064 A 
ATOM     74  C   UNL A   1      42.180  21.534  27.398  1.00  0.00     0.173 A 
ATOM     75  C   UNL A   1      43.833  22.415  25.910  1.00  0.00     0.173 A 
ATOM     76  F   UNL A   1      41.320  21.648  28.419  1.00  0.00    -0.203 F 
ATOM     77  C   UNL A   1      42.326  20.277  26.804  1.00  0.00     0.198 A 
ATOM     78  C   UNL A   1      44.006  21.146  25.343  1.00  0.00     0.198 A 
ATOM     79  F   UNL A   1      44.616  23.409  25.460  1.00  0.00    -0.203 F 
ATOM     80  F   UNL A   1      41.598  19.242  27.247  1.00  0.00    -0.200 F 
ATOM     81  C   UNL A   1      43.262  20.075  25.801  1.00  0.00     0.200 A 
ATOM     82  F   UNL A   1      44.945  20.950  24.405  1.00  0.00    -0.200 F 
ATOM     83  F   UNL A   1      43.465  18.846  25.304  1.00  0.00    -0.200 F 
ENDBRANCH  59  73
BRANCH  60  84
ATOM     84  C   UNL A   1      41.800  30.757  32.334  1.00  0.00     0.064 A 
ATOM     85  C   UNL A   1      41.867  32.168  32.348  1.00  0.00     0.173 A 
ATOM     86  C   UNL A   1      40.599  30.175  32.761  1.00  0.00     0.173 A 
ATOM     87  F   UNL A   1      42.986  32.794  31.948  1.00  0.00    -0.203 F 
ATOM     88  C   UNL A   1      40.760  32.953  32.665  1.00  0.00     0.198 A 
ATOM     89  C   UNL A   1      39.498  30.965  33.109  1.00  0.00     0.198 A 
ATOM     90  F   UNL A   1      40.430  28.846  32.720  1.00  0.00    -0.203 F 
ATOM     91  F   UNL A   1      40.824  34.285  32.533  1.00  0.00    -0.200 F 
ATOM     92  C   UNL A   1      39.573  32.350  33.038  1.00  0.00     0.200 A 
ATOM     93  F   UNL A   1      38.326  30.382  33.395  1.00  0.00    -0.200 F 
ATOM     94  F   UNL A   1      38.478  33.093  33.245  1.00  0.00    -0.200 F 
ENDBRANCH  60  84
BRANCH  72  95
ATOM     95  C   UNL A   1      45.388  24.512  32.778  1.00  0.00     0.064 A 
ATOM     96  C   UNL A   1      44.549  23.454  33.143  1.00  0.00     0.173 A 
ATOM     97  C   UNL A   1      46.621  24.619  33.452  1.00  0.00     0.173 A 
ATOM     98  F   UNL A   1      43.353  23.301  32.556  1.00  0.00    -0.203 F 
ATOM     99  C   UNL A   1      44.920  22.552  34.138  1.00  0.00     0.198 A 
ATOM    100  C   UNL A   1      46.966  23.748  34.479  1.00  0.00     0.198 A 
ATOM    101  F   UNL A   1      47.508  25.572  33.126  1.00  0.00    -0.203 F 
ATOM    102  F   UNL A   1      44.104  21.536  34.449  1.00  0.00    -0.200 F 
ATOM    103  C   UNL A   1      46.116  22.713  34.820  1.00  0.00     0.200 A 
ATOM    104  F   UNL A   1      48.118  23.923  35.142  1.00  0.00    -0.200 F 
ATOM    105  F   UNL A   1      46.449  21.868  35.805  1.00  0.00    -0.200 F 
ENDBRANCH  72  95
ENDBRANCH  46  47
ENDBRANCH  39  41
ENDBRANCH  38  39
ENDBRANCH  37  38
ENDBRANCH  36  37
ENDBRANCH  35  36
ENDBRANCH  34  35
ENDBRANCH   1  34
TORSDOF 20
ENDMDL
MODEL 2
REMARK VINA RESULT:     -12.8      2.172      3.574
REMARK SMILES Cc1c(C(=O)OCCOCCOCCOC(=O)c2ccc(-c3c4nc(c(-c5c(F)c(F)c(F)c(F)c5F)c5ccc([nH]5)c(-c5c(F)c(F)c(F)c(F)c5F)c5nc(c(-c6c(F)c(F)c(F)c(F)c6F)c6ccc3[nH]6)C=C5)C=C4)cc2)cccc1-n1c(C)cc(/C=C2/C(=O)NC(=S)N=C2O)c1C
REMARK SMILES IDX 10 1 9 2 8 3 7 4 6 5 4 6 5 7 3 8 1 9 2 10 84 11 81 12 83 13
REMARK SMILES IDX 82 14 85 15 86 16 100 17 87 18 88 19 89 20 101 21 90 22
REMARK SMILES IDX 91 23 92 24 98 25 93 26 94 27 97 28 95 29 96 31 99 32 11 34
REMARK SMILES IDX 12 35 13 36 14 37 15 38 16 39 17 40 18 41 19 42 80 43 20 44
REMARK SMILES IDX 79 45 21 46 22 47 23 48 73 49 24 50 78 51 72 52 74 53 25 54
REMARK SMILES IDX 77 55 71 56 70 57 26 59 58 60 38 61 57 62 39 63 42 64 56 65
REMARK SMILES IDX 75 66 40 67 41 68 55 70 76 71 43 72 27 73 28 74 36 75 29 76
REMARK SMILES IDX 30 77 34 78 37 79 31 80 32 81 35 82 33 83 59 84 60 85 68 86
REMARK SMILES IDX 61 87 62 88 66 89 69 90 63 91 64 92 67 93 65 94 44 95 45 96
REMARK SMILES IDX 53 97 46 98 47 99 51 100 54 101 48 102 49 103 52 104 50 105
REMARK H PARENT 94 30 99 33 74 58 42 69
REMARK Flexibility Score: inf
ROOT
ATOM      1  C   UNL A   1      32.638  33.362  27.567  1.00  0.00     0.188 C 
ENDROOT
BRANCH   1   2
ATOM      2  O   UNL A   1      33.236  32.064  27.346  1.00  0.00    -0.376 OA
BRANCH   2   3
ATOM      3  C   UNL A   1      32.485  30.856  27.158  1.00  0.00     0.202 C 
BRANCH   3   4
ATOM      4  C   UNL A   1      31.502  30.658  25.859  1.00  0.00     0.261 C 
BRANCH   4   5
ATOM      5  O   UNL A   1      31.551  29.497  24.615  1.00  0.00    -0.460 OA
BRANCH   5   6
ATOM      6  C   UNL A   1      32.264  28.321  24.254  1.00  0.00     0.338 C 
ATOM      7  O   UNL A   1      32.698  27.946  23.168  1.00  0.00    -0.246 OA
BRANCH   6   8
ATOM      8  C   UNL A   1      32.620  27.215  25.149  1.00  0.00     0.065 A 
ATOM      9  C   UNL A   1      30.733  26.055  24.034  1.00  0.00     0.047 C 
ATOM     10  C   UNL A   1      32.032  26.020  24.794  1.00  0.00    -0.012 A 
ATOM     11  C   UNL A   1      32.780  24.855  25.047  1.00  0.00     0.049 A 
ATOM     12  C   UNL A   1      33.934  27.200  25.728  1.00  0.00     0.016 A 
ATOM     13  C   UNL A   1      34.039  24.821  25.663  1.00  0.00     0.027 A 
ATOM     14  C   UNL A   1      34.627  26.018  26.010  1.00  0.00     0.003 A 
BRANCH  11  15
ATOM     15  N   UNL A   1      32.168  23.635  24.786  1.00  0.00    -0.318 N 
ATOM     16  C   UNL A   1      31.263  23.004  25.615  1.00  0.00     0.020 A 
ATOM     17  C   UNL A   1      32.720  22.742  23.890  1.00  0.00     0.027 A 
ATOM     18  C   UNL A   1      30.670  23.658  26.819  1.00  0.00     0.065 C 
ATOM     19  C   UNL A   1      31.122  21.720  25.129  1.00  0.00     0.031 A 
ATOM     20  C   UNL A   1      32.012  21.566  24.030  1.00  0.00    -0.003 A 
ATOM     21  C   UNL A   1      33.904  23.144  23.053  1.00  0.00     0.065 C 
BRANCH  20  22
ATOM     22  C   UNL A   1      32.270  20.346  23.349  1.00  0.00     0.029 C 
ATOM     23  C   UNL A   1      32.713  19.175  23.840  1.00  0.00     0.102 C 
ATOM     24  C   UNL A   1      32.595  18.011  22.936  1.00  0.00     0.262 C 
ATOM     25  C   UNL A   1      33.154  18.838  25.196  1.00  0.00     0.226 C 
ATOM     26  O   UNL A   1      32.439  18.089  21.724  1.00  0.00    -0.269 OA
ATOM     27  N   UNL A   1      32.601  16.810  23.593  1.00  0.00    -0.297 N 
ATOM     28  N   UNL A   1      33.181  17.668  25.720  1.00  0.00    -0.184 NA
ATOM     29  C   UNL A   1      32.798  16.610  24.938  1.00  0.00     0.203 C 
ATOM     30  H   UNL A   1      32.446  16.007  23.045  1.00  0.00     0.172 HD
ATOM     31  S   UNL A   1      32.610  15.054  25.528  1.00  0.00    -0.038 S 
BRANCH  25  32
ATOM     32  O   UNL A   1      33.620  19.842  25.943  1.00  0.00    -0.493 OA
ATOM     33  H   UNL A   1      33.534  20.727  25.645  1.00  0.00     0.295 HD
ENDBRANCH  25  32
ENDBRANCH  20  22
ENDBRANCH  11  15
ENDBRANCH   6   8
ENDBRANCH   5   6
ENDBRANCH   4   5
ENDBRANCH   3   4
ENDBRANCH   2   3
ENDBRANCH   1   2
BRANCH   1  34
ATOM     34  C   UNL A   1      33.356  34.478  28.334  1.00  0.00     0.188 C 
BRANCH  34  35
ATOM     35  O   UNL A   1      32.686  34.713  29.557  1.00  0.00    -0.376 OA
BRANCH  35  36
ATOM     36  C   UNL A   1      33.103  35.842  30.304  1.00  0.00     0.202 C 
BRANCH  36  37
ATOM     37  C   UNL A   1      33.668  35.429  31.672  1.00  0.00     0.261 C 
BRANCH  37  38
ATOM     38  O   UNL A   1      34.856  34.613  31.502  1.00  0.00    -0.460 OA
BRANCH  38  39
ATOM     39  C   UNL A   1      34.701  33.249  31.562  1.00  0.00     0.338 C 
ATOM     40  O   UNL A   1      34.128  32.654  32.462  1.00  0.00    -0.246 OA
BRANCH  39  41
ATOM     41  C   UNL A   1      35.558  32.578  30.519  1.00  0.00     0.060 A 
ATOM     42  C   UNL A   1      35.765  31.199  30.374  1.00  0.00     0.016 A 
ATOM     43  C   UNL A   1      36.503  33.355  29.954  1.00  0.00     0.016 A 
ATOM     44  C   UNL A   1      37.018  30.650  29.839  1.00  0.00     0.010 A 
ATOM     45  C   UNL A   1      37.755  32.751  29.810  1.00  0.00     0.010 A 
ATOM     46  C   UNL A   1      38.167  31.421  29.597  1.00  0.00    -0.014 A 
BRANCH  46  47
ATOM     47  C   UNL A   1      39.734  30.859  29.356  1.00  0.00     0.031 A 
ATOM     48  C   UNL A   1      40.457  29.431  28.708  1.00  0.00     0.074 A 
ATOM     49  C   UNL A   1      40.692  31.611  29.949  1.00  0.00     0.049 A 
ATOM     50  N   UNL A   1      41.431  28.757  29.309  1.00  0.00    -0.248 NA
ATOM     51  C   UNL A   1      40.115  28.620  27.472  1.00  0.00     0.031 C 
ATOM     52  C   UNL A   1      42.137  31.400  29.928  1.00  0.00     0.029 A 
ATOM     53  N   UNL A   1      40.518  32.630  30.897  1.00  0.00    -0.354 N 
ATOM     54  C   UNL A   1      41.734  27.603  28.569  1.00  0.00     0.074 A 
ATOM     55  C   UNL A   1      40.854  27.532  27.476  1.00  0.00     0.031 C 
ATOM     56  C   UNL A   1      42.654  31.933  31.046  1.00  0.00     0.029 A 
ATOM     57  C   UNL A   1      41.556  32.465  31.830  1.00  0.00     0.049 A 
ATOM     58  H   UNL A   1      39.813  33.319  30.907  1.00  0.00     0.167 HD
ATOM     59  C   UNL A   1      42.729  26.708  28.790  1.00  0.00     0.037 A 
ATOM     60  C   UNL A   1      41.301  32.250  33.150  1.00  0.00     0.037 A 
ATOM     61  C   UNL A   1      43.595  27.137  29.831  1.00  0.00     0.049 A 
ATOM     62  C   UNL A   1      41.934  30.994  33.705  1.00  0.00     0.074 A 
ATOM     63  C   UNL A   1      44.690  27.976  29.849  1.00  0.00     0.029 A 
ATOM     64  N   UNL A   1      43.116  27.052  31.111  1.00  0.00    -0.354 N 
ATOM     65  N   UNL A   1      42.586  30.112  32.999  1.00  0.00    -0.248 NA
ATOM     66  C   UNL A   1      41.780  30.585  35.105  1.00  0.00     0.031 C 
ATOM     67  C   UNL A   1      44.827  28.454  31.180  1.00  0.00     0.029 A 
ATOM     68  C   UNL A   1      43.855  27.848  31.954  1.00  0.00     0.049 A 
ATOM     69  H   UNL A   1      42.352  26.498  31.389  1.00  0.00     0.167 HD
ATOM     70  C   UNL A   1      42.863  29.030  33.792  1.00  0.00     0.074 A 
ATOM     71  C   UNL A   1      42.342  29.367  35.098  1.00  0.00     0.031 C 
ATOM     72  C   UNL A   1      43.464  27.900  33.338  1.00  0.00     0.037 A 
BRANCH  59  73
ATOM     73  C   UNL A   1      42.958  25.588  27.810  1.00  0.00     0.064 A 
ATOM     74  C   UNL A   1      43.879  25.737  26.763  1.00  0.00     0.173 A 
ATOM     75  C   UNL A   1      42.132  24.442  27.760  1.00  0.00     0.173 A 
ATOM     76  F   UNL A   1      44.708  26.789  26.733  1.00  0.00    -0.203 F 
ATOM     77  C   UNL A   1      43.910  24.848  25.684  1.00  0.00     0.198 A 
ATOM     78  C   UNL A   1      42.139  23.576  26.660  1.00  0.00     0.198 A 
ATOM     79  F   UNL A   1      41.224  24.217  28.724  1.00  0.00    -0.203 F 
ATOM     80  F   UNL A   1      44.771  25.055  24.676  1.00  0.00    -0.200 F 
ATOM     81  C   UNL A   1      43.019  23.789  25.615  1.00  0.00     0.200 A 
ATOM     82  F   UNL A   1      41.242  22.581  26.580  1.00  0.00    -0.200 F 
ATOM     83  F   UNL A   1      42.989  23.000  24.532  1.00  0.00    -0.200 F 
ENDBRANCH  59  73
BRANCH  60  84
ATOM     84  C   UNL A   1      40.044  32.882  33.654  1.00  0.00     0.064 A 
ATOM     85  C   UNL A   1      38.826  32.182  33.502  1.00  0.00     0.173 A 
ATOM     86  C   UNL A   1      40.031  34.001  34.496  1.00  0.00     0.173 A 
ATOM     87  F   UNL A   1      38.765  31.097  32.713  1.00  0.00    -0.203 F 
ATOM     88  C   UNL A   1      37.690  32.518  34.236  1.00  0.00     0.198 A 
ATOM     89  C   UNL A   1      38.881  34.355  35.208  1.00  0.00     0.198 A 
ATOM     90  F   UNL A   1      41.158  34.683  34.744  1.00  0.00    -0.203 F 
ATOM     91  F   UNL A   1      36.596  31.746  34.167  1.00  0.00    -0.200 F 
ATOM     92  C   UNL A   1      37.721  33.600  35.096  1.00  0.00     0.200 A 
ATOM     93  F   UNL A   1      38.933  35.355  36.099  1.00  0.00    -0.200 F 
ATOM     94  F   UNL A   1      36.667  33.866  35.879  1.00  0.00    -0.200 F 
ENDBRANCH  60  84
BRANCH  72  95
ATOM     95  C   UNL A   1      43.766  26.724  34.202  1.00  0.00     0.064 A 
ATOM     96  C   UNL A   1      42.734  25.988  34.794  1.00  0.00     0.173 A 
ATOM     97  C   UNL A   1      45.083  26.427  34.604  1.00  0.00     0.173 A 
ATOM     98  F   UNL A   1      41.455  26.230  34.472  1.00  0.00    -0.203 F 
ATOM     99  C   UNL A   1      43.005  25.010  35.748  1.00  0.00     0.198 A 
ATOM    100  C   UNL A   1      45.347  25.485  35.592  1.00  0.00     0.198 A 
ATOM    101  F   UNL A   1      46.135  27.046  34.047  1.00  0.00    -0.203 F 
ATOM    102  F   UNL A   1      41.997  24.307  36.281  1.00  0.00    -0.200 F 
ATOM    103  C   UNL A   1      44.307  24.775  36.162  1.00  0.00     0.200 A 
ATOM    104  F   UNL A   1      46.608  25.278  35.997  1.00  0.00    -0.200 F 
ATOM    105  F   UNL A   1      44.558  23.863  37.111  1.00  0.00    -0.200 F 
ENDBRANCH  72  95
ENDBRANCH  46  47
ENDBRANCH  39  41
ENDBRANCH  38  39
ENDBRANCH  37  38
ENDBRANCH  36  37
ENDBRANCH  35  36
ENDBRANCH  34  35
ENDBRANCH   1  34
TORSDOF 20
ENDMDL
MODEL 3
REMARK VINA RESULT:     -12.7      1.370      1.987
REMARK SMILES Cc1c(C(=O)OCCOCCOCCOC(=O)c2ccc(-c3c4nc(c(-c5c(F)c(F)c(F)c(F)c5F)c5ccc([nH]5)c(-c5c(F)c(F)c(F)c(F)c5F)c5nc(c(-c6c(F)c(F)c(F)c(F)c6F)c6ccc3[nH]6)C=C5)C=C4)cc2)cccc1-n1c(C)cc(/C=C2/C(=O)NC(=S)N=C2O)c1C
REMARK SMILES IDX 10 1 9 2 8 3 7 4 6 5 4 6 5 7 3 8 1 9 2 10 84 11 81 12 83 13
REMARK SMILES IDX 82 14 85 15 86 16 100 17 87 18 88 19 89 20 101 21 90 22
REMARK SMILES IDX 91 23 92 24 98 25 93 26 94 27 97 28 95 29 96 31 99 32 11 34
REMARK SMILES IDX 12 35 13 36 14 37 15 38 16 39 17 40 18 41 19 42 80 43 20 44
REMARK SMILES IDX 79 45 21 46 22 47 23 48 73 49 24 50 78 51 72 52 74 53 25 54
REMARK SMILES IDX 77 55 71 56 70 57 26 59 58 60 38 61 57 62 39 63 42 64 56 65
REMARK SMILES IDX 75 66 40 67 41 68 55 70 76 71 43 72 27 73 28 74 36 75 29 76
REMARK SMILES IDX 30 77 34 78 37 79 31 80 32 81 35 82 33 83 59 84 60 85 68 86
REMARK SMILES IDX 61 87 62 88 66 89 69 90 63 91 64 92 67 93 65 94 44 95 45 96
REMARK SMILES IDX 53 97 46 98 47 99 51 100 54 101 48 102 49 103 52 104 50 105
REMARK H PARENT 94 30 99 33 74 58 42 69
REMARK Flexibility Score: inf
ROOT
ATOM      1  C   UNL A   1      32.713  34.365  27.965  1.00  0.00     0.188 C 
ENDROOT
BRANCH   1   2
ATOM      2  O   UNL A   1      32.116  33.052  27.855  1.00  0.00    -0.376 OA
BRANCH   2   3
ATOM      3  C   UNL A   1      31.592  32.508  26.635  1.00  0.00     0.202 C 
BRANCH   3   4
ATOM      4  C   UNL A   1      32.022  31.012  26.116  1.00  0.00     0.261 C 
BRANCH   4   5
ATOM      5  O   UNL A   1      32.239  29.568  26.994  1.00  0.00    -0.460 OA
BRANCH   5   6
ATOM      6  C   UNL A   1      31.743  28.237  27.033  1.00  0.00     0.338 C 
ATOM      7  O   UNL A   1      31.499  27.497  27.982  1.00  0.00    -0.246 OA
BRANCH   6   8
ATOM      8  C   UNL A   1      31.439  27.392  25.873  1.00  0.00     0.065 A 
ATOM      9  C   UNL A   1      33.900  27.103  25.770  1.00  0.00     0.047 C 
ATOM     10  C   UNL A   1      32.506  26.618  25.471  1.00  0.00    -0.012 A 
ATOM     11  C   UNL A   1      32.197  25.353  24.939  1.00  0.00     0.049 A 
ATOM     12  C   UNL A   1      30.109  26.866  25.741  1.00  0.00     0.016 A 
ATOM     13  C   UNL A   1      30.901  24.849  24.751  1.00  0.00     0.027 A 
ATOM     14  C   UNL A   1      29.837  25.622  25.161  1.00  0.00     0.003 A 
BRANCH  11  15
ATOM     15  N   UNL A   1      33.250  24.596  24.439  1.00  0.00    -0.318 N 
ATOM     16  C   UNL A   1      33.548  24.432  23.102  1.00  0.00     0.020 A 
ATOM     17  C   UNL A   1      33.832  23.602  25.198  1.00  0.00     0.027 A 
ATOM     18  C   UNL A   1      32.888  25.220  22.018  1.00  0.00     0.065 C 
ATOM     19  C   UNL A   1      34.468  23.406  23.033  1.00  0.00     0.031 A 
ATOM     20  C   UNL A   1      34.669  22.906  24.350  1.00  0.00    -0.003 A 
ATOM     21  C   UNL A   1      33.450  23.431  26.643  1.00  0.00     0.065 C 
BRANCH  20  22
ATOM     22  C   UNL A   1      35.433  21.755  24.682  1.00  0.00     0.029 C 
ATOM     23  C   UNL A   1      35.026  20.484  24.848  1.00  0.00     0.102 C 
ATOM     24  C   UNL A   1      36.097  19.466  24.895  1.00  0.00     0.262 C 
ATOM     25  C   UNL A   1      33.672  19.927  24.833  1.00  0.00     0.226 C 
ATOM     26  O   UNL A   1      37.277  19.712  25.114  1.00  0.00    -0.269 OA
ATOM     27  N   UNL A   1      35.662  18.204  24.593  1.00  0.00    -0.297 N 
ATOM     28  N   UNL A   1      33.351  18.709  24.593  1.00  0.00    -0.184 NA
ATOM     29  C   UNL A   1      34.364  17.817  24.363  1.00  0.00     0.203 C 
ATOM     30  H   UNL A   1      36.350  17.502  24.533  1.00  0.00     0.172 HD
ATOM     31  S   UNL A   1      34.102  16.239  23.862  1.00  0.00    -0.038 S 
BRANCH  25  32
ATOM     32  O   UNL A   1      32.676  20.760  25.149  1.00  0.00    -0.493 OA
ATOM     33  H   UNL A   1      32.557  21.032  26.038  1.00  0.00     0.295 HD
ENDBRANCH  25  32
ENDBRANCH  20  22
ENDBRANCH  11  15
ENDBRANCH   6   8
ENDBRANCH   5   6
ENDBRANCH   4   5
ENDBRANCH   3   4
ENDBRANCH   2   3
ENDBRANCH   1   2
BRANCH   1  34
ATOM     34  C   UNL A   1      33.787  34.694  29.007  1.00  0.00     0.188 C 
BRANCH  34  35
ATOM     35  O   UNL A   1      33.179  34.865  30.272  1.00  0.00    -0.376 OA
BRANCH  35  36
ATOM     36  C   UNL A   1      34.037  35.176  31.354  1.00  0.00     0.202 C 
BRANCH  36  37
ATOM     37  C   UNL A   1      34.384  33.921  32.170  1.00  0.00     0.261 C 
BRANCH  37  38
ATOM     38  O   UNL A   1      35.341  33.100  31.451  1.00  0.00    -0.460 OA
BRANCH  38  39
ATOM     39  C   UNL A   1      35.849  32.002  32.102  1.00  0.00     0.338 C 
ATOM     40  O   UNL A   1      36.057  31.943  33.305  1.00  0.00    -0.246 OA
BRANCH  39  41
ATOM     41  C   UNL A   1      36.362  30.994  31.106  1.00  0.00     0.060 A 
ATOM     42  C   UNL A   1      36.679  29.654  31.369  1.00  0.00     0.016 A 
ATOM     43  C   UNL A   1      36.942  31.507  30.003  1.00  0.00     0.016 A 
ATOM     44  C   UNL A   1      37.724  28.938  30.623  1.00  0.00     0.010 A 
ATOM     45  C   UNL A   1      38.129  30.881  29.614  1.00  0.00     0.010 A 
ATOM     46  C   UNL A   1      38.606  29.560  29.725  1.00  0.00    -0.014 A 
BRANCH  46  47
ATOM     47  C   UNL A   1      40.046  28.936  29.120  1.00  0.00     0.031 A 
ATOM     48  C   UNL A   1      40.562  27.437  28.437  1.00  0.00     0.074 A 
ATOM     49  C   UNL A   1      41.131  29.712  29.355  1.00  0.00     0.049 A 
ATOM     50  N   UNL A   1      41.663  26.794  28.811  1.00  0.00    -0.248 NA
ATOM     51  C   UNL A   1      39.893  26.526  27.424  1.00  0.00     0.031 C 
ATOM     52  C   UNL A   1      42.514  29.462  28.961  1.00  0.00     0.029 A 
ATOM     53  N   UNL A   1      41.224  30.818  30.214  1.00  0.00    -0.354 N 
ATOM     54  C   UNL A   1      41.750  25.569  28.129  1.00  0.00     0.074 A 
ATOM     55  C   UNL A   1      40.604  25.424  27.330  1.00  0.00     0.031 C 
ATOM     56  C   UNL A   1      43.319  30.079  29.840  1.00  0.00     0.029 A 
ATOM     57  C   UNL A   1      42.479  30.710  30.840  1.00  0.00     0.049 A 
ATOM     58  H   UNL A   1      40.551  31.523  30.351  1.00  0.00     0.167 HD
ATOM     59  C   UNL A   1      42.766  24.671  28.155  1.00  0.00     0.037 A 
ATOM     60  C   UNL A   1      42.595  30.622  32.193  1.00  0.00     0.037 A 
ATOM     61  C   UNL A   1      43.884  25.169  28.874  1.00  0.00     0.049 A 
ATOM     62  C   UNL A   1      43.354  29.405  32.672  1.00  0.00     0.074 A 
ATOM     63  C   UNL A   1      44.943  25.976  28.514  1.00  0.00     0.029 A 
ATOM     64  N   UNL A   1      43.775  25.214  30.239  1.00  0.00    -0.354 N 
ATOM     65  N   UNL A   1      43.786  28.445  31.901  1.00  0.00    -0.248 NA
ATOM     66  C   UNL A   1      43.589  29.129  34.092  1.00  0.00     0.031 C 
ATOM     67  C   UNL A   1      45.440  26.569  29.705  1.00  0.00     0.029 A 
ATOM     68  C   UNL A   1      44.717  26.063  30.769  1.00  0.00     0.049 A 
ATOM     69  H   UNL A   1      43.116  24.708  30.766  1.00  0.00     0.167 HD
ATOM     70  C   UNL A   1      44.269  27.433  32.687  1.00  0.00     0.074 A 
ATOM     71  C   UNL A   1      44.126  27.901  34.048  1.00  0.00     0.031 C 
ATOM     72  C   UNL A   1      44.721  26.250  32.196  1.00  0.00     0.037 A 
BRANCH  59  73
ATOM     73  C   UNL A   1      42.716  23.461  27.259  1.00  0.00     0.064 A 
ATOM     74  C   UNL A   1      42.155  22.260  27.717  1.00  0.00     0.173 A 
ATOM     75  C   UNL A   1      43.403  23.403  26.024  1.00  0.00     0.173 A 
ATOM     76  F   UNL A   1      41.480  22.224  28.873  1.00  0.00    -0.203 F 
ATOM     77  C   UNL A   1      42.346  21.056  27.032  1.00  0.00     0.198 A 
ATOM     78  C   UNL A   1      43.626  22.189  25.363  1.00  0.00     0.198 A 
ATOM     79  F   UNL A   1      43.969  24.506  25.508  1.00  0.00    -0.203 F 
ATOM     80  F   UNL A   1      41.837  19.920  27.531  1.00  0.00    -0.200 F 
ATOM     81  C   UNL A   1      43.109  21.014  25.876  1.00  0.00     0.200 A 
ATOM     82  F   UNL A   1      44.403  22.151  24.269  1.00  0.00    -0.200 F 
ATOM     83  F   UNL A   1      43.369  19.841  25.280  1.00  0.00    -0.200 F 
ENDBRANCH  59  73
BRANCH  60  84
ATOM     84  C   UNL A   1      41.525  31.331  32.959  1.00  0.00     0.064 A 
ATOM     85  C   UNL A   1      40.357  30.617  33.312  1.00  0.00     0.173 A 
ATOM     86  C   UNL A   1      41.715  32.576  33.571  1.00  0.00     0.173 A 
ATOM     87  F   UNL A   1      40.112  29.414  32.767  1.00  0.00    -0.203 F 
ATOM     88  C   UNL A   1      39.490  31.073  34.302  1.00  0.00     0.198 A 
ATOM     89  C   UNL A   1      40.826  33.046  34.543  1.00  0.00     0.198 A 
ATOM     90  F   UNL A   1      42.827  33.290  33.340  1.00  0.00    -0.203 F 
ATOM     91  F   UNL A   1      38.470  30.302  34.705  1.00  0.00    -0.200 F 
ATOM     92  C   UNL A   1      39.729  32.285  34.923  1.00  0.00     0.200 A 
ATOM     93  F   UNL A   1      41.099  34.182  35.200  1.00  0.00    -0.200 F 
ATOM     94  F   UNL A   1      38.958  32.680  35.945  1.00  0.00    -0.200 F 
ENDBRANCH  60  84
BRANCH  72  95
ATOM     95  C   UNL A   1      45.246  25.149  33.051  1.00  0.00     0.064 A 
ATOM     96  C   UNL A   1      44.381  24.375  33.832  1.00  0.00     0.173 A 
ATOM     97  C   UNL A   1      46.629  24.972  33.252  1.00  0.00     0.173 A 
ATOM     98  F   UNL A   1      43.052  24.505  33.706  1.00  0.00    -0.203 F 
ATOM     99  C   UNL A   1      44.874  23.474  34.773  1.00  0.00     0.198 A 
ATOM    100  C   UNL A   1      47.117  24.108  34.227  1.00  0.00     0.198 A 
ATOM    101  F   UNL A   1      47.529  25.633  32.508  1.00  0.00    -0.203 F 
ATOM    102  F   UNL A   1      44.020  22.731  35.490  1.00  0.00    -0.200 F 
ATOM    103  C   UNL A   1      46.238  23.358  34.986  1.00  0.00     0.200 A 
ATOM    104  F   UNL A   1      48.439  24.016  34.435  1.00  0.00    -0.200 F 
ATOM    105  F   UNL A   1      46.706  22.521  35.922  1.00  0.00    -0.200 F 
ENDBRANCH  72  95
ENDBRANCH  46  47
ENDBRANCH  39  41
ENDBRANCH  38  39
ENDBRANCH  37  38
ENDBRANCH  36  37
ENDBRANCH  35  36
ENDBRANCH  34  35
ENDBRANCH   1  34
TORSDOF 20
ENDMDL
