MODEL 1
REMARK VINA RESULT:     -11.8      0.000      0.000
REMARK SMILES CC(=O)Nc1cccc(-c2cc(F)ccc2C(=O)OCCOCCOCCOC(=O)c2ccc(-c3c4nc(c(-c5c(F)c(F)c(F)c(F)c5F)c5ccc([nH]5)c(-c5c(F)c(F)c(F)c(F)c5F)c5nc(c(-c6c(F)c(F)c(F)c(F)c6F)c6ccc3[nH]6)C=C5)C=C4)cc2)c1
REMARK SMILES IDX 23 1 22 2 21 3 20 4 19 5 17 6 18 7 16 8 10 9 11 10 12 11
REMARK SMILES IDX 15 12 13 13 14 14 9 15 5 16 6 17 94 18 7 19 8 20 4 21 1 22
REMARK SMILES IDX 2 23 3 24 24 26 25 27 26 28 27 29 28 30 29 31 30 32 31 33
REMARK SMILES IDX 32 34 93 35 33 36 92 37 34 38 35 39 36 40 86 41 37 42 91 43
REMARK SMILES IDX 85 44 87 45 38 46 90 47 84 48 83 49 39 51 71 52 51 53 70 54
REMARK SMILES IDX 52 55 55 56 69 57 88 58 53 59 54 60 68 62 89 63 56 64 40 65
REMARK SMILES IDX 41 66 49 67 42 68 43 69 47 70 50 71 44 72 45 73 48 74 46 75
REMARK SMILES IDX 72 76 73 77 81 78 74 79 75 80 79 81 82 82 76 83 77 84 80 85
REMARK SMILES IDX 78 86 57 87 58 88 66 89 59 90 60 91 64 92 67 93 61 94 62 95
REMARK SMILES IDX 65 96 63 97
REMARK H PARENT 4 25 87 50 55 61
REMARK Flexibility Score: inf
ROOT
ATOM      1  C   UNL A   1      40.218  22.295  26.667  1.00  0.00     0.188 C 
ENDROOT
BRANCH   1   2
ATOM      2  O   UNL A   1      39.440  21.380  25.917  1.00  0.00    -0.376 OA
BRANCH   2   3
ATOM      3  C   UNL A   1      38.057  21.643  25.710  1.00  0.00     0.202 C 
BRANCH   3   4
ATOM      4  C   UNL A   1      37.203  20.722  24.828  1.00  0.00     0.261 C 
BRANCH   4   5
ATOM      5  O   UNL A   1      35.792  20.867  25.046  1.00  0.00    -0.460 OA
BRANCH   5   6
ATOM      6  C   UNL A   1      35.196  21.941  24.481  1.00  0.00     0.338 C 
ATOM      7  O   UNL A   1      35.592  22.551  23.500  1.00  0.00    -0.246 OA
BRANCH   6   8
ATOM      8  C   UNL A   1      33.868  22.230  25.101  1.00  0.00     0.068 A 
ATOM      9  C   UNL A   1      32.718  21.398  25.025  1.00  0.00    -0.001 A 
ATOM     10  C   UNL A   1      31.569  21.819  25.729  1.00  0.00     0.048 A 
ATOM     11  C   UNL A   1      31.547  23.028  26.421  1.00  0.00     0.123 A 
ATOM     12  C   UNL A   1      33.815  23.459  25.792  1.00  0.00     0.019 A 
ATOM     13  F   UNL A   1      30.436  23.396  27.069  1.00  0.00    -0.207 F 
ATOM     14  C   UNL A   1      32.652  23.862  26.440  1.00  0.00     0.040 A 
BRANCH   9  15
ATOM     15  C   UNL A   1      32.646  20.163  24.211  1.00  0.00    -0.015 A 
ATOM     16  C   UNL A   1      33.416  17.878  23.815  1.00  0.00     0.041 A 
ATOM     17  C   UNL A   1      32.901  17.935  22.516  1.00  0.00     0.026 A 
ATOM     18  C   UNL A   1      33.235  18.972  24.660  1.00  0.00     0.034 A 
ATOM     19  C   UNL A   1      32.207  19.063  22.083  1.00  0.00     0.003 A 
ATOM     20  C   UNL A   1      32.092  20.174  22.920  1.00  0.00     0.009 A 
BRANCH  16  21
ATOM     21  N   UNL A   1      34.217  16.774  24.151  1.00  0.00    -0.326 N 
ATOM     22  C   UNL A   1      32.604  15.328  25.391  1.00  0.00     0.114 C 
ATOM     23  C   UNL A   1      34.002  15.719  24.991  1.00  0.00     0.221 C 
ATOM     24  O   UNL A   1      34.971  15.059  25.375  1.00  0.00    -0.275 OA
ATOM     25  H   UNL A   1      35.091  16.757  23.699  1.00  0.00     0.169 HD
ENDBRANCH  16  21
ENDBRANCH   9  15
ENDBRANCH   6   8
ENDBRANCH   5   6
ENDBRANCH   4   5
ENDBRANCH   3   4
ENDBRANCH   2   3
ENDBRANCH   1   2
BRANCH   1  26
ATOM     26  C   UNL A   1      41.329  21.778  27.607  1.00  0.00     0.188 C 
BRANCH  26  27
ATOM     27  O   UNL A   1      42.625  21.601  27.092  1.00  0.00    -0.376 OA
BRANCH  27  28
ATOM     28  C   UNL A   1      42.859  21.596  25.697  1.00  0.00     0.202 C 
BRANCH  28  29
ATOM     29  C   UNL A   1      43.870  22.486  24.947  1.00  0.00     0.261 C 
BRANCH  29  30
ATOM     30  O   UNL A   1      43.489  23.826  24.628  1.00  0.00    -0.460 OA
BRANCH  30  31
ATOM     31  C   UNL A   1      44.305  24.796  25.114  1.00  0.00     0.338 C 
ATOM     32  O   UNL A   1      45.419  25.092  24.728  1.00  0.00    -0.246 OA
BRANCH  31  33
ATOM     33  C   UNL A   1      43.543  25.610  26.083  1.00  0.00     0.060 A 
ATOM     34  C   UNL A   1      43.662  27.006  26.032  1.00  0.00     0.016 A 
ATOM     35  C   UNL A   1      42.734  25.000  27.042  1.00  0.00     0.016 A 
ATOM     36  C   UNL A   1      42.983  27.800  26.955  1.00  0.00     0.010 A 
ATOM     37  C   UNL A   1      42.077  25.795  27.984  1.00  0.00     0.010 A 
ATOM     38  C   UNL A   1      42.220  27.195  27.963  1.00  0.00    -0.014 A 
BRANCH  38  39
ATOM     39  C   UNL A   1      41.729  28.006  29.103  1.00  0.00     0.031 A 
ATOM     40  C   UNL A   1      42.476  27.932  30.405  1.00  0.00     0.074 A 
ATOM     41  C   UNL A   1      40.650  28.799  28.987  1.00  0.00     0.049 A 
ATOM     42  N   UNL A   1      42.199  28.486  31.559  1.00  0.00    -0.248 NA
ATOM     43  C   UNL A   1      43.701  27.117  30.407  1.00  0.00     0.031 C 
ATOM     44  C   UNL A   1      39.869  28.993  27.768  1.00  0.00     0.029 A 
ATOM     45  N   UNL A   1      40.017  29.582  29.922  1.00  0.00    -0.354 N 
ATOM     46  C   UNL A   1      43.208  28.078  32.422  1.00  0.00     0.074 A 
ATOM     47  C   UNL A   1      44.085  27.207  31.670  1.00  0.00     0.031 C 
ATOM     48  C   UNL A   1      38.848  29.827  28.034  1.00  0.00     0.029 A 
ATOM     49  C   UNL A   1      38.884  30.195  29.450  1.00  0.00     0.049 A 
ATOM     50  H   UNL A   1      40.346  29.692  30.844  1.00  0.00     0.167 HD
ATOM     51  C   UNL A   1      43.389  28.406  33.723  1.00  0.00     0.037 A 
ATOM     52  C   UNL A   1      37.967  30.942  30.096  1.00  0.00     0.037 A 
ATOM     53  C   UNL A   1      42.510  29.268  34.470  1.00  0.00     0.049 A 
ATOM     54  C   UNL A   1      38.146  31.224  31.569  1.00  0.00     0.074 A 
ATOM     55  C   UNL A   1      42.616  29.673  35.789  1.00  0.00     0.029 A 
ATOM     56  N   UNL A   1      41.356  29.847  33.965  1.00  0.00    -0.354 N 
ATOM     57  N   UNL A   1      39.114  30.859  32.373  1.00  0.00    -0.248 NA
ATOM     58  C   UNL A   1      37.101  32.028  32.221  1.00  0.00     0.031 C 
ATOM     59  C   UNL A   1      41.494  30.447  36.099  1.00  0.00     0.029 A 
ATOM     60  C   UNL A   1      40.724  30.583  34.956  1.00  0.00     0.049 A 
ATOM     61  H   UNL A   1      41.033  29.751  33.041  1.00  0.00     0.167 HD
ATOM     62  C   UNL A   1      38.815  31.416  33.612  1.00  0.00     0.074 A 
ATOM     63  C   UNL A   1      37.581  32.154  33.449  1.00  0.00     0.031 C 
ATOM     64  C   UNL A   1      39.502  31.326  34.778  1.00  0.00     0.037 A 
BRANCH  51  65
ATOM     65  C   UNL A   1      44.567  27.803  34.433  1.00  0.00     0.064 A 
ATOM     66  C   UNL A   1      45.807  28.454  34.494  1.00  0.00     0.173 A 
ATOM     67  C   UNL A   1      44.441  26.568  35.089  1.00  0.00     0.173 A 
ATOM     68  F   UNL A   1      45.984  29.630  33.871  1.00  0.00    -0.203 F 
ATOM     69  C   UNL A   1      46.886  27.880  35.162  1.00  0.00     0.198 A 
ATOM     70  C   UNL A   1      45.512  26.013  35.784  1.00  0.00     0.198 A 
ATOM     71  F   UNL A   1      43.276  25.904  35.064  1.00  0.00    -0.203 F 
ATOM     72  F   UNL A   1      48.076  28.497  35.164  1.00  0.00    -0.200 F 
ATOM     73  C   UNL A   1      46.735  26.665  35.814  1.00  0.00     0.200 A 
ATOM     74  F   UNL A   1      45.359  24.846  36.425  1.00  0.00    -0.200 F 
ATOM     75  F   UNL A   1      47.771  26.118  36.464  1.00  0.00    -0.200 F 
ENDBRANCH  51  65
BRANCH  52  76
ATOM     76  C   UNL A   1      36.780  31.467  29.366  1.00  0.00     0.064 A 
ATOM     77  C   UNL A   1      35.730  30.618  28.989  1.00  0.00     0.173 A 
ATOM     78  C   UNL A   1      36.689  32.817  28.999  1.00  0.00     0.173 A 
ATOM     79  F   UNL A   1      35.783  29.312  29.290  1.00  0.00    -0.203 F 
ATOM     80  C   UNL A   1      34.647  31.095  28.252  1.00  0.00     0.198 A 
ATOM     81  C   UNL A   1      35.590  33.301  28.292  1.00  0.00     0.198 A 
ATOM     82  F   UNL A   1      37.669  33.671  29.331  1.00  0.00    -0.203 F 
ATOM     83  F   UNL A   1      33.686  30.250  27.853  1.00  0.00    -0.200 F 
ATOM     84  C   UNL A   1      34.576  32.438  27.910  1.00  0.00     0.200 A 
ATOM     85  F   UNL A   1      35.521  34.600  27.973  1.00  0.00    -0.200 F 
ATOM     86  F   UNL A   1      33.534  32.895  27.201  1.00  0.00    -0.200 F 
ENDBRANCH  52  76
BRANCH  64  87
ATOM     87  C   UNL A   1      38.969  32.084  35.962  1.00  0.00     0.064 A 
ATOM     88  C   UNL A   1      38.158  31.475  36.931  1.00  0.00     0.173 A 
ATOM     89  C   UNL A   1      39.313  33.433  36.151  1.00  0.00     0.173 A 
ATOM     90  F   UNL A   1      37.788  30.193  36.793  1.00  0.00    -0.203 F 
ATOM     91  C   UNL A   1      37.687  32.195  38.028  1.00  0.00     0.198 A 
ATOM     92  C   UNL A   1      38.871  34.138  37.266  1.00  0.00     0.198 A 
ATOM     93  F   UNL A   1      40.094  34.063  35.260  1.00  0.00    -0.203 F 
ATOM     94  F   UNL A   1      36.871  31.606  38.912  1.00  0.00    -0.200 F 
ATOM     95  C   UNL A   1      38.052  33.522  38.199  1.00  0.00     0.200 A 
ATOM     96  F   UNL A   1      39.240  35.415  37.439  1.00  0.00    -0.200 F 
ATOM     97  F   UNL A   1      37.607  34.208  39.260  1.00  0.00    -0.200 F 
ENDBRANCH  64  87
ENDBRANCH  38  39
ENDBRANCH  31  33
ENDBRANCH  30  31
ENDBRANCH  29  30
ENDBRANCH  28  29
ENDBRANCH  27  28
ENDBRANCH  26  27
ENDBRANCH   1  26
TORSDOF 19
ENDMDL
MODEL 2
REMARK VINA RESULT:     -11.6      4.935      7.479
REMARK SMILES CC(=O)Nc1cccc(-c2cc(F)ccc2C(=O)OCCOCCOCCOC(=O)c2ccc(-c3c4nc(c(-c5c(F)c(F)c(F)c(F)c5F)c5ccc([nH]5)c(-c5c(F)c(F)c(F)c(F)c5F)c5nc(c(-c6c(F)c(F)c(F)c(F)c6F)c6ccc3[nH]6)C=C5)C=C4)cc2)c1
REMARK SMILES IDX 23 1 22 2 21 3 20 4 19 5 17 6 18 7 16 8 10 9 11 10 12 11
REMARK SMILES IDX 15 12 13 13 14 14 9 15 5 16 6 17 94 18 7 19 8 20 4 21 1 22
REMARK SMILES IDX 2 23 3 24 24 26 25 27 26 28 27 29 28 30 29 31 30 32 31 33
REMARK SMILES IDX 32 34 93 35 33 36 92 37 34 38 35 39 36 40 86 41 37 42 91 43
REMARK SMILES IDX 85 44 87 45 38 46 90 47 84 48 83 49 39 51 71 52 51 53 70 54
REMARK SMILES IDX 52 55 55 56 69 57 88 58 53 59 54 60 68 62 89 63 56 64 40 65
REMARK SMILES IDX 41 66 49 67 42 68 43 69 47 70 50 71 44 72 45 73 48 74 46 75
REMARK SMILES IDX 72 76 73 77 81 78 74 79 75 80 79 81 82 82 76 83 77 84 80 85
REMARK SMILES IDX 78 86 57 87 58 88 66 89 59 90 60 91 64 92 67 93 61 94 62 95
REMARK SMILES IDX 65 96 63 97
REMARK H PARENT 4 25 87 50 55 61
REMARK Flexibility Score: inf
ROOT
ATOM      1  C   UNL A   1      39.907  21.850  26.653  1.00  0.00     0.188 C 
ENDROOT
BRANCH   1   2
ATOM      2  O   UNL A   1      39.163  22.995  26.278  1.00  0.00    -0.376 OA
BRANCH   2   3
ATOM      3  C   UNL A   1      37.834  22.840  25.797  1.00  0.00     0.202 C 
BRANCH   3   4
ATOM      4  C   UNL A   1      37.413  21.577  25.034  1.00  0.00     0.261 C 
BRANCH   4   5
ATOM      5  O   UNL A   1      36.046  21.599  24.597  1.00  0.00    -0.460 OA
BRANCH   5   6
ATOM      6  C   UNL A   1      35.647  22.690  23.906  1.00  0.00     0.338 C 
ATOM      7  O   UNL A   1      36.016  23.007  22.785  1.00  0.00    -0.246 OA
BRANCH   6   8
ATOM      8  C   UNL A   1      34.549  23.420  24.606  1.00  0.00     0.068 A 
ATOM      9  C   UNL A   1      33.235  22.924  24.833  1.00  0.00    -0.001 A 
ATOM     10  C   UNL A   1      32.353  23.746  25.568  1.00  0.00     0.048 A 
ATOM     11  C   UNL A   1      32.737  25.013  26.002  1.00  0.00     0.123 A 
ATOM     12  C   UNL A   1      34.907  24.714  25.039  1.00  0.00     0.019 A 
ATOM     13  F   UNL A   1      31.869  25.764  26.689  1.00  0.00    -0.207 F 
ATOM     14  C   UNL A   1      33.998  25.513  25.725  1.00  0.00     0.040 A 
BRANCH   9  15
ATOM     15  C   UNL A   1      32.735  21.638  24.296  1.00  0.00    -0.015 A 
ATOM     16  C   UNL A   1      32.478  19.223  24.567  1.00  0.00     0.041 A 
ATOM     17  C   UNL A   1      32.205  19.104  23.201  1.00  0.00     0.026 A 
ATOM     18  C   UNL A   1      32.688  20.493  25.104  1.00  0.00     0.034 A 
ATOM     19  C   UNL A   1      32.131  20.239  22.396  1.00  0.00     0.003 A 
ATOM     20  C   UNL A   1      32.407  21.495  22.937  1.00  0.00     0.009 A 
BRANCH  16  21
ATOM     21  N   UNL A   1      32.670  18.040  25.300  1.00  0.00    -0.326 N 
ATOM     22  C   UNL A   1      34.814  17.189  24.346  1.00  0.00     0.114 C 
ATOM     23  C   UNL A   1      33.548  17.005  25.138  1.00  0.00     0.221 C 
ATOM     24  O   UNL A   1      33.309  15.933  25.699  1.00  0.00    -0.275 OA
ATOM     25  H   UNL A   1      32.064  17.938  26.067  1.00  0.00     0.169 HD
ENDBRANCH  16  21
ENDBRANCH   9  15
ENDBRANCH   6   8
ENDBRANCH   5   6
ENDBRANCH   4   5
ENDBRANCH   3   4
ENDBRANCH   2   3
ENDBRANCH   1   2
BRANCH   1  26
ATOM     26  C   UNL A   1      41.211  22.005  27.465  1.00  0.00     0.188 C 
BRANCH  26  27
ATOM     27  O   UNL A   1      42.120  20.933  27.500  1.00  0.00    -0.376 OA
BRANCH  27  28
ATOM     28  C   UNL A   1      41.776  19.669  26.964  1.00  0.00     0.202 C 
BRANCH  28  29
ATOM     29  C   UNL A   1      42.641  18.828  26.006  1.00  0.00     0.261 C 
BRANCH  29  30
ATOM     30  O   UNL A   1      43.008  19.396  24.747  1.00  0.00    -0.460 OA
BRANCH  30  31
ATOM     31  C   UNL A   1      44.341  19.557  24.545  1.00  0.00     0.338 C 
ATOM     32  O   UNL A   1      45.119  18.761  24.055  1.00  0.00    -0.246 OA
BRANCH  31  33
ATOM     33  C   UNL A   1      44.693  20.964  24.826  1.00  0.00     0.060 A 
ATOM     34  C   UNL A   1      45.412  21.257  25.994  1.00  0.00     0.016 A 
ATOM     35  C   UNL A   1      44.302  21.981  23.957  1.00  0.00     0.016 A 
ATOM     36  C   UNL A   1      45.729  22.579  26.305  1.00  0.00     0.010 A 
ATOM     37  C   UNL A   1      44.595  23.307  24.286  1.00  0.00     0.010 A 
ATOM     38  C   UNL A   1      45.285  23.614  25.473  1.00  0.00    -0.014 A 
BRANCH  38  39
ATOM     39  C   UNL A   1      45.372  25.021  25.935  1.00  0.00     0.031 A 
ATOM     40  C   UNL A   1      46.709  25.706  25.885  1.00  0.00     0.074 A 
ATOM     41  C   UNL A   1      44.291  25.682  26.382  1.00  0.00     0.049 A 
ATOM     42  N   UNL A   1      47.051  26.900  26.301  1.00  0.00    -0.248 NA
ATOM     43  C   UNL A   1      47.812  24.937  25.288  1.00  0.00     0.031 C 
ATOM     44  C   UNL A   1      42.933  25.144  26.437  1.00  0.00     0.029 A 
ATOM     45  N   UNL A   1      44.172  26.953  26.890  1.00  0.00    -0.354 N 
ATOM     46  C   UNL A   1      48.408  27.019  26.024  1.00  0.00     0.074 A 
ATOM     47  C   UNL A   1      48.832  25.767  25.434  1.00  0.00     0.031 C 
ATOM     48  C   UNL A   1      42.120  26.074  26.968  1.00  0.00     0.029 A 
ATOM     49  C   UNL A   1      42.906  27.256  27.323  1.00  0.00     0.049 A 
ATOM     50  H   UNL A   1      44.925  27.586  26.937  1.00  0.00     0.167 HD
ATOM     51  C   UNL A   1      49.223  28.078  26.237  1.00  0.00     0.037 A 
ATOM     52  C   UNL A   1      42.444  28.350  27.960  1.00  0.00     0.037 A 
ATOM     53  C   UNL A   1      48.798  29.319  26.830  1.00  0.00     0.049 A 
ATOM     54  C   UNL A   1      43.393  29.486  28.263  1.00  0.00     0.074 A 
ATOM     55  C   UNL A   1      49.544  30.458  27.074  1.00  0.00     0.029 A 
ATOM     56  N   UNL A   1      47.513  29.579  27.283  1.00  0.00    -0.354 N 
ATOM     57  N   UNL A   1      44.666  29.604  27.976  1.00  0.00    -0.248 NA
ATOM     58  C   UNL A   1      42.834  30.643  28.978  1.00  0.00     0.031 C 
ATOM     59  C   UNL A   1      48.727  31.383  27.731  1.00  0.00     0.029 A 
ATOM     60  C   UNL A   1      47.453  30.850  27.833  1.00  0.00     0.049 A 
ATOM     61  H   UNL A   1      46.755  28.953  27.223  1.00  0.00     0.167 HD
ATOM     62  C   UNL A   1      45.050  30.857  28.441  1.00  0.00     0.074 A 
ATOM     63  C   UNL A   1      43.871  31.466  29.018  1.00  0.00     0.031 C 
ATOM     64  C   UNL A   1      46.269  31.451  28.392  1.00  0.00     0.037 A 
BRANCH  51  65
ATOM     65  C   UNL A   1      50.667  27.929  25.856  1.00  0.00     0.064 A 
ATOM     66  C   UNL A   1      51.108  28.115  24.538  1.00  0.00     0.173 A 
ATOM     67  C   UNL A   1      51.629  27.628  26.834  1.00  0.00     0.173 A 
ATOM     68  F   UNL A   1      50.228  28.390  23.564  1.00  0.00    -0.203 F 
ATOM     69  C   UNL A   1      52.454  27.978  24.207  1.00  0.00     0.198 A 
ATOM     70  C   UNL A   1      52.978  27.524  26.505  1.00  0.00     0.198 A 
ATOM     71  F   UNL A   1      51.262  27.443  28.111  1.00  0.00    -0.203 F 
ATOM     72  F   UNL A   1      52.845  28.110  22.931  1.00  0.00    -0.200 F 
ATOM     73  C   UNL A   1      53.389  27.691  25.191  1.00  0.00     0.200 A 
ATOM     74  F   UNL A   1      53.880  27.262  27.460  1.00  0.00    -0.200 F 
ATOM     75  F   UNL A   1      54.684  27.568  24.872  1.00  0.00    -0.200 F 
ENDBRANCH  51  65
BRANCH  52  76
ATOM     76  C   UNL A   1      41.018  28.428  28.376  1.00  0.00     0.064 A 
ATOM     77  C   UNL A   1      40.049  28.996  27.536  1.00  0.00     0.173 A 
ATOM     78  C   UNL A   1      40.600  27.973  29.635  1.00  0.00     0.173 A 
ATOM     79  F   UNL A   1      40.402  29.474  26.334  1.00  0.00    -0.203 F 
ATOM     80  C   UNL A   1      38.724  29.126  27.949  1.00  0.00     0.198 A 
ATOM     81  C   UNL A   1      39.269  28.072  30.034  1.00  0.00     0.198 A 
ATOM     82  F   UNL A   1      41.488  27.426  30.480  1.00  0.00    -0.203 F 
ATOM     83  F   UNL A   1      37.831  29.726  27.150  1.00  0.00    -0.200 F 
ATOM     84  C   UNL A   1      38.334  28.658  29.196  1.00  0.00     0.200 A 
ATOM     85  F   UNL A   1      38.895  27.609  31.235  1.00  0.00    -0.200 F 
ATOM     86  F   UNL A   1      37.060  28.785  29.592  1.00  0.00    -0.200 F 
ENDBRANCH  52  76
BRANCH  64  87
ATOM     87  C   UNL A   1      46.384  32.851  28.929  1.00  0.00     0.064 A 
ATOM     88  C   UNL A   1      46.145  33.976  28.127  1.00  0.00     0.173 A 
ATOM     89  C   UNL A   1      46.697  33.066  30.281  1.00  0.00     0.173 A 
ATOM     90  F   UNL A   1      45.854  33.828  26.825  1.00  0.00    -0.203 F 
ATOM     91  C   UNL A   1      46.243  35.264  28.650  1.00  0.00     0.198 A 
ATOM     92  C   UNL A   1      46.759  34.352  30.809  1.00  0.00     0.198 A 
ATOM     93  F   UNL A   1      46.926  32.026  31.097  1.00  0.00    -0.203 F 
ATOM     94  F   UNL A   1      46.062  36.325  27.852  1.00  0.00    -0.200 F 
ATOM     95  C   UNL A   1      46.541  35.451  29.992  1.00  0.00     0.200 A 
ATOM     96  F   UNL A   1      47.029  34.529  32.110  1.00  0.00    -0.200 F 
ATOM     97  F   UNL A   1      46.624  36.689  30.495  1.00  0.00    -0.200 F 
ENDBRANCH  64  87
ENDBRANCH  38  39
ENDBRANCH  31  33
ENDBRANCH  30  31
ENDBRANCH  29  30
ENDBRANCH  28  29
ENDBRANCH  27  28
ENDBRANCH  26  27
ENDBRANCH   1  26
TORSDOF 19
ENDMDL
MODEL 3
REMARK VINA RESULT:     -11.6      5.034      7.636
REMARK SMILES CC(=O)Nc1cccc(-c2cc(F)ccc2C(=O)OCCOCCOCCOC(=O)c2ccc(-c3c4nc(c(-c5c(F)c(F)c(F)c(F)c5F)c5ccc([nH]5)c(-c5c(F)c(F)c(F)c(F)c5F)c5nc(c(-c6c(F)c(F)c(F)c(F)c6F)c6ccc3[nH]6)C=C5)C=C4)cc2)c1
REMARK SMILES IDX 23 1 22 2 21 3 20 4 19 5 17 6 18 7 16 8 10 9 11 10 12 11
REMARK SMILES IDX 15 12 13 13 14 14 9 15 5 16 6 17 94 18 7 19 8 20 4 21 1 22
REMARK SMILES IDX 2 23 3 24 24 26 25 27 26 28 27 29 28 30 29 31 30 32 31 33
REMARK SMILES IDX 32 34 93 35 33 36 92 37 34 38 35 39 36 40 86 41 37 42 91 43
REMARK SMILES IDX 85 44 87 45 38 46 90 47 84 48 83 49 39 51 71 52 51 53 70 54
REMARK SMILES IDX 52 55 55 56 69 57 88 58 53 59 54 60 68 62 89 63 56 64 40 65
REMARK SMILES IDX 41 66 49 67 42 68 43 69 47 70 50 71 44 72 45 73 48 74 46 75
REMARK SMILES IDX 72 76 73 77 81 78 74 79 75 80 79 81 82 82 76 83 77 84 80 85
REMARK SMILES IDX 78 86 57 87 58 88 66 89 59 90 60 91 64 92 67 93 61 94 62 95
REMARK SMILES IDX 65 96 63 97
REMARK H PARENT 4 25 87 50 55 61
REMARK Flexibility Score: inf
ROOT
ATOM      1  C   UNL A   1      40.048  21.745  26.611  1.00  0.00     0.188 C 
ENDROOT
BRANCH   1   2
ATOM      2  O   UNL A   1      39.294  22.877  26.218  1.00  0.00    -0.376 OA
BRANCH   2   3
ATOM      3  C   UNL A   1      37.937  22.713  25.825  1.00  0.00     0.202 C 
BRANCH   3   4
ATOM      4  C   UNL A   1      37.514  21.555  24.912  1.00  0.00     0.261 C 
BRANCH   4   5
ATOM      5  O   UNL A   1      36.120  21.572  24.572  1.00  0.00    -0.460 OA
BRANCH   5   6
ATOM      6  C   UNL A   1      35.677  22.642  23.876  1.00  0.00     0.338 C 
ATOM      7  O   UNL A   1      36.009  22.951  22.742  1.00  0.00    -0.246 OA
BRANCH   6   8
ATOM      8  C   UNL A   1      34.580  23.357  24.594  1.00  0.00     0.068 A 
ATOM      9  C   UNL A   1      33.268  22.854  24.817  1.00  0.00    -0.001 A 
ATOM     10  C   UNL A   1      32.387  23.660  25.570  1.00  0.00     0.048 A 
ATOM     11  C   UNL A   1      32.770  24.920  26.025  1.00  0.00     0.123 A 
ATOM     12  C   UNL A   1      34.937  24.644  25.048  1.00  0.00     0.019 A 
ATOM     13  F   UNL A   1      31.903  25.657  26.729  1.00  0.00    -0.207 F 
ATOM     14  C   UNL A   1      34.028  25.429  25.751  1.00  0.00     0.040 A 
BRANCH   9  15
ATOM     15  C   UNL A   1      32.769  21.576  24.260  1.00  0.00    -0.015 A 
ATOM     16  C   UNL A   1      32.527  19.155  24.485  1.00  0.00     0.041 A 
ATOM     17  C   UNL A   1      32.241  19.061  23.120  1.00  0.00     0.026 A 
ATOM     18  C   UNL A   1      32.736  20.415  25.045  1.00  0.00     0.034 A 
ATOM     19  C   UNL A   1      32.153  20.212  22.339  1.00  0.00     0.003 A 
ATOM     20  C   UNL A   1      32.428  21.459  22.902  1.00  0.00     0.009 A 
BRANCH  16  21
ATOM     21  N   UNL A   1      32.733  17.958  25.192  1.00  0.00    -0.326 N 
ATOM     22  C   UNL A   1      34.394  16.786  23.744  1.00  0.00     0.114 C 
ATOM     23  C   UNL A   1      33.373  16.801  24.850  1.00  0.00     0.221 C 
ATOM     24  O   UNL A   1      33.139  15.780  25.500  1.00  0.00    -0.275 OA
ATOM     25  H   UNL A   1      32.346  17.953  26.096  1.00  0.00     0.169 HD
ENDBRANCH  16  21
ENDBRANCH   9  15
ENDBRANCH   6   8
ENDBRANCH   5   6
ENDBRANCH   4   5
ENDBRANCH   3   4
ENDBRANCH   2   3
ENDBRANCH   1   2
BRANCH   1  26
ATOM     26  C   UNL A   1      41.395  21.927  27.343  1.00  0.00     0.188 C 
BRANCH  26  27
ATOM     27  O   UNL A   1      42.162  20.788  27.646  1.00  0.00    -0.376 OA
BRANCH  27  28
ATOM     28  C   UNL A   1      41.826  19.521  27.112  1.00  0.00     0.202 C 
BRANCH  28  29
ATOM     29  C   UNL A   1      42.648  18.729  26.077  1.00  0.00     0.261 C 
BRANCH  29  30
ATOM     30  O   UNL A   1      42.985  19.370  24.844  1.00  0.00    -0.460 OA
BRANCH  30  31
ATOM     31  C   UNL A   1      44.314  19.502  24.600  1.00  0.00     0.338 C 
ATOM     32  O   UNL A   1      45.056  18.693  24.079  1.00  0.00    -0.246 OA
BRANCH  31  33
ATOM     33  C   UNL A   1      44.707  20.899  24.879  1.00  0.00     0.060 A 
ATOM     34  C   UNL A   1      45.247  21.208  26.135  1.00  0.00     0.016 A 
ATOM     35  C   UNL A   1      44.527  21.893  23.918  1.00  0.00     0.016 A 
ATOM     36  C   UNL A   1      45.595  22.523  26.442  1.00  0.00     0.010 A 
ATOM     37  C   UNL A   1      44.849  23.214  24.237  1.00  0.00     0.010 A 
ATOM     38  C   UNL A   1      45.358  23.540  25.508  1.00  0.00    -0.014 A 
BRANCH  38  39
ATOM     39  C   UNL A   1      45.461  24.960  25.922  1.00  0.00     0.031 A 
ATOM     40  C   UNL A   1      46.804  25.630  25.842  1.00  0.00     0.074 A 
ATOM     41  C   UNL A   1      44.388  25.646  26.350  1.00  0.00     0.049 A 
ATOM     42  N   UNL A   1      47.160  26.834  26.216  1.00  0.00    -0.248 NA
ATOM     43  C   UNL A   1      47.897  24.830  25.266  1.00  0.00     0.031 C 
ATOM     44  C   UNL A   1      43.025  25.124  26.430  1.00  0.00     0.029 A 
ATOM     45  N   UNL A   1      44.284  26.935  26.816  1.00  0.00    -0.354 N 
ATOM     46  C   UNL A   1      48.516  26.930  25.929  1.00  0.00     0.074 A 
ATOM     47  C   UNL A   1      48.925  25.655  25.380  1.00  0.00     0.031 C 
ATOM     48  C   UNL A   1      42.224  26.079  26.933  1.00  0.00     0.029 A 
ATOM     49  C   UNL A   1      43.023  27.264  27.245  1.00  0.00     0.049 A 
ATOM     50  H   UNL A   1      45.043  27.562  26.839  1.00  0.00     0.167 HD
ATOM     51  C   UNL A   1      49.342  27.988  26.103  1.00  0.00     0.037 A 
ATOM     52  C   UNL A   1      42.575  28.384  27.846  1.00  0.00     0.037 A 
ATOM     53  C   UNL A   1      48.932  29.252  26.656  1.00  0.00     0.049 A 
ATOM     54  C   UNL A   1      43.536  29.520  28.107  1.00  0.00     0.074 A 
ATOM     55  C   UNL A   1      49.690  30.392  26.858  1.00  0.00     0.029 A 
ATOM     56  N   UNL A   1      47.652  29.539  27.105  1.00  0.00    -0.354 N 
ATOM     57  N   UNL A   1      44.809  29.616  27.810  1.00  0.00    -0.248 NA
ATOM     58  C   UNL A   1      42.991  30.706  28.785  1.00  0.00     0.031 C 
ATOM     59  C   UNL A   1      48.886  31.346  27.487  1.00  0.00     0.029 A 
ATOM     60  C   UNL A   1      47.607  30.829  27.612  1.00  0.00     0.049 A 
ATOM     61  H   UNL A   1      46.888  28.920  27.070  1.00  0.00     0.167 HD
ATOM     62  C   UNL A   1      45.207  30.880  28.231  1.00  0.00     0.074 A 
ATOM     63  C   UNL A   1      44.036  31.520  28.792  1.00  0.00     0.031 C 
ATOM     64  C   UNL A   1      46.431  31.460  28.157  1.00  0.00     0.037 A 
BRANCH  51  65
ATOM     65  C   UNL A   1      50.783  27.812  25.721  1.00  0.00     0.064 A 
ATOM     66  C   UNL A   1      51.768  27.500  26.670  1.00  0.00     0.173 A 
ATOM     67  C   UNL A   1      51.178  27.926  24.379  1.00  0.00     0.173 A 
ATOM     68  F   UNL A   1      51.447  27.393  27.968  1.00  0.00    -0.203 F 
ATOM     69  C   UNL A   1      53.099  27.335  26.293  1.00  0.00     0.198 A 
ATOM     70  C   UNL A   1      52.503  27.728  24.001  1.00  0.00     0.198 A 
ATOM     71  F   UNL A   1      50.276  28.220  23.431  1.00  0.00    -0.203 F 
ATOM     72  F   UNL A   1      54.031  27.087  27.224  1.00  0.00    -0.200 F 
ATOM     73  C   UNL A   1      53.464  27.441  24.959  1.00  0.00     0.200 A 
ATOM     74  F   UNL A   1      52.851  27.816  22.710  1.00  0.00    -0.200 F 
ATOM     75  F   UNL A   1      54.743  27.273  24.597  1.00  0.00    -0.200 F 
ENDBRANCH  51  65
BRANCH  52  76
ATOM     76  C   UNL A   1      41.151  28.490  28.266  1.00  0.00     0.064 A 
ATOM     77  C   UNL A   1      40.170  28.966  27.384  1.00  0.00     0.173 A 
ATOM     78  C   UNL A   1      40.748  28.155  29.567  1.00  0.00     0.173 A 
ATOM     79  F   UNL A   1      40.509  29.329  26.138  1.00  0.00    -0.203 F 
ATOM     80  C   UNL A   1      38.847  29.125  27.795  1.00  0.00     0.198 A 
ATOM     81  C   UNL A   1      39.419  28.281  29.967  1.00  0.00     0.198 A 
ATOM     82  F   UNL A   1      41.648  27.699  30.452  1.00  0.00    -0.203 F 
ATOM     83  F   UNL A   1      37.943  29.638  26.950  1.00  0.00    -0.200 F 
ATOM     84  C   UNL A   1      38.473  28.776  29.084  1.00  0.00     0.200 A 
ATOM     85  F   UNL A   1      39.060  27.934  31.210  1.00  0.00    -0.200 F 
ATOM     86  F   UNL A   1      37.201  28.930  29.478  1.00  0.00    -0.200 F 
ENDBRANCH  52  76
BRANCH  64  87
ATOM     87  C   UNL A   1      46.563  32.876  28.645  1.00  0.00     0.064 A 
ATOM     88  C   UNL A   1      46.899  33.176  29.974  1.00  0.00     0.173 A 
ATOM     89  C   UNL A   1      46.392  33.949  27.756  1.00  0.00     0.173 A 
ATOM     90  F   UNL A   1      47.061  32.188  30.868  1.00  0.00    -0.203 F 
ATOM     91  C   UNL A   1      47.031  34.496  30.400  1.00  0.00     0.198 A 
ATOM     92  C   UNL A   1      46.560  35.265  28.177  1.00  0.00     0.198 A 
ATOM     93  F   UNL A   1      46.080  33.721  26.471  1.00  0.00    -0.203 F 
ATOM     94  F   UNL A   1      47.300  34.758  31.686  1.00  0.00    -0.200 F 
ATOM     95  C   UNL A   1      46.870  35.538  29.500  1.00  0.00     0.200 A 
ATOM     96  F   UNL A   1      46.423  36.270  27.300  1.00  0.00    -0.200 F 
ATOM     97  F   UNL A   1      47.007  36.806  29.910  1.00  0.00    -0.200 F 
ENDBRANCH  64  87
ENDBRANCH  38  39
ENDBRANCH  31  33
ENDBRANCH  30  31
ENDBRANCH  29  30
ENDBRANCH  28  29
ENDBRANCH  27  28
ENDBRANCH  26  27
ENDBRANCH   1  26
TORSDOF 19
ENDMDL
