MODEL 1
REMARK VINA RESULT:     -11.3      0.000      0.000
REMARK SMILES O=C(OCCOCCOCCOC(=O)c1cn(C2CN(C(=O)[C@@H]3CC=CCC3)C2)nn1)c1ccc(-c2c3nc(c(-c4c(F)c(F)c(F)c(F)c4F)c4ccc([nH]4)c(-c4c(F)c(F)c(F)c(F)c4F)c4nc(c(-c5c(F)c(F)c(F)c(F)c5F)c5ccc2[nH]5)C=C4)C=C3)cc1
REMARK SMILES IDX 7 1 6 2 5 3 4 4 3 5 2 6 1 7 32 8 33 9 94 10 34 11 93 12
REMARK SMILES IDX 35 13 36 14 37 15 87 16 38 17 92 18 86 19 88 20 39 21 91 22
REMARK SMILES IDX 85 23 84 24 40 26 72 27 52 28 71 29 53 30 56 31 70 32 89 33
REMARK SMILES IDX 54 34 55 35 69 37 90 38 57 39 41 40 42 41 50 42 43 43 44 44
REMARK SMILES IDX 48 45 51 46 45 47 46 48 49 49 47 50 73 51 74 52 82 53 75 54
REMARK SMILES IDX 76 55 80 56 83 57 77 58 78 59 81 60 79 61 58 62 59 63 67 64
REMARK SMILES IDX 60 65 61 66 65 67 68 68 62 69 63 70 66 71 64 72 8 73 9 74
REMARK SMILES IDX 10 75 11 76 12 77 13 78 14 79 15 80 16 81 31 82 17 83 30 84
REMARK SMILES IDX 18 85 19 86 29 87 20 88 21 89 22 90 23 91 24 92 28 93 25 94
REMARK SMILES IDX 27 95 26 96
REMARK H PARENT 88 25 56 36
REMARK Flexibility Score: inf
ROOT
ATOM      1  C   UNL A   1      33.643  36.669  33.105  1.00  0.00     0.188 C 
ENDROOT
BRANCH   1   2
ATOM      2  O   UNL A   1      35.006  36.279  33.260  1.00  0.00    -0.376 OA
BRANCH   2   3
ATOM      3  C   UNL A   1      35.225  34.957  33.724  1.00  0.00     0.202 C 
BRANCH   3   4
ATOM      4  C   UNL A   1      36.264  34.178  32.914  1.00  0.00     0.261 C 
BRANCH   4   5
ATOM      5  O   UNL A   1      35.873  33.861  31.568  1.00  0.00    -0.460 OA
BRANCH   5   6
ATOM      6  C   UNL A   1      35.499  32.672  31.055  1.00  0.00     0.338 C 
ATOM      7  O   UNL A   1      34.342  32.280  31.169  1.00  0.00    -0.246 OA
BRANCH   6   8
ATOM      8  C   UNL A   1      36.519  31.710  30.582  1.00  0.00     0.060 A 
ATOM      9  C   UNL A   1      36.512  30.352  30.900  1.00  0.00     0.016 A 
ATOM     10  C   UNL A   1      37.610  32.255  29.877  1.00  0.00     0.016 A 
ATOM     11  C   UNL A   1      37.604  29.558  30.586  1.00  0.00     0.010 A 
ATOM     12  C   UNL A   1      38.717  31.472  29.584  1.00  0.00     0.010 A 
ATOM     13  C   UNL A   1      38.733  30.144  30.018  1.00  0.00    -0.014 A 
BRANCH  13  14
ATOM     14  C   UNL A   1      39.984  29.407  30.164  1.00  0.00     0.031 A 
ATOM     15  C   UNL A   1      40.621  29.311  31.505  1.00  0.00     0.074 A 
ATOM     16  C   UNL A   1      40.509  28.807  29.075  1.00  0.00     0.049 A 
ATOM     17  N   UNL A   1      41.854  29.553  31.833  1.00  0.00    -0.248 NA
ATOM     18  C   UNL A   1      39.772  28.896  32.629  1.00  0.00     0.031 C 
ATOM     19  C   UNL A   1      39.875  28.629  27.761  1.00  0.00     0.029 A 
ATOM     20  N   UNL A   1      41.677  28.119  28.950  1.00  0.00    -0.354 N 
ATOM     21  C   UNL A   1      41.978  29.172  33.168  1.00  0.00     0.074 A 
ATOM     22  C   UNL A   1      40.652  28.844  33.630  1.00  0.00     0.031 C 
ATOM     23  C   UNL A   1      40.549  27.690  27.068  1.00  0.00     0.029 A 
ATOM     24  C   UNL A   1      41.718  27.301  27.835  1.00  0.00     0.049 A 
ATOM     25  H   UNL A   1      42.421  28.196  29.590  1.00  0.00     0.167 HD
ATOM     26  C   UNL A   1      43.181  28.977  33.775  1.00  0.00     0.037 A 
ATOM     27  C   UNL A   1      42.583  26.287  27.608  1.00  0.00     0.037 A 
ATOM     28  C   UNL A   1      44.256  29.663  33.122  1.00  0.00     0.049 A 
ATOM     29  C   UNL A   1      43.771  26.497  28.466  1.00  0.00     0.074 A 
ATOM     30  C   UNL A   1      44.559  30.989  32.879  1.00  0.00     0.029 A 
ATOM     31  N   UNL A   1      45.143  28.947  32.360  1.00  0.00    -0.354 N 
ATOM     32  N   UNL A   1      44.628  27.469  28.310  1.00  0.00    -0.248 NA
ATOM     33  C   UNL A   1      43.797  25.848  29.767  1.00  0.00     0.031 C 
ATOM     34  C   UNL A   1      45.260  30.993  31.638  1.00  0.00     0.029 A 
ATOM     35  C   UNL A   1      45.339  29.668  31.210  1.00  0.00     0.049 A 
ATOM     36  H   UNL A   1      45.557  28.084  32.592  1.00  0.00     0.167 HD
ATOM     37  C   UNL A   1      45.018  27.811  29.595  1.00  0.00     0.074 A 
ATOM     38  C   UNL A   1      44.562  26.711  30.438  1.00  0.00     0.031 C 
ATOM     39  C   UNL A   1      45.426  29.078  29.897  1.00  0.00     0.037 A 
BRANCH  26  40
ATOM     40  C   UNL A   1      43.411  27.926  34.826  1.00  0.00     0.064 A 
ATOM     41  C   UNL A   1      43.797  28.287  36.130  1.00  0.00     0.173 A 
ATOM     42  C   UNL A   1      43.527  26.557  34.505  1.00  0.00     0.173 A 
ATOM     43  F   UNL A   1      43.774  29.570  36.518  1.00  0.00    -0.203 F 
ATOM     44  C   UNL A   1      44.288  27.343  37.038  1.00  0.00     0.198 A 
ATOM     45  C   UNL A   1      43.969  25.611  35.427  1.00  0.00     0.198 A 
ATOM     46  F   UNL A   1      43.311  26.110  33.259  1.00  0.00    -0.203 F 
ATOM     47  F   UNL A   1      44.734  27.741  38.237  1.00  0.00    -0.200 F 
ATOM     48  C   UNL A   1      44.370  26.006  36.687  1.00  0.00     0.200 A 
ATOM     49  F   UNL A   1      44.068  24.326  35.060  1.00  0.00    -0.200 F 
ATOM     50  F   UNL A   1      44.880  25.108  37.541  1.00  0.00    -0.200 F 
ENDBRANCH  26  40
BRANCH  27  51
ATOM     51  C   UNL A   1      42.247  25.000  26.961  1.00  0.00     0.064 A 
ATOM     52  C   UNL A   1      42.963  24.527  25.855  1.00  0.00     0.173 A 
ATOM     53  C   UNL A   1      41.341  24.096  27.557  1.00  0.00     0.173 A 
ATOM     54  F   UNL A   1      43.889  25.301  25.271  1.00  0.00    -0.203 F 
ATOM     55  C   UNL A   1      42.773  23.229  25.366  1.00  0.00     0.198 A 
ATOM     56  C   UNL A   1      41.139  22.811  27.059  1.00  0.00     0.198 A 
ATOM     57  F   UNL A   1      40.694  24.412  28.689  1.00  0.00    -0.203 F 
ATOM     58  F   UNL A   1      43.509  22.791  24.335  1.00  0.00    -0.200 F 
ATOM     59  C   UNL A   1      41.862  22.375  25.968  1.00  0.00     0.200 A 
ATOM     60  F   UNL A   1      40.281  21.986  27.675  1.00  0.00    -0.200 F 
ATOM     61  F   UNL A   1      41.710  21.120  25.521  1.00  0.00    -0.200 F 
ENDBRANCH  27  51
BRANCH  39  62
ATOM     62  C   UNL A   1      45.678  30.014  28.751  1.00  0.00     0.064 A 
ATOM     63  C   UNL A   1      44.657  30.769  28.149  1.00  0.00     0.173 A 
ATOM     64  C   UNL A   1      46.995  30.275  28.354  1.00  0.00     0.173 A 
ATOM     65  F   UNL A   1      43.388  30.660  28.565  1.00  0.00    -0.203 F 
ATOM     66  C   UNL A   1      44.936  31.704  27.156  1.00  0.00     0.198 A 
ATOM     67  C   UNL A   1      47.276  31.234  27.383  1.00  0.00     0.198 A 
ATOM     68  F   UNL A   1      48.015  29.637  28.948  1.00  0.00    -0.203 F 
ATOM     69  F   UNL A   1      43.942  32.407  26.594  1.00  0.00    -0.200 F 
ATOM     70  C   UNL A   1      46.247  31.939  26.777  1.00  0.00     0.200 A 
ATOM     71  F   UNL A   1      48.549  31.502  27.060  1.00  0.00    -0.200 F 
ATOM     72  F   UNL A   1      46.523  32.870  25.852  1.00  0.00    -0.200 F 
ENDBRANCH  39  62
ENDBRANCH  13  14
ENDBRANCH   6   8
ENDBRANCH   5   6
ENDBRANCH   4   5
ENDBRANCH   3   4
ENDBRANCH   2   3
ENDBRANCH   1   2
BRANCH   1  73
ATOM     73  C   UNL A   1      32.724  35.606  32.456  1.00  0.00     0.188 C 
BRANCH  73  74
ATOM     74  O   UNL A   1      32.845  35.219  31.088  1.00  0.00    -0.376 OA
BRANCH  74  75
ATOM     75  C   UNL A   1      32.919  36.219  30.087  1.00  0.00     0.202 C 
BRANCH  75  76
ATOM     76  C   UNL A   1      33.437  35.640  28.765  1.00  0.00     0.261 C 
BRANCH  76  77
ATOM     77  O   UNL A   1      33.127  34.245  28.595  1.00  0.00    -0.458 OA
BRANCH  77  78
ATOM     78  C   UNL A   1      34.068  33.512  27.926  1.00  0.00     0.360 C 
ATOM     79  O   UNL A   1      35.193  33.891  27.638  1.00  0.00    -0.244 OA
BRANCH  78  80
ATOM     80  C   UNL A   1      33.566  32.199  27.566  1.00  0.00     0.190 A 
ATOM     81  C   UNL A   1      34.216  30.987  27.673  1.00  0.00     0.147 A 
ATOM     82  N   UNL A   1      32.297  31.981  27.082  1.00  0.00    -0.123 NA
ATOM     83  N   UNL A   1      33.263  30.072  27.324  1.00  0.00    -0.245 N 
ATOM     84  N   UNL A   1      32.141  30.678  26.899  1.00  0.00    -0.066 NA
BRANCH  83  85
ATOM     85  C   UNL A   1      33.306  28.652  27.499  1.00  0.00     0.148 C 
ATOM     86  C   UNL A   1      31.948  27.932  27.472  1.00  0.00     0.148 C 
ATOM     87  C   UNL A   1      33.614  27.931  26.161  1.00  0.00     0.148 C 
ATOM     88  N   UNL A   1      32.560  27.017  26.520  1.00  0.00    -0.338 N 
ATOM     89  C   UNL A   1      32.151  25.770  26.170  1.00  0.00     0.226 C 
ATOM     90  O   UNL A   1      31.100  25.311  26.628  1.00  0.00    -0.275 OA
BRANCH  89  91
ATOM     91  C   UNL A   1      32.998  24.926  25.228  1.00  0.00     0.083 C 
ATOM     92  C   UNL A   1      34.359  24.548  25.827  1.00  0.00     0.040 C 
ATOM     93  C   UNL A   1      33.150  25.510  23.822  1.00  0.00     0.018 C 
ATOM     94  C   UNL A   1      35.230  23.817  24.845  1.00  0.00    -0.030 C 
ATOM     95  C   UNL A   1      33.808  24.481  22.893  1.00  0.00     0.028 C 
ATOM     96  C   UNL A   1      34.971  23.772  23.530  1.00  0.00    -0.031 C 
ENDBRANCH  89  91
ENDBRANCH  83  85
ENDBRANCH  78  80
ENDBRANCH  77  78
ENDBRANCH  76  77
ENDBRANCH  75  76
ENDBRANCH  74  75
ENDBRANCH  73  74
ENDBRANCH   1  73
TORSDOF 19
ENDMDL
MODEL 2
REMARK VINA RESULT:     -11.2      3.913      9.831
REMARK SMILES O=C(OCCOCCOCCOC(=O)c1cn(C2CN(C(=O)[C@@H]3CC=CCC3)C2)nn1)c1ccc(-c2c3nc(c(-c4c(F)c(F)c(F)c(F)c4F)c4ccc([nH]4)c(-c4c(F)c(F)c(F)c(F)c4F)c4nc(c(-c5c(F)c(F)c(F)c(F)c5F)c5ccc2[nH]5)C=C4)C=C3)cc1
REMARK SMILES IDX 7 1 6 2 5 3 4 4 3 5 2 6 1 7 32 8 33 9 94 10 34 11 93 12
REMARK SMILES IDX 35 13 36 14 37 15 87 16 38 17 92 18 86 19 88 20 39 21 91 22
REMARK SMILES IDX 85 23 84 24 40 26 72 27 52 28 71 29 53 30 56 31 70 32 89 33
REMARK SMILES IDX 54 34 55 35 69 37 90 38 57 39 41 40 42 41 50 42 43 43 44 44
REMARK SMILES IDX 48 45 51 46 45 47 46 48 49 49 47 50 73 51 74 52 82 53 75 54
REMARK SMILES IDX 76 55 80 56 83 57 77 58 78 59 81 60 79 61 58 62 59 63 67 64
REMARK SMILES IDX 60 65 61 66 65 67 68 68 62 69 63 70 66 71 64 72 8 73 9 74
REMARK SMILES IDX 10 75 11 76 12 77 13 78 14 79 15 80 16 81 31 82 17 83 30 84
REMARK SMILES IDX 18 85 19 86 29 87 20 88 21 89 22 90 23 91 24 92 28 93 25 94
REMARK SMILES IDX 27 95 26 96
REMARK H PARENT 88 25 56 36
REMARK Flexibility Score: inf
ROOT
ATOM      1  C   UNL A   1      38.394  22.047  26.033  1.00  0.00     0.188 C 
ENDROOT
BRANCH   1   2
ATOM      2  O   UNL A   1      39.360  21.062  25.670  1.00  0.00    -0.376 OA
BRANCH   2   3
ATOM      3  C   UNL A   1      40.266  20.676  26.690  1.00  0.00     0.202 C 
BRANCH   3   4
ATOM      4  C   UNL A   1      41.738  20.881  26.324  1.00  0.00     0.261 C 
BRANCH   4   5
ATOM      5  O   UNL A   1      41.987  21.920  25.363  1.00  0.00    -0.460 OA
BRANCH   5   6
ATOM      6  C   UNL A   1      42.666  23.073  25.524  1.00  0.00     0.338 C 
ATOM      7  O   UNL A   1      43.837  23.162  25.168  1.00  0.00    -0.246 OA
BRANCH   6   8
ATOM      8  C   UNL A   1      42.104  24.159  26.359  1.00  0.00     0.060 A 
ATOM      9  C   UNL A   1      41.341  25.211  25.852  1.00  0.00     0.016 A 
ATOM     10  C   UNL A   1      42.488  24.164  27.713  1.00  0.00     0.016 A 
ATOM     11  C   UNL A   1      41.021  26.290  26.661  1.00  0.00     0.010 A 
ATOM     12  C   UNL A   1      42.194  25.255  28.520  1.00  0.00     0.010 A 
ATOM     13  C   UNL A   1      41.530  26.346  27.957  1.00  0.00    -0.014 A 
BRANCH  13  14
ATOM     14  C   UNL A   1      41.587  27.670  28.569  1.00  0.00     0.031 A 
ATOM     15  C   UNL A   1      42.746  28.557  28.281  1.00  0.00     0.074 A 
ATOM     16  C   UNL A   1      40.564  28.059  29.358  1.00  0.00     0.049 A 
ATOM     17  N   UNL A   1      43.498  29.203  29.121  1.00  0.00    -0.248 NA
ATOM     18  C   UNL A   1      43.121  28.745  26.873  1.00  0.00     0.031 C 
ATOM     19  C   UNL A   1      39.270  27.386  29.539  1.00  0.00     0.029 A 
ATOM     20  N   UNL A   1      40.418  29.208  30.075  1.00  0.00    -0.354 N 
ATOM     21  C   UNL A   1      44.339  30.001  28.348  1.00  0.00     0.074 A 
ATOM     22  C   UNL A   1      44.116  29.627  26.973  1.00  0.00     0.031 C 
ATOM     23  C   UNL A   1      38.399  28.245  30.105  1.00  0.00     0.029 A 
ATOM     24  C   UNL A   1      39.107  29.469  30.435  1.00  0.00     0.049 A 
ATOM     25  H   UNL A   1      41.170  29.795  30.314  1.00  0.00     0.167 HD
ATOM     26  C   UNL A   1      45.046  31.047  28.859  1.00  0.00     0.037 A 
ATOM     27  C   UNL A   1      38.607  30.649  30.863  1.00  0.00     0.037 A 
ATOM     28  C   UNL A   1      45.253  30.946  30.273  1.00  0.00     0.049 A 
ATOM     29  C   UNL A   1      39.733  31.469  31.366  1.00  0.00     0.074 A 
ATOM     30  C   UNL A   1      45.914  30.056  31.098  1.00  0.00     0.029 A 
ATOM     31  N   UNL A   1      44.519  31.740  31.116  1.00  0.00    -0.354 N 
ATOM     32  N   UNL A   1      40.421  31.193  32.440  1.00  0.00    -0.248 NA
ATOM     33  C   UNL A   1      40.366  32.399  30.443  1.00  0.00     0.031 C 
ATOM     34  C   UNL A   1      45.171  30.048  32.314  1.00  0.00     0.029 A 
ATOM     35  C   UNL A   1      44.109  30.937  32.148  1.00  0.00     0.049 A 
ATOM     36  H   UNL A   1      44.325  32.699  31.002  1.00  0.00     0.167 HD
ATOM     37  C   UNL A   1      41.715  31.593  32.148  1.00  0.00     0.074 A 
ATOM     38  C   UNL A   1      41.598  32.425  30.955  1.00  0.00     0.031 C 
ATOM     39  C   UNL A   1      42.792  30.990  32.732  1.00  0.00     0.037 A 
BRANCH  26  40
ATOM     40  C   UNL A   1      45.316  32.311  28.089  1.00  0.00     0.064 A 
ATOM     41  C   UNL A   1      44.267  33.189  27.761  1.00  0.00     0.173 A 
ATOM     42  C   UNL A   1      46.542  32.541  27.430  1.00  0.00     0.173 A 
ATOM     43  F   UNL A   1      43.047  33.025  28.295  1.00  0.00    -0.203 F 
ATOM     44  C   UNL A   1      44.431  34.210  26.820  1.00  0.00     0.198 A 
ATOM     45  C   UNL A   1      46.717  33.589  26.529  1.00  0.00     0.198 A 
ATOM     46  F   UNL A   1      47.576  31.698  27.561  1.00  0.00    -0.203 F 
ATOM     47  F   UNL A   1      43.383  34.965  26.465  1.00  0.00    -0.200 F 
ATOM     48  C   UNL A   1      45.656  34.411  26.207  1.00  0.00     0.200 A 
ATOM     49  F   UNL A   1      47.903  33.750  25.925  1.00  0.00    -0.200 F 
ATOM     50  F   UNL A   1      45.803  35.360  25.273  1.00  0.00    -0.200 F 
ENDBRANCH  26  40
BRANCH  27  51
ATOM     51  C   UNL A   1      37.276  31.195  30.517  1.00  0.00     0.064 A 
ATOM     52  C   UNL A   1      36.356  31.564  31.505  1.00  0.00     0.173 A 
ATOM     53  C   UNL A   1      36.963  31.570  29.193  1.00  0.00     0.173 A 
ATOM     54  F   UNL A   1      36.611  31.301  32.794  1.00  0.00    -0.203 F 
ATOM     55  C   UNL A   1      35.182  32.255  31.184  1.00  0.00     0.198 A 
ATOM     56  C   UNL A   1      35.786  32.242  28.872  1.00  0.00     0.198 A 
ATOM     57  F   UNL A   1      37.833  31.368  28.192  1.00  0.00    -0.203 F 
ATOM     58  F   UNL A   1      34.344  32.635  32.159  1.00  0.00    -0.200 F 
ATOM     59  C   UNL A   1      34.899  32.593  29.869  1.00  0.00     0.200 A 
ATOM     60  F   UNL A   1      35.545  32.593  27.600  1.00  0.00    -0.200 F 
ATOM     61  F   UNL A   1      33.793  33.288  29.569  1.00  0.00    -0.200 F 
ENDBRANCH  27  51
BRANCH  39  62
ATOM     62  C   UNL A   1      42.523  30.060  33.880  1.00  0.00     0.064 A 
ATOM     63  C   UNL A   1      42.160  28.714  33.698  1.00  0.00     0.173 A 
ATOM     64  C   UNL A   1      42.788  30.487  35.186  1.00  0.00     0.173 A 
ATOM     65  F   UNL A   1      42.009  28.206  32.468  1.00  0.00    -0.203 F 
ATOM     66  C   UNL A   1      42.015  27.850  34.780  1.00  0.00     0.198 A 
ATOM     67  C   UNL A   1      42.676  29.612  36.265  1.00  0.00     0.198 A 
ATOM     68  F   UNL A   1      43.211  31.741  35.411  1.00  0.00    -0.203 F 
ATOM     69  F   UNL A   1      41.663  26.572  34.578  1.00  0.00    -0.200 F 
ATOM     70  C   UNL A   1      42.279  28.300  36.063  1.00  0.00     0.200 A 
ATOM     71  F   UNL A   1      42.987  30.033  37.499  1.00  0.00    -0.200 F 
ATOM     72  F   UNL A   1      42.184  27.457  37.102  1.00  0.00    -0.200 F 
ENDBRANCH  39  62
ENDBRANCH  13  14
ENDBRANCH   6   8
ENDBRANCH   5   6
ENDBRANCH   4   5
ENDBRANCH   3   4
ENDBRANCH   2   3
ENDBRANCH   1   2
BRANCH   1  73
ATOM     73  C   UNL A   1      37.426  22.467  24.900  1.00  0.00     0.188 C 
BRANCH  73  74
ATOM     74  O   UNL A   1      36.373  21.623  24.438  1.00  0.00    -0.376 OA
BRANCH  74  75
ATOM     75  C   UNL A   1      35.527  20.988  25.381  1.00  0.00     0.202 C 
BRANCH  75  76
ATOM     76  C   UNL A   1      34.554  21.990  26.013  1.00  0.00     0.261 C 
BRANCH  76  77
ATOM     77  O   UNL A   1      33.304  21.397  26.407  1.00  0.00    -0.458 OA
BRANCH  77  78
ATOM     78  C   UNL A   1      32.375  21.268  25.411  1.00  0.00     0.360 C 
ATOM     79  O   UNL A   1      32.037  20.219  24.885  1.00  0.00    -0.244 OA
BRANCH  78  80
ATOM     80  C   UNL A   1      31.829  22.554  25.019  1.00  0.00     0.190 A 
ATOM     81  C   UNL A   1      31.214  23.491  25.823  1.00  0.00     0.147 A 
ATOM     82  N   UNL A   1      31.894  23.043  23.736  1.00  0.00    -0.123 NA
ATOM     83  N   UNL A   1      31.010  24.555  24.989  1.00  0.00    -0.245 N 
ATOM     84  N   UNL A   1      31.350  24.252  23.724  1.00  0.00    -0.066 NA
BRANCH  83  85
ATOM     85  C   UNL A   1      30.638  25.890  25.346  1.00  0.00     0.148 C 
ATOM     86  C   UNL A   1      31.758  26.941  25.273  1.00  0.00     0.148 C 
ATOM     87  C   UNL A   1      29.987  26.631  24.150  1.00  0.00     0.148 C 
ATOM     88  N   UNL A   1      30.818  27.751  24.514  1.00  0.00    -0.338 N 
ATOM     89  C   UNL A   1      30.854  29.089  24.286  1.00  0.00     0.226 C 
ATOM     90  O   UNL A   1      31.808  29.761  24.688  1.00  0.00    -0.275 OA
BRANCH  89  91
ATOM     91  C   UNL A   1      29.707  29.768  23.550  1.00  0.00     0.083 C 
ATOM     92  C   UNL A   1      29.882  29.748  22.025  1.00  0.00     0.040 C 
ATOM     93  C   UNL A   1      29.379  31.175  24.054  1.00  0.00     0.018 C 
ATOM     94  C   UNL A   1      28.806  30.522  21.318  1.00  0.00    -0.030 C 
ATOM     95  C   UNL A   1      28.071  31.669  23.420  1.00  0.00     0.028 C 
ATOM     96  C   UNL A   1      27.981  31.370  21.949  1.00  0.00    -0.031 C 
ENDBRANCH  89  91
ENDBRANCH  83  85
ENDBRANCH  78  80
ENDBRANCH  77  78
ENDBRANCH  76  77
ENDBRANCH  75  76
ENDBRANCH  74  75
ENDBRANCH  73  74
ENDBRANCH   1  73
TORSDOF 19
ENDMDL
MODEL 3
REMARK VINA RESULT:     -11.0      4.654     10.648
REMARK SMILES O=C(OCCOCCOCCOC(=O)c1cn(C2CN(C(=O)[C@@H]3CC=CCC3)C2)nn1)c1ccc(-c2c3nc(c(-c4c(F)c(F)c(F)c(F)c4F)c4ccc([nH]4)c(-c4c(F)c(F)c(F)c(F)c4F)c4nc(c(-c5c(F)c(F)c(F)c(F)c5F)c5ccc2[nH]5)C=C4)C=C3)cc1
REMARK SMILES IDX 7 1 6 2 5 3 4 4 3 5 2 6 1 7 32 8 33 9 94 10 34 11 93 12
REMARK SMILES IDX 35 13 36 14 37 15 87 16 38 17 92 18 86 19 88 20 39 21 91 22
REMARK SMILES IDX 85 23 84 24 40 26 72 27 52 28 71 29 53 30 56 31 70 32 89 33
REMARK SMILES IDX 54 34 55 35 69 37 90 38 57 39 41 40 42 41 50 42 43 43 44 44
REMARK SMILES IDX 48 45 51 46 45 47 46 48 49 49 47 50 73 51 74 52 82 53 75 54
REMARK SMILES IDX 76 55 80 56 83 57 77 58 78 59 81 60 79 61 58 62 59 63 67 64
REMARK SMILES IDX 60 65 61 66 65 67 68 68 62 69 63 70 66 71 64 72 8 73 9 74
REMARK SMILES IDX 10 75 11 76 12 77 13 78 14 79 15 80 16 81 31 82 17 83 30 84
REMARK SMILES IDX 18 85 19 86 29 87 20 88 21 89 22 90 23 91 24 92 28 93 25 94
REMARK SMILES IDX 27 95 26 96
REMARK H PARENT 88 25 56 36
REMARK Flexibility Score: inf
ROOT
ATOM      1  C   UNL A   1      45.696  20.495  25.297  1.00  0.00     0.188 C 
ENDROOT
BRANCH   1   2
ATOM      2  O   UNL A   1      46.723  21.241  24.648  1.00  0.00    -0.376 OA
BRANCH   2   3
ATOM      3  C   UNL A   1      46.380  22.561  24.258  1.00  0.00     0.202 C 
BRANCH   3   4
ATOM      4  C   UNL A   1      45.566  23.326  25.304  1.00  0.00     0.261 C 
BRANCH   4   5
ATOM      5  O   UNL A   1      44.312  23.850  24.835  1.00  0.00    -0.460 OA
BRANCH   5   6
ATOM      6  C   UNL A   1      43.077  23.659  25.339  1.00  0.00     0.338 C 
ATOM      7  O   UNL A   1      42.390  22.713  24.966  1.00  0.00    -0.246 OA
BRANCH   6   8
ATOM      8  C   UNL A   1      42.428  24.717  26.145  1.00  0.00     0.060 A 
ATOM      9  C   UNL A   1      41.671  25.754  25.599  1.00  0.00     0.016 A 
ATOM     10  C   UNL A   1      42.718  24.716  27.523  1.00  0.00     0.016 A 
ATOM     11  C   UNL A   1      41.265  26.813  26.397  1.00  0.00     0.010 A 
ATOM     12  C   UNL A   1      42.338  25.787  28.320  1.00  0.00     0.010 A 
ATOM     13  C   UNL A   1      41.682  26.866  27.725  1.00  0.00    -0.014 A 
BRANCH  13  14
ATOM     14  C   UNL A   1      41.659  28.183  28.355  1.00  0.00     0.031 A 
ATOM     15  C   UNL A   1      42.752  29.149  28.065  1.00  0.00     0.074 A 
ATOM     16  C   UNL A   1      40.622  28.492  29.161  1.00  0.00     0.049 A 
ATOM     17  N   UNL A   1      43.470  29.833  28.904  1.00  0.00    -0.248 NA
ATOM     18  C   UNL A   1      43.095  29.380  26.655  1.00  0.00     0.031 C 
ATOM     19  C   UNL A   1      39.379  27.732  29.348  1.00  0.00     0.029 A 
ATOM     20  N   UNL A   1      40.409  29.619  29.895  1.00  0.00    -0.354 N 
ATOM     21  C   UNL A   1      44.245  30.696  28.131  1.00  0.00     0.074 A 
ATOM     22  C   UNL A   1      44.030  30.325  26.754  1.00  0.00     0.031 C 
ATOM     23  C   UNL A   1      38.460  28.523  29.937  1.00  0.00     0.029 A 
ATOM     24  C   UNL A   1      39.089  29.787  30.275  1.00  0.00     0.049 A 
ATOM     25  H   UNL A   1      41.123  30.252  30.133  1.00  0.00     0.167 HD
ATOM     26  C   UNL A   1      44.887  31.780  28.648  1.00  0.00     0.037 A 
ATOM     27  C   UNL A   1      38.516  30.926  30.725  1.00  0.00     0.037 A 
ATOM     28  C   UNL A   1      45.119  31.675  30.058  1.00  0.00     0.049 A 
ATOM     29  C   UNL A   1      39.591  31.812  31.226  1.00  0.00     0.074 A 
ATOM     30  C   UNL A   1      45.849  30.821  30.863  1.00  0.00     0.029 A 
ATOM     31  N   UNL A   1      44.345  32.407  30.921  1.00  0.00    -0.354 N 
ATOM     32  N   UNL A   1      40.310  31.569  32.288  1.00  0.00    -0.248 NA
ATOM     33  C   UNL A   1      40.148  32.794  30.308  1.00  0.00     0.031 C 
ATOM     34  C   UNL A   1      45.125  30.748  32.088  1.00  0.00     0.029 A 
ATOM     35  C   UNL A   1      44.003  31.565  31.947  1.00  0.00     0.049 A 
ATOM     36  H   UNL A   1      44.086  33.352  30.823  1.00  0.00     0.167 HD
ATOM     37  C   UNL A   1      41.571  32.059  31.985  1.00  0.00     0.074 A 
ATOM     38  C   UNL A   1      41.383  32.897  30.805  1.00  0.00     0.031 C 
ATOM     39  C   UNL A   1      42.693  31.522  32.548  1.00  0.00     0.037 A 
BRANCH  26  40
ATOM     40  C   UNL A   1      45.062  33.069  27.893  1.00  0.00     0.064 A 
ATOM     41  C   UNL A   1      46.343  33.504  27.502  1.00  0.00     0.173 A 
ATOM     42  C   UNL A   1      44.028  34.022  27.783  1.00  0.00     0.173 A 
ATOM     43  F   UNL A   1      47.403  32.691  27.616  1.00  0.00    -0.203 F 
ATOM     44  C   UNL A   1      46.571  34.810  27.058  1.00  0.00     0.198 A 
ATOM     45  C   UNL A   1      44.249  35.307  27.294  1.00  0.00     0.198 A 
ATOM     46  F   UNL A   1      42.793  33.770  28.242  1.00  0.00    -0.203 F 
ATOM     47  F   UNL A   1      47.819  35.213  26.786  1.00  0.00    -0.200 F 
ATOM     48  C   UNL A   1      45.524  35.709  26.951  1.00  0.00     0.200 A 
ATOM     49  F   UNL A   1      43.227  36.172  27.224  1.00  0.00    -0.200 F 
ATOM     50  F   UNL A   1      45.747  36.973  26.567  1.00  0.00    -0.200 F 
ENDBRANCH  26  40
BRANCH  27  51
ATOM     51  C   UNL A   1      37.148  31.385  30.403  1.00  0.00     0.064 A 
ATOM     52  C   UNL A   1      36.243  31.755  31.405  1.00  0.00     0.173 A 
ATOM     53  C   UNL A   1      36.769  31.679  29.075  1.00  0.00     0.173 A 
ATOM     54  F   UNL A   1      36.556  31.569  32.696  1.00  0.00    -0.203 F 
ATOM     55  C   UNL A   1      35.025  32.369  31.096  1.00  0.00     0.198 A 
ATOM     56  C   UNL A   1      35.548  32.273  28.766  1.00  0.00     0.198 A 
ATOM     57  F   UNL A   1      37.614  31.472  28.054  1.00  0.00    -0.203 F 
ATOM     58  F   UNL A   1      34.202  32.753  32.082  1.00  0.00    -0.200 F 
ATOM     59  C   UNL A   1      34.679  32.626  29.778  1.00  0.00     0.200 A 
ATOM     60  F   UNL A   1      35.246  32.548  27.489  1.00  0.00    -0.200 F 
ATOM     61  F   UNL A   1      33.528  33.249  29.486  1.00  0.00    -0.200 F 
ENDBRANCH  27  51
BRANCH  39  62
ATOM     62  C   UNL A   1      42.502  30.561  33.685  1.00  0.00     0.064 A 
ATOM     63  C   UNL A   1      42.441  30.975  35.027  1.00  0.00     0.173 A 
ATOM     64  C   UNL A   1      42.217  29.218  33.409  1.00  0.00     0.173 A 
ATOM     65  F   UNL A   1      42.582  32.266  35.352  1.00  0.00    -0.203 F 
ATOM     66  C   UNL A   1      42.162  30.074  36.051  1.00  0.00     0.198 A 
ATOM     67  C   UNL A   1      41.905  28.325  34.432  1.00  0.00     0.198 A 
ATOM     68  F   UNL A   1      42.188  28.785  32.139  1.00  0.00    -0.203 F 
ATOM     69  F   UNL A   1      42.115  30.495  37.324  1.00  0.00    -0.200 F 
ATOM     70  C   UNL A   1      41.889  28.750  35.751  1.00  0.00     0.200 A 
ATOM     71  F   UNL A   1      41.585  27.058  34.135  1.00  0.00    -0.200 F 
ATOM     72  F   UNL A   1      41.577  27.890  36.732  1.00  0.00    -0.200 F 
ENDBRANCH  39  62
ENDBRANCH  13  14
ENDBRANCH   6   8
ENDBRANCH   5   6
ENDBRANCH   4   5
ENDBRANCH   3   4
ENDBRANCH   2   3
ENDBRANCH   1   2
BRANCH   1  73
ATOM     73  C   UNL A   1      45.745  18.966  25.062  1.00  0.00     0.188 C 
BRANCH  73  74
ATOM     74  O   UNL A   1      44.573  18.188  24.821  1.00  0.00    -0.376 OA
BRANCH  74  75
ATOM     75  C   UNL A   1      43.508  18.229  25.755  1.00  0.00     0.202 C 
BRANCH  75  76
ATOM     76  C   UNL A   1      42.652  19.487  25.562  1.00  0.00     0.261 C 
BRANCH  76  77
ATOM     77  O   UNL A   1      41.259  19.276  25.854  1.00  0.00    -0.458 OA
BRANCH  77  78
ATOM     78  C   UNL A   1      40.768  19.985  26.916  1.00  0.00     0.360 C 
ATOM     79  O   UNL A   1      41.045  19.791  28.089  1.00  0.00    -0.244 OA
BRANCH  78  80
ATOM     80  C   UNL A   1      39.839  21.014  26.488  1.00  0.00     0.190 A 
ATOM     81  C   UNL A   1      38.798  20.893  25.592  1.00  0.00     0.147 A 
ATOM     82  N   UNL A   1      39.856  22.299  26.979  1.00  0.00    -0.123 NA
ATOM     83  N   UNL A   1      38.173  22.108  25.650  1.00  0.00    -0.245 N 
ATOM     84  N   UNL A   1      38.856  22.969  26.424  1.00  0.00    -0.066 NA
BRANCH  83  85
ATOM     85  C   UNL A   1      36.890  22.459  25.120  1.00  0.00     0.148 C 
ATOM     86  C   UNL A   1      35.723  22.437  26.120  1.00  0.00     0.148 C 
ATOM     87  C   UNL A   1      36.704  23.998  25.074  1.00  0.00     0.148 C 
ATOM     88  N   UNL A   1      35.390  23.760  25.615  1.00  0.00    -0.338 N 
ATOM     89  C   UNL A   1      34.211  24.427  25.717  1.00  0.00     0.226 C 
ATOM     90  O   UNL A   1      33.278  23.940  26.361  1.00  0.00    -0.275 OA
BRANCH  89  91
ATOM     91  C   UNL A   1      34.032  25.769  25.021  1.00  0.00     0.083 C 
ATOM     92  C   UNL A   1      33.356  26.819  25.914  1.00  0.00     0.040 C 
ATOM     93  C   UNL A   1      33.356  25.684  23.651  1.00  0.00     0.018 C 
ATOM     94  C   UNL A   1      33.079  28.099  25.178  1.00  0.00    -0.030 C 
ATOM     95  C   UNL A   1      33.441  27.040  22.937  1.00  0.00     0.028 C 
ATOM     96  C   UNL A   1      33.136  28.201  23.842  1.00  0.00    -0.031 C 
ENDBRANCH  89  91
ENDBRANCH  83  85
ENDBRANCH  78  80
ENDBRANCH  77  78
ENDBRANCH  76  77
ENDBRANCH  75  76
ENDBRANCH  74  75
ENDBRANCH  73  74
ENDBRANCH   1  73
TORSDOF 19
ENDMDL
