MODEL 1
REMARK VINA RESULT:     -11.4      0.000      0.000
REMARK SMILES O=C(OCCOCCOCCOC(=O)c1cccc(Nc2ccnc3ccc(Cl)cc23)c1)c1ccc(-c2c3nc(c(-c4c(F)c(F)c(F)c(F)c4F)c4ccc([nH]4)c(-c4c(F)c(F)c(F)c(F)c4F)c4nc(c(-c5c(F)c(F)c(F)c(F)c5F)c5ccc2[nH]5)C=C4)C=C3)cc1
REMARK SMILES IDX 7 1 6 2 5 3 4 4 3 5 2 6 1 7 33 8 34 9 95 10 35 11 94 12
REMARK SMILES IDX 36 13 37 14 38 15 88 16 39 17 93 18 87 19 89 20 40 21 92 22
REMARK SMILES IDX 86 23 85 24 41 26 73 27 53 28 72 29 54 30 57 31 71 32 90 33
REMARK SMILES IDX 55 34 56 35 70 37 91 38 58 39 42 40 43 41 51 42 44 43 45 44
REMARK SMILES IDX 49 45 52 46 46 47 47 48 50 49 48 50 74 51 75 52 83 53 76 54
REMARK SMILES IDX 77 55 81 56 84 57 78 58 79 59 82 60 80 61 59 62 60 63 68 64
REMARK SMILES IDX 61 65 62 66 66 67 69 68 63 69 64 70 67 71 65 72 8 73 9 74
REMARK SMILES IDX 10 75 11 76 12 77 13 78 14 79 15 80 16 81 32 82 17 83 19 84
REMARK SMILES IDX 18 85 20 86 21 88 22 89 31 90 23 91 25 92 30 93 24 94 26 95
REMARK SMILES IDX 28 96 27 97 29 98
REMARK H PARENT 89 25 57 36 20 87
REMARK Flexibility Score: inf
ROOT
ATOM      1  C   UNL A   1      31.781  29.199  26.095  1.00  0.00     0.188 C 
ENDROOT
BRANCH   1   2
ATOM      2  O   UNL A   1      31.894  30.434  26.815  1.00  0.00    -0.376 OA
BRANCH   2   3
ATOM      3  C   UNL A   1      31.168  31.506  26.199  1.00  0.00     0.202 C 
BRANCH   3   4
ATOM      4  C   UNL A   1      31.670  32.905  26.592  1.00  0.00     0.261 C 
BRANCH   4   5
ATOM      5  O   UNL A   1      32.543  32.867  27.733  1.00  0.00    -0.460 OA
BRANCH   5   6
ATOM      6  C   UNL A   1      33.765  33.433  27.881  1.00  0.00     0.338 C 
ATOM      7  O   UNL A   1      33.873  34.647  27.712  1.00  0.00    -0.246 OA
BRANCH   6   8
ATOM      8  C   UNL A   1      34.994  32.685  28.300  1.00  0.00     0.060 A 
ATOM      9  C   UNL A   1      35.041  31.338  28.655  1.00  0.00     0.016 A 
ATOM     10  C   UNL A   1      36.205  33.403  28.301  1.00  0.00     0.016 A 
ATOM     11  C   UNL A   1      36.210  30.762  29.147  1.00  0.00     0.010 A 
ATOM     12  C   UNL A   1      37.401  32.812  28.726  1.00  0.00     0.010 A 
ATOM     13  C   UNL A   1      37.390  31.501  29.212  1.00  0.00    -0.014 A 
BRANCH  13  14
ATOM     14  C   UNL A   1      38.544  30.914  29.928  1.00  0.00     0.031 A 
ATOM     15  C   UNL A   1      38.710  31.217  31.391  1.00  0.00     0.074 A 
ATOM     16  C   UNL A   1      39.323  30.006  29.315  1.00  0.00     0.049 A 
ATOM     17  N   UNL A   1      39.578  30.740  32.245  1.00  0.00    -0.248 NA
ATOM     18  C   UNL A   1      37.754  32.171  31.978  1.00  0.00     0.031 C 
ATOM     19  C   UNL A   1      39.176  29.575  27.924  1.00  0.00     0.029 A 
ATOM     20  N   UNL A   1      40.357  29.244  29.793  1.00  0.00    -0.354 N 
ATOM     21  C   UNL A   1      39.280  31.344  33.460  1.00  0.00     0.074 A 
ATOM     22  C   UNL A   1      38.165  32.234  33.234  1.00  0.00     0.031 C 
ATOM     23  C   UNL A   1      40.054  28.588  27.677  1.00  0.00     0.029 A 
ATOM     24  C   UNL A   1      40.857  28.356  28.873  1.00  0.00     0.049 A 
ATOM     25  H   UNL A   1      40.708  29.326  30.710  1.00  0.00     0.167 HD
ATOM     26  C   UNL A   1      39.882  31.165  34.660  1.00  0.00     0.037 A 
ATOM     27  C   UNL A   1      41.855  27.459  28.992  1.00  0.00     0.037 A 
ATOM     28  C   UNL A   1      40.990  30.274  34.871  1.00  0.00     0.049 A 
ATOM     29  C   UNL A   1      42.561  27.342  30.316  1.00  0.00     0.074 A 
ATOM     30  C   UNL A   1      41.714  30.049  36.028  1.00  0.00     0.029 A 
ATOM     31  N   UNL A   1      41.533  29.457  33.889  1.00  0.00    -0.354 N 
ATOM     32  N   UNL A   1      42.294  27.941  31.452  1.00  0.00    -0.248 NA
ATOM     33  C   UNL A   1      43.710  26.431  30.372  1.00  0.00     0.031 C 
ATOM     34  C   UNL A   1      42.720  29.121  35.735  1.00  0.00     0.029 A 
ATOM     35  C   UNL A   1      42.595  28.738  34.407  1.00  0.00     0.049 A 
ATOM     36  H   UNL A   1      41.209  29.397  32.961  1.00  0.00     0.167 HD
ATOM     37  C   UNL A   1      43.226  27.466  32.362  1.00  0.00     0.074 A 
ATOM     38  C   UNL A   1      44.055  26.514  31.649  1.00  0.00     0.031 C 
ATOM     39  C   UNL A   1      43.389  27.788  33.670  1.00  0.00     0.037 A 
BRANCH  26  40
ATOM     40  C   UNL A   1      39.383  31.997  35.802  1.00  0.00     0.064 A 
ATOM     41  C   UNL A   1      39.869  33.290  36.046  1.00  0.00     0.173 A 
ATOM     42  C   UNL A   1      38.427  31.475  36.688  1.00  0.00     0.173 A 
ATOM     43  F   UNL A   1      40.803  33.822  35.245  1.00  0.00    -0.203 F 
ATOM     44  C   UNL A   1      39.440  34.019  37.154  1.00  0.00     0.198 A 
ATOM     45  C   UNL A   1      37.983  32.216  37.781  1.00  0.00     0.198 A 
ATOM     46  F   UNL A   1      37.936  30.242  36.502  1.00  0.00    -0.203 F 
ATOM     47  F   UNL A   1      39.961  35.228  37.402  1.00  0.00    -0.200 F 
ATOM     48  C   UNL A   1      38.497  33.483  38.019  1.00  0.00     0.200 A 
ATOM     49  F   UNL A   1      37.072  31.697  38.614  1.00  0.00    -0.200 F 
ATOM     50  F   UNL A   1      38.094  34.179  39.091  1.00  0.00    -0.200 F 
ENDBRANCH  26  40
BRANCH  27  51
ATOM     51  C   UNL A   1      42.253  26.621  27.829  1.00  0.00     0.064 A 
ATOM     52  C   UNL A   1      41.709  25.346  27.625  1.00  0.00     0.173 A 
ATOM     53  C   UNL A   1      43.201  27.076  26.902  1.00  0.00     0.173 A 
ATOM     54  F   UNL A   1      40.820  24.850  28.498  1.00  0.00    -0.203 F 
ATOM     55  C   UNL A   1      42.104  24.559  26.544  1.00  0.00     0.198 A 
ATOM     56  C   UNL A   1      43.572  26.304  25.802  1.00  0.00     0.198 A 
ATOM     57  F   UNL A   1      43.765  28.280  27.063  1.00  0.00    -0.203 F 
ATOM     58  F   UNL A   1      41.600  23.326  26.396  1.00  0.00    -0.200 F 
ATOM     59  C   UNL A   1      43.029  25.041  25.629  1.00  0.00     0.200 A 
ATOM     60  F   UNL A   1      44.456  26.782  24.917  1.00  0.00    -0.200 F 
ATOM     61  F   UNL A   1      43.401  24.287  24.587  1.00  0.00    -0.200 F 
ENDBRANCH  27  51
BRANCH  39  62
ATOM     62  C   UNL A   1      44.483  27.082  34.411  1.00  0.00     0.064 A 
ATOM     63  C   UNL A   1      45.768  27.631  34.516  1.00  0.00     0.173 A 
ATOM     64  C   UNL A   1      44.227  25.865  35.059  1.00  0.00     0.173 A 
ATOM     65  F   UNL A   1      46.062  28.786  33.899  1.00  0.00    -0.203 F 
ATOM     66  C   UNL A   1      46.768  26.972  35.226  1.00  0.00     0.198 A 
ATOM     67  C   UNL A   1      45.221  25.223  35.790  1.00  0.00     0.198 A 
ATOM     68  F   UNL A   1      43.009  25.306  34.992  1.00  0.00    -0.203 F 
ATOM     69  F   UNL A   1      48.002  27.492  35.279  1.00  0.00    -0.200 F 
ATOM     70  C   UNL A   1      46.492  25.774  35.868  1.00  0.00     0.200 A 
ATOM     71  F   UNL A   1      44.951  24.071  36.418  1.00  0.00    -0.200 F 
ATOM     72  F   UNL A   1      47.454  25.145  36.556  1.00  0.00    -0.200 F 
ENDBRANCH  39  62
ENDBRANCH  13  14
ENDBRANCH   6   8
ENDBRANCH   5   6
ENDBRANCH   4   5
ENDBRANCH   3   4
ENDBRANCH   2   3
ENDBRANCH   1   2
BRANCH   1  73
ATOM     73  C   UNL A   1      33.016  28.906  25.235  1.00  0.00     0.188 C 
BRANCH  73  74
ATOM     74  O   UNL A   1      33.057  29.591  23.983  1.00  0.00    -0.376 OA
BRANCH  74  75
ATOM     75  C   UNL A   1      32.708  28.837  22.819  1.00  0.00     0.202 C 
BRANCH  75  76
ATOM     76  C   UNL A   1      31.266  29.012  22.326  1.00  0.00     0.261 C 
BRANCH  76  77
ATOM     77  O   UNL A   1      30.586  27.746  22.258  1.00  0.00    -0.460 OA
BRANCH  77  78
ATOM     78  C   UNL A   1      31.359  26.650  22.447  1.00  0.00     0.338 C 
ATOM     79  O   UNL A   1      32.153  26.182  21.640  1.00  0.00    -0.246 OA
BRANCH  78  80
ATOM     80  C   UNL A   1      31.128  26.072  23.800  1.00  0.00     0.062 A 
ATOM     81  C   UNL A   1      29.878  26.166  24.431  1.00  0.00     0.016 A 
ATOM     82  C   UNL A   1      32.191  25.417  24.451  1.00  0.00     0.041 A 
ATOM     83  C   UNL A   1      29.694  25.648  25.706  1.00  0.00     0.003 A 
ATOM     84  C   UNL A   1      31.997  24.841  25.711  1.00  0.00     0.039 A 
ATOM     85  C   UNL A   1      30.745  24.989  26.334  1.00  0.00     0.026 A 
BRANCH  84  86
ATOM     86  N   UNL A   1      32.965  23.991  26.284  1.00  0.00    -0.355 N 
ATOM     87  H   UNL A   1      33.333  24.253  27.159  1.00  0.00     0.167 HD
BRANCH  86  88
ATOM     88  C   UNL A   1      33.452  22.790  25.708  1.00  0.00     0.050 A 
ATOM     89  C   UNL A   1      32.532  21.796  25.355  1.00  0.00     0.047 A 
ATOM     90  C   UNL A   1      34.833  22.510  25.573  1.00  0.00     0.025 A 
ATOM     91  C   UNL A   1      32.987  20.578  24.906  1.00  0.00     0.114 A 
ATOM     92  C   UNL A   1      35.186  21.221  25.098  1.00  0.00     0.072 A 
ATOM     93  C   UNL A   1      35.869  23.410  25.920  1.00  0.00     0.033 A 
ATOM     94  N   UNL A   1      34.290  20.281  24.773  1.00  0.00    -0.256 NA
ATOM     95  C   UNL A   1      36.524  20.883  24.980  1.00  0.00     0.030 A 
ATOM     96  C   UNL A   1      37.206  23.038  25.791  1.00  0.00     0.041 A 
ATOM     97  C   UNL A   1      37.539  21.775  25.321  1.00  0.00     0.023 A 
ATOM     98  Cl  UNL A   1      38.453  24.140  26.224  1.00  0.00    -0.084 Cl
ENDBRANCH  86  88
ENDBRANCH  84  86
ENDBRANCH  78  80
ENDBRANCH  77  78
ENDBRANCH  76  77
ENDBRANCH  75  76
ENDBRANCH  74  75
ENDBRANCH  73  74
ENDBRANCH   1  73
TORSDOF 19
ENDMDL
MODEL 2
REMARK VINA RESULT:     -11.0      1.748      3.082
REMARK SMILES O=C(OCCOCCOCCOC(=O)c1cccc(Nc2ccnc3ccc(Cl)cc23)c1)c1ccc(-c2c3nc(c(-c4c(F)c(F)c(F)c(F)c4F)c4ccc([nH]4)c(-c4c(F)c(F)c(F)c(F)c4F)c4nc(c(-c5c(F)c(F)c(F)c(F)c5F)c5ccc2[nH]5)C=C4)C=C3)cc1
REMARK SMILES IDX 7 1 6 2 5 3 4 4 3 5 2 6 1 7 33 8 34 9 95 10 35 11 94 12
REMARK SMILES IDX 36 13 37 14 38 15 88 16 39 17 93 18 87 19 89 20 40 21 92 22
REMARK SMILES IDX 86 23 85 24 41 26 73 27 53 28 72 29 54 30 57 31 71 32 90 33
REMARK SMILES IDX 55 34 56 35 70 37 91 38 58 39 42 40 43 41 51 42 44 43 45 44
REMARK SMILES IDX 49 45 52 46 46 47 47 48 50 49 48 50 74 51 75 52 83 53 76 54
REMARK SMILES IDX 77 55 81 56 84 57 78 58 79 59 82 60 80 61 59 62 60 63 68 64
REMARK SMILES IDX 61 65 62 66 66 67 69 68 63 69 64 70 67 71 65 72 8 73 9 74
REMARK SMILES IDX 10 75 11 76 12 77 13 78 14 79 15 80 16 81 32 82 17 83 19 84
REMARK SMILES IDX 18 85 20 86 21 88 22 89 31 90 23 91 25 92 30 93 24 94 26 95
REMARK SMILES IDX 28 96 27 97 29 98
REMARK H PARENT 89 25 57 36 20 87
REMARK Flexibility Score: inf
ROOT
ATOM      1  C   UNL A   1      33.163  27.679  25.113  1.00  0.00     0.188 C 
ENDROOT
BRANCH   1   2
ATOM      2  O   UNL A   1      32.660  28.597  26.092  1.00  0.00    -0.376 OA
BRANCH   2   3
ATOM      3  C   UNL A   1      31.704  29.519  25.553  1.00  0.00     0.202 C 
BRANCH   3   4
ATOM      4  C   UNL A   1      31.780  30.926  26.166  1.00  0.00     0.261 C 
BRANCH   4   5
ATOM      5  O   UNL A   1      32.616  30.964  27.334  1.00  0.00    -0.460 OA
BRANCH   5   6
ATOM      6  C   UNL A   1      33.612  31.834  27.632  1.00  0.00     0.338 C 
ATOM      7  O   UNL A   1      33.365  33.039  27.602  1.00  0.00    -0.246 OA
BRANCH   6   8
ATOM      8  C   UNL A   1      34.988  31.424  28.062  1.00  0.00     0.060 A 
ATOM      9  C   UNL A   1      35.403  30.118  28.314  1.00  0.00     0.016 A 
ATOM     10  C   UNL A   1      35.946  32.449  28.185  1.00  0.00     0.016 A 
ATOM     11  C   UNL A   1      36.670  29.849  28.825  1.00  0.00     0.010 A 
ATOM     12  C   UNL A   1      37.246  32.179  28.631  1.00  0.00     0.010 A 
ATOM     13  C   UNL A   1      37.590  30.880  29.013  1.00  0.00    -0.014 A 
BRANCH  13  14
ATOM     14  C   UNL A   1      38.839  30.576  29.746  1.00  0.00     0.031 A 
ATOM     15  C   UNL A   1      38.932  30.962  31.195  1.00  0.00     0.074 A 
ATOM     16  C   UNL A   1      39.795  29.831  29.163  1.00  0.00     0.049 A 
ATOM     17  N   UNL A   1      39.878  30.711  32.063  1.00  0.00    -0.248 NA
ATOM     18  C   UNL A   1      37.794  31.713  31.750  1.00  0.00     0.031 C 
ATOM     19  C   UNL A   1      39.747  29.327  27.790  1.00  0.00     0.029 A 
ATOM     20  N   UNL A   1      40.964  29.323  29.665  1.00  0.00    -0.354 N 
ATOM     21  C   UNL A   1      39.455  31.282  33.256  1.00  0.00     0.074 A 
ATOM     22  C   UNL A   1      38.178  31.908  33.002  1.00  0.00     0.031 C 
ATOM     23  C   UNL A   1      40.814  28.539  27.576  1.00  0.00     0.029 A 
ATOM     24  C   UNL A   1      41.644  28.526  28.777  1.00  0.00     0.049 A 
ATOM     25  H   UNL A   1      41.286  29.511  30.577  1.00  0.00     0.167 HD
ATOM     26  C   UNL A   1      40.076  31.279  34.459  1.00  0.00     0.037 A 
ATOM     27  C   UNL A   1      42.808  27.865  28.924  1.00  0.00     0.037 A 
ATOM     28  C   UNL A   1      41.346  30.650  34.699  1.00  0.00     0.049 A 
ATOM     29  C   UNL A   1      43.518  27.949  30.249  1.00  0.00     0.074 A 
ATOM     30  C   UNL A   1      42.097  30.626  35.860  1.00  0.00     0.029 A 
ATOM     31  N   UNL A   1      42.053  29.930  33.745  1.00  0.00    -0.354 N 
ATOM     32  N   UNL A   1      43.126  28.520  31.363  1.00  0.00    -0.248 NA
ATOM     33  C   UNL A   1      44.833  27.304  30.334  1.00  0.00     0.031 C 
ATOM     34  C   UNL A   1      43.277  29.921  35.597  1.00  0.00     0.029 A 
ATOM     35  C   UNL A   1      43.241  29.472  34.285  1.00  0.00     0.049 A 
ATOM     36  H   UNL A   1      41.753  29.769  32.822  1.00  0.00     0.167 HD
ATOM     37  C   UNL A   1      44.134  28.286  32.286  1.00  0.00     0.074 A 
ATOM     38  C   UNL A   1      45.148  27.505  31.606  1.00  0.00     0.031 C 
ATOM     39  C   UNL A   1      44.220  28.683  33.580  1.00  0.00     0.037 A 
BRANCH  26  40
ATOM     40  C   UNL A   1      39.408  32.029  35.572  1.00  0.00     0.064 A 
ATOM     41  C   UNL A   1      39.692  33.377  35.833  1.00  0.00     0.173 A 
ATOM     42  C   UNL A   1      38.495  31.374  36.413  1.00  0.00     0.173 A 
ATOM     43  F   UNL A   1      40.578  34.039  35.075  1.00  0.00    -0.203 F 
ATOM     44  C   UNL A   1      39.110  34.035  36.915  1.00  0.00     0.198 A 
ATOM     45  C   UNL A   1      37.897  32.042  37.480  1.00  0.00     0.198 A 
ATOM     46  F   UNL A   1      38.195  30.083  36.209  1.00  0.00    -0.203 F 
ATOM     47  F   UNL A   1      39.441  35.306  37.182  1.00  0.00    -0.200 F 
ATOM     48  C   UNL A   1      38.213  33.368  37.736  1.00  0.00     0.200 A 
ATOM     49  F   UNL A   1      37.030  31.395  38.270  1.00  0.00    -0.200 F 
ATOM     50  F   UNL A   1      37.663  33.997  38.784  1.00  0.00    -0.200 F 
ENDBRANCH  26  40
BRANCH  27  51
ATOM     51  C   UNL A   1      43.379  27.087  27.792  1.00  0.00     0.064 A 
ATOM     52  C   UNL A   1      44.026  27.720  26.722  1.00  0.00     0.173 A 
ATOM     53  C   UNL A   1      43.276  25.689  27.752  1.00  0.00     0.173 A 
ATOM     54  F   UNL A   1      44.127  29.057  26.696  1.00  0.00    -0.203 F 
ATOM     55  C   UNL A   1      44.540  26.984  25.655  1.00  0.00     0.198 A 
ATOM     56  C   UNL A   1      43.819  24.950  26.702  1.00  0.00     0.198 A 
ATOM     57  F   UNL A   1      42.650  25.040  28.741  1.00  0.00    -0.203 F 
ATOM     58  F   UNL A   1      45.116  27.616  24.624  1.00  0.00    -0.200 F 
ATOM     59  C   UNL A   1      44.444  25.599  25.649  1.00  0.00     0.200 A 
ATOM     60  F   UNL A   1      43.733  23.614  26.711  1.00  0.00    -0.200 F 
ATOM     61  F   UNL A   1      44.945  24.893  24.627  1.00  0.00    -0.200 F 
ENDBRANCH  27  51
BRANCH  39  62
ATOM     62  C   UNL A   1      45.436  28.253  34.343  1.00  0.00     0.064 A 
ATOM     63  C   UNL A   1      46.588  29.049  34.395  1.00  0.00     0.173 A 
ATOM     64  C   UNL A   1      45.428  27.049  35.064  1.00  0.00     0.173 A 
ATOM     65  F   UNL A   1      46.644  30.200  33.708  1.00  0.00    -0.203 F 
ATOM     66  C   UNL A   1      47.701  28.644  35.125  1.00  0.00     0.198 A 
ATOM     67  C   UNL A   1      46.533  26.661  35.814  1.00  0.00     0.198 A 
ATOM     68  F   UNL A   1      44.345  26.259  35.049  1.00  0.00    -0.203 F 
ATOM     69  F   UNL A   1      48.809  29.398  35.127  1.00  0.00    -0.200 F 
ATOM     70  C   UNL A   1      47.671  27.455  35.839  1.00  0.00     0.200 A 
ATOM     71  F   UNL A   1      46.499  25.517  36.511  1.00  0.00    -0.200 F 
ATOM     72  F   UNL A   1      48.742  27.070  36.546  1.00  0.00    -0.200 F 
ENDBRANCH  39  62
ENDBRANCH  13  14
ENDBRANCH   6   8
ENDBRANCH   5   6
ENDBRANCH   4   5
ENDBRANCH   3   4
ENDBRANCH   2   3
ENDBRANCH   1   2
BRANCH   1  73
ATOM     73  C   UNL A   1      32.638  27.978  23.703  1.00  0.00     0.188 C 
BRANCH  73  74
ATOM     74  O   UNL A   1      31.504  27.206  23.305  1.00  0.00    -0.376 OA
BRANCH  74  75
ATOM     75  C   UNL A   1      31.666  26.359  22.163  1.00  0.00     0.202 C 
BRANCH  75  76
ATOM     76  C   UNL A   1      33.002  25.610  22.081  1.00  0.00     0.261 C 
BRANCH  76  77
ATOM     77  O   UNL A   1      32.976  24.420  22.887  1.00  0.00    -0.460 OA
BRANCH  77  78
ATOM     78  C   UNL A   1      33.622  23.345  22.374  1.00  0.00     0.338 C 
ATOM     79  O   UNL A   1      33.650  23.020  21.194  1.00  0.00    -0.246 OA
BRANCH  78  80
ATOM     80  C   UNL A   1      34.322  22.591  23.450  1.00  0.00     0.062 A 
ATOM     81  C   UNL A   1      33.651  21.632  24.226  1.00  0.00     0.016 A 
ATOM     82  C   UNL A   1      35.685  22.850  23.687  1.00  0.00     0.041 A 
ATOM     83  C   UNL A   1      34.316  20.963  25.245  1.00  0.00     0.003 A 
ATOM     84  C   UNL A   1      36.377  22.138  24.674  1.00  0.00     0.039 A 
ATOM     85  C   UNL A   1      35.667  21.214  25.460  1.00  0.00     0.026 A 
BRANCH  84  86
ATOM     86  N   UNL A   1      37.781  22.211  24.780  1.00  0.00    -0.355 N 
ATOM     87  H   UNL A   1      38.308  21.866  24.024  1.00  0.00     0.167 HD
BRANCH  86  88
ATOM     88  C   UNL A   1      38.498  22.739  25.884  1.00  0.00     0.050 A 
ATOM     89  C   UNL A   1      38.150  24.009  26.362  1.00  0.00     0.047 A 
ATOM     90  C   UNL A   1      39.617  22.087  26.454  1.00  0.00     0.025 A 
ATOM     91  C   UNL A   1      38.907  24.593  27.351  1.00  0.00     0.114 A 
ATOM     92  C   UNL A   1      40.321  22.783  27.470  1.00  0.00     0.072 A 
ATOM     93  C   UNL A   1      40.095  20.818  26.048  1.00  0.00     0.033 A 
ATOM     94  N   UNL A   1      39.976  24.001  27.907  1.00  0.00    -0.256 NA
ATOM     95  C   UNL A   1      41.444  22.205  28.038  1.00  0.00     0.030 A 
ATOM     96  C   UNL A   1      41.230  20.264  26.639  1.00  0.00     0.041 A 
ATOM     97  C   UNL A   1      41.908  20.954  27.635  1.00  0.00     0.023 A 
ATOM     98  Cl  UNL A   1      41.804  18.726  26.128  1.00  0.00    -0.084 Cl
ENDBRANCH  86  88
ENDBRANCH  84  86
ENDBRANCH  78  80
ENDBRANCH  77  78
ENDBRANCH  76  77
ENDBRANCH  75  76
ENDBRANCH  74  75
ENDBRANCH  73  74
ENDBRANCH   1  73
TORSDOF 19
ENDMDL
MODEL 3
REMARK VINA RESULT:     -10.8      4.793     10.392
REMARK SMILES O=C(OCCOCCOCCOC(=O)c1cccc(Nc2ccnc3ccc(Cl)cc23)c1)c1ccc(-c2c3nc(c(-c4c(F)c(F)c(F)c(F)c4F)c4ccc([nH]4)c(-c4c(F)c(F)c(F)c(F)c4F)c4nc(c(-c5c(F)c(F)c(F)c(F)c5F)c5ccc2[nH]5)C=C4)C=C3)cc1
REMARK SMILES IDX 7 1 6 2 5 3 4 4 3 5 2 6 1 7 33 8 34 9 95 10 35 11 94 12
REMARK SMILES IDX 36 13 37 14 38 15 88 16 39 17 93 18 87 19 89 20 40 21 92 22
REMARK SMILES IDX 86 23 85 24 41 26 73 27 53 28 72 29 54 30 57 31 71 32 90 33
REMARK SMILES IDX 55 34 56 35 70 37 91 38 58 39 42 40 43 41 51 42 44 43 45 44
REMARK SMILES IDX 49 45 52 46 46 47 47 48 50 49 48 50 74 51 75 52 83 53 76 54
REMARK SMILES IDX 77 55 81 56 84 57 78 58 79 59 82 60 80 61 59 62 60 63 68 64
REMARK SMILES IDX 61 65 62 66 66 67 69 68 63 69 64 70 67 71 65 72 8 73 9 74
REMARK SMILES IDX 10 75 11 76 12 77 13 78 14 79 15 80 16 81 32 82 17 83 19 84
REMARK SMILES IDX 18 85 20 86 21 88 22 89 31 90 23 91 25 92 30 93 24 94 26 95
REMARK SMILES IDX 28 96 27 97 29 98
REMARK H PARENT 89 25 57 36 20 87
REMARK Flexibility Score: inf
ROOT
ATOM      1  C   UNL A   1      35.479  20.995  24.746  1.00  0.00     0.188 C 
ENDROOT
BRANCH   1   2
ATOM      2  O   UNL A   1      36.478  21.216  25.750  1.00  0.00    -0.376 OA
BRANCH   2   3
ATOM      3  C   UNL A   1      37.804  21.290  25.210  1.00  0.00     0.202 C 
BRANCH   3   4
ATOM      4  C   UNL A   1      38.476  19.922  25.017  1.00  0.00     0.261 C 
BRANCH   4   5
ATOM      5  O   UNL A   1      39.374  19.602  26.094  1.00  0.00    -0.460 OA
BRANCH   5   6
ATOM      6  C   UNL A   1      40.724  19.712  26.128  1.00  0.00     0.338 C 
ATOM      7  O   UNL A   1      41.400  18.755  25.749  1.00  0.00    -0.246 OA
BRANCH   6   8
ATOM      8  C   UNL A   1      41.458  20.952  26.540  1.00  0.00     0.060 A 
ATOM      9  C   UNL A   1      41.976  21.204  27.810  1.00  0.00     0.016 A 
ATOM     10  C   UNL A   1      41.668  21.925  25.545  1.00  0.00     0.016 A 
ATOM     11  C   UNL A   1      42.536  22.437  28.128  1.00  0.00     0.010 A 
ATOM     12  C   UNL A   1      42.295  23.142  25.838  1.00  0.00     0.010 A 
ATOM     13  C   UNL A   1      42.675  23.425  27.153  1.00  0.00    -0.014 A 
BRANCH  13  14
ATOM     14  C   UNL A   1      43.083  24.780  27.584  1.00  0.00     0.031 A 
ATOM     15  C   UNL A   1      44.474  25.248  27.259  1.00  0.00     0.074 A 
ATOM     16  C   UNL A   1      42.173  25.620  28.108  1.00  0.00     0.049 A 
ATOM     17  N   UNL A   1      45.020  26.422  27.443  1.00  0.00    -0.248 NA
ATOM     18  C   UNL A   1      45.365  24.267  26.618  1.00  0.00     0.031 C 
ATOM     19  C   UNL A   1      40.772  25.285  28.369  1.00  0.00     0.029 A 
ATOM     20  N   UNL A   1      42.273  26.939  28.465  1.00  0.00    -0.354 N 
ATOM     21  C   UNL A   1      46.316  26.315  26.954  1.00  0.00     0.074 A 
ATOM     22  C   UNL A   1      46.484  24.961  26.480  1.00  0.00     0.031 C 
ATOM     23  C   UNL A   1      40.132  26.386  28.797  1.00  0.00     0.029 A 
ATOM     24  C   UNL A   1      41.087  27.486  28.889  1.00  0.00     0.049 A 
ATOM     25  H   UNL A   1      43.117  27.447  28.421  1.00  0.00     0.167 HD
ATOM     26  C   UNL A   1      47.277  27.266  26.901  1.00  0.00     0.037 A 
ATOM     27  C   UNL A   1      40.812  28.736  29.306  1.00  0.00     0.037 A 
ATOM     28  C   UNL A   1      47.096  28.611  27.373  1.00  0.00     0.049 A 
ATOM     29  C   UNL A   1      41.923  29.751  29.313  1.00  0.00     0.074 A 
ATOM     30  C   UNL A   1      48.012  29.646  27.419  1.00  0.00     0.029 A 
ATOM     31  N   UNL A   1      45.904  29.104  27.886  1.00  0.00    -0.354 N 
ATOM     32  N   UNL A   1      43.155  29.632  28.879  1.00  0.00    -0.248 NA
ATOM     33  C   UNL A   1      41.608  31.071  29.874  1.00  0.00     0.031 C 
ATOM     34  C   UNL A   1      47.383  30.756  27.994  1.00  0.00     0.029 A 
ATOM     35  C   UNL A   1      46.064  30.424  28.268  1.00  0.00     0.049 A 
ATOM     36  H   UNL A   1      45.067  28.591  27.965  1.00  0.00     0.167 HD
ATOM     37  C   UNL A   1      43.757  30.863  29.094  1.00  0.00     0.074 A 
ATOM     38  C   UNL A   1      42.747  31.721  29.682  1.00  0.00     0.031 C 
ATOM     39  C   UNL A   1      45.030  31.252  28.836  1.00  0.00     0.037 A 
BRANCH  26  40
ATOM     40  C   UNL A   1      48.615  26.852  26.366  1.00  0.00     0.064 A 
ATOM     41  C   UNL A   1      48.963  27.031  25.019  1.00  0.00     0.173 A 
ATOM     42  C   UNL A   1      49.550  26.233  27.210  1.00  0.00     0.173 A 
ATOM     43  F   UNL A   1      48.093  27.592  24.166  1.00  0.00    -0.203 F 
ATOM     44  C   UNL A   1      50.186  26.576  24.528  1.00  0.00     0.198 A 
ATOM     45  C   UNL A   1      50.781  25.801  26.721  1.00  0.00     0.198 A 
ATOM     46  F   UNL A   1      49.263  26.033  28.504  1.00  0.00    -0.203 F 
ATOM     47  F   UNL A   1      50.473  26.703  23.226  1.00  0.00    -0.200 F 
ATOM     48  C   UNL A   1      51.093  25.963  25.380  1.00  0.00     0.200 A 
ATOM     49  F   UNL A   1      51.656  25.210  27.546  1.00  0.00    -0.200 F 
ATOM     50  F   UNL A   1      52.264  25.515  24.905  1.00  0.00    -0.200 F 
ENDBRANCH  26  40
BRANCH  27  51
ATOM     51  C   UNL A   1      39.442  29.092  29.763  1.00  0.00     0.064 A 
ATOM     52  C   UNL A   1      38.514  29.691  28.900  1.00  0.00     0.173 A 
ATOM     53  C   UNL A   1      39.035  28.849  31.083  1.00  0.00     0.173 A 
ATOM     54  F   UNL A   1      38.861  29.971  27.635  1.00  0.00    -0.203 F 
ATOM     55  C   UNL A   1      37.239  30.039  29.343  1.00  0.00     0.198 A 
ATOM     56  C   UNL A   1      37.749  29.166  31.518  1.00  0.00     0.198 A 
ATOM     57  F   UNL A   1      39.891  28.296  31.951  1.00  0.00    -0.203 F 
ATOM     58  F   UNL A   1      36.386  30.650  28.510  1.00  0.00    -0.200 F 
ATOM     59  C   UNL A   1      36.854  29.769  30.649  1.00  0.00     0.200 A 
ATOM     60  F   UNL A   1      37.382  28.890  32.776  1.00  0.00    -0.200 F 
ATOM     61  F   UNL A   1      35.626  30.097  31.071  1.00  0.00    -0.200 F 
ENDBRANCH  27  51
BRANCH  39  62
ATOM     62  C   UNL A   1      45.385  32.671  29.161  1.00  0.00     0.064 A 
ATOM     63  C   UNL A   1      45.187  33.705  28.236  1.00  0.00     0.173 A 
ATOM     64  C   UNL A   1      45.890  33.001  30.427  1.00  0.00     0.173 A 
ATOM     65  F   UNL A   1      44.721  33.432  27.008  1.00  0.00    -0.203 F 
ATOM     66  C   UNL A   1      45.504  35.021  28.561  1.00  0.00     0.198 A 
ATOM     67  C   UNL A   1      46.180  34.321  30.757  1.00  0.00     0.198 A 
ATOM     68  F   UNL A   1      46.090  32.045  31.347  1.00  0.00    -0.203 F 
ATOM     69  F   UNL A   1      45.347  35.990  27.648  1.00  0.00    -0.200 F 
ATOM     70  C   UNL A   1      45.993  35.329  29.822  1.00  0.00     0.200 A 
ATOM     71  F   UNL A   1      46.643  34.619  31.978  1.00  0.00    -0.200 F 
ATOM     72  F   UNL A   1      46.291  36.597  30.134  1.00  0.00    -0.200 F 
ENDBRANCH  39  62
ENDBRANCH  13  14
ENDBRANCH   6   8
ENDBRANCH   5   6
ENDBRANCH   4   5
ENDBRANCH   3   4
ENDBRANCH   2   3
ENDBRANCH   1   2
BRANCH   1  73
ATOM     73  C   UNL A   1      34.661  19.724  25.001  1.00  0.00     0.188 C 
BRANCH  73  74
ATOM     74  O   UNL A   1      33.257  19.852  24.771  1.00  0.00    -0.376 OA
BRANCH  74  75
ATOM     75  C   UNL A   1      32.779  21.143  24.383  1.00  0.00     0.202 C 
BRANCH  75  76
ATOM     76  C   UNL A   1      31.537  21.641  25.134  1.00  0.00     0.261 C 
BRANCH  76  77
ATOM     77  O   UNL A   1      31.899  22.236  26.392  1.00  0.00    -0.460 OA
BRANCH  77  78
ATOM     78  C   UNL A   1      31.496  23.515  26.578  1.00  0.00     0.338 C 
ATOM     79  O   UNL A   1      30.537  23.876  27.250  1.00  0.00    -0.246 OA
BRANCH  78  80
ATOM     80  C   UNL A   1      32.392  24.459  25.855  1.00  0.00     0.062 A 
ATOM     81  C   UNL A   1      33.784  24.428  26.035  1.00  0.00     0.016 A 
ATOM     82  C   UNL A   1      31.824  25.397  24.972  1.00  0.00     0.041 A 
ATOM     83  C   UNL A   1      34.598  25.339  25.375  1.00  0.00     0.003 A 
ATOM     84  C   UNL A   1      32.643  26.279  24.259  1.00  0.00     0.039 A 
ATOM     85  C   UNL A   1      34.028  26.250  24.493  1.00  0.00     0.026 A 
BRANCH  84  86
ATOM     86  N   UNL A   1      32.129  27.068  23.209  1.00  0.00    -0.355 N 
ATOM     87  H   UNL A   1      32.472  26.891  22.303  1.00  0.00     0.167 HD
BRANCH  86  88
ATOM     88  C   UNL A   1      31.159  28.094  23.347  1.00  0.00     0.050 A 
ATOM     89  C   UNL A   1      30.105  28.146  22.426  1.00  0.00     0.047 A 
ATOM     90  C   UNL A   1      31.270  29.128  24.306  1.00  0.00     0.025 A 
ATOM     91  C   UNL A   1      29.221  29.199  22.466  1.00  0.00     0.114 A 
ATOM     92  C   UNL A   1      30.300  30.162  24.254  1.00  0.00     0.072 A 
ATOM     93  C   UNL A   1      32.300  29.215  25.273  1.00  0.00     0.033 A 
ATOM     94  N   UNL A   1      29.304  30.198  23.360  1.00  0.00    -0.256 NA
ATOM     95  C   UNL A   1      30.382  31.216  25.148  1.00  0.00     0.030 A 
ATOM     96  C   UNL A   1      32.354  30.291  26.158  1.00  0.00     0.041 A 
ATOM     97  C   UNL A   1      31.397  31.294  26.100  1.00  0.00     0.023 A 
ATOM     98  Cl  UNL A   1      33.617  30.387  27.322  1.00  0.00    -0.084 Cl
ENDBRANCH  86  88
ENDBRANCH  84  86
ENDBRANCH  78  80
ENDBRANCH  77  78
ENDBRANCH  76  77
ENDBRANCH  75  76
ENDBRANCH  74  75
ENDBRANCH  73  74
ENDBRANCH   1  73
TORSDOF 19
ENDMDL
