MODEL 1
REMARK VINA RESULT:     -11.0      0.000      0.000
REMARK SMILES C[C@@H](c1ccccc1)[C@@H](CC(=O)Nc1ccccc1I)C(=O)OCCOCCOCCOC(=O)c1ccc(-c2c3nc(c(-c4c(F)c(F)c(F)c(F)c4F)c4ccc([nH]4)c(-c4c(F)c(F)c(F)c(F)c4F)c4nc(c(-c5c(F)c(F)c(F)c(F)c5F)c5ccc2[nH]5)C=C4)C=C3)cc1
REMARK SMILES IDX 27 1 26 2 25 3 24 4 23 5 21 6 22 7 9 8 2 9 1 10 3 11 4 12
REMARK SMILES IDX 8 13 5 14 7 15 6 16 10 17 11 18 12 19 13 20 14 22 15 23
REMARK SMILES IDX 19 24 16 25 18 26 20 27 17 28 28 29 29 30 30 31 31 32 32 33
REMARK SMILES IDX 33 34 34 35 35 36 36 37 97 38 37 39 96 40 38 41 39 42 40 43
REMARK SMILES IDX 90 44 41 45 95 46 89 47 91 48 42 49 94 50 88 51 87 52 43 54
REMARK SMILES IDX 75 55 55 56 74 57 56 58 59 59 73 60 92 61 57 62 58 63 72 65
REMARK SMILES IDX 93 66 60 67 44 68 45 69 53 70 46 71 47 72 51 73 54 74 48 75
REMARK SMILES IDX 49 76 52 77 50 78 76 79 77 80 85 81 78 82 79 83 83 84 86 85
REMARK SMILES IDX 80 86 81 87 84 88 82 89 61 90 62 91 70 92 63 93 64 94 68 95
REMARK SMILES IDX 71 96 65 97 66 98 69 99 67 100
REMARK H PARENT 13 21 91 53 59 64
REMARK Flexibility Score: inf
ROOT
ATOM      1  C   UNL A   1      40.082  20.489  26.330  1.00  0.00     0.188 C 
ENDROOT
BRANCH   1   2
ATOM      2  O   UNL A   1      39.293  21.669  26.416  1.00  0.00    -0.376 OA
BRANCH   2   3
ATOM      3  C   UNL A   1      38.220  21.776  25.482  1.00  0.00     0.202 C 
BRANCH   3   4
ATOM      4  C   UNL A   1      37.731  23.207  25.262  1.00  0.00     0.261 C 
BRANCH   4   5
ATOM      5  O   UNL A   1      36.293  23.299  25.093  1.00  0.00    -0.463 OA
BRANCH   5   6
ATOM      6  C   UNL A   1      35.848  23.165  23.821  1.00  0.00     0.310 C 
ATOM      7  O   UNL A   1      36.572  23.244  22.833  1.00  0.00    -0.252 OA
BRANCH   6   8
ATOM      8  C   UNL A   1      34.345  22.988  23.695  1.00  0.00     0.116 C 
BRANCH   8   9
ATOM      9  C   UNL A   1      33.582  21.839  24.429  1.00  0.00     0.031 C 
ATOM     10  C   UNL A   1      32.094  22.285  24.538  1.00  0.00     0.013 C 
BRANCH   9  11
ATOM     11  C   UNL A   1      33.643  20.330  24.153  1.00  0.00    -0.044 A 
ATOM     12  C   UNL A   1      32.524  19.695  23.552  1.00  0.00     0.004 A 
ATOM     13  C   UNL A   1      34.636  19.484  24.634  1.00  0.00     0.004 A 
ATOM     14  C   UNL A   1      32.414  18.308  23.418  1.00  0.00     0.000 A 
ATOM     15  C   UNL A   1      34.498  18.088  24.544  1.00  0.00     0.000 A 
ATOM     16  C   UNL A   1      33.406  17.497  23.926  1.00  0.00     0.000 A 
ENDBRANCH   9  11
ENDBRANCH   8   9
BRANCH   8  17
ATOM     17  C   UNL A   1      33.577  24.354  23.745  1.00  0.00     0.116 C 
BRANCH  17  18
ATOM     18  C   UNL A   1      33.201  25.118  22.481  1.00  0.00     0.225 C 
ATOM     19  O   UNL A   1      33.289  24.544  21.388  1.00  0.00    -0.275 OA
ATOM     20  N   UNL A   1      32.772  26.409  22.462  1.00  0.00    -0.325 N 
ATOM     21  H   UNL A   1      32.449  26.718  21.584  1.00  0.00     0.169 HD
BRANCH  20  22
ATOM     22  C   UNL A   1      32.710  27.376  23.474  1.00  0.00     0.054 A 
ATOM     23  C   UNL A   1      33.806  28.182  23.803  1.00  0.00     0.027 A 
ATOM     24  C   UNL A   1      31.502  27.542  24.175  1.00  0.00     0.037 A 
ATOM     25  C   UNL A   1      33.654  29.218  24.735  1.00  0.00     0.002 A 
ATOM     26  C   UNL A   1      31.340  28.608  25.063  1.00  0.00     0.017 A 
ATOM     27  I   UNL A   1      29.858  26.271  23.878  1.00  0.00    -0.042 I 
ATOM     28  C   UNL A   1      32.414  29.456  25.330  1.00  0.00     0.001 A 
ENDBRANCH  20  22
ENDBRANCH  17  18
ENDBRANCH   8  17
ENDBRANCH   6   8
ENDBRANCH   5   6
ENDBRANCH   4   5
ENDBRANCH   3   4
ENDBRANCH   2   3
ENDBRANCH   1   2
BRANCH   1  29
ATOM     29  C   UNL A   1      40.980  20.220  27.545  1.00  0.00     0.188 C 
BRANCH  29  30
ATOM     30  O   UNL A   1      42.287  19.741  27.244  1.00  0.00    -0.376 OA
BRANCH  30  31
ATOM     31  C   UNL A   1      42.598  19.615  25.855  1.00  0.00     0.202 C 
BRANCH  31  32
ATOM     32  C   UNL A   1      43.678  20.587  25.370  1.00  0.00     0.261 C 
BRANCH  32  33
ATOM     33  O   UNL A   1      43.785  21.711  26.267  1.00  0.00    -0.460 OA
BRANCH  33  34
ATOM     34  C   UNL A   1      43.240  22.855  25.786  1.00  0.00     0.338 C 
ATOM     35  O   UNL A   1      42.853  23.034  24.644  1.00  0.00    -0.246 OA
BRANCH  34  36
ATOM     36  C   UNL A   1      43.113  23.885  26.853  1.00  0.00     0.060 A 
ATOM     37  C   UNL A   1      42.327  23.700  27.992  1.00  0.00     0.016 A 
ATOM     38  C   UNL A   1      43.711  25.128  26.642  1.00  0.00     0.016 A 
ATOM     39  C   UNL A   1      42.019  24.781  28.829  1.00  0.00     0.010 A 
ATOM     40  C   UNL A   1      43.495  26.175  27.544  1.00  0.00     0.010 A 
ATOM     41  C   UNL A   1      42.606  26.035  28.627  1.00  0.00    -0.014 A 
BRANCH  41  42
ATOM     42  C   UNL A   1      42.299  27.232  29.469  1.00  0.00     0.031 A 
ATOM     43  C   UNL A   1      43.151  27.519  30.680  1.00  0.00     0.074 A 
ATOM     44  C   UNL A   1      41.253  28.047  29.224  1.00  0.00     0.049 A 
ATOM     45  N   UNL A   1      42.853  28.164  31.779  1.00  0.00    -0.248 NA
ATOM     46  C   UNL A   1      44.520  26.981  30.651  1.00  0.00     0.031 C 
ATOM     47  C   UNL A   1      40.388  28.011  28.048  1.00  0.00     0.029 A 
ATOM     48  N   UNL A   1      40.726  29.064  29.991  1.00  0.00    -0.354 N 
ATOM     49  C   UNL A   1      43.958  28.026  32.610  1.00  0.00     0.074 A 
ATOM     50  C   UNL A   1      44.948  27.267  31.874  1.00  0.00     0.031 C 
ATOM     51  C   UNL A   1      39.448  28.961  28.162  1.00  0.00     0.029 A 
ATOM     52  C   UNL A   1      39.565  29.587  29.475  1.00  0.00     0.049 A 
ATOM     53  H   UNL A   1      41.140  29.383  30.825  1.00  0.00     0.167 HD
ATOM     54  C   UNL A   1      44.114  28.471  33.879  1.00  0.00     0.037 A 
ATOM     55  C   UNL A   1      38.645  30.405  30.022  1.00  0.00     0.037 A 
ATOM     56  C   UNL A   1      43.158  29.296  34.572  1.00  0.00     0.049 A 
ATOM     57  C   UNL A   1      38.801  30.853  31.450  1.00  0.00     0.074 A 
ATOM     58  C   UNL A   1      43.215  29.795  35.863  1.00  0.00     0.029 A 
ATOM     59  N   UNL A   1      41.984  29.775  34.012  1.00  0.00    -0.354 N 
ATOM     60  N   UNL A   1      39.764  30.592  32.299  1.00  0.00    -0.248 NA
ATOM     61  C   UNL A   1      37.719  31.678  32.006  1.00  0.00     0.031 C 
ATOM     62  C   UNL A   1      42.064  30.557  36.091  1.00  0.00     0.029 A 
ATOM     63  C   UNL A   1      41.309  30.562  34.930  1.00  0.00     0.049 A 
ATOM     64  H   UNL A   1      41.675  29.584  33.096  1.00  0.00     0.167 HD
ATOM     65  C   UNL A   1      39.408  31.220  33.485  1.00  0.00     0.074 A 
ATOM     66  C   UNL A   1      38.148  31.892  33.242  1.00  0.00     0.031 C 
ATOM     67  C   UNL A   1      40.061  31.229  34.672  1.00  0.00     0.037 A 
BRANCH  54  68
ATOM     68  C   UNL A   1      45.334  28.030  34.631  1.00  0.00     0.064 A 
ATOM     69  C   UNL A   1      46.574  28.666  34.488  1.00  0.00     0.173 A 
ATOM     70  C   UNL A   1      45.240  26.975  35.554  1.00  0.00     0.173 A 
ATOM     71  F   UNL A   1      46.720  29.669  33.609  1.00  0.00    -0.203 F 
ATOM     72  C   UNL A   1      47.680  28.252  35.227  1.00  0.00     0.198 A 
ATOM     73  C   UNL A   1      46.340  26.581  36.310  1.00  0.00     0.198 A 
ATOM     74  F   UNL A   1      44.074  26.336  35.733  1.00  0.00    -0.203 F 
ATOM     75  F   UNL A   1      48.865  28.851  35.049  1.00  0.00    -0.200 F 
ATOM     76  C   UNL A   1      47.560  27.216  36.143  1.00  0.00     0.200 A 
ATOM     77  F   UNL A   1      46.217  25.588  37.202  1.00  0.00    -0.200 F 
ATOM     78  F   UNL A   1      48.623  26.827  36.860  1.00  0.00    -0.200 F 
ENDBRANCH  54  68
BRANCH  55  79
ATOM     79  C   UNL A   1      37.434  30.772  29.243  1.00  0.00     0.064 A 
ATOM     80  C   UNL A   1      36.429  29.830  28.988  1.00  0.00     0.173 A 
ATOM     81  C   UNL A   1      37.255  32.072  28.746  1.00  0.00     0.173 A 
ATOM     82  F   UNL A   1      36.572  28.566  29.412  1.00  0.00    -0.203 F 
ATOM     83  C   UNL A   1      35.289  30.176  28.264  1.00  0.00     0.198 A 
ATOM     84  C   UNL A   1      36.101  32.424  28.051  1.00  0.00     0.198 A 
ATOM     85  F   UNL A   1      38.193  33.007  28.954  1.00  0.00    -0.203 F 
ATOM     86  F   UNL A   1      34.358  29.248  28.001  1.00  0.00    -0.200 F 
ATOM     87  C   UNL A   1      35.121  31.474  27.806  1.00  0.00     0.200 A 
ATOM     88  F   UNL A   1      35.938  33.683  27.620  1.00  0.00    -0.200 F 
ATOM     89  F   UNL A   1      34.018  31.809  27.122  1.00  0.00    -0.200 F 
ENDBRANCH  55  79
BRANCH  67  90
ATOM     90  C   UNL A   1      39.442  32.016  35.787  1.00  0.00     0.064 A 
ATOM     91  C   UNL A   1      39.764  33.364  35.998  1.00  0.00     0.173 A 
ATOM     92  C   UNL A   1      38.496  31.422  36.635  1.00  0.00     0.173 A 
ATOM     93  F   UNL A   1      40.675  33.970  35.222  1.00  0.00    -0.203 F 
ATOM     94  C   UNL A   1      39.172  34.086  37.032  1.00  0.00     0.198 A 
ATOM     95  C   UNL A   1      37.891  32.152  37.655  1.00  0.00     0.198 A 
ATOM     96  F   UNL A   1      38.154  30.136  36.471  1.00  0.00    -0.203 F 
ATOM     97  F   UNL A   1      39.521  35.363  37.240  1.00  0.00    -0.200 F 
ATOM     98  C   UNL A   1      38.234  33.482  37.855  1.00  0.00     0.200 A 
ATOM     99  F   UNL A   1      36.981  31.569  38.446  1.00  0.00    -0.200 F 
ATOM    100  F   UNL A   1      37.665  34.178  38.849  1.00  0.00    -0.200 F 
ENDBRANCH  67  90
ENDBRANCH  41  42
ENDBRANCH  34  36
ENDBRANCH  33  34
ENDBRANCH  32  33
ENDBRANCH  31  32
ENDBRANCH  30  31
ENDBRANCH  29  30
ENDBRANCH   1  29
TORSDOF 22
ENDMDL
MODEL 2
REMARK VINA RESULT:     -10.7      1.158      3.570
REMARK SMILES C[C@@H](c1ccccc1)[C@@H](CC(=O)Nc1ccccc1I)C(=O)OCCOCCOCCOC(=O)c1ccc(-c2c3nc(c(-c4c(F)c(F)c(F)c(F)c4F)c4ccc([nH]4)c(-c4c(F)c(F)c(F)c(F)c4F)c4nc(c(-c5c(F)c(F)c(F)c(F)c5F)c5ccc2[nH]5)C=C4)C=C3)cc1
REMARK SMILES IDX 27 1 26 2 25 3 24 4 23 5 21 6 22 7 9 8 2 9 1 10 3 11 4 12
REMARK SMILES IDX 8 13 5 14 7 15 6 16 10 17 11 18 12 19 13 20 14 22 15 23
REMARK SMILES IDX 19 24 16 25 18 26 20 27 17 28 28 29 29 30 30 31 31 32 32 33
REMARK SMILES IDX 33 34 34 35 35 36 36 37 97 38 37 39 96 40 38 41 39 42 40 43
REMARK SMILES IDX 90 44 41 45 95 46 89 47 91 48 42 49 94 50 88 51 87 52 43 54
REMARK SMILES IDX 75 55 55 56 74 57 56 58 59 59 73 60 92 61 57 62 58 63 72 65
REMARK SMILES IDX 93 66 60 67 44 68 45 69 53 70 46 71 47 72 51 73 54 74 48 75
REMARK SMILES IDX 49 76 52 77 50 78 76 79 77 80 85 81 78 82 79 83 83 84 86 85
REMARK SMILES IDX 80 86 81 87 84 88 82 89 61 90 62 91 70 92 63 93 64 94 68 95
REMARK SMILES IDX 71 96 65 97 66 98 69 99 67 100
REMARK H PARENT 13 21 91 53 59 64
REMARK Flexibility Score: inf
ROOT
ATOM      1  C   UNL A   1      38.945  21.043  25.741  1.00  0.00     0.188 C 
ENDROOT
BRANCH   1   2
ATOM      2  O   UNL A   1      37.843  21.513  24.975  1.00  0.00    -0.376 OA
BRANCH   2   3
ATOM      3  C   UNL A   1      36.940  22.390  25.647  1.00  0.00     0.202 C 
BRANCH   3   4
ATOM      4  C   UNL A   1      36.755  23.738  24.951  1.00  0.00     0.261 C 
BRANCH   4   5
ATOM      5  O   UNL A   1      35.409  24.266  25.083  1.00  0.00    -0.463 OA
BRANCH   5   6
ATOM      6  C   UNL A   1      34.716  24.383  23.925  1.00  0.00     0.310 C 
ATOM      7  O   UNL A   1      34.973  23.746  22.908  1.00  0.00    -0.252 OA
BRANCH   6   8
ATOM      8  C   UNL A   1      33.625  25.440  23.949  1.00  0.00     0.116 C 
BRANCH   8   9
ATOM      9  C   UNL A   1      33.925  26.933  24.305  1.00  0.00     0.031 C 
ATOM     10  C   UNL A   1      34.014  27.707  22.957  1.00  0.00     0.013 C 
BRANCH   9  11
ATOM     11  C   UNL A   1      33.238  27.815  25.355  1.00  0.00    -0.044 A 
ATOM     12  C   UNL A   1      32.682  27.205  26.511  1.00  0.00     0.004 A 
ATOM     13  C   UNL A   1      32.931  29.159  25.172  1.00  0.00     0.004 A 
ATOM     14  C   UNL A   1      31.890  27.894  27.433  1.00  0.00     0.000 A 
ATOM     15  C   UNL A   1      32.092  29.836  26.074  1.00  0.00     0.000 A 
ATOM     16  C   UNL A   1      31.586  29.220  27.209  1.00  0.00     0.000 A 
ENDBRANCH   9  11
ENDBRANCH   8   9
BRANCH   8  17
ATOM     17  C   UNL A   1      32.625  25.292  22.751  1.00  0.00     0.116 C 
BRANCH  17  18
ATOM     18  C   UNL A   1      31.161  24.927  22.960  1.00  0.00     0.225 C 
ATOM     19  O   UNL A   1      30.303  25.815  22.858  1.00  0.00    -0.275 OA
ATOM     20  N   UNL A   1      30.714  23.677  23.259  1.00  0.00    -0.325 N 
ATOM     21  H   UNL A   1      29.734  23.578  23.237  1.00  0.00     0.169 HD
BRANCH  20  22
ATOM     22  C   UNL A   1      31.407  22.506  23.593  1.00  0.00     0.054 A 
ATOM     23  C   UNL A   1      31.817  21.580  22.627  1.00  0.00     0.027 A 
ATOM     24  C   UNL A   1      31.703  22.261  24.947  1.00  0.00     0.037 A 
ATOM     25  C   UNL A   1      32.616  20.491  23.000  1.00  0.00     0.002 A 
ATOM     26  C   UNL A   1      32.543  21.205  25.307  1.00  0.00     0.017 A 
ATOM     27  I   UNL A   1      30.985  23.496  26.485  1.00  0.00    -0.042 I 
ATOM     28  C   UNL A   1      33.012  20.329  24.329  1.00  0.00     0.001 A 
ENDBRANCH  20  22
ENDBRANCH  17  18
ENDBRANCH   8  17
ENDBRANCH   6   8
ENDBRANCH   5   6
ENDBRANCH   4   5
ENDBRANCH   3   4
ENDBRANCH   2   3
ENDBRANCH   1   2
BRANCH   1  29
ATOM     29  C   UNL A   1      39.754  22.137  26.451  1.00  0.00     0.188 C 
BRANCH  29  30
ATOM     30  O   UNL A   1      41.103  22.278  26.016  1.00  0.00    -0.376 OA
BRANCH  30  31
ATOM     31  C   UNL A   1      41.980  21.201  26.352  1.00  0.00     0.202 C 
BRANCH  31  32
ATOM     32  C   UNL A   1      43.354  21.287  25.680  1.00  0.00     0.261 C 
BRANCH  32  33
ATOM     33  O   UNL A   1      44.179  22.267  26.342  1.00  0.00    -0.460 OA
BRANCH  33  34
ATOM     34  C   UNL A   1      44.033  23.526  25.864  1.00  0.00     0.338 C 
ATOM     35  O   UNL A   1      44.044  23.846  24.688  1.00  0.00    -0.246 OA
BRANCH  34  36
ATOM     36  C   UNL A   1      43.797  24.500  26.964  1.00  0.00     0.060 A 
ATOM     37  C   UNL A   1      42.916  24.250  28.018  1.00  0.00     0.016 A 
ATOM     38  C   UNL A   1      44.393  25.758  26.869  1.00  0.00     0.016 A 
ATOM     39  C   UNL A   1      42.520  25.284  28.877  1.00  0.00     0.010 A 
ATOM     40  C   UNL A   1      44.083  26.756  27.798  1.00  0.00     0.010 A 
ATOM     41  C   UNL A   1      43.104  26.553  28.790  1.00  0.00    -0.014 A 
BRANCH  41  42
ATOM     42  C   UNL A   1      42.706  27.702  29.660  1.00  0.00     0.031 A 
ATOM     43  C   UNL A   1      43.501  27.991  30.908  1.00  0.00     0.074 A 
ATOM     44  C   UNL A   1      41.627  28.471  29.405  1.00  0.00     0.049 A 
ATOM     45  N   UNL A   1      43.133  28.582  32.016  1.00  0.00    -0.248 NA
ATOM     46  C   UNL A   1      44.897  27.526  30.910  1.00  0.00     0.031 C 
ATOM     47  C   UNL A   1      40.805  28.430  28.198  1.00  0.00     0.029 A 
ATOM     48  N   UNL A   1      41.022  29.432  30.185  1.00  0.00    -0.354 N 
ATOM     49  C   UNL A   1      44.215  28.473  32.880  1.00  0.00     0.074 A 
ATOM     50  C   UNL A   1      45.268  27.792  32.155  1.00  0.00     0.031 C 
ATOM     51  C   UNL A   1      39.813  29.326  28.310  1.00  0.00     0.029 A 
ATOM     52  C   UNL A   1      39.853  29.912  29.646  1.00  0.00     0.049 A 
ATOM     53  H   UNL A   1      41.390  29.743  31.042  1.00  0.00     0.167 HD
ATOM     54  C   UNL A   1      44.304  28.881  34.168  1.00  0.00     0.037 A 
ATOM     55  C   UNL A   1      38.873  30.662  30.186  1.00  0.00     0.037 A 
ATOM     56  C   UNL A   1      43.284  29.632  34.853  1.00  0.00     0.049 A 
ATOM     57  C   UNL A   1      38.958  31.069  31.632  1.00  0.00     0.074 A 
ATOM     58  C   UNL A   1      43.272  30.088  36.161  1.00  0.00     0.029 A 
ATOM     59  N   UNL A   1      42.106  30.069  34.268  1.00  0.00    -0.354 N 
ATOM     60  N   UNL A   1      39.904  30.828  32.506  1.00  0.00    -0.248 NA
ATOM     61  C   UNL A   1      37.816  31.816  32.177  1.00  0.00     0.031 C 
ATOM     62  C   UNL A   1      42.074  30.782  36.373  1.00  0.00     0.029 A 
ATOM     63  C   UNL A   1      41.359  30.788  35.188  1.00  0.00     0.049 A 
ATOM     64  H   UNL A   1      41.838  29.894  33.337  1.00  0.00     0.167 HD
ATOM     65  C   UNL A   1      39.476  31.396  33.699  1.00  0.00     0.074 A 
ATOM     66  C   UNL A   1      38.192  32.010  33.433  1.00  0.00     0.031 C 
ATOM     67  C   UNL A   1      40.087  31.398  34.907  1.00  0.00     0.037 A 
BRANCH  54  68
ATOM     68  C   UNL A   1      45.521  28.478  34.948  1.00  0.00     0.064 A 
ATOM     69  C   UNL A   1      46.654  29.296  35.045  1.00  0.00     0.173 A 
ATOM     70  C   UNL A   1      45.524  27.264  35.655  1.00  0.00     0.173 A 
ATOM     71  F   UNL A   1      46.707  30.457  34.377  1.00  0.00    -0.203 F 
ATOM     72  C   UNL A   1      47.754  28.905  35.806  1.00  0.00     0.198 A 
ATOM     73  C   UNL A   1      46.614  26.889  36.435  1.00  0.00     0.198 A 
ATOM     74  F   UNL A   1      44.461  26.448  35.600  1.00  0.00    -0.203 F 
ATOM     75  F   UNL A   1      48.842  29.685  35.856  1.00  0.00    -0.200 F 
ATOM     76  C   UNL A   1      47.730  27.707  36.506  1.00  0.00     0.200 A 
ATOM     77  F   UNL A   1      46.582  25.737  37.119  1.00  0.00    -0.200 F 
ATOM     78  F   UNL A   1      48.786  27.339  37.245  1.00  0.00    -0.200 F 
ENDBRANCH  54  68
BRANCH  55  79
ATOM     79  C   UNL A   1      37.671  30.993  29.378  1.00  0.00     0.064 A 
ATOM     80  C   UNL A   1      36.689  30.028  29.119  1.00  0.00     0.173 A 
ATOM     81  C   UNL A   1      37.478  32.281  28.854  1.00  0.00     0.173 A 
ATOM     82  F   UNL A   1      36.848  28.774  29.568  1.00  0.00    -0.203 F 
ATOM     83  C   UNL A   1      35.558  30.339  28.368  1.00  0.00     0.198 A 
ATOM     84  C   UNL A   1      36.332  32.598  28.131  1.00  0.00     0.198 A 
ATOM     85  F   UNL A   1      38.395  33.236  29.064  1.00  0.00    -0.203 F 
ATOM     86  F   UNL A   1      34.650  29.389  28.102  1.00  0.00    -0.200 F 
ATOM     87  C   UNL A   1      35.374  31.626  27.883  1.00  0.00     0.200 A 
ATOM     88  F   UNL A   1      36.154  33.846  27.675  1.00  0.00    -0.200 F 
ATOM     89  F   UNL A   1      34.279  31.929  27.173  1.00  0.00    -0.200 F 
ENDBRANCH  55  79
BRANCH  67  90
ATOM     90  C   UNL A   1      39.392  32.114  36.025  1.00  0.00     0.064 A 
ATOM     91  C   UNL A   1      38.417  31.479  36.806  1.00  0.00     0.173 A 
ATOM     92  C   UNL A   1      39.725  33.440  36.335  1.00  0.00     0.173 A 
ATOM     93  F   UNL A   1      38.053  30.216  36.537  1.00  0.00    -0.203 F 
ATOM     94  C   UNL A   1      37.786  32.153  37.849  1.00  0.00     0.198 A 
ATOM     95  C   UNL A   1      39.109  34.105  37.391  1.00  0.00     0.198 A 
ATOM     96  F   UNL A   1      40.655  34.089  35.617  1.00  0.00    -0.203 F 
ATOM     97  F   UNL A   1      36.831  31.541  38.561  1.00  0.00    -0.200 F 
ATOM     98  C   UNL A   1      38.136  33.463  38.143  1.00  0.00     0.200 A 
ATOM     99  F   UNL A   1      39.452  35.368  37.678  1.00  0.00    -0.200 F 
ATOM    100  F   UNL A   1      37.530  34.110  39.148  1.00  0.00    -0.200 F 
ENDBRANCH  67  90
ENDBRANCH  41  42
ENDBRANCH  34  36
ENDBRANCH  33  34
ENDBRANCH  32  33
ENDBRANCH  31  32
ENDBRANCH  30  31
ENDBRANCH  29  30
ENDBRANCH   1  29
TORSDOF 22
ENDMDL
MODEL 3
REMARK VINA RESULT:     -10.7      3.644      9.338
REMARK SMILES C[C@@H](c1ccccc1)[C@@H](CC(=O)Nc1ccccc1I)C(=O)OCCOCCOCCOC(=O)c1ccc(-c2c3nc(c(-c4c(F)c(F)c(F)c(F)c4F)c4ccc([nH]4)c(-c4c(F)c(F)c(F)c(F)c4F)c4nc(c(-c5c(F)c(F)c(F)c(F)c5F)c5ccc2[nH]5)C=C4)C=C3)cc1
REMARK SMILES IDX 27 1 26 2 25 3 24 4 23 5 21 6 22 7 9 8 2 9 1 10 3 11 4 12
REMARK SMILES IDX 8 13 5 14 7 15 6 16 10 17 11 18 12 19 13 20 14 22 15 23
REMARK SMILES IDX 19 24 16 25 18 26 20 27 17 28 28 29 29 30 30 31 31 32 32 33
REMARK SMILES IDX 33 34 34 35 35 36 36 37 97 38 37 39 96 40 38 41 39 42 40 43
REMARK SMILES IDX 90 44 41 45 95 46 89 47 91 48 42 49 94 50 88 51 87 52 43 54
REMARK SMILES IDX 75 55 55 56 74 57 56 58 59 59 73 60 92 61 57 62 58 63 72 65
REMARK SMILES IDX 93 66 60 67 44 68 45 69 53 70 46 71 47 72 51 73 54 74 48 75
REMARK SMILES IDX 49 76 52 77 50 78 76 79 77 80 85 81 78 82 79 83 83 84 86 85
REMARK SMILES IDX 80 86 81 87 84 88 82 89 61 90 62 91 70 92 63 93 64 94 68 95
REMARK SMILES IDX 71 96 65 97 66 98 69 99 67 100
REMARK H PARENT 13 21 91 53 59 64
REMARK Flexibility Score: inf
ROOT
ATOM      1  C   UNL A   1      33.556  29.179  26.614  1.00  0.00     0.188 C 
ENDROOT
BRANCH   1   2
ATOM      2  O   UNL A   1      32.635  28.178  27.028  1.00  0.00    -0.376 OA
BRANCH   2   3
ATOM      3  C   UNL A   1      32.919  26.847  26.599  1.00  0.00     0.202 C 
BRANCH   3   4
ATOM      4  C   UNL A   1      31.674  25.987  26.385  1.00  0.00     0.261 C 
BRANCH   4   5
ATOM      5  O   UNL A   1      31.698  25.251  25.135  1.00  0.00    -0.463 OA
BRANCH   5   6
ATOM      6  C   UNL A   1      30.909  25.750  24.153  1.00  0.00     0.310 C 
ATOM      7  O   UNL A   1      29.794  25.311  23.884  1.00  0.00    -0.252 OA
BRANCH   6   8
ATOM      8  C   UNL A   1      31.546  26.861  23.336  1.00  0.00     0.116 C 
BRANCH   8   9
ATOM      9  C   UNL A   1      31.307  28.371  23.664  1.00  0.00     0.031 C 
ATOM     10  C   UNL A   1      32.436  29.170  22.948  1.00  0.00     0.013 C 
BRANCH   9  11
ATOM     11  C   UNL A   1      29.995  29.163  23.589  1.00  0.00    -0.044 A 
ATOM     12  C   UNL A   1      28.869  28.572  22.958  1.00  0.00     0.004 A 
ATOM     13  C   UNL A   1      29.872  30.510  23.912  1.00  0.00     0.004 A 
ATOM     14  C   UNL A   1      27.690  29.271  22.687  1.00  0.00     0.000 A 
ATOM     15  C   UNL A   1      28.704  31.223  23.592  1.00  0.00     0.000 A 
ATOM     16  C   UNL A   1      27.609  30.611  23.000  1.00  0.00     0.000 A 
ENDBRANCH   9  11
ENDBRANCH   8   9
BRANCH   8  17
ATOM     17  C   UNL A   1      33.037  26.549  22.966  1.00  0.00     0.116 C 
BRANCH  17  18
ATOM     18  C   UNL A   1      33.418  25.392  22.052  1.00  0.00     0.225 C 
ATOM     19  O   UNL A   1      33.201  25.493  20.837  1.00  0.00    -0.275 OA
ATOM     20  N   UNL A   1      33.988  24.231  22.476  1.00  0.00    -0.325 N 
ATOM     21  H   UNL A   1      34.289  23.636  21.752  1.00  0.00     0.169 HD
BRANCH  20  22
ATOM     22  C   UNL A   1      34.219  23.735  23.767  1.00  0.00     0.054 A 
ATOM     23  C   UNL A   1      35.143  24.323  24.637  1.00  0.00     0.027 A 
ATOM     24  C   UNL A   1      33.488  22.612  24.197  1.00  0.00     0.037 A 
ATOM     25  C   UNL A   1      35.244  23.867  25.959  1.00  0.00     0.002 A 
ATOM     26  C   UNL A   1      33.554  22.196  25.528  1.00  0.00     0.017 A 
ATOM     27  I   UNL A   1      32.208  21.556  22.912  1.00  0.00    -0.042 I 
ATOM     28  C   UNL A   1      34.420  22.835  26.413  1.00  0.00     0.001 A 
ENDBRANCH  20  22
ENDBRANCH  17  18
ENDBRANCH   8  17
ENDBRANCH   6   8
ENDBRANCH   5   6
ENDBRANCH   4   5
ENDBRANCH   3   4
ENDBRANCH   2   3
ENDBRANCH   1   2
BRANCH   1  29
ATOM     29  C   UNL A   1      33.218  30.602  27.079  1.00  0.00     0.188 C 
BRANCH  29  30
ATOM     30  O   UNL A   1      32.025  31.155  26.531  1.00  0.00    -0.376 OA
BRANCH  30  31
ATOM     31  C   UNL A   1      31.710  32.487  26.943  1.00  0.00     0.202 C 
BRANCH  31  32
ATOM     32  C   UNL A   1      32.826  33.169  27.739  1.00  0.00     0.261 C 
BRANCH  32  33
ATOM     33  O   UNL A   1      32.515  34.562  27.951  1.00  0.00    -0.460 OA
BRANCH  33  34
ATOM     34  C   UNL A   1      32.974  35.058  29.126  1.00  0.00     0.338 C 
ATOM     35  O   UNL A   1      32.464  35.963  29.764  1.00  0.00    -0.246 OA
BRANCH  34  36
ATOM     36  C   UNL A   1      34.176  34.317  29.595  1.00  0.00     0.060 A 
ATOM     37  C   UNL A   1      34.169  33.509  30.735  1.00  0.00     0.016 A 
ATOM     38  C   UNL A   1      35.385  34.537  28.933  1.00  0.00     0.016 A 
ATOM     39  C   UNL A   1      35.370  33.051  31.291  1.00  0.00     0.010 A 
ATOM     40  C   UNL A   1      36.569  33.981  29.428  1.00  0.00     0.010 A 
ATOM     41  C   UNL A   1      36.591  33.269  30.642  1.00  0.00    -0.014 A 
BRANCH  41  42
ATOM     42  C   UNL A   1      37.908  32.828  31.198  1.00  0.00     0.031 A 
ATOM     43  C   UNL A   1      38.627  31.669  30.556  1.00  0.00     0.074 A 
ATOM     44  C   UNL A   1      38.464  33.391  32.290  1.00  0.00     0.049 A 
ATOM     45  N   UNL A   1      39.487  30.828  31.072  1.00  0.00    -0.248 NA
ATOM     46  C   UNL A   1      38.311  31.413  29.141  1.00  0.00     0.031 C 
ATOM     47  C   UNL A   1      37.991  34.589  32.979  1.00  0.00     0.029 A 
ATOM     48  N   UNL A   1      39.556  32.994  33.030  1.00  0.00    -0.354 N 
ATOM     49  C   UNL A   1      39.739  29.888  30.080  1.00  0.00     0.074 A 
ATOM     50  C   UNL A   1      38.970  30.284  28.918  1.00  0.00     0.031 C 
ATOM     51  C   UNL A   1      38.786  34.837  34.030  1.00  0.00     0.029 A 
ATOM     52  C   UNL A   1      39.746  33.746  34.165  1.00  0.00     0.049 A 
ATOM     53  H   UNL A   1      40.142  32.247  32.772  1.00  0.00     0.167 HD
ATOM     54  C   UNL A   1      40.520  28.785  30.150  1.00  0.00     0.037 A 
ATOM     55  C   UNL A   1      40.532  33.541  35.239  1.00  0.00     0.037 A 
ATOM     56  C   UNL A   1      41.346  28.446  31.280  1.00  0.00     0.049 A 
ATOM     57  C   UNL A   1      41.359  32.287  35.329  1.00  0.00     0.074 A 
ATOM     58  C   UNL A   1      42.170  27.346  31.455  1.00  0.00     0.029 A 
ATOM     59  N   UNL A   1      41.481  29.229  32.416  1.00  0.00    -0.354 N 
ATOM     60  N   UNL A   1      41.476  31.309  34.466  1.00  0.00    -0.248 NA
ATOM     61  C   UNL A   1      42.129  32.091  36.566  1.00  0.00     0.031 C 
ATOM     62  C   UNL A   1      42.784  27.454  32.708  1.00  0.00     0.029 A 
ATOM     63  C   UNL A   1      42.371  28.637  33.296  1.00  0.00     0.049 A 
ATOM     64  H   UNL A   1      41.011  30.081  32.574  1.00  0.00     0.167 HD
ATOM     65  C   UNL A   1      42.334  30.386  35.049  1.00  0.00     0.074 A 
ATOM     66  C   UNL A   1      42.722  30.928  36.334  1.00  0.00     0.031 C 
ATOM     67  C   UNL A   1      42.753  29.191  34.567  1.00  0.00     0.037 A 
BRANCH  54  68
ATOM     68  C   UNL A   1      40.480  27.824  28.998  1.00  0.00     0.064 A 
ATOM     69  C   UNL A   1      41.289  27.979  27.865  1.00  0.00     0.173 A 
ATOM     70  C   UNL A   1      39.644  26.697  29.061  1.00  0.00     0.173 A 
ATOM     71  F   UNL A   1      42.093  29.046  27.750  1.00  0.00    -0.203 F 
ATOM     72  C   UNL A   1      41.251  27.049  26.828  1.00  0.00     0.198 A 
ATOM     73  C   UNL A   1      39.628  25.757  28.035  1.00  0.00     0.198 A 
ATOM     74  F   UNL A   1      38.855  26.500  30.127  1.00  0.00    -0.203 F 
ATOM     75  F   UNL A   1      42.006  27.234  25.737  1.00  0.00    -0.200 F 
ATOM     76  C   UNL A   1      40.427  25.935  26.917  1.00  0.00     0.200 A 
ATOM     77  F   UNL A   1      38.840  24.677  28.130  1.00  0.00    -0.200 F 
ATOM     78  F   UNL A   1      40.400  25.037  25.922  1.00  0.00    -0.200 F 
ENDBRANCH  54  68
BRANCH  55  79
ATOM     79  C   UNL A   1      40.497  34.505  36.369  1.00  0.00     0.064 A 
ATOM     80  C   UNL A   1      39.563  34.367  37.404  1.00  0.00     0.173 A 
ATOM     81  C   UNL A   1      41.399  35.578  36.439  1.00  0.00     0.173 A 
ATOM     82  F   UNL A   1      38.657  33.379  37.362  1.00  0.00    -0.203 F 
ATOM     83  C   UNL A   1      39.533  35.267  38.469  1.00  0.00     0.198 A 
ATOM     84  C   UNL A   1      41.389  36.457  37.519  1.00  0.00     0.198 A 
ATOM     85  F   UNL A   1      42.304  35.760  35.467  1.00  0.00    -0.203 F 
ATOM     86  F   UNL A   1      38.607  35.136  39.428  1.00  0.00    -0.200 F 
ATOM     87  C   UNL A   1      40.453  36.304  38.531  1.00  0.00     0.200 A 
ATOM     88  F   UNL A   1      42.287  37.450  37.580  1.00  0.00    -0.200 F 
ATOM     89  F   UNL A   1      40.434  37.160  39.562  1.00  0.00    -0.200 F 
ENDBRANCH  55  79
BRANCH  67  90
ATOM     90  C   UNL A   1      43.704  28.406  35.417  1.00  0.00     0.064 A 
ATOM     91  C   UNL A   1      45.093  28.533  35.273  1.00  0.00     0.173 A 
ATOM     92  C   UNL A   1      43.221  27.538  36.407  1.00  0.00     0.173 A 
ATOM     93  F   UNL A   1      45.601  29.339  34.328  1.00  0.00    -0.203 F 
ATOM     94  C   UNL A   1      45.965  27.805  36.078  1.00  0.00     0.198 A 
ATOM     95  C   UNL A   1      44.095  26.827  37.225  1.00  0.00     0.198 A 
ATOM     96  F   UNL A   1      41.900  27.385  36.586  1.00  0.00    -0.203 F 
ATOM     97  F   UNL A   1      47.288  27.913  35.899  1.00  0.00    -0.200 F 
ATOM     98  C   UNL A   1      45.466  26.957  37.056  1.00  0.00     0.200 A 
ATOM     99  F   UNL A   1      43.612  26.013  38.173  1.00  0.00    -0.200 F 
ATOM    100  F   UNL A   1      46.306  26.258  37.831  1.00  0.00    -0.200 F 
ENDBRANCH  67  90
ENDBRANCH  41  42
ENDBRANCH  34  36
ENDBRANCH  33  34
ENDBRANCH  32  33
ENDBRANCH  31  32
ENDBRANCH  30  31
ENDBRANCH  29  30
ENDBRANCH   1  29
TORSDOF 22
ENDMDL
