MODEL 1
REMARK VINA RESULT:     -11.9      0.000      0.000
REMARK SMILES CN1C(=O)/C(=C(\SC2=[NH+][C@@H]3N=c4ccccc4=C3N=N2)C(=O)OCCOCCOCCOC(=O)c2ccc(-c3c4nc(c(-c5c(F)c(F)c(F)c(F)c5F)c5ccc([nH]5)c(-c5c(F)c(F)c(F)c(F)c5F)c5nc(c(-c6c(F)c(F)c(F)c(F)c6F)c6ccc3[nH]6)C=C5)C=C4)cc2)c2ccccc21
REMARK SMILES IDX 27 1 26 2 25 3 24 4 23 5 21 6 22 7 6 8 1 9 2 10 3 11 103 12
REMARK SMILES IDX 4 13 5 14 98 15 102 16 99 17 101 18 100 19 7 20 8 21 9 22
REMARK SMILES IDX 20 23 10 24 19 26 11 27 18 28 12 29 17 30 13 31 16 32 14 33
REMARK SMILES IDX 15 34 28 35 29 36 30 37 31 38 32 39 33 40 34 41 35 42 36 43
REMARK SMILES IDX 97 44 37 45 96 46 38 47 39 48 40 49 90 50 41 51 95 52 89 53
REMARK SMILES IDX 91 54 42 55 94 56 88 57 87 58 43 60 75 61 55 62 74 63 56 64
REMARK SMILES IDX 59 65 73 66 92 67 57 68 58 69 72 71 93 72 60 73 44 74 45 75
REMARK SMILES IDX 53 76 46 77 47 78 51 79 54 80 48 81 49 82 52 83 50 84 76 85
REMARK SMILES IDX 77 86 85 87 78 88 79 89 83 90 86 91 80 92 81 93 84 94 82 95
REMARK SMILES IDX 61 96 62 97 70 98 63 99 64 100 68 101 71 102 65 103 66 104
REMARK SMILES IDX 69 105 67 106
REMARK H PARENT 9 25 91 59 59 70
REMARK Flexibility Score: inf
ROOT
ATOM      1  C   UNL A   1      35.464  30.820  27.617  1.00  0.00     0.188 C 
ENDROOT
BRANCH   1   2
ATOM      2  O   UNL A   1      34.818  29.627  28.042  1.00  0.00    -0.376 OA
BRANCH   2   3
ATOM      3  C   UNL A   1      33.745  29.173  27.226  1.00  0.00     0.202 C 
BRANCH   3   4
ATOM      4  C   UNL A   1      34.211  28.359  26.020  1.00  0.00     0.261 C 
BRANCH   4   5
ATOM      5  O   UNL A   1      33.821  26.975  26.095  1.00  0.00    -0.459 OA
BRANCH   5   6
ATOM      6  C   UNL A   1      33.507  26.379  24.919  1.00  0.00     0.346 C 
ATOM      7  O   UNL A   1      33.880  26.768  23.821  1.00  0.00    -0.246 OA
BRANCH   6   8
ATOM      8  C   UNL A   1      32.612  25.198  25.121  1.00  0.00     0.118 C 
ATOM      9  C   UNL A   1      32.466  20.406  24.823  1.00  0.00     0.153 C 
ATOM     10  N   UNL A   1      32.941  21.743  24.585  1.00  0.00    -0.311 N 
ATOM     11  C   UNL A   1      32.135  22.848  24.358  1.00  0.00     0.260 C 
ATOM     12  C   UNL A   1      34.289  22.114  24.544  1.00  0.00     0.052 A 
ATOM     13  O   UNL A   1      30.961  22.893  24.019  1.00  0.00    -0.269 OA
ATOM     14  C   UNL A   1      33.024  24.030  24.583  1.00  0.00     0.071 C 
ATOM     15  C   UNL A   1      34.401  23.511  24.406  1.00  0.00     0.012 A 
ATOM     16  C   UNL A   1      35.379  21.265  24.521  1.00  0.00     0.027 A 
ATOM     17  C   UNL A   1      35.643  24.063  24.149  1.00  0.00     0.011 A 
ATOM     18  C   UNL A   1      36.618  21.826  24.248  1.00  0.00     0.002 A 
ATOM     19  C   UNL A   1      36.747  23.210  24.049  1.00  0.00     0.001 A 
BRANCH   8  20
ATOM     20  S   UNL A   1      31.080  25.645  25.845  1.00  0.00     0.013 SA
BRANCH  20  21
ATOM     21  C   UNL A   1      30.379  27.073  25.062  1.00  0.00     0.386 C 
ATOM     22  N   UNL A   1      30.937  28.209  25.339  1.00  0.00    -0.235 N 
ATOM     23  N   UNL A   1      29.345  26.912  24.171  1.00  0.00     0.088 NA
ATOM     24  C   UNL A   1      30.809  29.204  24.285  1.00  0.00     0.348 C 
ATOM     25  H   UNL A   1      31.405  28.383  26.187  1.00  0.00     0.308 HD
ATOM     26  N   UNL A   1      29.376  27.572  23.105  1.00  0.00    -0.033 NA
ATOM     27  N   UNL A   1      30.306  30.550  24.642  1.00  0.00    -0.232 NA
ATOM     28  C   UNL A   1      29.962  28.788  23.148  1.00  0.00     0.165 C 
ATOM     29  C   UNL A   1      29.670  30.876  23.545  1.00  0.00     0.072 A 
ATOM     30  C   UNL A   1      29.514  29.849  22.493  1.00  0.00     0.032 A 
ATOM     31  C   UNL A   1      28.952  32.147  23.274  1.00  0.00     0.029 A 
ATOM     32  C   UNL A   1      28.699  30.027  21.336  1.00  0.00     0.012 A 
ATOM     33  C   UNL A   1      28.239  32.276  22.138  1.00  0.00     0.002 A 
ATOM     34  C   UNL A   1      28.120  31.221  21.145  1.00  0.00     0.001 A 
ENDBRANCH  20  21
ENDBRANCH   8  20
ENDBRANCH   6   8
ENDBRANCH   5   6
ENDBRANCH   4   5
ENDBRANCH   3   4
ENDBRANCH   2   3
ENDBRANCH   1   2
BRANCH   1  35
ATOM     35  C   UNL A   1      34.722  32.122  27.978  1.00  0.00     0.188 C 
BRANCH  35  36
ATOM     36  O   UNL A   1      34.112  32.238  29.257  1.00  0.00    -0.376 OA
BRANCH  36  37
ATOM     37  C   UNL A   1      34.784  32.955  30.286  1.00  0.00     0.202 C 
BRANCH  37  38
ATOM     38  C   UNL A   1      35.088  32.187  31.573  1.00  0.00     0.261 C 
BRANCH  38  39
ATOM     39  O   UNL A   1      35.564  33.042  32.629  1.00  0.00    -0.460 OA
BRANCH  39  40
ATOM     40  C   UNL A   1      36.619  32.576  33.336  1.00  0.00     0.338 C 
ATOM     41  O   UNL A   1      36.725  32.495  34.550  1.00  0.00    -0.246 OA
BRANCH  40  42
ATOM     42  C   UNL A   1      37.618  32.006  32.412  1.00  0.00     0.060 A 
ATOM     43  C   UNL A   1      38.015  32.691  31.261  1.00  0.00     0.016 A 
ATOM     44  C   UNL A   1      38.207  30.779  32.744  1.00  0.00     0.016 A 
ATOM     45  C   UNL A   1      39.040  32.167  30.466  1.00  0.00     0.010 A 
ATOM     46  C   UNL A   1      39.211  30.245  31.934  1.00  0.00     0.010 A 
ATOM     47  C   UNL A   1      39.654  30.950  30.804  1.00  0.00    -0.014 A 
BRANCH  47  48
ATOM     48  C   UNL A   1      40.854  30.482  30.068  1.00  0.00     0.031 A 
ATOM     49  C   UNL A   1      42.074  31.337  29.927  1.00  0.00     0.074 A 
ATOM     50  C   UNL A   1      40.833  29.256  29.517  1.00  0.00     0.049 A 
ATOM     51  N   UNL A   1      43.103  31.184  29.133  1.00  0.00    -0.248 NA
ATOM     52  C   UNL A   1      42.132  32.542  30.760  1.00  0.00     0.031 C 
ATOM     53  C   UNL A   1      39.732  28.299  29.636  1.00  0.00     0.029 A 
ATOM     54  N   UNL A   1      41.778  28.593  28.779  1.00  0.00    -0.354 N 
ATOM     55  C   UNL A   1      43.864  32.338  29.270  1.00  0.00     0.074 A 
ATOM     56  C   UNL A   1      43.225  33.137  30.294  1.00  0.00     0.031 C 
ATOM     57  C   UNL A   1      40.093  27.147  29.048  1.00  0.00     0.029 A 
ATOM     58  C   UNL A   1      41.430  27.300  28.478  1.00  0.00     0.049 A 
ATOM     59  H   UNL A   1      42.626  29.004  28.492  1.00  0.00     0.167 HD
ATOM     60  C   UNL A   1      44.956  32.701  28.553  1.00  0.00     0.037 A 
ATOM     61  C   UNL A   1      42.126  26.345  27.835  1.00  0.00     0.037 A 
ATOM     62  C   UNL A   1      45.674  31.803  27.680  1.00  0.00     0.049 A 
ATOM     63  C   UNL A   1      43.488  26.669  27.289  1.00  0.00     0.074 A 
ATOM     64  C   UNL A   1      46.824  32.039  26.944  1.00  0.00     0.029 A 
ATOM     65  N   UNL A   1      45.347  30.469  27.488  1.00  0.00    -0.354 N 
ATOM     66  N   UNL A   1      44.126  27.814  27.293  1.00  0.00    -0.248 NA
ATOM     67  C   UNL A   1      44.227  25.573  26.646  1.00  0.00     0.031 C 
ATOM     68  C   UNL A   1      47.198  30.845  26.318  1.00  0.00     0.029 A 
ATOM     69  C   UNL A   1      46.300  29.860  26.690  1.00  0.00     0.049 A 
ATOM     70  H   UNL A   1      44.556  30.021  27.865  1.00  0.00     0.167 HD
ATOM     71  C   UNL A   1      45.336  27.579  26.658  1.00  0.00     0.074 A 
ATOM     72  C   UNL A   1      45.362  26.173  26.312  1.00  0.00     0.031 C 
ATOM     73  C   UNL A   1      46.326  28.457  26.370  1.00  0.00     0.037 A 
BRANCH  60  74
ATOM     74  C   UNL A   1      45.430  34.126  28.625  1.00  0.00     0.064 A 
ATOM     75  C   UNL A   1      46.492  34.537  29.439  1.00  0.00     0.173 A 
ATOM     76  C   UNL A   1      44.850  35.088  27.777  1.00  0.00     0.173 A 
ATOM     77  F   UNL A   1      47.079  33.667  30.273  1.00  0.00    -0.203 F 
ATOM     78  C   UNL A   1      46.945  35.857  29.416  1.00  0.00     0.198 A 
ATOM     79  C   UNL A   1      45.330  36.394  27.726  1.00  0.00     0.198 A 
ATOM     80  F   UNL A   1      43.832  34.751  26.969  1.00  0.00    -0.203 F 
ATOM     81  F   UNL A   1      47.937  36.234  30.232  1.00  0.00    -0.200 F 
ATOM     82  C   UNL A   1      46.374  36.778  28.550  1.00  0.00     0.200 A 
ATOM     83  F   UNL A   1      44.789  37.274  26.871  1.00  0.00    -0.200 F 
ATOM     84  F   UNL A   1      46.832  38.038  28.510  1.00  0.00    -0.200 F 
ENDBRANCH  60  74
BRANCH  61  85
ATOM     85  C   UNL A   1      41.576  24.970  27.756  1.00  0.00     0.064 A 
ATOM     86  C   UNL A   1      40.528  24.684  26.869  1.00  0.00     0.173 A 
ATOM     87  C   UNL A   1      42.099  23.918  28.517  1.00  0.00     0.173 A 
ATOM     88  F   UNL A   1      39.989  25.666  26.131  1.00  0.00    -0.203 F 
ATOM     89  C   UNL A   1      40.015  23.395  26.756  1.00  0.00     0.198 A 
ATOM     90  C   UNL A   1      41.601  22.624  28.385  1.00  0.00     0.198 A 
ATOM     91  F   UNL A   1      43.110  24.142  29.370  1.00  0.00    -0.203 F 
ATOM     92  F   UNL A   1      38.994  23.155  25.922  1.00  0.00    -0.200 F 
ATOM     93  C   UNL A   1      40.556  22.365  27.509  1.00  0.00     0.200 A 
ATOM     94  F   UNL A   1      42.135  21.627  29.102  1.00  0.00    -0.200 F 
ATOM     95  F   UNL A   1      40.070  21.122  27.391  1.00  0.00    -0.200 F 
ENDBRANCH  61  85
BRANCH  73  96
ATOM     96  C   UNL A   1      47.537  27.932  25.660  1.00  0.00     0.064 A 
ATOM     97  C   UNL A   1      47.575  27.830  24.263  1.00  0.00     0.173 A 
ATOM     98  C   UNL A   1      48.692  27.597  26.381  1.00  0.00     0.173 A 
ATOM     99  F   UNL A   1      46.490  28.134  23.534  1.00  0.00    -0.203 F 
ATOM    100  C   UNL A   1      48.725  27.396  23.610  1.00  0.00     0.198 A 
ATOM    101  C   UNL A   1      49.847  27.181  25.723  1.00  0.00     0.198 A 
ATOM    102  F   UNL A   1      48.704  27.687  27.719  1.00  0.00    -0.203 F 
ATOM    103  F   UNL A   1      48.733  27.280  22.275  1.00  0.00    -0.200 F 
ATOM    104  C   UNL A   1      49.862  27.079  24.340  1.00  0.00     0.200 A 
ATOM    105  F   UNL A   1      50.947  26.883  26.429  1.00  0.00    -0.200 F 
ATOM    106  F   UNL A   1      50.971  26.670  23.710  1.00  0.00    -0.200 F 
ENDBRANCH  73  96
ENDBRANCH  47  48
ENDBRANCH  40  42
ENDBRANCH  39  40
ENDBRANCH  38  39
ENDBRANCH  37  38
ENDBRANCH  36  37
ENDBRANCH  35  36
ENDBRANCH   1  35
TORSDOF 19
ENDMDL
MODEL 2
REMARK VINA RESULT:     -11.9      4.209      9.722
REMARK SMILES CN1C(=O)/C(=C(\SC2=[NH+][C@@H]3N=c4ccccc4=C3N=N2)C(=O)OCCOCCOCCOC(=O)c2ccc(-c3c4nc(c(-c5c(F)c(F)c(F)c(F)c5F)c5ccc([nH]5)c(-c5c(F)c(F)c(F)c(F)c5F)c5nc(c(-c6c(F)c(F)c(F)c(F)c6F)c6ccc3[nH]6)C=C5)C=C4)cc2)c2ccccc21
REMARK SMILES IDX 27 1 26 2 25 3 24 4 23 5 21 6 22 7 6 8 1 9 2 10 3 11 103 12
REMARK SMILES IDX 4 13 5 14 98 15 102 16 99 17 101 18 100 19 7 20 8 21 9 22
REMARK SMILES IDX 20 23 10 24 19 26 11 27 18 28 12 29 17 30 13 31 16 32 14 33
REMARK SMILES IDX 15 34 28 35 29 36 30 37 31 38 32 39 33 40 34 41 35 42 36 43
REMARK SMILES IDX 97 44 37 45 96 46 38 47 39 48 40 49 90 50 41 51 95 52 89 53
REMARK SMILES IDX 91 54 42 55 94 56 88 57 87 58 43 60 75 61 55 62 74 63 56 64
REMARK SMILES IDX 59 65 73 66 92 67 57 68 58 69 72 71 93 72 60 73 44 74 45 75
REMARK SMILES IDX 53 76 46 77 47 78 51 79 54 80 48 81 49 82 52 83 50 84 76 85
REMARK SMILES IDX 77 86 85 87 78 88 79 89 83 90 86 91 80 92 81 93 84 94 82 95
REMARK SMILES IDX 61 96 62 97 70 98 63 99 64 100 68 101 71 102 65 103 66 104
REMARK SMILES IDX 69 105 67 106
REMARK H PARENT 9 25 91 59 59 70
REMARK Flexibility Score: inf
ROOT
ATOM      1  C   UNL A   1      37.231  21.316  25.156  1.00  0.00     0.188 C 
ENDROOT
BRANCH   1   2
ATOM      2  O   UNL A   1      36.148  21.685  25.999  1.00  0.00    -0.376 OA
BRANCH   2   3
ATOM      3  C   UNL A   1      35.129  22.475  25.398  1.00  0.00     0.202 C 
BRANCH   3   4
ATOM      4  C   UNL A   1      34.398  23.371  26.396  1.00  0.00     0.261 C 
BRANCH   4   5
ATOM      5  O   UNL A   1      33.621  24.402  25.758  1.00  0.00    -0.459 OA
BRANCH   5   6
ATOM      6  C   UNL A   1      32.301  24.430  26.064  1.00  0.00     0.346 C 
ATOM      7  O   UNL A   1      31.812  23.950  27.078  1.00  0.00    -0.246 OA
BRANCH   6   8
ATOM      8  C   UNL A   1      31.500  25.094  24.991  1.00  0.00     0.118 C 
ATOM      9  C   UNL A   1      30.174  29.391  23.300  1.00  0.00     0.153 C 
ATOM     10  N   UNL A   1      30.671  28.424  24.243  1.00  0.00    -0.311 N 
ATOM     11  C   UNL A   1      30.160  27.148  24.421  1.00  0.00     0.260 C 
ATOM     12  C   UNL A   1      31.740  28.641  25.119  1.00  0.00     0.052 A 
ATOM     13  O   UNL A   1      29.076  26.695  24.085  1.00  0.00    -0.269 OA
ATOM     14  C   UNL A   1      31.223  26.404  25.166  1.00  0.00     0.071 C 
ATOM     15  C   UNL A   1      32.038  27.458  25.819  1.00  0.00     0.012 A 
ATOM     16  C   UNL A   1      32.363  29.848  25.377  1.00  0.00     0.027 A 
ATOM     17  C   UNL A   1      32.932  27.507  26.873  1.00  0.00     0.011 A 
ATOM     18  C   UNL A   1      33.246  29.891  26.446  1.00  0.00     0.002 A 
ATOM     19  C   UNL A   1      33.517  28.736  27.197  1.00  0.00     0.001 A 
BRANCH   8  20
ATOM     20  S   UNL A   1      30.894  23.948  23.812  1.00  0.00     0.013 SA
BRANCH  20  21
ATOM     21  C   UNL A   1      31.779  22.412  23.879  1.00  0.00     0.386 C 
ATOM     22  N   UNL A   1      31.788  21.807  25.023  1.00  0.00    -0.235 N 
ATOM     23  N   UNL A   1      32.345  21.912  22.731  1.00  0.00     0.088 NA
ATOM     24  C   UNL A   1      31.928  20.361  24.928  1.00  0.00     0.348 C 
ATOM     25  H   UNL A   1      31.709  22.282  25.882  1.00  0.00     0.308 HD
ATOM     26  N   UNL A   1      32.221  20.688  22.496  1.00  0.00    -0.033 NA
ATOM     27  N   UNL A   1      32.970  19.698  25.745  1.00  0.00    -0.232 NA
ATOM     28  C   UNL A   1      32.161  19.857  23.559  1.00  0.00     0.165 C 
ATOM     29  C   UNL A   1      33.299  18.701  24.962  1.00  0.00     0.072 A 
ATOM     30  C   UNL A   1      32.732  18.662  23.597  1.00  0.00     0.032 A 
ATOM     31  C   UNL A   1      34.303  17.643  25.241  1.00  0.00     0.029 A 
ATOM     32  C   UNL A   1      33.146  17.729  22.601  1.00  0.00     0.012 A 
ATOM     33  C   UNL A   1      34.617  16.757  24.275  1.00  0.00     0.002 A 
ATOM     34  C   UNL A   1      34.025  16.779  22.947  1.00  0.00     0.001 A 
ENDBRANCH  20  21
ENDBRANCH   8  20
ENDBRANCH   6   8
ENDBRANCH   5   6
ENDBRANCH   4   5
ENDBRANCH   3   4
ENDBRANCH   2   3
ENDBRANCH   1   2
BRANCH   1  35
ATOM     35  C   UNL A   1      38.626  21.692  25.693  1.00  0.00     0.188 C 
BRANCH  35  36
ATOM     36  O   UNL A   1      39.494  20.660  26.145  1.00  0.00    -0.376 OA
BRANCH  36  37
ATOM     37  C   UNL A   1      40.803  20.997  26.587  1.00  0.00     0.202 C 
BRANCH  37  38
ATOM     38  C   UNL A   1      40.913  22.126  27.613  1.00  0.00     0.261 C 
BRANCH  38  39
ATOM     39  O   UNL A   1      41.927  23.089  27.269  1.00  0.00    -0.460 OA
BRANCH  39  40
ATOM     40  C   UNL A   1      41.480  24.259  26.758  1.00  0.00     0.338 C 
ATOM     41  O   UNL A   1      40.321  24.596  26.573  1.00  0.00    -0.246 OA
BRANCH  40  42
ATOM     42  C   UNL A   1      42.615  25.185  26.583  1.00  0.00     0.060 A 
ATOM     43  C   UNL A   1      42.743  25.965  25.430  1.00  0.00     0.016 A 
ATOM     44  C   UNL A   1      43.537  25.311  27.629  1.00  0.00     0.016 A 
ATOM     45  C   UNL A   1      43.774  26.907  25.347  1.00  0.00     0.010 A 
ATOM     46  C   UNL A   1      44.581  26.233  27.532  1.00  0.00     0.010 A 
ATOM     47  C   UNL A   1      44.690  27.058  26.401  1.00  0.00    -0.014 A 
BRANCH  47  48
ATOM     48  C   UNL A   1      45.671  28.171  26.393  1.00  0.00     0.031 A 
ATOM     49  C   UNL A   1      47.081  27.973  25.937  1.00  0.00     0.074 A 
ATOM     50  C   UNL A   1      45.270  29.384  26.812  1.00  0.00     0.049 A 
ATOM     51  N   UNL A   1      48.116  28.762  26.083  1.00  0.00    -0.248 NA
ATOM     52  C   UNL A   1      47.381  26.710  25.255  1.00  0.00     0.031 C 
ATOM     53  C   UNL A   1      43.907  29.724  27.223  1.00  0.00     0.029 A 
ATOM     54  N   UNL A   1      45.961  30.562  26.927  1.00  0.00    -0.354 N 
ATOM     55  C   UNL A   1      49.214  28.037  25.637  1.00  0.00     0.074 A 
ATOM     56  C   UNL A   1      48.702  26.782  25.128  1.00  0.00     0.031 C 
ATOM     57  C   UNL A   1      43.848  31.041  27.481  1.00  0.00     0.029 A 
ATOM     58  C   UNL A   1      45.174  31.624  27.295  1.00  0.00     0.049 A 
ATOM     59  H   UNL A   1      46.929  30.638  26.762  1.00  0.00     0.167 HD
ATOM     60  C   UNL A   1      50.522  28.383  25.713  1.00  0.00     0.037 A 
ATOM     61  C   UNL A   1      45.490  32.924  27.440  1.00  0.00     0.037 A 
ATOM     62  C   UNL A   1      50.980  29.710  26.047  1.00  0.00     0.049 A 
ATOM     63  C   UNL A   1      46.912  33.363  27.229  1.00  0.00     0.074 A 
ATOM     64  C   UNL A   1      52.277  30.195  26.103  1.00  0.00     0.029 A 
ATOM     65  N   UNL A   1      50.143  30.785  26.308  1.00  0.00    -0.354 N 
ATOM     66  N   UNL A   1      47.968  32.635  26.960  1.00  0.00    -0.248 NA
ATOM     67  C   UNL A   1      47.190  34.802  27.344  1.00  0.00     0.031 C 
ATOM     68  C   UNL A   1      52.223  31.564  26.385  1.00  0.00     0.029 A 
ATOM     69  C   UNL A   1      50.892  31.937  26.474  1.00  0.00     0.049 A 
ATOM     70  H   UNL A   1      49.162  30.737  26.367  1.00  0.00     0.167 HD
ATOM     71  C   UNL A   1      49.031  33.521  26.874  1.00  0.00     0.074 A 
ATOM     72  C   UNL A   1      48.490  34.848  27.083  1.00  0.00     0.031 C 
ATOM     73  C   UNL A   1      50.342  33.254  26.660  1.00  0.00     0.037 A 
BRANCH  60  74
ATOM     74  C   UNL A   1      51.566  27.326  25.484  1.00  0.00     0.064 A 
ATOM     75  C   UNL A   1      52.084  27.025  24.219  1.00  0.00     0.173 A 
ATOM     76  C   UNL A   1      52.125  26.658  26.591  1.00  0.00     0.173 A 
ATOM     77  F   UNL A   1      51.587  27.623  23.127  1.00  0.00    -0.203 F 
ATOM     78  C   UNL A   1      53.106  26.088  24.066  1.00  0.00     0.198 A 
ATOM     79  C   UNL A   1      53.172  25.754  26.440  1.00  0.00     0.198 A 
ATOM     80  F   UNL A   1      51.673  26.910  27.831  1.00  0.00    -0.203 F 
ATOM     81  F   UNL A   1      53.558  25.789  22.841  1.00  0.00    -0.200 F 
ATOM     82  C   UNL A   1      53.658  25.465  25.177  1.00  0.00     0.200 A 
ATOM     83  F   UNL A   1      53.717  25.173  27.519  1.00  0.00    -0.200 F 
ATOM     84  F   UNL A   1      54.661  24.587  25.027  1.00  0.00    -0.200 F 
ENDBRANCH  60  74
BRANCH  61  85
ATOM     85  C   UNL A   1      44.417  33.909  27.717  1.00  0.00     0.064 A 
ATOM     86  C   UNL A   1      43.996  34.136  29.035  1.00  0.00     0.173 A 
ATOM     87  C   UNL A   1      43.824  34.664  26.698  1.00  0.00     0.173 A 
ATOM     88  F   UNL A   1      44.529  33.424  30.039  1.00  0.00    -0.203 F 
ATOM     89  C   UNL A   1      43.011  35.077  29.322  1.00  0.00     0.198 A 
ATOM     90  C   UNL A   1      42.856  35.622  26.989  1.00  0.00     0.198 A 
ATOM     91  F   UNL A   1      44.203  34.489  25.423  1.00  0.00    -0.203 F 
ATOM     92  F   UNL A   1      42.607  35.254  30.587  1.00  0.00    -0.200 F 
ATOM     93  C   UNL A   1      42.447  35.824  28.300  1.00  0.00     0.200 A 
ATOM     94  F   UNL A   1      42.322  36.354  26.002  1.00  0.00    -0.200 F 
ATOM     95  F   UNL A   1      41.507  36.738  28.578  1.00  0.00    -0.200 F 
ENDBRANCH  61  85
BRANCH  73  96
ATOM     96  C   UNL A   1      51.291  34.412  26.622  1.00  0.00     0.064 A 
ATOM     97  C   UNL A   1      51.969  34.837  27.773  1.00  0.00     0.173 A 
ATOM     98  C   UNL A   1      51.577  35.055  25.410  1.00  0.00     0.173 A 
ATOM     99  F   UNL A   1      51.720  34.254  28.956  1.00  0.00    -0.203 F 
ATOM    100  C   UNL A   1      52.892  35.876  27.715  1.00  0.00     0.198 A 
ATOM    101  C   UNL A   1      52.515  36.083  25.351  1.00  0.00     0.198 A 
ATOM    102  F   UNL A   1      50.957  34.677  24.282  1.00  0.00    -0.203 F 
ATOM    103  F   UNL A   1      53.510  36.285  28.831  1.00  0.00    -0.200 F 
ATOM    104  C   UNL A   1      53.169  36.494  26.503  1.00  0.00     0.200 A 
ATOM    105  F   UNL A   1      52.788  36.673  24.180  1.00  0.00    -0.200 F 
ATOM    106  F   UNL A   1      54.065  37.488  26.447  1.00  0.00    -0.200 F 
ENDBRANCH  73  96
ENDBRANCH  47  48
ENDBRANCH  40  42
ENDBRANCH  39  40
ENDBRANCH  38  39
ENDBRANCH  37  38
ENDBRANCH  36  37
ENDBRANCH  35  36
ENDBRANCH   1  35
TORSDOF 19
ENDMDL
MODEL 3
REMARK VINA RESULT:     -11.8      4.667      7.273
REMARK SMILES CN1C(=O)/C(=C(\SC2=[NH+][C@@H]3N=c4ccccc4=C3N=N2)C(=O)OCCOCCOCCOC(=O)c2ccc(-c3c4nc(c(-c5c(F)c(F)c(F)c(F)c5F)c5ccc([nH]5)c(-c5c(F)c(F)c(F)c(F)c5F)c5nc(c(-c6c(F)c(F)c(F)c(F)c6F)c6ccc3[nH]6)C=C5)C=C4)cc2)c2ccccc21
REMARK SMILES IDX 27 1 26 2 25 3 24 4 23 5 21 6 22 7 6 8 1 9 2 10 3 11 103 12
REMARK SMILES IDX 4 13 5 14 98 15 102 16 99 17 101 18 100 19 7 20 8 21 9 22
REMARK SMILES IDX 20 23 10 24 19 26 11 27 18 28 12 29 17 30 13 31 16 32 14 33
REMARK SMILES IDX 15 34 28 35 29 36 30 37 31 38 32 39 33 40 34 41 35 42 36 43
REMARK SMILES IDX 97 44 37 45 96 46 38 47 39 48 40 49 90 50 41 51 95 52 89 53
REMARK SMILES IDX 91 54 42 55 94 56 88 57 87 58 43 60 75 61 55 62 74 63 56 64
REMARK SMILES IDX 59 65 73 66 92 67 57 68 58 69 72 71 93 72 60 73 44 74 45 75
REMARK SMILES IDX 53 76 46 77 47 78 51 79 54 80 48 81 49 82 52 83 50 84 76 85
REMARK SMILES IDX 77 86 85 87 78 88 79 89 83 90 86 91 80 92 81 93 84 94 82 95
REMARK SMILES IDX 61 96 62 97 70 98 63 99 64 100 68 101 71 102 65 103 66 104
REMARK SMILES IDX 69 105 67 106
REMARK H PARENT 9 25 91 59 59 70
REMARK Flexibility Score: inf
ROOT
ATOM      1  C   UNL A   1      34.936  30.686  27.243  1.00  0.00     0.188 C 
ENDROOT
BRANCH   1   2
ATOM      2  O   UNL A   1      35.341  29.325  27.180  1.00  0.00    -0.376 OA
BRANCH   2   3
ATOM      3  C   UNL A   1      34.304  28.373  26.975  1.00  0.00     0.202 C 
BRANCH   3   4
ATOM      4  C   UNL A   1      34.017  28.107  25.498  1.00  0.00     0.261 C 
BRANCH   4   5
ATOM      5  O   UNL A   1      34.085  26.710  25.158  1.00  0.00    -0.459 OA
BRANCH   5   6
ATOM      6  C   UNL A   1      32.897  26.070  25.024  1.00  0.00     0.346 C 
ATOM      7  O   UNL A   1      31.890  26.330  25.668  1.00  0.00    -0.246 OA
BRANCH   6   8
ATOM      8  C   UNL A   1      32.972  24.976  24.008  1.00  0.00     0.118 C 
ATOM      9  C   UNL A   1      33.716  20.257  23.507  1.00  0.00     0.153 C 
ATOM     10  N   UNL A   1      33.741  21.552  24.134  1.00  0.00    -0.311 N 
ATOM     11  C   UNL A   1      34.017  22.746  23.487  1.00  0.00     0.260 C 
ATOM     12  C   UNL A   1      33.493  21.785  25.491  1.00  0.00     0.052 A 
ATOM     13  O   UNL A   1      34.567  22.934  22.411  1.00  0.00    -0.269 OA
ATOM     14  C   UNL A   1      33.525  23.813  24.414  1.00  0.00     0.071 C 
ATOM     15  C   UNL A   1      33.484  23.168  25.749  1.00  0.00     0.012 A 
ATOM     16  C   UNL A   1      33.385  20.831  26.486  1.00  0.00     0.027 A 
ATOM     17  C   UNL A   1      33.451  23.607  27.060  1.00  0.00     0.011 A 
ATOM     18  C   UNL A   1      33.368  21.281  27.798  1.00  0.00     0.002 A 
ATOM     19  C   UNL A   1      33.416  22.655  28.084  1.00  0.00     0.001 A 
BRANCH   8  20
ATOM     20  S   UNL A   1      32.514  25.525  22.408  1.00  0.00     0.013 SA
BRANCH  20  21
ATOM     21  C   UNL A   1      31.458  26.948  22.483  1.00  0.00     0.386 C 
ATOM     22  N   UNL A   1      30.214  26.722  22.764  1.00  0.00    -0.235 N 
ATOM     23  N   UNL A   1      32.000  28.198  22.309  1.00  0.00     0.088 NA
ATOM     24  C   UNL A   1      29.544  27.833  23.424  1.00  0.00     0.348 C 
ATOM     25  H   UNL A   1      29.761  25.875  22.549  1.00  0.00     0.308 HD
ATOM     26  N   UNL A   1      31.629  29.115  23.078  1.00  0.00    -0.033 NA
ATOM     27  N   UNL A   1      28.252  28.304  22.877  1.00  0.00    -0.232 NA
ATOM     28  C   UNL A   1      30.361  29.058  23.542  1.00  0.00     0.165 C 
ATOM     29  C   UNL A   1      28.316  29.582  23.158  1.00  0.00     0.072 A 
ATOM     30  C   UNL A   1      29.583  30.119  23.700  1.00  0.00     0.032 A 
ATOM     31  C   UNL A   1      27.286  30.611  22.870  1.00  0.00     0.029 A 
ATOM     32  C   UNL A   1      29.831  31.512  23.882  1.00  0.00     0.012 A 
ATOM     33  C   UNL A   1      27.559  31.909  23.111  1.00  0.00     0.002 A 
ATOM     34  C   UNL A   1      28.832  32.372  23.639  1.00  0.00     0.001 A 
ENDBRANCH  20  21
ENDBRANCH   8  20
ENDBRANCH   6   8
ENDBRANCH   5   6
ENDBRANCH   4   5
ENDBRANCH   3   4
ENDBRANCH   2   3
ENDBRANCH   1   2
BRANCH   1  35
ATOM     35  C   UNL A   1      33.540  30.919  27.852  1.00  0.00     0.188 C 
BRANCH  35  36
ATOM     36  O   UNL A   1      32.437  31.149  26.985  1.00  0.00    -0.376 OA
BRANCH  36  37
ATOM     37  C   UNL A   1      31.871  32.452  26.910  1.00  0.00     0.202 C 
BRANCH  37  38
ATOM     38  C   UNL A   1      32.781  33.620  27.293  1.00  0.00     0.261 C 
BRANCH  38  39
ATOM     39  O   UNL A   1      32.266  34.382  28.401  1.00  0.00    -0.460 OA
BRANCH  39  40
ATOM     40  C   UNL A   1      33.057  35.385  28.846  1.00  0.00     0.338 C 
ATOM     41  O   UNL A   1      32.872  36.587  28.730  1.00  0.00    -0.246 OA
BRANCH  40  42
ATOM     42  C   UNL A   1      34.150  34.824  29.662  1.00  0.00     0.060 A 
ATOM     43  C   UNL A   1      33.919  34.346  30.954  1.00  0.00     0.016 A 
ATOM     44  C   UNL A   1      35.425  34.727  29.088  1.00  0.00     0.016 A 
ATOM     45  C   UNL A   1      34.958  33.726  31.656  1.00  0.00     0.010 A 
ATOM     46  C   UNL A   1      36.467  34.131  29.801  1.00  0.00     0.010 A 
ATOM     47  C   UNL A   1      36.233  33.601  31.080  1.00  0.00    -0.014 A 
BRANCH  47  48
ATOM     48  C   UNL A   1      37.284  32.791  31.745  1.00  0.00     0.031 A 
ATOM     49  C   UNL A   1      37.609  32.962  33.195  1.00  0.00     0.074 A 
ATOM     50  C   UNL A   1      37.956  31.885  31.013  1.00  0.00     0.049 A 
ATOM     51  N   UNL A   1      38.638  32.514  33.870  1.00  0.00    -0.248 NA
ATOM     52  C   UNL A   1      36.676  33.769  33.988  1.00  0.00     0.031 C 
ATOM     53  C   UNL A   1      37.693  31.577  29.607  1.00  0.00     0.029 A 
ATOM     54  N   UNL A   1      38.971  31.033  31.361  1.00  0.00    -0.354 N 
ATOM     55  C   UNL A   1      38.549  33.095  35.128  1.00  0.00     0.074 A 
ATOM     56  C   UNL A   1      37.315  33.851  35.150  1.00  0.00     0.031 C 
ATOM     57  C   UNL A   1      38.483  30.558  29.231  1.00  0.00     0.029 A 
ATOM     58  C   UNL A   1      39.332  30.172  30.355  1.00  0.00     0.049 A 
ATOM     59  H   UNL A   1      39.401  31.039  32.248  1.00  0.00     0.167 HD
ATOM     60  C   UNL A   1      39.457  33.038  36.133  1.00  0.00     0.037 A 
ATOM     61  C   UNL A   1      40.231  29.172  30.356  1.00  0.00     0.037 A 
ATOM     62  C   UNL A   1      40.576  32.126  36.148  1.00  0.00     0.049 A 
ATOM     63  C   UNL A   1      41.044  28.913  31.594  1.00  0.00     0.074 A 
ATOM     64  C   UNL A   1      41.531  31.938  37.134  1.00  0.00     0.029 A 
ATOM     65  N   UNL A   1      40.842  31.196  35.156  1.00  0.00    -0.354 N 
ATOM     66  N   UNL A   1      41.056  29.576  32.725  1.00  0.00    -0.248 NA
ATOM     67  C   UNL A   1      41.970  27.772  31.558  1.00  0.00     0.031 C 
ATOM     68  C   UNL A   1      42.366  30.886  36.743  1.00  0.00     0.029 A 
ATOM     69  C   UNL A   1      41.911  30.399  35.529  1.00  0.00     0.049 A 
ATOM     70  H   UNL A   1      40.344  31.112  34.310  1.00  0.00     0.167 HD
ATOM     71  C   UNL A   1      41.984  28.937  33.532  1.00  0.00     0.074 A 
ATOM     72  C   UNL A   1      42.491  27.809  32.778  1.00  0.00     0.031 C 
ATOM     73  C   UNL A   1      42.393  29.269  34.780  1.00  0.00     0.037 A 
BRANCH  60  74
ATOM     74  C   UNL A   1      39.331  34.002  37.280  1.00  0.00     0.064 A 
ATOM     75  C   UNL A   1      38.690  33.679  38.482  1.00  0.00     0.173 A 
ATOM     76  C   UNL A   1      39.956  35.261  37.193  1.00  0.00     0.173 A 
ATOM     77  F   UNL A   1      38.072  32.498  38.621  1.00  0.00    -0.203 F 
ATOM     78  C   UNL A   1      38.665  34.581  39.546  1.00  0.00     0.198 A 
ATOM     79  C   UNL A   1      39.963  36.143  38.270  1.00  0.00     0.198 A 
ATOM     80  F   UNL A   1      40.591  35.624  36.067  1.00  0.00    -0.203 F 
ATOM     81  F   UNL A   1      38.012  34.263  40.672  1.00  0.00    -0.200 F 
ATOM     82  C   UNL A   1      39.312  35.804  39.445  1.00  0.00     0.200 A 
ATOM     83  F   UNL A   1      40.610  37.313  38.174  1.00  0.00    -0.200 F 
ATOM     84  F   UNL A   1      39.310  36.655  40.480  1.00  0.00    -0.200 F 
ENDBRANCH  60  74
BRANCH  61  85
ATOM     85  C   UNL A   1      40.340  28.288  29.170  1.00  0.00     0.064 A 
ATOM     86  C   UNL A   1      39.613  27.091  29.119  1.00  0.00     0.173 A 
ATOM     87  C   UNL A   1      41.125  28.629  28.062  1.00  0.00     0.173 A 
ATOM     88  F   UNL A   1      38.859  26.720  30.165  1.00  0.00    -0.203 F 
ATOM     89  C   UNL A   1      39.676  26.260  28.004  1.00  0.00     0.198 A 
ATOM     90  C   UNL A   1      41.168  27.808  26.937  1.00  0.00     0.198 A 
ATOM     91  F   UNL A   1      41.829  29.771  28.062  1.00  0.00    -0.203 F 
ATOM     92  F   UNL A   1      38.993  25.107  27.992  1.00  0.00    -0.200 F 
ATOM     93  C   UNL A   1      40.448  26.622  26.911  1.00  0.00     0.200 A 
ATOM     94  F   UNL A   1      41.903  28.167  25.876  1.00  0.00    -0.200 F 
ATOM     95  F   UNL A   1      40.499  25.828  25.834  1.00  0.00    -0.200 F 
ENDBRANCH  61  85
BRANCH  73  96
ATOM     96  C   UNL A   1      43.427  28.401  35.428  1.00  0.00     0.064 A 
ATOM     97  C   UNL A   1      44.797  28.640  35.248  1.00  0.00     0.173 A 
ATOM     98  C   UNL A   1      43.045  27.365  36.292  1.00  0.00     0.173 A 
ATOM     99  F   UNL A   1      45.208  29.617  34.424  1.00  0.00    -0.203 F 
ATOM    100  C   UNL A   1      45.749  27.864  35.900  1.00  0.00     0.198 A 
ATOM    101  C   UNL A   1      44.000  26.601  36.957  1.00  0.00     0.198 A 
ATOM    102  F   UNL A   1      41.746  27.104  36.500  1.00  0.00    -0.203 F 
ATOM    103  F   UNL A   1      47.054  28.092  35.695  1.00  0.00    -0.200 F 
ATOM    104  C   UNL A   1      45.350  26.850  36.759  1.00  0.00     0.200 A 
ATOM    105  F   UNL A   1      43.614  25.628  37.794  1.00  0.00    -0.200 F 
ATOM    106  F   UNL A   1      46.269  26.109  37.394  1.00  0.00    -0.200 F 
ENDBRANCH  73  96
ENDBRANCH  47  48
ENDBRANCH  40  42
ENDBRANCH  39  40
ENDBRANCH  38  39
ENDBRANCH  37  38
ENDBRANCH  36  37
ENDBRANCH  35  36
ENDBRANCH   1  35
TORSDOF 19
ENDMDL
