MODEL 1
REMARK VINA RESULT:     -11.6      0.000      0.000
REMARK SMILES Cc1cc(N2CCOC[C@H]2C(=O)OCCOCCOCCOC(=O)c2ccc(-c3c4nc(c(-c5c(F)c(F)c(F)c(F)c5F)c5ccc([nH]5)c(-c5c(F)c(F)c(F)c(F)c5F)c5nc(c(-c6c(F)c(F)c(F)c(F)c6F)c6ccc3[nH]6)C=C5)C=C4)cc2)ncc1[N+](=O)[O-]
REMARK SMILES IDX 17 1 16 2 15 3 14 4 13 5 11 6 12 7 10 8 5 9 6 10 7 11 9 12
REMARK SMILES IDX 8 13 4 14 1 15 2 16 3 17 90 18 89 19 88 20 91 21 92 22 93 23
REMARK SMILES IDX 18 24 19 25 20 26 21 27 22 28 23 29 24 30 25 31 26 32 87 33
REMARK SMILES IDX 27 34 86 35 28 36 29 37 30 38 80 39 31 40 85 41 79 42 81 43
REMARK SMILES IDX 32 44 84 45 78 46 77 47 33 49 65 50 45 51 64 52 46 53 49 54
REMARK SMILES IDX 63 55 82 56 47 57 48 58 62 60 83 61 50 62 34 63 35 64 43 65
REMARK SMILES IDX 36 66 37 67 41 68 44 69 38 70 39 71 42 72 40 73 66 74 67 75
REMARK SMILES IDX 75 76 68 77 69 78 73 79 76 80 70 81 71 82 74 83 72 84 51 85
REMARK SMILES IDX 52 86 60 87 53 88 54 89 58 90 61 91 55 92 56 93 59 94 57 95
REMARK H PARENT 81 48 49 59
REMARK Flexibility Score: inf
ROOT
ATOM      1  C   UNL A   1      39.236  22.026  26.226  1.00  0.00     0.188 C 
ENDROOT
BRANCH   1   2
ATOM      2  O   UNL A   1      37.903  22.227  25.768  1.00  0.00    -0.376 OA
BRANCH   2   3
ATOM      3  C   UNL A   1      37.476  21.459  24.646  1.00  0.00     0.202 C 
BRANCH   3   4
ATOM      4  C   UNL A   1      36.320  20.510  24.950  1.00  0.00     0.261 C 
BRANCH   4   5
ATOM      5  O   UNL A   1      35.244  21.221  25.592  1.00  0.00    -0.462 OA
BRANCH   5   6
ATOM      6  C   UNL A   1      33.974  20.888  25.244  1.00  0.00     0.331 C 
ATOM      7  O   UNL A   1      33.566  19.736  25.133  1.00  0.00    -0.250 OA
BRANCH   6   8
ATOM      8  C   UNL A   1      33.082  22.100  24.959  1.00  0.00     0.220 C 
ATOM      9  N   UNL A   1      33.820  23.375  24.717  1.00  0.00    -0.339 N 
ATOM     10  C   UNL A   1      34.319  23.572  23.340  1.00  0.00     0.147 C 
ATOM     11  C   UNL A   1      33.269  23.189  22.292  1.00  0.00     0.181 C 
ATOM     12  C   UNL A   1      32.155  21.740  23.783  1.00  0.00     0.197 C 
ATOM     13  O   UNL A   1      32.803  21.846  22.504  1.00  0.00    -0.377 OA
BRANCH   9  14
ATOM     14  C   UNL A   1      33.284  24.510  25.320  1.00  0.00     0.130 A 
ATOM     15  C   UNL A   1      34.356  28.106  25.921  1.00  0.00     0.052 C 
ATOM     16  C   UNL A   1      33.519  26.863  25.925  1.00  0.00     0.032 A 
ATOM     17  C   UNL A   1      34.068  25.663  25.437  1.00  0.00     0.057 A 
ATOM     18  C   UNL A   1      32.194  26.820  26.360  1.00  0.00     0.290 A 
ATOM     19  C   UNL A   1      31.475  25.644  26.236  1.00  0.00     0.199 A 
ATOM     20  N   UNL A   1      31.995  24.503  25.716  1.00  0.00    -0.232 NA
BRANCH  18  21
ATOM     21  N   UNL A   1      31.521  27.962  26.943  1.00  0.00     0.064 N 
ATOM     22  O   UNL A   1      31.540  29.018  26.299  1.00  0.00    -0.258 OA
ATOM     23  O   UNL A   1      30.958  27.796  28.033  1.00  0.00    -0.258 OA
ENDBRANCH  18  21
ENDBRANCH   9  14
ENDBRANCH   6   8
ENDBRANCH   5   6
ENDBRANCH   4   5
ENDBRANCH   3   4
ENDBRANCH   2   3
ENDBRANCH   1   2
BRANCH   1  24
ATOM     24  C   UNL A   1      39.820  20.613  26.058  1.00  0.00     0.188 C 
BRANCH  24  25
ATOM     25  O   UNL A   1      41.065  20.356  26.702  1.00  0.00    -0.376 OA
BRANCH  25  26
ATOM     26  C   UNL A   1      42.217  20.270  25.865  1.00  0.00     0.202 C 
BRANCH  26  27
ATOM     27  C   UNL A   1      43.100  21.511  25.936  1.00  0.00     0.261 C 
BRANCH  27  28
ATOM     28  O   UNL A   1      42.499  22.562  25.159  1.00  0.00    -0.460 OA
BRANCH  28  29
ATOM     29  C   UNL A   1      43.140  23.742  25.249  1.00  0.00     0.338 C 
ATOM     30  O   UNL A   1      44.263  24.004  24.841  1.00  0.00    -0.246 OA
BRANCH  29  31
ATOM     31  C   UNL A   1      42.283  24.738  25.915  1.00  0.00     0.060 A 
ATOM     32  C   UNL A   1      42.344  26.087  25.560  1.00  0.00     0.016 A 
ATOM     33  C   UNL A   1      41.562  24.341  27.040  1.00  0.00     0.016 A 
ATOM     34  C   UNL A   1      41.811  27.055  26.417  1.00  0.00     0.010 A 
ATOM     35  C   UNL A   1      40.979  25.306  27.862  1.00  0.00     0.010 A 
ATOM     36  C   UNL A   1      41.180  26.676  27.611  1.00  0.00    -0.014 A 
BRANCH  36  37
ATOM     37  C   UNL A   1      40.926  27.658  28.705  1.00  0.00     0.031 A 
ATOM     38  C   UNL A   1      41.882  27.701  29.874  1.00  0.00     0.074 A 
ATOM     39  C   UNL A   1      39.913  28.545  28.672  1.00  0.00     0.049 A 
ATOM     40  N   UNL A   1      41.729  28.229  31.062  1.00  0.00    -0.248 NA
ATOM     41  C   UNL A   1      43.187  27.043  29.679  1.00  0.00     0.031 C 
ATOM     42  C   UNL A   1      38.971  28.727  27.572  1.00  0.00     0.029 A 
ATOM     43  N   UNL A   1      39.518  29.473  29.607  1.00  0.00    -0.354 N 
ATOM     44  C   UNL A   1      42.865  27.879  31.782  1.00  0.00     0.074 A 
ATOM     45  C   UNL A   1      43.719  27.126  30.889  1.00  0.00     0.031 C 
ATOM     46  C   UNL A   1      38.132  29.732  27.876  1.00  0.00     0.029 A 
ATOM     47  C   UNL A   1      38.415  30.198  29.231  1.00  0.00     0.049 A 
ATOM     48  H   UNL A   1      39.984  29.605  30.465  1.00  0.00     0.167 HD
ATOM     49  C   UNL A   1      43.156  28.144  33.077  1.00  0.00     0.037 A 
ATOM     50  C   UNL A   1      37.686  31.098  29.920  1.00  0.00     0.037 A 
ATOM     51  C   UNL A   1      42.359  28.982  33.932  1.00  0.00     0.049 A 
ATOM     52  C   UNL A   1      38.030  31.392  31.358  1.00  0.00     0.074 A 
ATOM     53  C   UNL A   1      42.551  29.293  35.267  1.00  0.00     0.029 A 
ATOM     54  N   UNL A   1      41.240  29.684  33.514  1.00  0.00    -0.354 N 
ATOM     55  N   UNL A   1      39.013  30.927  32.088  1.00  0.00    -0.248 NA
ATOM     56  C   UNL A   1      37.137  32.314  32.076  1.00  0.00     0.031 C 
ATOM     57  C   UNL A   1      41.541  30.177  35.660  1.00  0.00     0.029 A 
ATOM     58  C   UNL A   1      40.738  30.437  34.561  1.00  0.00     0.049 A 
ATOM     59  H   UNL A   1      40.857  29.651  32.607  1.00  0.00     0.167 HD
ATOM     60  C   UNL A   1      38.861  31.499  33.344  1.00  0.00     0.074 A 
ATOM     61  C   UNL A   1      37.706  32.368  33.272  1.00  0.00     0.031 C 
ATOM     62  C   UNL A   1      39.600  31.310  34.464  1.00  0.00     0.037 A 
BRANCH  49  63
ATOM     63  C   UNL A   1      44.362  27.483  33.672  1.00  0.00     0.064 A 
ATOM     64  C   UNL A   1      45.617  28.102  33.704  1.00  0.00     0.173 A 
ATOM     65  C   UNL A   1      44.235  26.219  34.269  1.00  0.00     0.173 A 
ATOM     66  F   UNL A   1      45.793  29.301  33.129  1.00  0.00    -0.203 F 
ATOM     67  C   UNL A   1      46.707  27.475  34.306  1.00  0.00     0.198 A 
ATOM     68  C   UNL A   1      45.320  25.605  34.889  1.00  0.00     0.198 A 
ATOM     69  F   UNL A   1      43.052  25.585  34.265  1.00  0.00    -0.203 F 
ATOM     70  F   UNL A   1      47.907  28.071  34.300  1.00  0.00    -0.200 F 
ATOM     71  C   UNL A   1      46.555  26.233  34.904  1.00  0.00     0.200 A 
ATOM     72  F   UNL A   1      45.168  24.409  35.474  1.00  0.00    -0.200 F 
ATOM     73  F   UNL A   1      47.602  25.638  35.494  1.00  0.00    -0.200 F 
ENDBRANCH  49  63
BRANCH  50  74
ATOM     74  C   UNL A   1      36.515  31.755  29.282  1.00  0.00     0.064 A 
ATOM     75  C   UNL A   1      35.380  31.013  28.926  1.00  0.00     0.173 A 
ATOM     76  C   UNL A   1      36.515  33.127  28.994  1.00  0.00     0.173 A 
ATOM     77  F   UNL A   1      35.347  29.692  29.151  1.00  0.00    -0.203 F 
ATOM     78  C   UNL A   1      34.295  31.617  28.294  1.00  0.00     0.198 A 
ATOM     79  C   UNL A   1      35.417  33.736  28.390  1.00  0.00     0.198 A 
ATOM     80  F   UNL A   1      37.580  33.880  29.306  1.00  0.00    -0.203 F 
ATOM     81  F   UNL A   1      33.243  30.876  27.921  1.00  0.00    -0.200 F 
ATOM     82  C   UNL A   1      34.311  32.979  28.034  1.00  0.00     0.200 A 
ATOM     83  F   UNL A   1      35.433  35.055  28.150  1.00  0.00    -0.200 F 
ATOM     84  F   UNL A   1      33.266  33.561  27.429  1.00  0.00    -0.200 F 
ENDBRANCH  50  74
BRANCH  62  85
ATOM     85  C   UNL A   1      39.203  32.079  35.687  1.00  0.00     0.064 A 
ATOM     86  C   UNL A   1      39.673  33.379  35.916  1.00  0.00     0.173 A 
ATOM     87  C   UNL A   1      38.319  31.520  36.622  1.00  0.00     0.173 A 
ATOM     88  F   UNL A   1      40.531  33.947  35.056  1.00  0.00    -0.203 F 
ATOM     89  C   UNL A   1      39.292  34.085  37.053  1.00  0.00     0.198 A 
ATOM     90  C   UNL A   1      37.923  32.237  37.747  1.00  0.00     0.198 A 
ATOM     91  F   UNL A   1      37.837  30.282  36.441  1.00  0.00    -0.203 F 
ATOM     92  F   UNL A   1      39.784  35.312  37.275  1.00  0.00    -0.200 F 
ATOM     93  C   UNL A   1      38.414  33.517  37.965  1.00  0.00     0.200 A 
ATOM     94  F   UNL A   1      37.070  31.690  38.624  1.00  0.00    -0.200 F 
ATOM     95  F   UNL A   1      38.048  34.198  39.060  1.00  0.00    -0.200 F 
ENDBRANCH  62  85
ENDBRANCH  36  37
ENDBRANCH  29  31
ENDBRANCH  28  29
ENDBRANCH  27  28
ENDBRANCH  26  27
ENDBRANCH  25  26
ENDBRANCH  24  25
ENDBRANCH   1  24
TORSDOF 19
ENDMDL
MODEL 2
REMARK VINA RESULT:     -11.5      4.670      8.710
REMARK SMILES Cc1cc(N2CCOC[C@H]2C(=O)OCCOCCOCCOC(=O)c2ccc(-c3c4nc(c(-c5c(F)c(F)c(F)c(F)c5F)c5ccc([nH]5)c(-c5c(F)c(F)c(F)c(F)c5F)c5nc(c(-c6c(F)c(F)c(F)c(F)c6F)c6ccc3[nH]6)C=C5)C=C4)cc2)ncc1[N+](=O)[O-]
REMARK SMILES IDX 17 1 16 2 15 3 14 4 13 5 11 6 12 7 10 8 5 9 6 10 7 11 9 12
REMARK SMILES IDX 8 13 4 14 1 15 2 16 3 17 90 18 89 19 88 20 91 21 92 22 93 23
REMARK SMILES IDX 18 24 19 25 20 26 21 27 22 28 23 29 24 30 25 31 26 32 87 33
REMARK SMILES IDX 27 34 86 35 28 36 29 37 30 38 80 39 31 40 85 41 79 42 81 43
REMARK SMILES IDX 32 44 84 45 78 46 77 47 33 49 65 50 45 51 64 52 46 53 49 54
REMARK SMILES IDX 63 55 82 56 47 57 48 58 62 60 83 61 50 62 34 63 35 64 43 65
REMARK SMILES IDX 36 66 37 67 41 68 44 69 38 70 39 71 42 72 40 73 66 74 67 75
REMARK SMILES IDX 75 76 68 77 69 78 73 79 76 80 70 81 71 82 74 83 72 84 51 85
REMARK SMILES IDX 52 86 60 87 53 88 54 89 58 90 61 91 55 92 56 93 59 94 57 95
REMARK H PARENT 81 48 49 59
REMARK Flexibility Score: inf
ROOT
ATOM      1  C   UNL A   1      33.206  21.558  25.843  1.00  0.00     0.188 C 
ENDROOT
BRANCH   1   2
ATOM      2  O   UNL A   1      32.309  22.341  25.063  1.00  0.00    -0.376 OA
BRANCH   2   3
ATOM      3  C   UNL A   1      32.270  22.085  23.661  1.00  0.00     0.202 C 
BRANCH   3   4
ATOM      4  C   UNL A   1      33.152  23.019  22.837  1.00  0.00     0.261 C 
BRANCH   4   5
ATOM      5  O   UNL A   1      33.372  24.254  23.546  1.00  0.00    -0.462 OA
BRANCH   5   6
ATOM      6  C   UNL A   1      33.362  25.404  22.823  1.00  0.00     0.331 C 
ATOM      7  O   UNL A   1      34.016  25.585  21.800  1.00  0.00    -0.250 OA
BRANCH   6   8
ATOM      8  C   UNL A   1      32.476  26.498  23.428  1.00  0.00     0.220 C 
ATOM      9  N   UNL A   1      31.019  26.355  23.131  1.00  0.00    -0.339 N 
ATOM     10  C   UNL A   1      30.276  25.434  24.015  1.00  0.00     0.147 C 
ATOM     11  C   UNL A   1      30.650  25.630  25.488  1.00  0.00     0.181 C 
ATOM     12  C   UNL A   1      32.752  26.550  24.941  1.00  0.00     0.197 C 
ATOM     13  O   UNL A   1      32.070  25.517  25.673  1.00  0.00    -0.377 OA
BRANCH   9  14
ATOM     14  C   UNL A   1      30.349  27.530  22.802  1.00  0.00     0.130 A 
ATOM     15  C   UNL A   1      26.902  29.020  23.386  1.00  0.00     0.052 C 
ATOM     16  C   UNL A   1      28.320  28.881  22.919  1.00  0.00     0.032 A 
ATOM     17  C   UNL A   1      28.994  27.662  23.122  1.00  0.00     0.057 A 
ATOM     18  C   UNL A   1      29.042  29.909  22.312  1.00  0.00     0.290 A 
ATOM     19  C   UNL A   1      30.376  29.711  22.002  1.00  0.00     0.199 A 
ATOM     20  N   UNL A   1      31.035  28.551  22.247  1.00  0.00    -0.232 NA
BRANCH  18  21
ATOM     21  N   UNL A   1      28.458  31.193  21.986  1.00  0.00     0.064 N 
ATOM     22  O   UNL A   1      28.046  31.349  20.829  1.00  0.00    -0.258 OA
ATOM     23  O   UNL A   1      28.394  32.036  22.889  1.00  0.00    -0.258 OA
ENDBRANCH  18  21
ENDBRANCH   9  14
ENDBRANCH   6   8
ENDBRANCH   5   6
ENDBRANCH   4   5
ENDBRANCH   3   4
ENDBRANCH   2   3
ENDBRANCH   1   2
BRANCH   1  24
ATOM     24  C   UNL A   1      33.459  20.117  25.368  1.00  0.00     0.188 C 
BRANCH  24  25
ATOM     25  O   UNL A   1      34.770  19.824  24.891  1.00  0.00    -0.376 OA
BRANCH  25  26
ATOM     26  C   UNL A   1      35.728  20.879  24.956  1.00  0.00     0.202 C 
BRANCH  26  27
ATOM     27  C   UNL A   1      37.166  20.388  24.833  1.00  0.00     0.261 C 
BRANCH  27  28
ATOM     28  O   UNL A   1      38.060  21.504  24.999  1.00  0.00    -0.460 OA
BRANCH  28  29
ATOM     29  C   UNL A   1      39.085  21.262  25.837  1.00  0.00     0.338 C 
ATOM     30  O   UNL A   1      39.721  20.223  25.943  1.00  0.00    -0.246 OA
BRANCH  29  31
ATOM     31  C   UNL A   1      39.379  22.461  26.640  1.00  0.00     0.060 A 
ATOM     32  C   UNL A   1      38.783  23.687  26.341  1.00  0.00     0.016 A 
ATOM     33  C   UNL A   1      40.414  22.393  27.573  1.00  0.00     0.016 A 
ATOM     34  C   UNL A   1      39.325  24.867  26.861  1.00  0.00     0.010 A 
ATOM     35  C   UNL A   1      40.913  23.568  28.136  1.00  0.00     0.010 A 
ATOM     36  C   UNL A   1      40.438  24.823  27.713  1.00  0.00    -0.014 A 
BRANCH  36  37
ATOM     37  C   UNL A   1      41.254  26.040  27.993  1.00  0.00     0.031 A 
ATOM     38  C   UNL A   1      40.658  27.125  28.861  1.00  0.00     0.074 A 
ATOM     39  C   UNL A   1      42.516  26.192  27.551  1.00  0.00     0.049 A 
ATOM     40  N   UNL A   1      41.020  28.374  29.005  1.00  0.00    -0.248 NA
ATOM     41  C   UNL A   1      39.482  26.749  29.666  1.00  0.00     0.031 C 
ATOM     42  C   UNL A   1      43.289  25.201  26.808  1.00  0.00     0.029 A 
ATOM     43  N   UNL A   1      43.376  27.258  27.680  1.00  0.00    -0.354 N 
ATOM     44  C   UNL A   1      40.063  28.954  29.828  1.00  0.00     0.074 A 
ATOM     45  C   UNL A   1      39.123  27.913  30.186  1.00  0.00     0.031 C 
ATOM     46  C   UNL A   1      44.520  25.688  26.580  1.00  0.00     0.029 A 
ATOM     47  C   UNL A   1      44.592  27.061  27.074  1.00  0.00     0.049 A 
ATOM     48  H   UNL A   1      43.142  28.085  28.161  1.00  0.00     0.167 HD
ATOM     49  C   UNL A   1      39.966  30.243  30.230  1.00  0.00     0.037 A 
ATOM     50  C   UNL A   1      45.626  27.906  26.895  1.00  0.00     0.037 A 
ATOM     51  C   UNL A   1      40.956  31.251  29.963  1.00  0.00     0.049 A 
ATOM     52  C   UNL A   1      45.509  29.335  27.359  1.00  0.00     0.074 A 
ATOM     53  C   UNL A   1      40.942  32.594  30.301  1.00  0.00     0.029 A 
ATOM     54  N   UNL A   1      42.166  31.010  29.332  1.00  0.00    -0.354 N 
ATOM     55  N   UNL A   1      44.524  29.924  27.993  1.00  0.00    -0.248 NA
ATOM     56  C   UNL A   1      46.636  30.227  27.048  1.00  0.00     0.031 C 
ATOM     57  C   UNL A   1      42.141  33.167  29.866  1.00  0.00     0.029 A 
ATOM     58  C   UNL A   1      42.911  32.175  29.283  1.00  0.00     0.049 A 
ATOM     59  H   UNL A   1      42.452  30.139  28.971  1.00  0.00     0.167 HD
ATOM     60  C   UNL A   1      44.914  31.247  28.160  1.00  0.00     0.074 A 
ATOM     61  C   UNL A   1      46.236  31.370  27.586  1.00  0.00     0.031 C 
ATOM     62  C   UNL A   1      44.232  32.273  28.724  1.00  0.00     0.037 A 
BRANCH  49  63
ATOM     63  C   UNL A   1      38.724  30.657  30.959  1.00  0.00     0.064 A 
ATOM     64  C   UNL A   1      38.665  30.733  32.355  1.00  0.00     0.173 A 
ATOM     65  C   UNL A   1      37.586  31.035  30.229  1.00  0.00     0.173 A 
ATOM     66  F   UNL A   1      39.720  30.364  33.097  1.00  0.00    -0.203 F 
ATOM     67  C   UNL A   1      37.505  31.165  32.998  1.00  0.00     0.198 A 
ATOM     68  C   UNL A   1      36.438  31.487  30.872  1.00  0.00     0.198 A 
ATOM     69  F   UNL A   1      37.594  30.979  28.888  1.00  0.00    -0.203 F 
ATOM     70  F   UNL A   1      37.458  31.203  34.336  1.00  0.00    -0.200 F 
ATOM     71  C   UNL A   1      36.398  31.549  32.256  1.00  0.00     0.200 A 
ATOM     72  F   UNL A   1      35.372  31.866  30.153  1.00  0.00    -0.200 F 
ATOM     73  F   UNL A   1      35.289  31.977  32.876  1.00  0.00    -0.200 F 
ENDBRANCH  49  63
BRANCH  50  74
ATOM     74  C   UNL A   1      46.854  27.447  26.194  1.00  0.00     0.064 A 
ATOM     75  C   UNL A   1      47.911  26.863  26.904  1.00  0.00     0.173 A 
ATOM     76  C   UNL A   1      47.005  27.604  24.809  1.00  0.00     0.173 A 
ATOM     77  F   UNL A   1      47.826  26.723  28.235  1.00  0.00    -0.203 F 
ATOM     78  C   UNL A   1      49.080  26.465  26.257  1.00  0.00     0.198 A 
ATOM     79  C   UNL A   1      48.161  27.177  24.158  1.00  0.00     0.198 A 
ATOM     80  F   UNL A   1      46.026  28.165  24.084  1.00  0.00    -0.203 F 
ATOM     81  F   UNL A   1      50.095  25.954  26.967  1.00  0.00    -0.200 F 
ATOM     82  C   UNL A   1      49.201  26.615  24.884  1.00  0.00     0.200 A 
ATOM     83  F   UNL A   1      48.269  27.315  22.830  1.00  0.00    -0.200 F 
ATOM     84  F   UNL A   1      50.322  26.230  24.262  1.00  0.00    -0.200 F 
ENDBRANCH  50  74
BRANCH  62  85
ATOM     85  C   UNL A   1      44.916  33.605  28.776  1.00  0.00     0.064 A 
ATOM     86  C   UNL A   1      45.752  33.956  29.845  1.00  0.00     0.173 A 
ATOM     87  C   UNL A   1      44.756  34.527  27.730  1.00  0.00     0.173 A 
ATOM     88  F   UNL A   1      45.922  33.111  30.873  1.00  0.00    -0.203 F 
ATOM     89  C   UNL A   1      46.386  35.194  29.877  1.00  0.00     0.198 A 
ATOM     90  C   UNL A   1      45.409  35.756  27.756  1.00  0.00     0.198 A 
ATOM     91  F   UNL A   1      43.972  34.233  26.683  1.00  0.00    -0.203 F 
ATOM     92  F   UNL A   1      47.150  35.527  30.927  1.00  0.00    -0.200 F 
ATOM     93  C   UNL A   1      46.219  36.091  28.832  1.00  0.00     0.200 A 
ATOM     94  F   UNL A   1      45.252  36.619  26.743  1.00  0.00    -0.200 F 
ATOM     95  F   UNL A   1      46.830  37.284  28.866  1.00  0.00    -0.200 F 
ENDBRANCH  62  85
ENDBRANCH  36  37
ENDBRANCH  29  31
ENDBRANCH  28  29
ENDBRANCH  27  28
ENDBRANCH  26  27
ENDBRANCH  25  26
ENDBRANCH  24  25
ENDBRANCH   1  24
TORSDOF 19
ENDMDL
MODEL 3
REMARK VINA RESULT:     -11.2      4.663      6.583
REMARK SMILES Cc1cc(N2CCOC[C@H]2C(=O)OCCOCCOCCOC(=O)c2ccc(-c3c4nc(c(-c5c(F)c(F)c(F)c(F)c5F)c5ccc([nH]5)c(-c5c(F)c(F)c(F)c(F)c5F)c5nc(c(-c6c(F)c(F)c(F)c(F)c6F)c6ccc3[nH]6)C=C5)C=C4)cc2)ncc1[N+](=O)[O-]
REMARK SMILES IDX 17 1 16 2 15 3 14 4 13 5 11 6 12 7 10 8 5 9 6 10 7 11 9 12
REMARK SMILES IDX 8 13 4 14 1 15 2 16 3 17 90 18 89 19 88 20 91 21 92 22 93 23
REMARK SMILES IDX 18 24 19 25 20 26 21 27 22 28 23 29 24 30 25 31 26 32 87 33
REMARK SMILES IDX 27 34 86 35 28 36 29 37 30 38 80 39 31 40 85 41 79 42 81 43
REMARK SMILES IDX 32 44 84 45 78 46 77 47 33 49 65 50 45 51 64 52 46 53 49 54
REMARK SMILES IDX 63 55 82 56 47 57 48 58 62 60 83 61 50 62 34 63 35 64 43 65
REMARK SMILES IDX 36 66 37 67 41 68 44 69 38 70 39 71 42 72 40 73 66 74 67 75
REMARK SMILES IDX 75 76 68 77 69 78 73 79 76 80 70 81 71 82 74 83 72 84 51 85
REMARK SMILES IDX 52 86 60 87 53 88 54 89 58 90 61 91 55 92 56 93 59 94 57 95
REMARK H PARENT 81 48 49 59
REMARK Flexibility Score: inf
ROOT
ATOM      1  C   UNL A   1      35.583  21.453  24.946  1.00  0.00     0.188 C 
ENDROOT
BRANCH   1   2
ATOM      2  O   UNL A   1      34.564  22.418  24.704  1.00  0.00    -0.376 OA
BRANCH   2   3
ATOM      3  C   UNL A   1      34.478  23.516  25.608  1.00  0.00     0.202 C 
BRANCH   3   4
ATOM      4  C   UNL A   1      33.180  23.556  26.411  1.00  0.00     0.261 C 
BRANCH   4   5
ATOM      5  O   UNL A   1      32.446  24.760  26.116  1.00  0.00    -0.462 OA
BRANCH   5   6
ATOM      6  C   UNL A   1      31.104  24.650  25.938  1.00  0.00     0.331 C 
ATOM      7  O   UNL A   1      30.332  24.170  26.763  1.00  0.00    -0.250 OA
BRANCH   6   8
ATOM      8  C   UNL A   1      30.626  25.152  24.572  1.00  0.00     0.220 C 
ATOM      9  N   UNL A   1      31.382  26.324  24.038  1.00  0.00    -0.339 N 
ATOM     10  C   UNL A   1      32.646  26.005  23.343  1.00  0.00     0.147 C 
ATOM     11  C   UNL A   1      32.491  24.812  22.394  1.00  0.00     0.181 C 
ATOM     12  C   UNL A   1      30.647  23.962  23.595  1.00  0.00     0.197 C 
ATOM     13  O   UNL A   1      31.961  23.672  23.090  1.00  0.00    -0.377 OA
BRANCH   9  14
ATOM     14  C   UNL A   1      30.615  27.321  23.443  1.00  0.00     0.130 A 
ATOM     15  C   UNL A   1      26.956  28.347  23.380  1.00  0.00     0.052 C 
ATOM     16  C   UNL A   1      28.429  28.353  23.103  1.00  0.00     0.032 A 
ATOM     17  C   UNL A   1      29.223  27.295  23.583  1.00  0.00     0.057 A 
ATOM     18  C   UNL A   1      29.085  29.373  22.414  1.00  0.00     0.290 A 
ATOM     19  C   UNL A   1      30.463  29.334  22.292  1.00  0.00     0.199 A 
ATOM     20  N   UNL A   1      31.230  28.337  22.803  1.00  0.00    -0.232 NA
BRANCH  18  21
ATOM     21  N   UNL A   1      28.388  30.490  21.812  1.00  0.00     0.064 N 
ATOM     22  O   UNL A   1      28.238  31.503  22.507  1.00  0.00    -0.258 OA
ATOM     23  O   UNL A   1      28.009  30.361  20.641  1.00  0.00    -0.258 OA
ENDBRANCH  18  21
ENDBRANCH   9  14
ENDBRANCH   6   8
ENDBRANCH   5   6
ENDBRANCH   4   5
ENDBRANCH   3   4
ENDBRANCH   2   3
ENDBRANCH   1   2
BRANCH   1  24
ATOM     24  C   UNL A   1      37.000  21.808  24.464  1.00  0.00     0.188 C 
BRANCH  24  25
ATOM     25  O   UNL A   1      38.083  21.247  25.202  1.00  0.00    -0.376 OA
BRANCH  25  26
ATOM     26  C   UNL A   1      38.241  19.830  25.134  1.00  0.00     0.202 C 
BRANCH  26  27
ATOM     27  C   UNL A   1      39.629  19.363  25.556  1.00  0.00     0.261 C 
BRANCH  27  28
ATOM     28  O   UNL A   1      39.925  19.884  26.864  1.00  0.00    -0.460 OA
BRANCH  28  29
ATOM     29  C   UNL A   1      41.151  20.429  26.971  1.00  0.00     0.338 C 
ATOM     30  O   UNL A   1      42.212  19.928  26.629  1.00  0.00    -0.246 OA
BRANCH  29  31
ATOM     31  C   UNL A   1      41.060  21.775  27.562  1.00  0.00     0.060 A 
ATOM     32  C   UNL A   1      40.087  22.681  27.134  1.00  0.00     0.016 A 
ATOM     33  C   UNL A   1      42.086  22.195  28.407  1.00  0.00     0.016 A 
ATOM     34  C   UNL A   1      40.229  24.041  27.429  1.00  0.00     0.010 A 
ATOM     35  C   UNL A   1      42.190  23.544  28.749  1.00  0.00     0.010 A 
ATOM     36  C   UNL A   1      41.320  24.494  28.185  1.00  0.00    -0.014 A 
BRANCH  36  37
ATOM     37  C   UNL A   1      41.701  25.936  28.216  1.00  0.00     0.031 A 
ATOM     38  C   UNL A   1      42.980  26.360  27.530  1.00  0.00     0.074 A 
ATOM     39  C   UNL A   1      40.932  26.885  28.782  1.00  0.00     0.049 A 
ATOM     40  N   UNL A   1      43.675  27.460  27.662  1.00  0.00    -0.248 NA
ATOM     41  C   UNL A   1      43.559  25.401  26.572  1.00  0.00     0.031 C 
ATOM     42  C   UNL A   1      39.616  26.676  29.379  1.00  0.00     0.029 A 
ATOM     43  N   UNL A   1      41.158  28.233  28.935  1.00  0.00    -0.354 N 
ATOM     44  C   UNL A   1      44.817  27.282  26.891  1.00  0.00     0.074 A 
ATOM     45  C   UNL A   1      44.707  25.984  26.261  1.00  0.00     0.031 C 
ATOM     46  C   UNL A   1      39.134  27.858  29.799  1.00  0.00     0.029 A 
ATOM     47  C   UNL A   1      40.146  28.890  29.589  1.00  0.00     0.049 A 
ATOM     48  H   UNL A   1      41.970  28.684  28.606  1.00  0.00     0.167 HD
ATOM     49  C   UNL A   1      45.871  28.118  26.741  1.00  0.00     0.037 A 
ATOM     50  C   UNL A   1      40.065  30.166  30.014  1.00  0.00     0.037 A 
ATOM     51  C   UNL A   1      45.933  29.450  27.281  1.00  0.00     0.049 A 
ATOM     52  C   UNL A   1      41.243  31.089  29.829  1.00  0.00     0.074 A 
ATOM     53  C   UNL A   1      46.966  30.369  27.210  1.00  0.00     0.029 A 
ATOM     54  N   UNL A   1      44.890  30.070  27.950  1.00  0.00    -0.354 N 
ATOM     55  N   UNL A   1      42.392  30.861  29.242  1.00  0.00    -0.248 NA
ATOM     56  C   UNL A   1      41.122  32.439  30.399  1.00  0.00     0.031 C 
ATOM     57  C   UNL A   1      46.551  31.543  27.846  1.00  0.00     0.029 A 
ATOM     58  C   UNL A   1      45.250  31.363  28.287  1.00  0.00     0.049 A 
ATOM     59  H   UNL A   1      44.023  29.652  28.157  1.00  0.00     0.167 HD
ATOM     60  C   UNL A   1      43.126  32.034  29.369  1.00  0.00     0.074 A 
ATOM     61  C   UNL A   1      42.283  32.982  30.063  1.00  0.00     0.031 C 
ATOM     62  C   UNL A   1      44.391  32.298  28.961  1.00  0.00     0.037 A 
BRANCH  49  63
ATOM     63  C   UNL A   1      47.073  27.604  26.007  1.00  0.00     0.064 A 
ATOM     64  C   UNL A   1      47.197  27.697  24.616  1.00  0.00     0.173 A 
ATOM     65  C   UNL A   1      48.143  27.054  26.729  1.00  0.00     0.173 A 
ATOM     66  F   UNL A   1      46.192  28.196  23.881  1.00  0.00    -0.203 F 
ATOM     67  C   UNL A   1      48.348  27.248  23.970  1.00  0.00     0.198 A 
ATOM     68  C   UNL A   1      49.301  26.628  26.085  1.00  0.00     0.198 A 
ATOM     69  F   UNL A   1      48.072  26.944  28.065  1.00  0.00    -0.203 F 
ATOM     70  F   UNL A   1      48.436  27.317  22.635  1.00  0.00    -0.200 F 
ATOM     71  C   UNL A   1      49.401  26.723  24.706  1.00  0.00     0.200 A 
ATOM     72  F   UNL A   1      50.320  26.129  26.798  1.00  0.00    -0.200 F 
ATOM     73  F   UNL A   1      50.512  26.304  24.084  1.00  0.00    -0.200 F 
ENDBRANCH  49  63
BRANCH  50  74
ATOM     74  C   UNL A   1      38.843  30.646  30.711  1.00  0.00     0.064 A 
ATOM     75  C   UNL A   1      38.729  30.555  32.105  1.00  0.00     0.173 A 
ATOM     76  C   UNL A   1      37.758  31.178  30.000  1.00  0.00     0.173 A 
ATOM     77  F   UNL A   1      39.727  30.022  32.825  1.00  0.00    -0.203 F 
ATOM     78  C   UNL A   1      37.571  30.969  32.760  1.00  0.00     0.198 A 
ATOM     79  C   UNL A   1      36.613  31.620  30.659  1.00  0.00     0.198 A 
ATOM     80  F   UNL A   1      37.813  31.278  28.663  1.00  0.00    -0.203 F 
ATOM     81  F   UNL A   1      37.469  30.827  34.089  1.00  0.00    -0.200 F 
ATOM     82  C   UNL A   1      36.517  31.507  32.037  1.00  0.00     0.200 A 
ATOM     83  F   UNL A   1      35.601  32.149  29.957  1.00  0.00    -0.200 F 
ATOM     84  F   UNL A   1      35.404  31.907  32.668  1.00  0.00    -0.200 F 
ENDBRANCH  50  74
BRANCH  62  85
ATOM     85  C   UNL A   1      44.925  33.672  29.226  1.00  0.00     0.064 A 
ATOM     86  C   UNL A   1      45.643  33.965  30.394  1.00  0.00     0.173 A 
ATOM     87  C   UNL A   1      44.741  34.698  28.287  1.00  0.00     0.173 A 
ATOM     88  F   UNL A   1      45.830  33.018  31.325  1.00  0.00    -0.203 F 
ATOM     89  C   UNL A   1      46.139  35.244  30.624  1.00  0.00     0.198 A 
ATOM     90  C   UNL A   1      45.257  35.972  28.511  1.00  0.00     0.198 A 
ATOM     91  F   UNL A   1      44.067  34.464  27.152  1.00  0.00    -0.203 F 
ATOM     92  F   UNL A   1      46.788  35.515  31.765  1.00  0.00    -0.200 F 
ATOM     93  C   UNL A   1      45.950  36.245  29.682  1.00  0.00     0.200 A 
ATOM     94  F   UNL A   1      45.080  36.936  27.598  1.00  0.00    -0.200 F 
ATOM     95  F   UNL A   1      46.428  37.478  29.906  1.00  0.00    -0.200 F 
ENDBRANCH  62  85
ENDBRANCH  36  37
ENDBRANCH  29  31
ENDBRANCH  28  29
ENDBRANCH  27  28
ENDBRANCH  26  27
ENDBRANCH  25  26
ENDBRANCH  24  25
ENDBRANCH   1  24
TORSDOF 19
ENDMDL
