MODEL 1
REMARK VINA RESULT:     -10.3      0.000      0.000
REMARK SMILES CC(C)(C)OC(=O)N1CC(Cc2ccc(C(=O)OCCOCCOCCOC(=O)c3ccc(-c4c5nc(c(-c6c(F)c(F)c(F)c(F)c6F)c6ccc([nH]6)c(-c6c(F)c(F)c(F)c(F)c6F)c6nc(c(-c7c(F)c(F)c(F)c(F)c7F)c7ccc4[nH]7)C=C6)C=C5)cc3)cc2)C1
REMARK SMILES IDX 22 1 21 2 20 3 19 4 18 5 16 6 17 7 15 8 12 9 13 10 94 11
REMARK SMILES IDX 14 12 93 13 11 14 10 15 6 16 7 17 8 18 9 19 95 20 5 21 2 22
REMARK SMILES IDX 1 23 3 24 4 25 23 26 24 27 25 28 26 29 27 30 28 31 29 32
REMARK SMILES IDX 30 33 31 34 92 35 32 36 91 37 33 38 34 39 35 40 85 41 36 42
REMARK SMILES IDX 90 43 84 44 86 45 37 46 89 47 83 48 82 49 38 51 70 52 50 53
REMARK SMILES IDX 69 54 51 55 54 56 68 57 87 58 52 59 53 60 67 62 88 63 55 64
REMARK SMILES IDX 39 65 40 66 48 67 41 68 42 69 46 70 49 71 43 72 44 73 47 74
REMARK SMILES IDX 45 75 71 76 72 77 80 78 73 79 74 80 78 81 81 82 75 83 76 84
REMARK SMILES IDX 79 85 77 86 56 87 57 88 65 89 58 90 59 91 63 92 66 93 60 94
REMARK SMILES IDX 61 95 64 96 62 97
REMARK H PARENT 86 50 54 61
REMARK Flexibility Score: inf
ROOT
ATOM      1  C   UNL A   1      42.644  18.865  27.001  1.00  0.00     0.188 C 
ENDROOT
BRANCH   1   2
ATOM      2  O   UNL A   1      41.637  19.801  27.348  1.00  0.00    -0.376 OA
BRANCH   2   3
ATOM      3  C   UNL A   1      40.557  20.046  26.459  1.00  0.00     0.202 C 
BRANCH   3   4
ATOM      4  C   UNL A   1      40.100  21.485  26.246  1.00  0.00     0.261 C 
BRANCH   4   5
ATOM      5  O   UNL A   1      38.671  21.592  26.184  1.00  0.00    -0.460 OA
BRANCH   5   6
ATOM      6  C   UNL A   1      38.201  22.861  26.080  1.00  0.00     0.338 C 
ATOM      7  O   UNL A   1      38.757  23.877  26.435  1.00  0.00    -0.246 OA
BRANCH   6   8
ATOM      8  C   UNL A   1      36.925  22.871  25.328  1.00  0.00     0.060 A 
ATOM      9  C   UNL A   1      34.611  23.070  23.768  1.00  0.00    -0.048 A 
ATOM     10  C   UNL A   1      35.853  22.866  23.156  1.00  0.00     0.004 A 
ATOM     11  C   UNL A   1      34.528  23.096  25.170  1.00  0.00     0.004 A 
ATOM     12  C   UNL A   1      37.005  22.770  23.933  1.00  0.00     0.016 A 
ATOM     13  C   UNL A   1      35.682  23.004  25.951  1.00  0.00     0.016 A 
BRANCH   9  14
ATOM     14  C   UNL A   1      33.393  23.359  22.925  1.00  0.00     0.042 C 
BRANCH  14  15
ATOM     15  C   UNL A   1      32.668  24.559  23.518  1.00  0.00     0.033 C 
ATOM     16  C   UNL A   1      31.088  27.390  23.631  1.00  0.00     0.410 C 
ATOM     17  O   UNL A   1      29.889  27.317  23.877  1.00  0.00    -0.224 OA
ATOM     18  N   UNL A   1      31.800  26.349  23.122  1.00  0.00    -0.307 N 
ATOM     19  C   UNL A   1      31.373  24.999  22.808  1.00  0.00     0.128 C 
ATOM     20  C   UNL A   1      33.201  25.990  23.223  1.00  0.00     0.128 C 
BRANCH  16  21
ATOM     21  O   UNL A   1      31.862  28.491  23.809  1.00  0.00    -0.444 OA
BRANCH  21  22
ATOM     22  C   UNL A   1      32.254  28.919  25.142  1.00  0.00     0.106 C 
ATOM     23  C   UNL A   1      31.426  30.184  25.418  1.00  0.00     0.056 C 
ATOM     24  C   UNL A   1      33.740  29.282  25.141  1.00  0.00     0.056 C 
ATOM     25  C   UNL A   1      31.924  27.894  26.239  1.00  0.00     0.056 C 
ENDBRANCH  21  22
ENDBRANCH  16  21
ENDBRANCH  14  15
ENDBRANCH   9  14
ENDBRANCH   6   8
ENDBRANCH   5   6
ENDBRANCH   4   5
ENDBRANCH   3   4
ENDBRANCH   2   3
ENDBRANCH   1   2
BRANCH   1  26
ATOM     26  C   UNL A   1      43.029  18.611  25.528  1.00  0.00     0.188 C 
BRANCH  26  27
ATOM     27  O   UNL A   1      43.472  19.660  24.686  1.00  0.00    -0.376 OA
BRANCH  27  28
ATOM     28  C   UNL A   1      44.609  20.429  25.048  1.00  0.00     0.202 C 
BRANCH  28  29
ATOM     29  C   UNL A   1      44.439  21.581  26.036  1.00  0.00     0.261 C 
BRANCH  29  30
ATOM     30  O   UNL A   1      43.422  22.511  25.638  1.00  0.00    -0.460 OA
BRANCH  30  31
ATOM     31  C   UNL A   1      43.863  23.759  25.355  1.00  0.00     0.338 C 
ATOM     32  O   UNL A   1      44.310  24.175  24.302  1.00  0.00    -0.246 OA
BRANCH  31  33
ATOM     33  C   UNL A   1      43.586  24.633  26.505  1.00  0.00     0.060 A 
ATOM     34  C   UNL A   1      42.503  24.319  27.336  1.00  0.00     0.016 A 
ATOM     35  C   UNL A   1      44.356  25.775  26.730  1.00  0.00     0.016 A 
ATOM     36  C   UNL A   1      42.178  25.160  28.398  1.00  0.00     0.010 A 
ATOM     37  C   UNL A   1      44.014  26.628  27.780  1.00  0.00     0.010 A 
ATOM     38  C   UNL A   1      42.915  26.333  28.607  1.00  0.00    -0.014 A 
BRANCH  38  39
ATOM     39  C   UNL A   1      42.482  27.322  29.621  1.00  0.00     0.031 A 
ATOM     40  C   UNL A   1      43.181  27.356  30.949  1.00  0.00     0.074 A 
ATOM     41  C   UNL A   1      41.448  28.144  29.373  1.00  0.00     0.049 A 
ATOM     42  N   UNL A   1      42.885  28.041  32.024  1.00  0.00    -0.248 NA
ATOM     43  C   UNL A   1      44.371  26.501  31.085  1.00  0.00     0.031 C 
ATOM     44  C   UNL A   1      40.711  28.219  28.113  1.00  0.00     0.029 A 
ATOM     45  N   UNL A   1      40.817  29.051  30.188  1.00  0.00    -0.354 N 
ATOM     46  C   UNL A   1      43.840  27.688  32.967  1.00  0.00     0.074 A 
ATOM     47  C   UNL A   1      44.722  26.726  32.344  1.00  0.00     0.031 C 
ATOM     48  C   UNL A   1      39.703  29.096  28.251  1.00  0.00     0.029 A 
ATOM     49  C   UNL A   1      39.703  29.613  29.619  1.00  0.00     0.049 A 
ATOM     50  H   UNL A   1      41.134  29.276  31.093  1.00  0.00     0.167 HD
ATOM     51  C   UNL A   1      43.962  28.128  34.241  1.00  0.00     0.037 A 
ATOM     52  C   UNL A   1      38.765  30.418  30.157  1.00  0.00     0.037 A 
ATOM     53  C   UNL A   1      43.085  29.087  34.857  1.00  0.00     0.049 A 
ATOM     54  C   UNL A   1      38.892  30.839  31.600  1.00  0.00     0.074 A 
ATOM     55  C   UNL A   1      43.162  29.634  36.126  1.00  0.00     0.029 A 
ATOM     56  N   UNL A   1      41.962  29.630  34.253  1.00  0.00    -0.354 N 
ATOM     57  N   UNL A   1      39.823  30.542  32.472  1.00  0.00    -0.248 NA
ATOM     58  C   UNL A   1      37.829  31.705  32.134  1.00  0.00     0.031 C 
ATOM     59  C   UNL A   1      42.056  30.469  36.308  1.00  0.00     0.029 A 
ATOM     60  C   UNL A   1      41.317  30.479  35.137  1.00  0.00     0.049 A 
ATOM     61  H   UNL A   1      41.668  29.441  33.333  1.00  0.00     0.167 HD
ATOM     62  C   UNL A   1      39.473  31.197  33.646  1.00  0.00     0.074 A 
ATOM     63  C   UNL A   1      38.252  31.923  33.371  1.00  0.00     0.031 C 
ATOM     64  C   UNL A   1      40.104  31.197  34.844  1.00  0.00     0.037 A 
BRANCH  51  65
ATOM     65  C   UNL A   1      45.069  27.556  35.073  1.00  0.00     0.064 A 
ATOM     66  C   UNL A   1      46.346  28.133  35.095  1.00  0.00     0.173 A 
ATOM     67  C   UNL A   1      44.825  26.458  35.911  1.00  0.00     0.173 A 
ATOM     68  F   UNL A   1      46.629  29.177  34.300  1.00  0.00    -0.203 F 
ATOM     69  C   UNL A   1      47.345  27.625  35.922  1.00  0.00     0.198 A 
ATOM     70  C   UNL A   1      45.820  25.966  36.752  1.00  0.00     0.198 A 
ATOM     71  F   UNL A   1      43.619  25.874  35.927  1.00  0.00    -0.203 F 
ATOM     72  F   UNL A   1      48.566  28.176  35.910  1.00  0.00    -0.200 F 
ATOM     73  C   UNL A   1      47.078  26.549  36.755  1.00  0.00     0.200 A 
ATOM     74  F   UNL A   1      45.557  24.932  37.564  1.00  0.00    -0.200 F 
ATOM     75  F   UNL A   1      48.036  26.071  37.562  1.00  0.00    -0.200 F 
ENDBRANCH  51  65
BRANCH  52  76
ATOM     76  C   UNL A   1      37.591  30.842  29.352  1.00  0.00     0.064 A 
ATOM     77  C   UNL A   1      37.492  32.145  28.846  1.00  0.00     0.173 A 
ATOM     78  C   UNL A   1      36.521  29.966  29.116  1.00  0.00     0.173 A 
ATOM     79  F   UNL A   1      38.475  33.027  29.073  1.00  0.00    -0.203 F 
ATOM     80  C   UNL A   1      36.354  32.564  28.160  1.00  0.00     0.198 A 
ATOM     81  C   UNL A   1      35.397  30.377  28.405  1.00  0.00     0.198 A 
ATOM     82  F   UNL A   1      36.565  28.710  29.585  1.00  0.00    -0.203 F 
ATOM     83  F   UNL A   1      36.257  33.833  27.741  1.00  0.00    -0.200 F 
ATOM     84  C   UNL A   1      35.309  31.680  27.936  1.00  0.00     0.200 A 
ATOM     85  F   UNL A   1      34.393  29.517  28.186  1.00  0.00    -0.200 F 
ATOM     86  F   UNL A   1      34.211  32.086  27.284  1.00  0.00    -0.200 F 
ENDBRANCH  52  76
BRANCH  64  87
ATOM     87  C   UNL A   1      39.503  32.025  35.942  1.00  0.00     0.064 A 
ATOM     88  C   UNL A   1      39.833  33.379  36.104  1.00  0.00     0.173 A 
ATOM     89  C   UNL A   1      38.548  31.472  36.809  1.00  0.00     0.173 A 
ATOM     90  F   UNL A   1      40.751  33.949  35.311  1.00  0.00    -0.203 F 
ATOM     91  C   UNL A   1      39.243  34.143  37.108  1.00  0.00     0.198 A 
ATOM     92  C   UNL A   1      37.940  32.246  37.793  1.00  0.00     0.198 A 
ATOM     93  F   UNL A   1      38.194  30.183  36.690  1.00  0.00    -0.203 F 
ATOM     94  F   UNL A   1      39.602  35.423  37.271  1.00  0.00    -0.200 F 
ATOM     95  C   UNL A   1      38.292  33.578  37.945  1.00  0.00     0.200 A 
ATOM     96  F   UNL A   1      37.012  31.702  38.593  1.00  0.00    -0.200 F 
ATOM     97  F   UNL A   1      37.718  34.318  38.905  1.00  0.00    -0.200 F 
ENDBRANCH  64  87
ENDBRANCH  38  39
ENDBRANCH  31  33
ENDBRANCH  30  31
ENDBRANCH  29  30
ENDBRANCH  28  29
ENDBRANCH  27  28
ENDBRANCH  26  27
ENDBRANCH   1  26
TORSDOF 21
ENDMDL
MODEL 2
REMARK VINA RESULT:     -10.3      4.920     12.010
REMARK SMILES CC(C)(C)OC(=O)N1CC(Cc2ccc(C(=O)OCCOCCOCCOC(=O)c3ccc(-c4c5nc(c(-c6c(F)c(F)c(F)c(F)c6F)c6ccc([nH]6)c(-c6c(F)c(F)c(F)c(F)c6F)c6nc(c(-c7c(F)c(F)c(F)c(F)c7F)c7ccc4[nH]7)C=C6)C=C5)cc3)cc2)C1
REMARK SMILES IDX 22 1 21 2 20 3 19 4 18 5 16 6 17 7 15 8 12 9 13 10 94 11
REMARK SMILES IDX 14 12 93 13 11 14 10 15 6 16 7 17 8 18 9 19 95 20 5 21 2 22
REMARK SMILES IDX 1 23 3 24 4 25 23 26 24 27 25 28 26 29 27 30 28 31 29 32
REMARK SMILES IDX 30 33 31 34 92 35 32 36 91 37 33 38 34 39 35 40 85 41 36 42
REMARK SMILES IDX 90 43 84 44 86 45 37 46 89 47 83 48 82 49 38 51 70 52 50 53
REMARK SMILES IDX 69 54 51 55 54 56 68 57 87 58 52 59 53 60 67 62 88 63 55 64
REMARK SMILES IDX 39 65 40 66 48 67 41 68 42 69 46 70 49 71 43 72 44 73 47 74
REMARK SMILES IDX 45 75 71 76 72 77 80 78 73 79 74 80 78 81 81 82 75 83 76 84
REMARK SMILES IDX 79 85 77 86 56 87 57 88 65 89 58 90 59 91 63 92 66 93 60 94
REMARK SMILES IDX 61 95 64 96 62 97
REMARK H PARENT 86 50 54 61
REMARK Flexibility Score: inf
ROOT
ATOM      1  C   UNL A   1      33.898  35.378  31.574  1.00  0.00     0.188 C 
ENDROOT
BRANCH   1   2
ATOM      2  O   UNL A   1      33.227  34.716  32.633  1.00  0.00    -0.376 OA
BRANCH   2   3
ATOM      3  C   UNL A   1      33.748  33.502  33.156  1.00  0.00     0.202 C 
BRANCH   3   4
ATOM      4  C   UNL A   1      34.731  32.705  32.306  1.00  0.00     0.261 C 
BRANCH   4   5
ATOM      5  O   UNL A   1      35.978  32.492  32.982  1.00  0.00    -0.460 OA
BRANCH   5   6
ATOM      6  C   UNL A   1      37.075  32.563  32.186  1.00  0.00     0.338 C 
ATOM      7  O   UNL A   1      37.152  33.084  31.095  1.00  0.00    -0.246 OA
BRANCH   6   8
ATOM      8  C   UNL A   1      38.255  32.016  32.895  1.00  0.00     0.060 A 
ATOM      9  C   UNL A   1      40.326  30.871  34.387  1.00  0.00    -0.048 A 
ATOM     10  C   UNL A   1      39.318  30.062  33.852  1.00  0.00     0.004 A 
ATOM     11  C   UNL A   1      40.330  32.247  34.104  1.00  0.00     0.004 A 
ATOM     12  C   UNL A   1      38.285  30.633  33.111  1.00  0.00     0.016 A 
ATOM     13  C   UNL A   1      39.294  32.823  33.365  1.00  0.00     0.016 A 
BRANCH   9  14
ATOM     14  C   UNL A   1      41.338  30.285  35.341  1.00  0.00     0.042 C 
BRANCH  14  15
ATOM     15  C   UNL A   1      41.360  28.774  35.155  1.00  0.00     0.033 C 
ATOM     16  C   UNL A   1      42.522  25.746  35.110  1.00  0.00     0.410 C 
ATOM     17  O   UNL A   1      42.129  25.015  36.013  1.00  0.00    -0.224 OA
ATOM     18  N   UNL A   1      42.508  27.103  35.202  1.00  0.00    -0.307 N 
ATOM     19  C   UNL A   1      42.030  27.954  36.274  1.00  0.00     0.128 C 
ATOM     20  C   UNL A   1      42.409  28.143  34.197  1.00  0.00     0.128 C 
BRANCH  16  21
ATOM     21  O   UNL A   1      43.029  25.326  33.923  1.00  0.00    -0.444 OA
BRANCH  21  22
ATOM     22  C   UNL A   1      44.447  25.044  33.775  1.00  0.00     0.106 C 
ATOM     23  C   UNL A   1      44.536  23.523  33.576  1.00  0.00     0.056 C 
ATOM     24  C   UNL A   1      45.177  25.425  35.065  1.00  0.00     0.056 C 
ATOM     25  C   UNL A   1      45.083  25.716  32.548  1.00  0.00     0.056 C 
ENDBRANCH  21  22
ENDBRANCH  16  21
ENDBRANCH  14  15
ENDBRANCH   9  14
ENDBRANCH   6   8
ENDBRANCH   5   6
ENDBRANCH   4   5
ENDBRANCH   3   4
ENDBRANCH   2   3
ENDBRANCH   1   2
BRANCH   1  26
ATOM     26  C   UNL A   1      33.291  35.442  30.157  1.00  0.00     0.188 C 
BRANCH  26  27
ATOM     27  O   UNL A   1      32.910  34.269  29.461  1.00  0.00    -0.376 OA
BRANCH  27  28
ATOM     28  C   UNL A   1      33.446  34.001  28.174  1.00  0.00     0.202 C 
BRANCH  28  29
ATOM     29  C   UNL A   1      34.647  33.066  28.052  1.00  0.00     0.261 C 
BRANCH  29  30
ATOM     30  O   UNL A   1      34.492  31.859  28.812  1.00  0.00    -0.460 OA
BRANCH  30  31
ATOM     31  C   UNL A   1      34.603  30.713  28.100  1.00  0.00     0.338 C 
ATOM     32  O   UNL A   1      33.800  30.236  27.318  1.00  0.00    -0.246 OA
BRANCH  31  33
ATOM     33  C   UNL A   1      35.950  30.159  28.296  1.00  0.00     0.060 A 
ATOM     34  C   UNL A   1      36.295  29.678  29.566  1.00  0.00     0.016 A 
ATOM     35  C   UNL A   1      36.877  30.160  27.253  1.00  0.00     0.016 A 
ATOM     36  C   UNL A   1      37.583  29.203  29.800  1.00  0.00     0.010 A 
ATOM     37  C   UNL A   1      38.174  29.704  27.498  1.00  0.00     0.010 A 
ATOM     38  C   UNL A   1      38.537  29.240  28.775  1.00  0.00    -0.014 A 
BRANCH  38  39
ATOM     39  C   UNL A   1      39.951  28.899  29.049  1.00  0.00     0.031 A 
ATOM     40  C   UNL A   1      40.846  29.940  29.656  1.00  0.00     0.074 A 
ATOM     41  C   UNL A   1      40.438  27.692  28.715  1.00  0.00     0.049 A 
ATOM     42  N   UNL A   1      42.138  29.907  29.858  1.00  0.00    -0.248 NA
ATOM     43  C   UNL A   1      40.198  31.188  30.091  1.00  0.00     0.031 C 
ATOM     44  C   UNL A   1      39.659  26.594  28.146  1.00  0.00     0.029 A 
ATOM     45  N   UNL A   1      41.718  27.201  28.778  1.00  0.00    -0.354 N 
ATOM     46  C   UNL A   1      42.460  31.131  30.427  1.00  0.00     0.074 A 
ATOM     47  C   UNL A   1      41.233  31.888  30.535  1.00  0.00     0.031 C 
ATOM     48  C   UNL A   1      40.485  25.570  27.874  1.00  0.00     0.029 A 
ATOM     49  C   UNL A   1      41.853  25.956  28.217  1.00  0.00     0.049 A 
ATOM     50  H   UNL A   1      42.467  27.694  29.187  1.00  0.00     0.167 HD
ATOM     51  C   UNL A   1      43.676  31.580  30.818  1.00  0.00     0.037 A 
ATOM     52  C   UNL A   1      42.962  25.232  27.967  1.00  0.00     0.037 A 
ATOM     53  C   UNL A   1      44.894  30.823  30.712  1.00  0.00     0.049 A 
ATOM     54  C   UNL A   1      44.310  25.786  28.355  1.00  0.00     0.074 A 
ATOM     55  C   UNL A   1      46.165  31.174  31.132  1.00  0.00     0.029 A 
ATOM     56  N   UNL A   1      44.994  29.569  30.131  1.00  0.00    -0.354 N 
ATOM     57  N   UNL A   1      44.604  26.923  28.937  1.00  0.00    -0.248 NA
ATOM     58  C   UNL A   1      45.484  24.956  28.042  1.00  0.00     0.031 C 
ATOM     59  C   UNL A   1      47.044  30.153  30.758  1.00  0.00     0.029 A 
ATOM     60  C   UNL A   1      46.313  29.146  30.149  1.00  0.00     0.049 A 
ATOM     61  H   UNL A   1      44.240  29.054  29.762  1.00  0.00     0.167 HD
ATOM     62  C   UNL A   1      45.985  26.935  29.080  1.00  0.00     0.074 A 
ATOM     63  C   UNL A   1      46.473  25.686  28.538  1.00  0.00     0.031 C 
ATOM     64  C   UNL A   1      46.780  27.896  29.610  1.00  0.00     0.037 A 
BRANCH  51  65
ATOM     65  C   UNL A   1      43.761  32.968  31.374  1.00  0.00     0.064 A 
ATOM     66  C   UNL A   1      43.871  34.089  30.540  1.00  0.00     0.173 A 
ATOM     67  C   UNL A   1      43.660  33.181  32.756  1.00  0.00     0.173 A 
ATOM     68  F   UNL A   1      43.983  33.934  29.211  1.00  0.00    -0.203 F 
ATOM     69  C   UNL A   1      43.885  35.376  31.072  1.00  0.00     0.198 A 
ATOM     70  C   UNL A   1      43.655  34.469  33.283  1.00  0.00     0.198 A 
ATOM     71  F   UNL A   1      43.551  32.140  33.595  1.00  0.00    -0.203 F 
ATOM     72  F   UNL A   1      44.016  36.434  30.259  1.00  0.00    -0.200 F 
ATOM     73  C   UNL A   1      43.769  35.564  32.441  1.00  0.00     0.200 A 
ATOM     74  F   UNL A   1      43.532  34.650  34.606  1.00  0.00    -0.200 F 
ATOM     75  F   UNL A   1      43.768  36.805  32.950  1.00  0.00    -0.200 F 
ENDBRANCH  51  65
BRANCH  52  76
ATOM     76  C   UNL A   1      42.861  23.924  27.270  1.00  0.00     0.064 A 
ATOM     77  C   UNL A   1      42.514  22.757  27.963  1.00  0.00     0.173 A 
ATOM     78  C   UNL A   1      43.159  23.808  25.903  1.00  0.00     0.173 A 
ATOM     79  F   UNL A   1      42.251  22.814  29.277  1.00  0.00    -0.203 F 
ATOM     80  C   UNL A   1      42.498  21.519  27.324  1.00  0.00     0.198 A 
ATOM     81  C   UNL A   1      43.114  22.575  25.259  1.00  0.00     0.198 A 
ATOM     82  F   UNL A   1      43.503  24.895  25.197  1.00  0.00    -0.203 F 
ATOM     83  F   UNL A   1      42.224  20.410  28.024  1.00  0.00    -0.200 F 
ATOM     84  C   UNL A   1      42.794  21.429  25.972  1.00  0.00     0.200 A 
ATOM     85  F   UNL A   1      43.396  22.493  23.952  1.00  0.00    -0.200 F 
ATOM     86  F   UNL A   1      42.788  20.237  25.360  1.00  0.00    -0.200 F 
ENDBRANCH  52  76
BRANCH  64  87
ATOM     87  C   UNL A   1      48.255  27.625  29.654  1.00  0.00     0.064 A 
ATOM     88  C   UNL A   1      48.845  26.956  30.737  1.00  0.00     0.173 A 
ATOM     89  C   UNL A   1      49.079  27.994  28.580  1.00  0.00     0.173 A 
ATOM     90  F   UNL A   1      48.102  26.598  31.794  1.00  0.00    -0.203 F 
ATOM     91  C   UNL A   1      50.211  26.684  30.751  1.00  0.00     0.198 A 
ATOM     92  C   UNL A   1      50.439  27.695  28.584  1.00  0.00     0.198 A 
ATOM     93  F   UNL A   1      48.561  28.629  27.518  1.00  0.00    -0.203 F 
ATOM     94  F   UNL A   1      50.761  26.080  31.812  1.00  0.00    -0.200 F 
ATOM     95  C   UNL A   1      51.004  27.046  29.671  1.00  0.00     0.200 A 
ATOM     96  F   UNL A   1      51.201  28.034  27.536  1.00  0.00    -0.200 F 
ATOM     97  F   UNL A   1      52.317  26.774  29.682  1.00  0.00    -0.200 F 
ENDBRANCH  64  87
ENDBRANCH  38  39
ENDBRANCH  31  33
ENDBRANCH  30  31
ENDBRANCH  29  30
ENDBRANCH  28  29
ENDBRANCH  27  28
ENDBRANCH  26  27
ENDBRANCH   1  26
TORSDOF 21
ENDMDL
MODEL 3
REMARK VINA RESULT:     -10.0      3.999      7.979
REMARK SMILES CC(C)(C)OC(=O)N1CC(Cc2ccc(C(=O)OCCOCCOCCOC(=O)c3ccc(-c4c5nc(c(-c6c(F)c(F)c(F)c(F)c6F)c6ccc([nH]6)c(-c6c(F)c(F)c(F)c(F)c6F)c6nc(c(-c7c(F)c(F)c(F)c(F)c7F)c7ccc4[nH]7)C=C6)C=C5)cc3)cc2)C1
REMARK SMILES IDX 22 1 21 2 20 3 19 4 18 5 16 6 17 7 15 8 12 9 13 10 94 11
REMARK SMILES IDX 14 12 93 13 11 14 10 15 6 16 7 17 8 18 9 19 95 20 5 21 2 22
REMARK SMILES IDX 1 23 3 24 4 25 23 26 24 27 25 28 26 29 27 30 28 31 29 32
REMARK SMILES IDX 30 33 31 34 92 35 32 36 91 37 33 38 34 39 35 40 85 41 36 42
REMARK SMILES IDX 90 43 84 44 86 45 37 46 89 47 83 48 82 49 38 51 70 52 50 53
REMARK SMILES IDX 69 54 51 55 54 56 68 57 87 58 52 59 53 60 67 62 88 63 55 64
REMARK SMILES IDX 39 65 40 66 48 67 41 68 42 69 46 70 49 71 43 72 44 73 47 74
REMARK SMILES IDX 45 75 71 76 72 77 80 78 73 79 74 80 78 81 81 82 75 83 76 84
REMARK SMILES IDX 79 85 77 86 56 87 57 88 65 89 58 90 59 91 63 92 66 93 60 94
REMARK SMILES IDX 61 95 64 96 62 97
REMARK H PARENT 86 50 54 61
REMARK Flexibility Score: inf
ROOT
ATOM      1  C   UNL A   1      44.266  19.557  24.929  1.00  0.00     0.188 C 
ENDROOT
BRANCH   1   2
ATOM      2  O   UNL A   1      42.909  19.207  25.143  1.00  0.00    -0.376 OA
BRANCH   2   3
ATOM      3  C   UNL A   1      42.254  19.599  26.340  1.00  0.00     0.202 C 
BRANCH   3   4
ATOM      4  C   UNL A   1      40.780  19.987  26.271  1.00  0.00     0.261 C 
BRANCH   4   5
ATOM      5  O   UNL A   1      40.472  21.086  27.139  1.00  0.00    -0.460 OA
BRANCH   5   6
ATOM      6  C   UNL A   1      39.578  21.974  26.635  1.00  0.00     0.338 C 
ATOM      7  O   UNL A   1      38.566  21.721  26.019  1.00  0.00    -0.246 OA
BRANCH   6   8
ATOM      8  C   UNL A   1      39.932  23.349  27.058  1.00  0.00     0.060 A 
ATOM      9  C   UNL A   1      40.633  25.855  28.083  1.00  0.00    -0.048 A 
ATOM     10  C   UNL A   1      41.480  24.759  28.273  1.00  0.00     0.004 A 
ATOM     11  C   UNL A   1      39.469  25.703  27.311  1.00  0.00     0.004 A 
ATOM     12  C   UNL A   1      41.130  23.510  27.764  1.00  0.00     0.016 A 
ATOM     13  C   UNL A   1      39.113  24.452  26.803  1.00  0.00     0.016 A 
BRANCH   9  14
ATOM     14  C   UNL A   1      40.916  27.160  28.789  1.00  0.00     0.042 C 
BRANCH  14  15
ATOM     15  C   UNL A   1      39.771  27.450  29.749  1.00  0.00     0.033 C 
ATOM     16  C   UNL A   1      37.686  29.168  31.543  1.00  0.00     0.410 C 
ATOM     17  O   UNL A   1      36.534  29.206  31.125  1.00  0.00    -0.224 OA
ATOM     18  N   UNL A   1      38.751  28.893  30.745  1.00  0.00    -0.307 N 
ATOM     19  C   UNL A   1      38.791  28.562  29.333  1.00  0.00     0.128 C 
ATOM     20  C   UNL A   1      40.045  28.299  31.022  1.00  0.00     0.128 C 
BRANCH  16  21
ATOM     21  O   UNL A   1      38.064  29.402  32.826  1.00  0.00    -0.444 OA
BRANCH  21  22
ATOM     22  C   UNL A   1      38.220  30.760  33.322  1.00  0.00     0.106 C 
ATOM     23  C   UNL A   1      38.612  30.605  34.800  1.00  0.00     0.056 C 
ATOM     24  C   UNL A   1      36.878  31.489  33.232  1.00  0.00     0.056 C 
ATOM     25  C   UNL A   1      39.337  31.547  32.620  1.00  0.00     0.056 C 
ENDBRANCH  21  22
ENDBRANCH  16  21
ENDBRANCH  14  15
ENDBRANCH   9  14
ENDBRANCH   6   8
ENDBRANCH   5   6
ENDBRANCH   4   5
ENDBRANCH   3   4
ENDBRANCH   2   3
ENDBRANCH   1   2
BRANCH   1  26
ATOM     26  C   UNL A   1      44.760  21.007  25.124  1.00  0.00     0.188 C 
BRANCH  26  27
ATOM     27  O   UNL A   1      46.025  21.429  24.647  1.00  0.00    -0.376 OA
BRANCH  27  28
ATOM     28  C   UNL A   1      46.220  22.777  24.249  1.00  0.00     0.202 C 
BRANCH  28  29
ATOM     29  C   UNL A   1      45.821  23.898  25.208  1.00  0.00     0.261 C 
BRANCH  29  30
ATOM     30  O   UNL A   1      45.704  25.171  24.558  1.00  0.00    -0.460 OA
BRANCH  30  31
ATOM     31  C   UNL A   1      46.636  26.085  24.913  1.00  0.00     0.338 C 
ATOM     32  O   UNL A   1      47.756  26.231  24.455  1.00  0.00    -0.246 OA
BRANCH  31  33
ATOM     33  C   UNL A   1      46.042  27.021  25.878  1.00  0.00     0.060 A 
ATOM     34  C   UNL A   1      46.888  27.664  26.791  1.00  0.00     0.016 A 
ATOM     35  C   UNL A   1      44.662  27.224  25.914  1.00  0.00     0.016 A 
ATOM     36  C   UNL A   1      46.348  28.511  27.758  1.00  0.00     0.010 A 
ATOM     37  C   UNL A   1      44.123  28.054  26.897  1.00  0.00     0.010 A 
ATOM     38  C   UNL A   1      44.961  28.687  27.833  1.00  0.00    -0.014 A 
BRANCH  38  39
ATOM     39  C   UNL A   1      44.358  29.444  28.953  1.00  0.00     0.031 A 
ATOM     40  C   UNL A   1      44.190  30.930  28.821  1.00  0.00     0.074 A 
ATOM     41  C   UNL A   1      44.012  28.818  30.091  1.00  0.00     0.049 A 
ATOM     42  N   UNL A   1      43.814  31.805  29.718  1.00  0.00    -0.248 NA
ATOM     43  C   UNL A   1      44.491  31.508  27.501  1.00  0.00     0.031 C 
ATOM     44  C   UNL A   1      44.104  27.377  30.324  1.00  0.00     0.029 A 
ATOM     45  N   UNL A   1      43.542  29.324  31.278  1.00  0.00    -0.354 N 
ATOM     46  C   UNL A   1      43.848  33.035  29.077  1.00  0.00     0.074 A 
ATOM     47  C   UNL A   1      44.285  32.799  27.719  1.00  0.00     0.031 C 
ATOM     48  C   UNL A   1      43.740  27.119  31.592  1.00  0.00     0.029 A 
ATOM     49  C   UNL A   1      43.427  28.378  32.266  1.00  0.00     0.049 A 
ATOM     50  H   UNL A   1      43.310  30.272  31.407  1.00  0.00     0.167 HD
ATOM     51  C   UNL A   1      43.544  34.253  29.584  1.00  0.00     0.037 A 
ATOM     52  C   UNL A   1      43.144  28.522  33.576  1.00  0.00     0.037 A 
ATOM     53  C   UNL A   1      43.105  34.484  30.934  1.00  0.00     0.049 A 
ATOM     54  C   UNL A   1      42.874  29.899  34.127  1.00  0.00     0.074 A 
ATOM     55  C   UNL A   1      42.722  35.677  31.523  1.00  0.00     0.029 A 
ATOM     56  N   UNL A   1      43.007  33.505  31.910  1.00  0.00    -0.354 N 
ATOM     57  N   UNL A   1      42.859  31.053  33.507  1.00  0.00    -0.248 NA
ATOM     58  C   UNL A   1      42.588  29.993  35.567  1.00  0.00     0.031 C 
ATOM     59  C   UNL A   1      42.442  35.427  32.870  1.00  0.00     0.029 A 
ATOM     60  C   UNL A   1      42.603  34.072  33.107  1.00  0.00     0.049 A 
ATOM     61  H   UNL A   1      43.195  32.548  31.771  1.00  0.00     0.167 HD
ATOM     62  C   UNL A   1      42.543  32.003  34.470  1.00  0.00     0.074 A 
ATOM     63  C   UNL A   1      42.357  31.290  35.715  1.00  0.00     0.031 C 
ATOM     64  C   UNL A   1      42.419  33.346  34.336  1.00  0.00     0.037 A 
BRANCH  51  65
ATOM     65  C   UNL A   1      43.700  35.441  28.686  1.00  0.00     0.064 A 
ATOM     66  C   UNL A   1      42.610  35.992  27.998  1.00  0.00     0.173 A 
ATOM     67  C   UNL A   1      44.945  36.077  28.570  1.00  0.00     0.173 A 
ATOM     68  F   UNL A   1      41.403  35.410  28.068  1.00  0.00    -0.203 F 
ATOM     69  C   UNL A   1      42.763  37.135  27.216  1.00  0.00     0.198 A 
ATOM     70  C   UNL A   1      45.089  37.231  27.805  1.00  0.00     0.198 A 
ATOM     71  F   UNL A   1      46.016  35.589  29.211  1.00  0.00    -0.203 F 
ATOM     72  F   UNL A   1      41.714  37.631  26.546  1.00  0.00    -0.200 F 
ATOM     73  C   UNL A   1      43.999  37.757  27.128  1.00  0.00     0.200 A 
ATOM     74  F   UNL A   1      46.282  37.838  27.728  1.00  0.00    -0.200 F 
ATOM     75  F   UNL A   1      44.141  38.866  26.388  1.00  0.00    -0.200 F 
ENDBRANCH  51  65
BRANCH  52  76
ATOM     76  C   UNL A   1      43.151  27.341  34.477  1.00  0.00     0.064 A 
ATOM     77  C   UNL A   1      44.341  26.874  35.050  1.00  0.00     0.173 A 
ATOM     78  C   UNL A   1      41.973  26.627  34.742  1.00  0.00     0.173 A 
ATOM     79  F   UNL A   1      45.497  27.506  34.801  1.00  0.00    -0.203 F 
ATOM     80  C   UNL A   1      44.358  25.719  35.831  1.00  0.00     0.198 A 
ATOM     81  C   UNL A   1      41.986  25.490  35.545  1.00  0.00     0.198 A 
ATOM     82  F   UNL A   1      40.809  27.030  34.211  1.00  0.00    -0.203 F 
ATOM     83  F   UNL A   1      45.519  25.259  36.316  1.00  0.00    -0.200 F 
ATOM     84  C   UNL A   1      43.180  25.030  36.081  1.00  0.00     0.200 A 
ATOM     85  F   UNL A   1      40.845  24.831  35.789  1.00  0.00    -0.200 F 
ATOM     86  F   UNL A   1      43.198  23.915  36.823  1.00  0.00    -0.200 F 
ENDBRANCH  52  76
BRANCH  64  87
ATOM     87  C   UNL A   1      42.041  34.130  35.559  1.00  0.00     0.064 A 
ATOM     88  C   UNL A   1      43.010  34.756  36.356  1.00  0.00     0.173 A 
ATOM     89  C   UNL A   1      40.692  34.298  35.908  1.00  0.00     0.173 A 
ATOM     90  F   UNL A   1      44.313  34.612  36.072  1.00  0.00    -0.203 F 
ATOM     91  C   UNL A   1      42.643  35.506  37.470  1.00  0.00     0.198 A 
ATOM     92  C   UNL A   1      40.327  35.072  37.006  1.00  0.00     0.198 A 
ATOM     93  F   UNL A   1      39.728  33.725  35.172  1.00  0.00    -0.203 F 
ATOM     94  F   UNL A   1      43.587  36.063  38.241  1.00  0.00    -0.200 F 
ATOM     95  C   UNL A   1      41.302  35.670  37.789  1.00  0.00     0.200 A 
ATOM     96  F   UNL A   1      39.032  35.240  37.304  1.00  0.00    -0.200 F 
ATOM     97  F   UNL A   1      40.951  36.401  38.856  1.00  0.00    -0.200 F 
ENDBRANCH  64  87
ENDBRANCH  38  39
ENDBRANCH  31  33
ENDBRANCH  30  31
ENDBRANCH  29  30
ENDBRANCH  28  29
ENDBRANCH  27  28
ENDBRANCH  26  27
ENDBRANCH   1  26
TORSDOF 21
ENDMDL
