MODEL 1
REMARK VINA RESULT:     -11.2      0.000      0.000
REMARK SMILES CC(C)(C)OC(=O)N1CCC[C@]1(Cc1ccccc1)C(=O)OCCOCCOCCOC(=O)c1ccc(-c2c3nc(c(-c4c(F)c(F)c(F)c(F)c4F)c4ccc([nH]4)c(-c4c(F)c(F)c(F)c(F)c4F)c4nc(c(-c5c(F)c(F)c(F)c(F)c5F)c5ccc2[nH]5)C=C4)C=C3)cc1
REMARK SMILES IDX 26 1 25 2 24 3 23 4 22 5 20 6 21 7 12 8 8 9 9 10 10 11 11 12
REMARK SMILES IDX 6 13 7 14 5 15 2 16 1 17 3 18 4 19 13 20 14 21 15 22 19 23
REMARK SMILES IDX 16 24 18 25 17 26 27 27 28 28 29 29 30 30 31 31 32 32 33 33
REMARK SMILES IDX 34 34 35 35 96 36 36 37 95 38 37 39 38 40 39 41 89 42 40 43
REMARK SMILES IDX 94 44 88 45 90 46 41 47 93 48 87 49 86 50 42 52 74 53 54 54
REMARK SMILES IDX 73 55 55 56 58 57 72 58 91 59 56 60 57 61 71 63 92 64 59 65
REMARK SMILES IDX 43 66 44 67 52 68 45 69 46 70 50 71 53 72 47 73 48 74 51 75
REMARK SMILES IDX 49 76 75 77 76 78 84 79 77 80 78 81 82 82 85 83 79 84 80 85
REMARK SMILES IDX 83 86 81 87 60 88 61 89 69 90 62 91 63 92 67 93 70 94 64 95
REMARK SMILES IDX 65 96 68 97 66 98
REMARK H PARENT 90 51 58 62
REMARK Flexibility Score: inf
ROOT
ATOM      1  C   UNL A   1      29.121  27.187  23.505  1.00  0.00     0.188 C 
ENDROOT
BRANCH   1   2
ATOM      2  O   UNL A   1      29.937  26.048  23.656  1.00  0.00    -0.376 OA
BRANCH   2   3
ATOM      3  C   UNL A   1      31.019  25.882  22.757  1.00  0.00     0.202 C 
BRANCH   3   4
ATOM      4  C   UNL A   1      32.232  24.995  23.096  1.00  0.00     0.261 C 
BRANCH   4   5
ATOM      5  O   UNL A   1      32.723  25.030  24.460  1.00  0.00    -0.461 OA
BRANCH   5   6
ATOM      6  C   UNL A   1      32.514  23.891  25.181  1.00  0.00     0.332 C 
ATOM      7  O   UNL A   1      31.400  23.572  25.602  1.00  0.00    -0.249 OA
BRANCH   6   8
ATOM      8  C   UNL A   1      33.785  23.020  25.475  1.00  0.00     0.147 C 
ATOM      9  N   UNL A   1      33.286  21.625  25.529  1.00  0.00    -0.291 N 
ATOM     10  C   UNL A   1      33.307  21.078  26.865  1.00  0.00     0.124 C 
ATOM     11  C   UNL A   1      33.365  22.288  27.769  1.00  0.00     0.025 C 
ATOM     12  C   UNL A   1      34.163  23.305  26.955  1.00  0.00     0.043 C 
BRANCH   9  13
ATOM     13  C   UNL A   1      32.823  20.943  24.440  1.00  0.00     0.411 C 
ATOM     14  O   UNL A   1      32.906  21.372  23.305  1.00  0.00    -0.224 OA
BRANCH  13  15
ATOM     15  O   UNL A   1      32.245  19.763  24.785  1.00  0.00    -0.444 OA
BRANCH  15  16
ATOM     16  C   UNL A   1      32.937  18.527  24.502  1.00  0.00     0.106 C 
ATOM     17  C   UNL A   1      32.476  18.090  23.103  1.00  0.00     0.056 C 
ATOM     18  C   UNL A   1      32.495  17.466  25.513  1.00  0.00     0.056 C 
ATOM     19  C   UNL A   1      34.454  18.713  24.460  1.00  0.00     0.056 C 
ENDBRANCH  15  16
ENDBRANCH  13  15
ENDBRANCH   9  13
BRANCH   8  20
ATOM     20  C   UNL A   1      35.020  23.273  24.565  1.00  0.00     0.076 C 
BRANCH  20  21
ATOM     21  C   UNL A   1      36.389  22.862  25.092  1.00  0.00    -0.045 A 
ATOM     22  C   UNL A   1      37.236  23.810  25.681  1.00  0.00     0.004 A 
ATOM     23  C   UNL A   1      36.875  21.552  24.948  1.00  0.00     0.004 A 
ATOM     24  C   UNL A   1      38.496  23.440  26.164  1.00  0.00     0.000 A 
ATOM     25  C   UNL A   1      38.120  21.175  25.450  1.00  0.00     0.000 A 
ATOM     26  C   UNL A   1      38.930  22.120  26.065  1.00  0.00     0.000 A 
ENDBRANCH  20  21
ENDBRANCH   8  20
ENDBRANCH   6   8
ENDBRANCH   5   6
ENDBRANCH   4   5
ENDBRANCH   3   4
ENDBRANCH   2   3
ENDBRANCH   1   2
BRANCH   1  27
ATOM     27  C   UNL A   1      29.661  28.409  22.758  1.00  0.00     0.188 C 
BRANCH  27  28
ATOM     28  O   UNL A   1      30.180  29.523  23.438  1.00  0.00    -0.376 OA
BRANCH  28  29
ATOM     29  C   UNL A   1      31.085  29.352  24.510  1.00  0.00     0.202 C 
BRANCH  29  30
ATOM     30  C   UNL A   1      31.469  30.434  25.543  1.00  0.00     0.261 C 
BRANCH  30  31
ATOM     31  O   UNL A   1      32.668  30.260  26.308  1.00  0.00    -0.460 OA
BRANCH  31  32
ATOM     32  C   UNL A   1      33.106  31.373  26.959  1.00  0.00     0.338 C 
ATOM     33  O   UNL A   1      32.477  32.398  27.158  1.00  0.00    -0.246 OA
BRANCH  32  34
ATOM     34  C   UNL A   1      34.412  31.083  27.605  1.00  0.00     0.060 A 
ATOM     35  C   UNL A   1      34.729  29.751  27.892  1.00  0.00     0.016 A 
ATOM     36  C   UNL A   1      35.313  32.096  27.944  1.00  0.00     0.016 A 
ATOM     37  C   UNL A   1      35.936  29.441  28.530  1.00  0.00     0.010 A 
ATOM     38  C   UNL A   1      36.514  31.781  28.606  1.00  0.00     0.010 A 
ATOM     39  C   UNL A   1      36.836  30.451  28.919  1.00  0.00    -0.014 A 
BRANCH  39  40
ATOM     40  C   UNL A   1      37.981  30.103  29.820  1.00  0.00     0.031 A 
ATOM     41  C   UNL A   1      39.157  29.394  29.211  1.00  0.00     0.074 A 
ATOM     42  C   UNL A   1      38.027  30.410  31.134  1.00  0.00     0.049 A 
ATOM     43  N   UNL A   1      40.246  28.953  29.787  1.00  0.00    -0.248 NA
ATOM     44  C   UNL A   1      39.066  29.086  27.775  1.00  0.00     0.031 C 
ATOM     45  C   UNL A   1      36.945  31.009  31.894  1.00  0.00     0.029 A 
ATOM     46  N   UNL A   1      39.049  30.319  32.057  1.00  0.00    -0.354 N 
ATOM     47  C   UNL A   1      40.924  28.245  28.807  1.00  0.00     0.074 A 
ATOM     48  C   UNL A   1      40.164  28.373  27.584  1.00  0.00     0.031 C 
ATOM     49  C   UNL A   1      37.409  31.426  33.084  1.00  0.00     0.029 A 
ATOM     50  C   UNL A   1      38.780  30.954  33.253  1.00  0.00     0.049 A 
ATOM     51  H   UNL A   1      39.894  29.845  31.879  1.00  0.00     0.167 HD
ATOM     52  C   UNL A   1      42.040  27.491  28.937  1.00  0.00     0.037 A 
ATOM     53  C   UNL A   1      39.530  31.099  34.370  1.00  0.00     0.037 A 
ATOM     54  C   UNL A   1      42.773  27.329  30.164  1.00  0.00     0.049 A 
ATOM     55  C   UNL A   1      40.810  30.301  34.470  1.00  0.00     0.074 A 
ATOM     56  C   UNL A   1      43.880  26.536  30.408  1.00  0.00     0.029 A 
ATOM     57  N   UNL A   1      42.468  27.966  31.359  1.00  0.00    -0.354 N 
ATOM     58  N   UNL A   1      41.410  29.579  33.556  1.00  0.00    -0.248 NA
ATOM     59  C   UNL A   1      41.469  30.261  35.787  1.00  0.00     0.031 C 
ATOM     60  C   UNL A   1      44.212  26.651  31.761  1.00  0.00     0.029 A 
ATOM     61  C   UNL A   1      43.363  27.578  32.342  1.00  0.00     0.049 A 
ATOM     62  H   UNL A   1      41.725  28.600  31.488  1.00  0.00     0.167 HD
ATOM     63  C   UNL A   1      42.493  28.982  34.189  1.00  0.00     0.074 A 
ATOM     64  C   UNL A   1      42.507  29.471  35.550  1.00  0.00     0.031 C 
ATOM     65  C   UNL A   1      43.375  28.079  33.693  1.00  0.00     0.037 A 
BRANCH  52  66
ATOM     66  C   UNL A   1      42.452  26.684  27.742  1.00  0.00     0.064 A 
ATOM     67  C   UNL A   1      41.937  25.405  27.488  1.00  0.00     0.173 A 
ATOM     68  C   UNL A   1      43.406  27.198  26.849  1.00  0.00     0.173 A 
ATOM     69  F   UNL A   1      41.046  24.857  28.329  1.00  0.00    -0.203 F 
ATOM     70  C   UNL A   1      42.389  24.657  26.405  1.00  0.00     0.198 A 
ATOM     71  C   UNL A   1      43.827  26.464  25.747  1.00  0.00     0.198 A 
ATOM     72  F   UNL A   1      43.935  28.415  27.051  1.00  0.00    -0.203 F 
ATOM     73  F   UNL A   1      41.936  23.409  26.220  1.00  0.00    -0.200 F 
ATOM     74  C   UNL A   1      43.327  25.189  25.532  1.00  0.00     0.200 A 
ATOM     75  F   UNL A   1      44.725  26.985  24.900  1.00  0.00    -0.200 F 
ATOM     76  F   UNL A   1      43.761  24.467  24.490  1.00  0.00    -0.200 F 
ENDBRANCH  52  66
BRANCH  53  77
ATOM     77  C   UNL A   1      39.085  31.938  35.529  1.00  0.00     0.064 A 
ATOM     78  C   UNL A   1      39.506  33.276  35.652  1.00  0.00     0.173 A 
ATOM     79  C   UNL A   1      38.291  31.429  36.568  1.00  0.00     0.173 A 
ATOM     80  F   UNL A   1      40.310  33.813  34.723  1.00  0.00    -0.203 F 
ATOM     81  C   UNL A   1      39.161  34.054  36.760  1.00  0.00     0.198 A 
ATOM     82  C   UNL A   1      37.900  32.223  37.645  1.00  0.00     0.198 A 
ATOM     83  F   UNL A   1      37.893  30.150  36.546  1.00  0.00    -0.203 F 
ATOM     84  F   UNL A   1      39.645  35.298  36.882  1.00  0.00    -0.200 F 
ATOM     85  C   UNL A   1      38.344  33.531  37.748  1.00  0.00     0.200 A 
ATOM     86  F   UNL A   1      37.099  31.713  38.592  1.00  0.00    -0.200 F 
ATOM     87  F   UNL A   1      38.003  34.278  38.808  1.00  0.00    -0.200 F 
ENDBRANCH  53  77
BRANCH  65  88
ATOM     88  C   UNL A   1      44.457  27.584  34.609  1.00  0.00     0.064 A 
ATOM     89  C   UNL A   1      44.303  26.424  35.383  1.00  0.00     0.173 A 
ATOM     90  C   UNL A   1      45.692  28.248  34.662  1.00  0.00     0.173 A 
ATOM     91  F   UNL A   1      43.138  25.758  35.378  1.00  0.00    -0.203 F 
ATOM     92  C   UNL A   1      45.338  25.960  36.192  1.00  0.00     0.198 A 
ATOM     93  C   UNL A   1      46.734  27.764  35.445  1.00  0.00     0.198 A 
ATOM     94  F   UNL A   1      45.895  29.358  33.936  1.00  0.00    -0.203 F 
ATOM     95  F   UNL A   1      45.154  24.874  36.955  1.00  0.00    -0.200 F 
ATOM     96  C   UNL A   1      46.555  26.624  36.215  1.00  0.00     0.200 A 
ATOM     97  F   UNL A   1      47.916  28.397  35.453  1.00  0.00    -0.200 F 
ATOM     98  F   UNL A   1      47.555  26.168  36.982  1.00  0.00    -0.200 F 
ENDBRANCH  65  88
ENDBRANCH  39  40
ENDBRANCH  32  34
ENDBRANCH  31  32
ENDBRANCH  30  31
ENDBRANCH  29  30
ENDBRANCH  28  29
ENDBRANCH  27  28
ENDBRANCH   1  27
TORSDOF 22
ENDMDL
MODEL 2
REMARK VINA RESULT:     -10.8      3.916      7.598
REMARK SMILES CC(C)(C)OC(=O)N1CCC[C@]1(Cc1ccccc1)C(=O)OCCOCCOCCOC(=O)c1ccc(-c2c3nc(c(-c4c(F)c(F)c(F)c(F)c4F)c4ccc([nH]4)c(-c4c(F)c(F)c(F)c(F)c4F)c4nc(c(-c5c(F)c(F)c(F)c(F)c5F)c5ccc2[nH]5)C=C4)C=C3)cc1
REMARK SMILES IDX 26 1 25 2 24 3 23 4 22 5 20 6 21 7 12 8 8 9 9 10 10 11 11 12
REMARK SMILES IDX 6 13 7 14 5 15 2 16 1 17 3 18 4 19 13 20 14 21 15 22 19 23
REMARK SMILES IDX 16 24 18 25 17 26 27 27 28 28 29 29 30 30 31 31 32 32 33 33
REMARK SMILES IDX 34 34 35 35 96 36 36 37 95 38 37 39 38 40 39 41 89 42 40 43
REMARK SMILES IDX 94 44 88 45 90 46 41 47 93 48 87 49 86 50 42 52 74 53 54 54
REMARK SMILES IDX 73 55 55 56 58 57 72 58 91 59 56 60 57 61 71 63 92 64 59 65
REMARK SMILES IDX 43 66 44 67 52 68 45 69 46 70 50 71 53 72 47 73 48 74 51 75
REMARK SMILES IDX 49 76 75 77 76 78 84 79 77 80 78 81 82 82 85 83 79 84 80 85
REMARK SMILES IDX 83 86 81 87 60 88 61 89 69 90 62 91 63 92 67 93 70 94 64 95
REMARK SMILES IDX 65 96 68 97 66 98
REMARK H PARENT 90 51 58 62
REMARK Flexibility Score: inf
ROOT
ATOM      1  C   UNL A   1      34.489  23.816  25.247  1.00  0.00     0.188 C 
ENDROOT
BRANCH   1   2
ATOM      2  O   UNL A   1      34.639  23.868  23.846  1.00  0.00    -0.376 OA
BRANCH   2   3
ATOM      3  C   UNL A   1      33.670  23.208  23.049  1.00  0.00     0.202 C 
BRANCH   3   4
ATOM      4  C   UNL A   1      32.476  23.958  22.428  1.00  0.00     0.261 C 
BRANCH   4   5
ATOM      5  O   UNL A   1      32.409  25.391  22.635  1.00  0.00    -0.461 OA
BRANCH   5   6
ATOM      6  C   UNL A   1      31.820  25.782  23.802  1.00  0.00     0.332 C 
ATOM      7  O   UNL A   1      31.000  25.078  24.396  1.00  0.00    -0.249 OA
BRANCH   6   8
ATOM      8  C   UNL A   1      32.224  27.201  24.335  1.00  0.00     0.147 C 
ATOM      9  N   UNL A   1      31.545  28.156  23.427  1.00  0.00    -0.291 N 
ATOM     10  C   UNL A   1      32.466  28.850  22.559  1.00  0.00     0.124 C 
ATOM     11  C   UNL A   1      33.709  27.991  22.561  1.00  0.00     0.025 C 
ATOM     12  C   UNL A   1      33.721  27.384  23.963  1.00  0.00     0.043 C 
BRANCH   9  13
ATOM     13  C   UNL A   1      30.191  28.334  23.390  1.00  0.00     0.411 C 
ATOM     14  O   UNL A   1      29.425  27.503  22.941  1.00  0.00    -0.224 OA
BRANCH  13  15
ATOM     15  O   UNL A   1      29.822  29.546  23.882  1.00  0.00    -0.444 OA
BRANCH  15  16
ATOM     16  C   UNL A   1      28.969  30.400  23.091  1.00  0.00     0.106 C 
ATOM     17  C   UNL A   1      29.108  31.812  23.683  1.00  0.00     0.056 C 
ATOM     18  C   UNL A   1      27.517  29.945  23.255  1.00  0.00     0.056 C 
ATOM     19  C   UNL A   1      29.411  30.460  21.628  1.00  0.00     0.056 C 
ENDBRANCH  15  16
ENDBRANCH  13  15
ENDBRANCH   9  13
BRANCH   8  20
ATOM     20  C   UNL A   1      32.033  27.447  25.858  1.00  0.00     0.076 C 
BRANCH  20  21
ATOM     21  C   UNL A   1      32.736  28.648  26.480  1.00  0.00    -0.045 A 
ATOM     22  C   UNL A   1      32.085  29.886  26.560  1.00  0.00     0.004 A 
ATOM     23  C   UNL A   1      34.066  28.578  26.924  1.00  0.00     0.004 A 
ATOM     24  C   UNL A   1      32.727  30.993  27.126  1.00  0.00     0.000 A 
ATOM     25  C   UNL A   1      34.699  29.673  27.511  1.00  0.00     0.000 A 
ATOM     26  C   UNL A   1      34.025  30.882  27.618  1.00  0.00     0.000 A 
ENDBRANCH  20  21
ENDBRANCH   8  20
ENDBRANCH   6   8
ENDBRANCH   5   6
ENDBRANCH   4   5
ENDBRANCH   3   4
ENDBRANCH   2   3
ENDBRANCH   1   2
BRANCH   1  27
ATOM     27  C   UNL A   1      35.341  22.840  26.061  1.00  0.00     0.188 C 
BRANCH  27  28
ATOM     28  O   UNL A   1      35.115  21.454  26.028  1.00  0.00    -0.376 OA
BRANCH  28  29
ATOM     29  C   UNL A   1      35.731  20.649  25.043  1.00  0.00     0.202 C 
BRANCH  29  30
ATOM     30  C   UNL A   1      37.227  20.268  25.000  1.00  0.00     0.261 C 
BRANCH  30  31
ATOM     31  O   UNL A   1      38.205  21.310  25.103  1.00  0.00    -0.460 OA
BRANCH  31  32
ATOM     32  C   UNL A   1      39.226  21.063  25.968  1.00  0.00     0.338 C 
ATOM     33  O   UNL A   1      39.818  20.007  26.117  1.00  0.00    -0.246 OA
BRANCH  32  34
ATOM     34  C   UNL A   1      39.685  22.343  26.567  1.00  0.00     0.060 A 
ATOM     35  C   UNL A   1      39.057  23.526  26.165  1.00  0.00     0.016 A 
ATOM     36  C   UNL A   1      40.726  22.395  27.498  1.00  0.00     0.016 A 
ATOM     37  C   UNL A   1      39.484  24.755  26.682  1.00  0.00     0.010 A 
ATOM     38  C   UNL A   1      41.166  23.634  27.998  1.00  0.00     0.010 A 
ATOM     39  C   UNL A   1      40.559  24.831  27.587  1.00  0.00    -0.014 A 
BRANCH  39  40
ATOM     40  C   UNL A   1      41.146  26.171  27.914  1.00  0.00     0.031 A 
ATOM     41  C   UNL A   1      42.472  26.519  27.299  1.00  0.00     0.074 A 
ATOM     42  C   UNL A   1      40.546  27.086  28.705  1.00  0.00     0.049 A 
ATOM     43  N   UNL A   1      43.201  27.595  27.459  1.00  0.00    -0.248 NA
ATOM     44  C   UNL A   1      43.085  25.495  26.439  1.00  0.00     0.031 C 
ATOM     45  C   UNL A   1      39.315  26.875  29.446  1.00  0.00     0.029 A 
ATOM     46  N   UNL A   1      40.854  28.404  28.973  1.00  0.00    -0.354 N 
ATOM     47  C   UNL A   1      44.390  27.340  26.793  1.00  0.00     0.074 A 
ATOM     48  C   UNL A   1      44.259  26.042  26.168  1.00  0.00     0.031 C 
ATOM     49  C   UNL A   1      38.859  28.054  29.901  1.00  0.00     0.029 A 
ATOM     50  C   UNL A   1      39.863  29.083  29.652  1.00  0.00     0.049 A 
ATOM     51  H   UNL A   1      41.705  28.822  28.704  1.00  0.00     0.167 HD
ATOM     52  C   UNL A   1      45.516  28.088  26.771  1.00  0.00     0.037 A 
ATOM     53  C   UNL A   1      39.790  30.370  30.064  1.00  0.00     0.037 A 
ATOM     54  C   UNL A   1      45.660  29.360  27.428  1.00  0.00     0.049 A 
ATOM     55  C   UNL A   1      41.041  31.214  29.969  1.00  0.00     0.074 A 
ATOM     56  C   UNL A   1      46.782  30.163  27.513  1.00  0.00     0.029 A 
ATOM     57  N   UNL A   1      44.649  30.012  28.120  1.00  0.00    -0.354 N 
ATOM     58  N   UNL A   1      42.185  30.938  29.393  1.00  0.00    -0.248 NA
ATOM     59  C   UNL A   1      41.022  32.513  30.662  1.00  0.00     0.031 C 
ATOM     60  C   UNL A   1      46.468  31.274  28.302  1.00  0.00     0.029 A 
ATOM     61  C   UNL A   1      45.127  31.203  28.640  1.00  0.00     0.049 A 
ATOM     62  H   UNL A   1      43.729  29.676  28.227  1.00  0.00     0.167 HD
ATOM     63  C   UNL A   1      43.025  32.007  29.676  1.00  0.00     0.074 A 
ATOM     64  C   UNL A   1      42.244  32.968  30.424  1.00  0.00     0.031 C 
ATOM     65  C   UNL A   1      44.338  32.159  29.374  1.00  0.00     0.037 A 
BRANCH  52  66
ATOM     66  C   UNL A   1      46.719  27.477  26.116  1.00  0.00     0.064 A 
ATOM     67  C   UNL A   1      47.640  26.692  26.824  1.00  0.00     0.173 A 
ATOM     68  C   UNL A   1      46.965  27.712  24.754  1.00  0.00     0.173 A 
ATOM     69  F   UNL A   1      47.465  26.464  28.135  1.00  0.00    -0.203 F 
ATOM     70  C   UNL A   1      48.779  26.193  26.201  1.00  0.00     0.198 A 
ATOM     71  C   UNL A   1      48.086  27.181  24.125  1.00  0.00     0.198 A 
ATOM     72  F   UNL A   1      46.119  28.463  24.033  1.00  0.00    -0.203 F 
ATOM     73  F   UNL A   1      49.682  25.504  26.912  1.00  0.00    -0.200 F 
ATOM     74  C   UNL A   1      48.998  26.432  24.851  1.00  0.00     0.200 A 
ATOM     75  F   UNL A   1      48.288  27.405  22.819  1.00  0.00    -0.200 F 
ATOM     76  F   UNL A   1      50.097  25.952  24.253  1.00  0.00    -0.200 F 
ENDBRANCH  52  66
BRANCH  53  77
ATOM     77  C   UNL A   1      38.555  30.941  30.690  1.00  0.00     0.064 A 
ATOM     78  C   UNL A   1      38.369  30.900  32.085  1.00  0.00     0.173 A 
ATOM     79  C   UNL A   1      37.505  31.480  29.931  1.00  0.00     0.173 A 
ATOM     80  F   UNL A   1      39.308  30.350  32.869  1.00  0.00    -0.203 F 
ATOM     81  C   UNL A   1      37.194  31.362  32.682  1.00  0.00     0.198 A 
ATOM     82  C   UNL A   1      36.356  31.994  30.532  1.00  0.00     0.198 A 
ATOM     83  F   UNL A   1      37.587  31.507  28.593  1.00  0.00    -0.203 F 
ATOM     84  F   UNL A   1      37.020  31.235  34.005  1.00  0.00    -0.200 F 
ATOM     85  C   UNL A   1      36.195  31.924  31.906  1.00  0.00     0.200 A 
ATOM     86  F   UNL A   1      35.399  32.547  29.774  1.00  0.00    -0.200 F 
ATOM     87  F   UNL A   1      35.070  32.378  32.477  1.00  0.00    -0.200 F 
ENDBRANCH  53  77
BRANCH  65  88
ATOM     88  C   UNL A   1      45.013  33.427  29.815  1.00  0.00     0.064 A 
ATOM     89  C   UNL A   1      45.685  33.523  31.043  1.00  0.00     0.173 A 
ATOM     90  C   UNL A   1      45.042  34.541  28.964  1.00  0.00     0.173 A 
ATOM     91  F   UNL A   1      45.679  32.490  31.899  1.00  0.00    -0.203 F 
ATOM     92  C   UNL A   1      46.342  34.696  31.410  1.00  0.00     0.198 A 
ATOM     93  C   UNL A   1      45.726  35.699  29.318  1.00  0.00     0.198 A 
ATOM     94  F   UNL A   1      44.421  34.500  27.774  1.00  0.00    -0.203 F 
ATOM     95  F   UNL A   1      46.941  34.780  32.605  1.00  0.00    -0.200 F 
ATOM     96  C   UNL A   1      46.370  35.779  30.543  1.00  0.00     0.200 A 
ATOM     97  F   UNL A   1      45.767  36.739  28.472  1.00  0.00    -0.200 F 
ATOM     98  F   UNL A   1      47.015  36.901  30.892  1.00  0.00    -0.200 F 
ENDBRANCH  65  88
ENDBRANCH  39  40
ENDBRANCH  32  34
ENDBRANCH  31  32
ENDBRANCH  30  31
ENDBRANCH  29  30
ENDBRANCH  28  29
ENDBRANCH  27  28
ENDBRANCH   1  27
TORSDOF 22
ENDMDL
MODEL 3
REMARK VINA RESULT:     -10.5      3.953      7.666
REMARK SMILES CC(C)(C)OC(=O)N1CCC[C@]1(Cc1ccccc1)C(=O)OCCOCCOCCOC(=O)c1ccc(-c2c3nc(c(-c4c(F)c(F)c(F)c(F)c4F)c4ccc([nH]4)c(-c4c(F)c(F)c(F)c(F)c4F)c4nc(c(-c5c(F)c(F)c(F)c(F)c5F)c5ccc2[nH]5)C=C4)C=C3)cc1
REMARK SMILES IDX 26 1 25 2 24 3 23 4 22 5 20 6 21 7 12 8 8 9 9 10 10 11 11 12
REMARK SMILES IDX 6 13 7 14 5 15 2 16 1 17 3 18 4 19 13 20 14 21 15 22 19 23
REMARK SMILES IDX 16 24 18 25 17 26 27 27 28 28 29 29 30 30 31 31 32 32 33 33
REMARK SMILES IDX 34 34 35 35 96 36 36 37 95 38 37 39 38 40 39 41 89 42 40 43
REMARK SMILES IDX 94 44 88 45 90 46 41 47 93 48 87 49 86 50 42 52 74 53 54 54
REMARK SMILES IDX 73 55 55 56 58 57 72 58 91 59 56 60 57 61 71 63 92 64 59 65
REMARK SMILES IDX 43 66 44 67 52 68 45 69 46 70 50 71 53 72 47 73 48 74 51 75
REMARK SMILES IDX 49 76 75 77 76 78 84 79 77 80 78 81 82 82 85 83 79 84 80 85
REMARK SMILES IDX 83 86 81 87 60 88 61 89 69 90 62 91 63 92 67 93 70 94 64 95
REMARK SMILES IDX 65 96 68 97 66 98
REMARK H PARENT 90 51 58 62
REMARK Flexibility Score: inf
ROOT
ATOM      1  C   UNL A   1      34.181  23.607  26.113  1.00  0.00     0.188 C 
ENDROOT
BRANCH   1   2
ATOM      2  O   UNL A   1      33.752  23.584  24.771  1.00  0.00    -0.376 OA
BRANCH   2   3
ATOM      3  C   UNL A   1      32.394  23.269  24.513  1.00  0.00     0.202 C 
BRANCH   3   4
ATOM      4  C   UNL A   1      31.755  23.488  23.129  1.00  0.00     0.261 C 
BRANCH   4   5
ATOM      5  O   UNL A   1      30.736  24.513  23.020  1.00  0.00    -0.461 OA
BRANCH   5   6
ATOM      6  C   UNL A   1      31.176  25.724  22.572  1.00  0.00     0.332 C 
ATOM      7  O   UNL A   1      31.886  25.839  21.571  1.00  0.00    -0.249 OA
BRANCH   6   8
ATOM      8  C   UNL A   1      30.750  26.970  23.426  1.00  0.00     0.147 C 
ATOM      9  N   UNL A   1      31.495  26.830  24.701  1.00  0.00    -0.291 N 
ATOM     10  C   UNL A   1      30.637  26.493  25.812  1.00  0.00     0.124 C 
ATOM     11  C   UNL A   1      29.390  25.930  25.171  1.00  0.00     0.025 C 
ATOM     12  C   UNL A   1      29.281  26.705  23.859  1.00  0.00     0.043 C 
BRANCH   9  13
ATOM     13  C   UNL A   1      32.849  26.969  24.805  1.00  0.00     0.411 C 
ATOM     14  O   UNL A   1      33.613  26.745  23.885  1.00  0.00    -0.224 OA
BRANCH  13  15
ATOM     15  O   UNL A   1      33.228  27.354  26.052  1.00  0.00    -0.444 OA
BRANCH  15  16
ATOM     16  C   UNL A   1      33.489  28.750  26.312  1.00  0.00     0.106 C 
ATOM     17  C   UNL A   1      32.364  29.230  27.243  1.00  0.00     0.056 C 
ATOM     18  C   UNL A   1      33.396  29.528  24.997  1.00  0.00     0.056 C 
ATOM     19  C   UNL A   1      34.819  28.962  27.036  1.00  0.00     0.056 C 
ENDBRANCH  15  16
ENDBRANCH  13  15
ENDBRANCH   9  13
BRANCH   8  20
ATOM     20  C   UNL A   1      30.844  28.353  22.723  1.00  0.00     0.076 C 
BRANCH  20  21
ATOM     21  C   UNL A   1      29.732  29.361  22.985  1.00  0.00    -0.045 A 
ATOM     22  C   UNL A   1      29.922  30.404  23.900  1.00  0.00     0.004 A 
ATOM     23  C   UNL A   1      28.471  29.245  22.379  1.00  0.00     0.004 A 
ATOM     24  C   UNL A   1      28.904  31.331  24.148  1.00  0.00     0.000 A 
ATOM     25  C   UNL A   1      27.462  30.181  22.605  1.00  0.00     0.000 A 
ATOM     26  C   UNL A   1      27.682  31.231  23.486  1.00  0.00     0.000 A 
ENDBRANCH  20  21
ENDBRANCH   8  20
ENDBRANCH   6   8
ENDBRANCH   5   6
ENDBRANCH   4   5
ENDBRANCH   3   4
ENDBRANCH   2   3
ENDBRANCH   1   2
BRANCH   1  27
ATOM     27  C   UNL A   1      34.755  22.337  26.745  1.00  0.00     0.188 C 
BRANCH  27  28
ATOM     28  O   UNL A   1      34.619  21.080  26.135  1.00  0.00    -0.376 OA
BRANCH  28  29
ATOM     29  C   UNL A   1      35.394  20.744  25.001  1.00  0.00     0.202 C 
BRANCH  29  30
ATOM     30  C   UNL A   1      36.923  20.532  24.988  1.00  0.00     0.261 C 
BRANCH  30  31
ATOM     31  O   UNL A   1      37.776  21.659  25.224  1.00  0.00    -0.460 OA
BRANCH  31  32
ATOM     32  C   UNL A   1      38.896  21.395  25.951  1.00  0.00     0.338 C 
ATOM     33  O   UNL A   1      39.533  20.355  25.962  1.00  0.00    -0.246 OA
BRANCH  32  34
ATOM     34  C   UNL A   1      39.381  22.650  26.581  1.00  0.00     0.060 A 
ATOM     35  C   UNL A   1      38.712  23.842  26.285  1.00  0.00     0.016 A 
ATOM     36  C   UNL A   1      40.486  22.672  27.436  1.00  0.00     0.016 A 
ATOM     37  C   UNL A   1      39.159  25.050  26.832  1.00  0.00     0.010 A 
ATOM     38  C   UNL A   1      40.945  23.892  27.966  1.00  0.00     0.010 A 
ATOM     39  C   UNL A   1      40.296  25.099  27.661  1.00  0.00    -0.014 A 
BRANCH  39  40
ATOM     40  C   UNL A   1      40.889  26.429  28.012  1.00  0.00     0.031 A 
ATOM     41  C   UNL A   1      42.253  26.750  27.469  1.00  0.00     0.074 A 
ATOM     42  C   UNL A   1      40.264  27.359  28.764  1.00  0.00     0.049 A 
ATOM     43  N   UNL A   1      42.991  27.813  27.663  1.00  0.00    -0.248 NA
ATOM     44  C   UNL A   1      42.893  25.710  26.649  1.00  0.00     0.031 C 
ATOM     45  C   UNL A   1      38.990  27.176  29.437  1.00  0.00     0.029 A 
ATOM     46  N   UNL A   1      40.581  28.673  29.042  1.00  0.00    -0.354 N 
ATOM     47  C   UNL A   1      44.210  27.532  27.065  1.00  0.00     0.074 A 
ATOM     48  C   UNL A   1      44.090  26.233  26.440  1.00  0.00     0.031 C 
ATOM     49  C   UNL A   1      38.531  28.365  29.861  1.00  0.00     0.029 A 
ATOM     50  C   UNL A   1      39.566  29.375  29.662  1.00  0.00     0.049 A 
ATOM     51  H   UNL A   1      41.452  29.075  28.817  1.00  0.00     0.167 HD
ATOM     52  C   UNL A   1      45.350  28.260  27.100  1.00  0.00     0.037 A 
ATOM     53  C   UNL A   1      39.495  30.665  30.063  1.00  0.00     0.037 A 
ATOM     54  C   UNL A   1      45.480  29.534  27.757  1.00  0.00     0.049 A 
ATOM     55  C   UNL A   1      40.764  31.486  30.032  1.00  0.00     0.074 A 
ATOM     56  C   UNL A   1      46.611  30.316  27.900  1.00  0.00     0.029 A 
ATOM     57  N   UNL A   1      44.445  30.208  28.390  1.00  0.00    -0.354 N 
ATOM     58  N   UNL A   1      41.933  31.186  29.521  1.00  0.00    -0.248 NA
ATOM     59  C   UNL A   1      40.732  32.789  30.717  1.00  0.00     0.031 C 
ATOM     60  C   UNL A   1      46.274  31.437  28.665  1.00  0.00     0.029 A 
ATOM     61  C   UNL A   1      44.916  31.394  28.929  1.00  0.00     0.049 A 
ATOM     62  H   UNL A   1      43.515  29.889  28.448  1.00  0.00     0.167 HD
ATOM     63  C   UNL A   1      42.775  32.242  29.844  1.00  0.00     0.074 A 
ATOM     64  C   UNL A   1      41.972  33.221  30.543  1.00  0.00     0.031 C 
ATOM     65  C   UNL A   1      44.105  32.368  29.614  1.00  0.00     0.037 A 
BRANCH  52  66
ATOM     66  C   UNL A   1      46.575  27.624  26.516  1.00  0.00     0.064 A 
ATOM     67  C   UNL A   1      46.944  27.801  25.175  1.00  0.00     0.173 A 
ATOM     68  C   UNL A   1      47.378  26.794  27.315  1.00  0.00     0.173 A 
ATOM     69  F   UNL A   1      46.191  28.559  24.362  1.00  0.00    -0.203 F 
ATOM     70  C   UNL A   1      48.051  27.144  24.647  1.00  0.00     0.198 A 
ATOM     71  C   UNL A   1      48.506  26.170  26.794  1.00  0.00     0.198 A 
ATOM     72  F   UNL A   1      47.065  26.586  28.603  1.00  0.00    -0.203 F 
ATOM     73  F   UNL A   1      48.346  27.271  23.346  1.00  0.00    -0.200 F 
ATOM     74  C   UNL A   1      48.835  26.335  25.458  1.00  0.00     0.200 A 
ATOM     75  F   UNL A   1      49.266  25.398  27.583  1.00  0.00    -0.200 F 
ATOM     76  F   UNL A   1      49.901  25.703  24.948  1.00  0.00    -0.200 F 
ENDBRANCH  52  66
BRANCH  53  77
ATOM     77  C   UNL A   1      38.237  31.262  30.617  1.00  0.00     0.064 A 
ATOM     78  C   UNL A   1      37.969  31.222  31.998  1.00  0.00     0.173 A 
ATOM     79  C   UNL A   1      37.247  31.827  29.800  1.00  0.00     0.173 A 
ATOM     80  F   UNL A   1      38.848  30.649  32.835  1.00  0.00    -0.203 F 
ATOM     81  C   UNL A   1      36.771  31.709  32.528  1.00  0.00     0.198 A 
ATOM     82  C   UNL A   1      36.076  32.365  30.334  1.00  0.00     0.198 A 
ATOM     83  F   UNL A   1      37.408  31.856  28.469  1.00  0.00    -0.203 F 
ATOM     84  F   UNL A   1      36.517  31.583  33.838  1.00  0.00    -0.200 F 
ATOM     85  C   UNL A   1      35.833  32.295  31.696  1.00  0.00     0.200 A 
ATOM     86  F   UNL A   1      35.178  32.941  29.523  1.00  0.00    -0.200 F 
ATOM     87  F   UNL A   1      34.687  32.773  32.201  1.00  0.00    -0.200 F 
ENDBRANCH  53  77
BRANCH  65  88
ATOM     88  C   UNL A   1      44.779  33.626  30.085  1.00  0.00     0.064 A 
ATOM     89  C   UNL A   1      44.853  34.775  29.282  1.00  0.00     0.173 A 
ATOM     90  C   UNL A   1      45.300  33.701  31.385  1.00  0.00     0.173 A 
ATOM     91  F   UNL A   1      44.381  34.753  28.026  1.00  0.00    -0.203 F 
ATOM     92  C   UNL A   1      45.445  35.943  29.757  1.00  0.00     0.198 A 
ATOM     93  C   UNL A   1      45.859  34.879  31.868  1.00  0.00     0.198 A 
ATOM     94  F   UNL A   1      45.247  32.633  32.197  1.00  0.00    -0.203 F 
ATOM     95  F   UNL A   1      45.543  37.015  28.959  1.00  0.00    -0.200 F 
ATOM     96  C   UNL A   1      45.937  35.997  31.053  1.00  0.00     0.200 A 
ATOM     97  F   UNL A   1      46.319  34.934  33.126  1.00  0.00    -0.200 F 
ATOM     98  F   UNL A   1      46.492  37.127  31.514  1.00  0.00    -0.200 F 
ENDBRANCH  65  88
ENDBRANCH  39  40
ENDBRANCH  32  34
ENDBRANCH  31  32
ENDBRANCH  30  31
ENDBRANCH  29  30
ENDBRANCH  28  29
ENDBRANCH  27  28
ENDBRANCH   1  27
TORSDOF 22
ENDMDL
