MODEL 1
REMARK VINA RESULT:     -12.4      0.000      0.000
REMARK SMILES COc1ccc(-c2[nH]nc3nc(-c4ccc(C(F)(F)F)cc4)cc(C(=O)OCCOCCOCCOC(=O)c4ccc(-c5c6nc(c(-c7c(F)c(F)c(F)c(F)c7F)c7ccc([nH]7)c(-c7c(F)c(F)c(F)c(F)c7F)c7nc(c(-c8c(F)c(F)c(F)c(F)c8F)c8ccc5[nH]8)C=C7)C=C6)cc4)c23)cc1
REMARK SMILES IDX 31 1 30 2 29 3 28 4 27 5 25 6 26 7 24 8 7 9 8 10 102 11 9 12
REMARK SMILES IDX 10 14 11 15 23 16 12 17 6 18 3 19 4 20 104 21 5 22 103 23
REMARK SMILES IDX 2 24 1 25 13 26 14 27 22 28 15 29 21 30 16 31 17 32 18 33
REMARK SMILES IDX 19 34 20 35 32 36 33 37 34 38 35 39 36 40 37 41 38 42 39 43
REMARK SMILES IDX 40 44 101 45 41 46 100 47 42 48 43 49 44 50 94 51 45 52
REMARK SMILES IDX 99 53 93 54 95 55 46 56 98 57 92 58 91 59 47 61 79 62 59 63
REMARK SMILES IDX 78 64 60 65 63 66 77 67 96 68 61 69 62 70 76 72 97 73 64 74
REMARK SMILES IDX 48 75 49 76 57 77 50 78 51 79 55 80 58 81 52 82 53 83 56 84
REMARK SMILES IDX 54 85 80 86 81 87 89 88 82 89 83 90 87 91 90 92 84 93 85 94
REMARK SMILES IDX 88 95 86 96 65 97 66 98 74 99 67 100 68 101 72 102 75 103
REMARK SMILES IDX 69 104 70 105 73 106 71 107
REMARK H PARENT 8 13 95 60 63 71
REMARK Flexibility Score: inf
ROOT
ATOM      1  C   UNL A   1      34.437  30.859  27.477  1.00  0.00     0.188 C 
ENDROOT
BRANCH   1   2
ATOM      2  O   UNL A   1      33.518  30.312  26.543  1.00  0.00    -0.376 OA
BRANCH   2   3
ATOM      3  C   UNL A   1      32.349  29.718  27.132  1.00  0.00     0.202 C 
BRANCH   3   4
ATOM      4  C   UNL A   1      32.299  28.177  27.316  1.00  0.00     0.261 C 
BRANCH   4   5
ATOM      5  O   UNL A   1      32.472  27.388  26.116  1.00  0.00    -0.460 OA
BRANCH   5   6
ATOM      6  C   UNL A   1      32.039  26.098  26.118  1.00  0.00     0.339 C 
ATOM      7  O   UNL A   1      31.051  25.702  26.674  1.00  0.00    -0.246 OA
BRANCH   6   8
ATOM      8  C   UNL A   1      32.928  25.317  25.204  1.00  0.00     0.075 A 
ATOM      9  C   UNL A   1      31.888  25.762  22.935  1.00  0.00     0.075 A 
ATOM     10  N   UNL A   1      32.146  25.167  21.720  1.00  0.00    -0.275 N 
ATOM     11  C   UNL A   1      32.751  25.137  23.822  1.00  0.00     0.061 A 
ATOM     12  N   UNL A   1      33.213  24.359  21.711  1.00  0.00    -0.154 NA
ATOM     13  H   UNL A   1      31.590  25.322  20.922  1.00  0.00     0.190 HD
ATOM     14  C   UNL A   1      33.623  24.368  22.977  1.00  0.00     0.182 A 
ATOM     15  N   UNL A   1      34.749  23.776  23.433  1.00  0.00    -0.226 NA
ATOM     16  C   UNL A   1      34.137  24.715  25.630  1.00  0.00     0.045 A 
ATOM     17  C   UNL A   1      34.992  23.983  24.755  1.00  0.00     0.074 A 
BRANCH   9  18
ATOM     18  C   UNL A   1      31.004  26.916  23.001  1.00  0.00     0.001 A 
ATOM     19  C   UNL A   1      29.216  29.085  23.051  1.00  0.00     0.118 A 
ATOM     20  C   UNL A   1      30.562  29.274  22.726  1.00  0.00     0.047 A 
ATOM     21  C   UNL A   1      28.773  27.811  23.400  1.00  0.00     0.047 A 
ATOM     22  C   UNL A   1      31.458  28.200  22.712  1.00  0.00     0.014 A 
ATOM     23  C   UNL A   1      29.666  26.734  23.381  1.00  0.00     0.014 A 
BRANCH  19  24
ATOM     24  O   UNL A   1      28.445  30.212  22.977  1.00  0.00    -0.497 OA
ATOM     25  C   UNL A   1      27.964  30.584  21.692  1.00  0.00     0.278 C 
ENDBRANCH  19  24
ENDBRANCH   9  18
BRANCH  17  26
ATOM     26  C   UNL A   1      36.234  23.325  25.240  1.00  0.00     0.000 A 
ATOM     27  C   UNL A   1      37.252  24.058  25.884  1.00  0.00     0.011 A 
ATOM     28  C   UNL A   1      36.478  21.960  25.014  1.00  0.00     0.011 A 
ATOM     29  C   UNL A   1      38.466  23.462  26.257  1.00  0.00     0.014 A 
ATOM     30  C   UNL A   1      37.689  21.360  25.381  1.00  0.00     0.014 A 
ATOM     31  C   UNL A   1      38.702  22.107  25.995  1.00  0.00     0.056 A 
BRANCH  31  32
ATOM     32  C   UNL A   1      40.032  21.477  26.339  1.00  0.00     0.416 C 
ATOM     33  F   UNL A   1      41.074  22.068  25.691  1.00  0.00    -0.166 F 
ATOM     34  F   UNL A   1      40.323  21.554  27.666  1.00  0.00    -0.166 F 
ATOM     35  F   UNL A   1      40.103  20.153  26.019  1.00  0.00    -0.166 F 
ENDBRANCH  31  32
ENDBRANCH  17  26
ENDBRANCH   6   8
ENDBRANCH   5   6
ENDBRANCH   4   5
ENDBRANCH   3   4
ENDBRANCH   2   3
ENDBRANCH   1   2
BRANCH   1  36
ATOM     36  C   UNL A   1      34.088  32.190  28.105  1.00  0.00     0.188 C 
BRANCH  36  37
ATOM     37  O   UNL A   1      34.441  32.316  29.481  1.00  0.00    -0.376 OA
BRANCH  37  38
ATOM     38  C   UNL A   1      35.670  32.970  29.789  1.00  0.00     0.202 C 
BRANCH  38  39
ATOM     39  C   UNL A   1      36.769  32.110  30.408  1.00  0.00     0.261 C 
BRANCH  39  40
ATOM     40  O   UNL A   1      37.289  31.122  29.531  1.00  0.00    -0.460 OA
BRANCH  40  41
ATOM     41  C   UNL A   1      37.014  29.862  29.936  1.00  0.00     0.338 C 
ATOM     42  O   UNL A   1      36.305  29.510  30.864  1.00  0.00    -0.246 OA
BRANCH  41  43
ATOM     43  C   UNL A   1      37.811  28.918  29.149  1.00  0.00     0.060 A 
ATOM     44  C   UNL A   1      38.337  27.842  29.868  1.00  0.00     0.016 A 
ATOM     45  C   UNL A   1      38.388  29.395  27.966  1.00  0.00     0.016 A 
ATOM     46  C   UNL A   1      39.630  27.474  29.592  1.00  0.00     0.010 A 
ATOM     47  C   UNL A   1      39.686  29.042  27.707  1.00  0.00     0.010 A 
ATOM     48  C   UNL A   1      40.317  28.180  28.598  1.00  0.00    -0.014 A 
BRANCH  48  49
ATOM     49  C   UNL A   1      41.738  27.967  28.493  1.00  0.00     0.031 A 
ATOM     50  C   UNL A   1      42.067  26.681  27.860  1.00  0.00     0.074 A 
ATOM     51  C   UNL A   1      42.640  28.885  28.885  1.00  0.00     0.049 A 
ATOM     52  N   UNL A   1      42.561  25.636  28.432  1.00  0.00    -0.248 NA
ATOM     53  C   UNL A   1      41.613  26.466  26.479  1.00  0.00     0.031 C 
ATOM     54  C   UNL A   1      42.427  30.278  29.282  1.00  0.00     0.029 A 
ATOM     55  N   UNL A   1      43.991  28.759  28.929  1.00  0.00    -0.354 N 
ATOM     56  C   UNL A   1      42.658  24.683  27.430  1.00  0.00     0.074 A 
ATOM     57  C   UNL A   1      41.888  25.173  26.317  1.00  0.00     0.031 C 
ATOM     58  C   UNL A   1      43.619  30.921  29.305  1.00  0.00     0.029 A 
ATOM     59  C   UNL A   1      44.678  29.957  29.056  1.00  0.00     0.049 A 
ATOM     60  H   UNL A   1      44.446  27.888  28.877  1.00  0.00     0.167 HD
ATOM     61  C   UNL A   1      43.580  23.689  27.507  1.00  0.00     0.037 A 
ATOM     62  C   UNL A   1      46.014  30.118  28.877  1.00  0.00     0.037 A 
ATOM     63  C   UNL A   1      44.078  23.536  28.850  1.00  0.00     0.049 A 
ATOM     64  C   UNL A   1      46.644  28.777  29.020  1.00  0.00     0.074 A 
ATOM     65  C   UNL A   1      43.501  23.208  30.061  1.00  0.00     0.029 A 
ATOM     66  N   UNL A   1      45.287  24.112  29.155  1.00  0.00    -0.354 N 
ATOM     67  N   UNL A   1      46.710  28.127  30.150  1.00  0.00    -0.248 NA
ATOM     68  C   UNL A   1      46.772  27.956  27.823  1.00  0.00     0.031 C 
ATOM     69  C   UNL A   1      44.168  24.019  31.024  1.00  0.00     0.029 A 
ATOM     70  C   UNL A   1      45.151  24.752  30.360  1.00  0.00     0.049 A 
ATOM     71  H   UNL A   1      46.104  24.074  28.607  1.00  0.00     0.167 HD
ATOM     72  C   UNL A   1      46.448  26.806  29.814  1.00  0.00     0.074 A 
ATOM     73  C   UNL A   1      46.575  26.748  28.360  1.00  0.00     0.031 C 
ATOM     74  C   UNL A   1      45.867  25.956  30.711  1.00  0.00     0.037 A 
BRANCH  61  75
ATOM     75  C   UNL A   1      44.301  23.139  26.307  1.00  0.00     0.064 A 
ATOM     76  C   UNL A   1      44.234  21.758  26.049  1.00  0.00     0.173 A 
ATOM     77  C   UNL A   1      45.281  23.853  25.584  1.00  0.00     0.173 A 
ATOM     78  F   UNL A   1      43.356  20.984  26.701  1.00  0.00    -0.203 F 
ATOM     79  C   UNL A   1      45.133  21.131  25.183  1.00  0.00     0.198 A 
ATOM     80  C   UNL A   1      46.136  23.234  24.678  1.00  0.00     0.198 A 
ATOM     81  F   UNL A   1      45.536  25.147  25.806  1.00  0.00    -0.203 F 
ATOM     82  F   UNL A   1      45.118  19.797  25.065  1.00  0.00    -0.200 F 
ATOM     83  C   UNL A   1      46.085  21.868  24.502  1.00  0.00     0.200 A 
ATOM     84  F   UNL A   1      47.064  23.964  24.044  1.00  0.00    -0.200 F 
ATOM     85  F   UNL A   1      46.985  21.261  23.719  1.00  0.00    -0.200 F 
ENDBRANCH  61  75
BRANCH  62  86
ATOM     86  C   UNL A   1      46.720  31.260  28.246  1.00  0.00     0.064 A 
ATOM     87  C   UNL A   1      46.180  31.917  27.127  1.00  0.00     0.173 A 
ATOM     88  C   UNL A   1      47.787  31.910  28.896  1.00  0.00     0.173 A 
ATOM     89  F   UNL A   1      45.131  31.391  26.478  1.00  0.00    -0.203 F 
ATOM     90  C   UNL A   1      46.662  33.161  26.702  1.00  0.00     0.198 A 
ATOM     91  C   UNL A   1      48.270  33.148  28.468  1.00  0.00     0.198 A 
ATOM     92  F   UNL A   1      48.318  31.410  30.020  1.00  0.00    -0.203 F 
ATOM     93  F   UNL A   1      46.078  33.787  25.671  1.00  0.00    -0.200 F 
ATOM     94  C   UNL A   1      47.699  33.780  27.380  1.00  0.00     0.200 A 
ATOM     95  F   UNL A   1      49.248  33.753  29.157  1.00  0.00    -0.200 F 
ATOM     96  F   UNL A   1      48.117  34.998  27.013  1.00  0.00    -0.200 F 
ENDBRANCH  62  86
BRANCH  74  97
ATOM     97  C   UNL A   1      45.761  26.418  32.138  1.00  0.00     0.064 A 
ATOM     98  C   UNL A   1      46.792  26.292  33.086  1.00  0.00     0.173 A 
ATOM     99  C   UNL A   1      44.622  27.140  32.518  1.00  0.00     0.173 A 
ATOM    100  F   UNL A   1      47.953  25.704  32.767  1.00  0.00    -0.203 F 
ATOM    101  C   UNL A   1      46.666  26.824  34.368  1.00  0.00     0.198 A 
ATOM    102  C   UNL A   1      44.515  27.705  33.785  1.00  0.00     0.198 A 
ATOM    103  F   UNL A   1      43.630  27.342  31.637  1.00  0.00    -0.203 F 
ATOM    104  F   UNL A   1      47.658  26.677  35.259  1.00  0.00    -0.200 F 
ATOM    105  C   UNL A   1      45.530  27.537  34.714  1.00  0.00     0.200 A 
ATOM    106  F   UNL A   1      43.436  28.436  34.098  1.00  0.00    -0.200 F 
ATOM    107  F   UNL A   1      45.423  28.085  35.932  1.00  0.00    -0.200 F 
ENDBRANCH  74  97
ENDBRANCH  48  49
ENDBRANCH  41  43
ENDBRANCH  40  41
ENDBRANCH  39  40
ENDBRANCH  38  39
ENDBRANCH  37  38
ENDBRANCH  36  37
ENDBRANCH   1  36
TORSDOF 21
ENDMDL
MODEL 2
REMARK VINA RESULT:     -12.1      3.201      7.863
REMARK SMILES COc1ccc(-c2[nH]nc3nc(-c4ccc(C(F)(F)F)cc4)cc(C(=O)OCCOCCOCCOC(=O)c4ccc(-c5c6nc(c(-c7c(F)c(F)c(F)c(F)c7F)c7ccc([nH]7)c(-c7c(F)c(F)c(F)c(F)c7F)c7nc(c(-c8c(F)c(F)c(F)c(F)c8F)c8ccc5[nH]8)C=C7)C=C6)cc4)c23)cc1
REMARK SMILES IDX 31 1 30 2 29 3 28 4 27 5 25 6 26 7 24 8 7 9 8 10 102 11 9 12
REMARK SMILES IDX 10 14 11 15 23 16 12 17 6 18 3 19 4 20 104 21 5 22 103 23
REMARK SMILES IDX 2 24 1 25 13 26 14 27 22 28 15 29 21 30 16 31 17 32 18 33
REMARK SMILES IDX 19 34 20 35 32 36 33 37 34 38 35 39 36 40 37 41 38 42 39 43
REMARK SMILES IDX 40 44 101 45 41 46 100 47 42 48 43 49 44 50 94 51 45 52
REMARK SMILES IDX 99 53 93 54 95 55 46 56 98 57 92 58 91 59 47 61 79 62 59 63
REMARK SMILES IDX 78 64 60 65 63 66 77 67 96 68 61 69 62 70 76 72 97 73 64 74
REMARK SMILES IDX 48 75 49 76 57 77 50 78 51 79 55 80 58 81 52 82 53 83 56 84
REMARK SMILES IDX 54 85 80 86 81 87 89 88 82 89 83 90 87 91 90 92 84 93 85 94
REMARK SMILES IDX 88 95 86 96 65 97 66 98 74 99 67 100 68 101 72 102 75 103
REMARK SMILES IDX 69 104 70 105 73 106 71 107
REMARK H PARENT 8 13 95 60 63 71
REMARK Flexibility Score: inf
ROOT
ATOM      1  C   UNL A   1      35.030  30.718  27.988  1.00  0.00     0.188 C 
ENDROOT
BRANCH   1   2
ATOM      2  O   UNL A   1      34.472  29.746  27.117  1.00  0.00    -0.376 OA
BRANCH   2   3
ATOM      3  C   UNL A   1      33.036  29.684  27.133  1.00  0.00     0.202 C 
BRANCH   3   4
ATOM      4  C   UNL A   1      32.342  28.296  27.096  1.00  0.00     0.261 C 
BRANCH   4   5
ATOM      5  O   UNL A   1      33.031  27.259  26.359  1.00  0.00    -0.460 OA
BRANCH   5   6
ATOM      6  C   UNL A   1      32.379  26.090  26.118  1.00  0.00     0.339 C 
ATOM      7  O   UNL A   1      31.282  25.814  26.520  1.00  0.00    -0.246 OA
BRANCH   6   8
ATOM      8  C   UNL A   1      33.211  25.292  25.165  1.00  0.00     0.075 A 
ATOM      9  C   UNL A   1      32.005  25.657  22.965  1.00  0.00     0.075 A 
ATOM     10  N   UNL A   1      32.183  25.028  21.752  1.00  0.00    -0.275 N 
ATOM     11  C   UNL A   1      32.938  25.069  23.805  1.00  0.00     0.061 A 
ATOM     12  N   UNL A   1      33.258  24.233  21.690  1.00  0.00    -0.154 NA
ATOM     13  H   UNL A   1      31.569  25.153  20.993  1.00  0.00     0.190 HD
ATOM     14  C   UNL A   1      33.758  24.285  22.922  1.00  0.00     0.182 A 
ATOM     15  N   UNL A   1      34.922  23.720  23.312  1.00  0.00    -0.226 NA
ATOM     16  C   UNL A   1      34.456  24.717  25.520  1.00  0.00     0.045 A 
ATOM     17  C   UNL A   1      35.256  23.969  24.608  1.00  0.00     0.074 A 
BRANCH   9  18
ATOM     18  C   UNL A   1      31.111  26.801  23.061  1.00  0.00     0.001 A 
ATOM     19  C   UNL A   1      29.306  28.954  23.169  1.00  0.00     0.118 A 
ATOM     20  C   UNL A   1      30.647  29.160  22.831  1.00  0.00     0.047 A 
ATOM     21  C   UNL A   1      28.879  27.670  23.501  1.00  0.00     0.047 A 
ATOM     22  C   UNL A   1      31.551  28.094  22.788  1.00  0.00     0.014 A 
ATOM     23  C   UNL A   1      29.780  26.602  23.454  1.00  0.00     0.014 A 
BRANCH  19  24
ATOM     24  O   UNL A   1      28.525  30.075  23.124  1.00  0.00    -0.497 OA
ATOM     25  C   UNL A   1      28.905  31.091  22.204  1.00  0.00     0.278 C 
ENDBRANCH  19  24
ENDBRANCH   9  18
BRANCH  17  26
ATOM     26  C   UNL A   1      36.538  23.341  25.021  1.00  0.00     0.000 A 
ATOM     27  C   UNL A   1      36.926  22.074  24.540  1.00  0.00     0.011 A 
ATOM     28  C   UNL A   1      37.384  23.952  25.963  1.00  0.00     0.011 A 
ATOM     29  C   UNL A   1      38.087  21.434  25.000  1.00  0.00     0.014 A 
ATOM     30  C   UNL A   1      38.543  23.317  26.428  1.00  0.00     0.014 A 
ATOM     31  C   UNL A   1      38.901  22.046  25.963  1.00  0.00     0.056 A 
BRANCH  31  32
ATOM     32  C   UNL A   1      40.118  21.334  26.506  1.00  0.00     0.416 C 
ATOM     33  F   UNL A   1      40.014  19.979  26.416  1.00  0.00    -0.166 F 
ATOM     34  F   UNL A   1      41.261  21.668  25.846  1.00  0.00    -0.166 F 
ATOM     35  F   UNL A   1      40.358  21.599  27.822  1.00  0.00    -0.166 F 
ENDBRANCH  31  32
ENDBRANCH  17  26
ENDBRANCH   6   8
ENDBRANCH   5   6
ENDBRANCH   4   5
ENDBRANCH   3   4
ENDBRANCH   2   3
ENDBRANCH   1   2
BRANCH   1  36
ATOM     36  C   UNL A   1      34.788  32.174  27.659  1.00  0.00     0.188 C 
BRANCH  36  37
ATOM     37  O   UNL A   1      33.814  32.821  28.475  1.00  0.00    -0.376 OA
BRANCH  37  38
ATOM     38  C   UNL A   1      33.455  34.159  28.139  1.00  0.00     0.202 C 
BRANCH  38  39
ATOM     39  C   UNL A   1      33.351  35.152  29.293  1.00  0.00     0.261 C 
BRANCH  39  40
ATOM     40  O   UNL A   1      34.327  34.962  30.306  1.00  0.00    -0.460 OA
BRANCH  40  41
ATOM     41  C   UNL A   1      33.788  34.807  31.535  1.00  0.00     0.338 C 
ATOM     42  O   UNL A   1      32.728  35.245  31.950  1.00  0.00    -0.246 OA
BRANCH  41  43
ATOM     43  C   UNL A   1      34.741  34.103  32.396  1.00  0.00     0.060 A 
ATOM     44  C   UNL A   1      35.882  34.832  32.739  1.00  0.00     0.016 A 
ATOM     45  C   UNL A   1      34.713  32.703  32.375  1.00  0.00     0.016 A 
ATOM     46  C   UNL A   1      37.082  34.168  32.718  1.00  0.00     0.010 A 
ATOM     47  C   UNL A   1      35.915  32.046  32.331  1.00  0.00     0.010 A 
ATOM     48  C   UNL A   1      37.076  32.809  32.384  1.00  0.00    -0.014 A 
BRANCH  48  49
ATOM     49  C   UNL A   1      38.347  32.186  32.112  1.00  0.00     0.031 A 
ATOM     50  C   UNL A   1      39.173  32.044  33.320  1.00  0.00     0.074 A 
ATOM     51  C   UNL A   1      38.690  31.741  30.889  1.00  0.00     0.049 A 
ATOM     52  N   UNL A   1      40.240  32.704  33.616  1.00  0.00    -0.248 NA
ATOM     53  C   UNL A   1      38.643  31.217  34.414  1.00  0.00     0.031 C 
ATOM     54  C   UNL A   1      37.860  31.599  29.692  1.00  0.00     0.029 A 
ATOM     55  N   UNL A   1      39.886  31.235  30.493  1.00  0.00    -0.354 N 
ATOM     56  C   UNL A   1      40.627  32.235  34.862  1.00  0.00     0.074 A 
ATOM     57  C   UNL A   1      39.517  31.481  35.382  1.00  0.00     0.031 C 
ATOM     58  C   UNL A   1      38.516  30.839  28.783  1.00  0.00     0.029 A 
ATOM     59  C   UNL A   1      39.852  30.558  29.283  1.00  0.00     0.049 A 
ATOM     60  H   UNL A   1      40.709  31.340  31.021  1.00  0.00     0.167 HD
ATOM     61  C   UNL A   1      41.928  32.288  35.247  1.00  0.00     0.037 A 
ATOM     62  C   UNL A   1      40.841  29.763  28.800  1.00  0.00     0.037 A 
ATOM     63  C   UNL A   1      42.680  33.213  34.438  1.00  0.00     0.049 A 
ATOM     64  C   UNL A   1      42.095  30.137  29.511  1.00  0.00     0.074 A 
ATOM     65  C   UNL A   1      42.606  34.572  34.206  1.00  0.00     0.029 A 
ATOM     66  N   UNL A   1      43.439  32.699  33.416  1.00  0.00    -0.354 N 
ATOM     67  N   UNL A   1      42.707  31.277  29.345  1.00  0.00    -0.248 NA
ATOM     68  C   UNL A   1      42.400  29.443  30.756  1.00  0.00     0.031 C 
ATOM     69  C   UNL A   1      42.920  34.733  32.826  1.00  0.00     0.029 A 
ATOM     70  C   UNL A   1      43.223  33.474  32.306  1.00  0.00     0.049 A 
ATOM     71  H   UNL A   1      44.032  31.914  33.470  1.00  0.00     0.167 HD
ATOM     72  C   UNL A   1      43.117  31.648  30.618  1.00  0.00     0.074 A 
ATOM     73  C   UNL A   1      42.974  30.444  31.433  1.00  0.00     0.031 C 
ATOM     74  C   UNL A   1      43.254  32.964  30.956  1.00  0.00     0.037 A 
BRANCH  61  75
ATOM     75  C   UNL A   1      42.583  31.226  36.085  1.00  0.00     0.064 A 
ATOM     76  C   UNL A   1      43.322  31.612  37.218  1.00  0.00     0.173 A 
ATOM     77  C   UNL A   1      42.763  29.890  35.660  1.00  0.00     0.173 A 
ATOM     78  F   UNL A   1      43.243  32.865  37.688  1.00  0.00    -0.203 F 
ATOM     79  C   UNL A   1      44.226  30.743  37.834  1.00  0.00     0.198 A 
ATOM     80  C   UNL A   1      43.620  29.011  36.313  1.00  0.00     0.198 A 
ATOM     81  F   UNL A   1      42.215  29.415  34.536  1.00  0.00    -0.203 F 
ATOM     82  F   UNL A   1      45.002  31.192  38.828  1.00  0.00    -0.200 F 
ATOM     83  C   UNL A   1      44.378  29.446  37.379  1.00  0.00     0.200 A 
ATOM     84  F   UNL A   1      43.767  27.764  35.842  1.00  0.00    -0.200 F 
ATOM     85  F   UNL A   1      45.287  28.633  37.929  1.00  0.00    -0.200 F 
ENDBRANCH  61  75
BRANCH  62  86
ATOM     86  C   UNL A   1      40.708  28.491  28.050  1.00  0.00     0.064 A 
ATOM     87  C   UNL A   1      41.292  28.334  26.781  1.00  0.00     0.173 A 
ATOM     88  C   UNL A   1      40.254  27.315  28.677  1.00  0.00     0.173 A 
ATOM     89  F   UNL A   1      41.794  29.395  26.134  1.00  0.00    -0.203 F 
ATOM     90  C   UNL A   1      41.437  27.073  26.190  1.00  0.00     0.198 A 
ATOM     91  C   UNL A   1      40.394  26.059  28.085  1.00  0.00     0.198 A 
ATOM     92  F   UNL A   1      39.757  27.345  29.922  1.00  0.00    -0.203 F 
ATOM     93  F   UNL A   1      42.058  26.955  25.008  1.00  0.00    -0.200 F 
ATOM     94  C   UNL A   1      40.997  25.936  26.848  1.00  0.00     0.200 A 
ATOM     95  F   UNL A   1      39.999  24.964  28.750  1.00  0.00    -0.200 F 
ATOM     96  F   UNL A   1      41.193  24.723  26.312  1.00  0.00    -0.200 F 
ENDBRANCH  62  86
BRANCH  74  97
ATOM     97  C   UNL A   1      43.198  33.976  29.845  1.00  0.00     0.064 A 
ATOM     98  C   UNL A   1      44.305  34.345  29.059  1.00  0.00     0.173 A 
ATOM     99  C   UNL A   1      41.947  34.486  29.474  1.00  0.00     0.173 A 
ATOM    100  F   UNL A   1      45.516  33.821  29.286  1.00  0.00    -0.203 F 
ATOM    101  C   UNL A   1      44.168  35.221  27.984  1.00  0.00     0.198 A 
ATOM    102  C   UNL A   1      41.806  35.328  28.376  1.00  0.00     0.198 A 
ATOM    103  F   UNL A   1      40.846  34.123  30.153  1.00  0.00    -0.203 F 
ATOM    104  F   UNL A   1      45.241  35.569  27.258  1.00  0.00    -0.200 F 
ATOM    105  C   UNL A   1      42.917  35.706  27.638  1.00  0.00     0.200 A 
ATOM    106  F   UNL A   1      40.588  35.754  28.016  1.00  0.00    -0.200 F 
ATOM    107  F   UNL A   1      42.776  36.515  26.579  1.00  0.00    -0.200 F 
ENDBRANCH  74  97
ENDBRANCH  48  49
ENDBRANCH  41  43
ENDBRANCH  40  41
ENDBRANCH  39  40
ENDBRANCH  38  39
ENDBRANCH  37  38
ENDBRANCH  36  37
ENDBRANCH   1  36
TORSDOF 21
ENDMDL
MODEL 3
REMARK VINA RESULT:     -10.9      2.249      6.926
REMARK SMILES COc1ccc(-c2[nH]nc3nc(-c4ccc(C(F)(F)F)cc4)cc(C(=O)OCCOCCOCCOC(=O)c4ccc(-c5c6nc(c(-c7c(F)c(F)c(F)c(F)c7F)c7ccc([nH]7)c(-c7c(F)c(F)c(F)c(F)c7F)c7nc(c(-c8c(F)c(F)c(F)c(F)c8F)c8ccc5[nH]8)C=C7)C=C6)cc4)c23)cc1
REMARK SMILES IDX 31 1 30 2 29 3 28 4 27 5 25 6 26 7 24 8 7 9 8 10 102 11 9 12
REMARK SMILES IDX 10 14 11 15 23 16 12 17 6 18 3 19 4 20 104 21 5 22 103 23
REMARK SMILES IDX 2 24 1 25 13 26 14 27 22 28 15 29 21 30 16 31 17 32 18 33
REMARK SMILES IDX 19 34 20 35 32 36 33 37 34 38 35 39 36 40 37 41 38 42 39 43
REMARK SMILES IDX 40 44 101 45 41 46 100 47 42 48 43 49 44 50 94 51 45 52
REMARK SMILES IDX 99 53 93 54 95 55 46 56 98 57 92 58 91 59 47 61 79 62 59 63
REMARK SMILES IDX 78 64 60 65 63 66 77 67 96 68 61 69 62 70 76 72 97 73 64 74
REMARK SMILES IDX 48 75 49 76 57 77 50 78 51 79 55 80 58 81 52 82 53 83 56 84
REMARK SMILES IDX 54 85 80 86 81 87 89 88 82 89 83 90 87 91 90 92 84 93 85 94
REMARK SMILES IDX 88 95 86 96 65 97 66 98 74 99 67 100 68 101 72 102 75 103
REMARK SMILES IDX 69 104 70 105 73 106 71 107
REMARK H PARENT 8 13 95 60 63 71
REMARK Flexibility Score: inf
ROOT
ATOM      1  C   UNL A   1      33.634  33.435  27.793  1.00  0.00     0.188 C 
ENDROOT
BRANCH   1   2
ATOM      2  O   UNL A   1      32.397  32.802  27.497  1.00  0.00    -0.376 OA
BRANCH   2   3
ATOM      3  C   UNL A   1      32.520  31.481  26.945  1.00  0.00     0.202 C 
BRANCH   3   4
ATOM      4  C   UNL A   1      31.510  31.022  25.859  1.00  0.00     0.261 C 
BRANCH   4   5
ATOM      5  O   UNL A   1      31.463  29.601  25.593  1.00  0.00    -0.460 OA
BRANCH   5   6
ATOM      6  C   UNL A   1      31.910  29.149  24.390  1.00  0.00     0.339 C 
ATOM      7  O   UNL A   1      32.603  29.771  23.632  1.00  0.00    -0.246 OA
BRANCH   6   8
ATOM      8  C   UNL A   1      31.498  27.718  24.259  1.00  0.00     0.075 A 
ATOM      9  C   UNL A   1      29.064  27.920  23.578  1.00  0.00     0.075 A 
ATOM     10  N   UNL A   1      28.094  26.946  23.491  1.00  0.00    -0.275 N 
ATOM     11  C   UNL A   1      30.204  27.244  23.987  1.00  0.00     0.061 A 
ATOM     12  N   UNL A   1      28.548  25.694  23.624  1.00  0.00    -0.154 NA
ATOM     13  H   UNL A   1      27.143  27.154  23.344  1.00  0.00     0.190 HD
ATOM     14  C   UNL A   1      29.844  25.857  23.880  1.00  0.00     0.182 A 
ATOM     15  N   UNL A   1      30.747  24.856  23.981  1.00  0.00    -0.226 NA
ATOM     16  C   UNL A   1      32.416  26.641  24.318  1.00  0.00     0.045 A 
ATOM     17  C   UNL A   1      32.026  25.277  24.179  1.00  0.00     0.074 A 
BRANCH   9  18
ATOM     18  C   UNL A   1      28.782  29.265  23.101  1.00  0.00     0.001 A 
ATOM     19  C   UNL A   1      28.115  31.843  22.198  1.00  0.00     0.118 A 
ATOM     20  C   UNL A   1      28.911  30.996  21.421  1.00  0.00     0.047 A 
ATOM     21  C   UNL A   1      27.691  31.415  23.454  1.00  0.00     0.047 A 
ATOM     22  C   UNL A   1      29.256  29.718  21.872  1.00  0.00     0.014 A 
ATOM     23  C   UNL A   1      28.030  30.135  23.904  1.00  0.00     0.014 A 
BRANCH  19  24
ATOM     24  O   UNL A   1      27.816  33.042  21.613  1.00  0.00    -0.497 OA
ATOM     25  C   UNL A   1      27.655  33.051  20.201  1.00  0.00     0.278 C 
ENDBRANCH  19  24
ENDBRANCH   9  18
BRANCH  17  26
ATOM     26  C   UNL A   1      33.006  24.165  24.287  1.00  0.00     0.000 A 
ATOM     27  C   UNL A   1      32.790  23.075  25.156  1.00  0.00     0.011 A 
ATOM     28  C   UNL A   1      34.222  24.187  23.583  1.00  0.00     0.011 A 
ATOM     29  C   UNL A   1      33.756  22.072  25.334  1.00  0.00     0.014 A 
ATOM     30  C   UNL A   1      35.190  23.191  23.759  1.00  0.00     0.014 A 
ATOM     31  C   UNL A   1      34.974  22.129  24.646  1.00  0.00     0.056 A 
BRANCH  31  32
ATOM     32  C   UNL A   1      36.040  21.085  24.882  1.00  0.00     0.416 C 
ATOM     33  F   UNL A   1      35.570  19.816  24.737  1.00  0.00    -0.166 F 
ATOM     34  F   UNL A   1      37.088  21.199  24.021  1.00  0.00    -0.166 F 
ATOM     35  F   UNL A   1      36.581  21.137  26.133  1.00  0.00    -0.166 F 
ENDBRANCH  31  32
ENDBRANCH  17  26
ENDBRANCH   6   8
ENDBRANCH   5   6
ENDBRANCH   4   5
ENDBRANCH   3   4
ENDBRANCH   2   3
ENDBRANCH   1   2
BRANCH   1  36
ATOM     36  C   UNL A   1      34.233  33.196  29.161  1.00  0.00     0.188 C 
BRANCH  36  37
ATOM     37  O   UNL A   1      34.451  34.373  29.935  1.00  0.00    -0.376 OA
BRANCH  37  38
ATOM     38  C   UNL A   1      34.404  34.247  31.354  1.00  0.00     0.202 C 
BRANCH  38  39
ATOM     39  C   UNL A   1      35.745  34.200  32.083  1.00  0.00     0.261 C 
BRANCH  39  40
ATOM     40  O   UNL A   1      36.707  33.360  31.464  1.00  0.00    -0.460 OA
BRANCH  40  41
ATOM     41  C   UNL A   1      36.492  32.047  31.704  1.00  0.00     0.338 C 
ATOM     42  O   UNL A   1      35.948  31.540  32.670  1.00  0.00    -0.246 OA
BRANCH  41  43
ATOM     43  C   UNL A   1      37.131  31.253  30.651  1.00  0.00     0.060 A 
ATOM     44  C   UNL A   1      36.834  29.889  30.674  1.00  0.00     0.016 A 
ATOM     45  C   UNL A   1      38.304  31.766  30.083  1.00  0.00     0.016 A 
ATOM     46  C   UNL A   1      37.868  29.017  30.444  1.00  0.00     0.010 A 
ATOM     47  C   UNL A   1      39.341  30.895  29.877  1.00  0.00     0.010 A 
ATOM     48  C   UNL A   1      39.133  29.553  30.178  1.00  0.00    -0.014 A 
BRANCH  48  49
ATOM     49  C   UNL A   1      40.255  28.648  30.196  1.00  0.00     0.031 A 
ATOM     50  C   UNL A   1      40.771  28.421  31.554  1.00  0.00     0.074 A 
ATOM     51  C   UNL A   1      40.720  28.048  29.085  1.00  0.00     0.049 A 
ATOM     52  N   UNL A   1      41.882  28.853  32.047  1.00  0.00    -0.248 NA
ATOM     53  C   UNL A   1      39.861  27.815  32.536  1.00  0.00     0.031 C 
ATOM     54  C   UNL A   1      40.132  28.000  27.746  1.00  0.00     0.029 A 
ATOM     55  N   UNL A   1      41.822  27.263  28.963  1.00  0.00    -0.354 N 
ATOM     56  C   UNL A   1      41.898  28.406  33.359  1.00  0.00     0.074 A 
ATOM     57  C   UNL A   1      40.565  27.954  33.658  1.00  0.00     0.031 C 
ATOM     58  C   UNL A   1      40.762  27.048  27.017  1.00  0.00     0.029 A 
ATOM     59  C   UNL A   1      41.872  26.520  27.793  1.00  0.00     0.049 A 
ATOM     60  H   UNL A   1      42.527  27.225  29.648  1.00  0.00     0.167 HD
ATOM     61  C   UNL A   1      43.074  28.202  34.006  1.00  0.00     0.037 A 
ATOM     62  C   UNL A   1      42.728  25.494  27.551  1.00  0.00     0.037 A 
ATOM     63  C   UNL A   1      44.162  28.876  33.345  1.00  0.00     0.049 A 
ATOM     64  C   UNL A   1      43.868  25.638  28.497  1.00  0.00     0.074 A 
ATOM     65  C   UNL A   1      44.450  30.197  33.063  1.00  0.00     0.029 A 
ATOM     66  N   UNL A   1      44.970  28.132  32.520  1.00  0.00    -0.354 N 
ATOM     67  N   UNL A   1      44.746  26.600  28.429  1.00  0.00    -0.248 NA
ATOM     68  C   UNL A   1      43.755  24.991  29.798  1.00  0.00     0.031 C 
ATOM     69  C   UNL A   1      45.058  30.180  31.775  1.00  0.00     0.029 A 
ATOM     70  C   UNL A   1      45.160  28.850  31.367  1.00  0.00     0.049 A 
ATOM     71  H   UNL A   1      45.344  27.243  32.719  1.00  0.00     0.167 HD
ATOM     72  C   UNL A   1      44.972  26.967  29.748  1.00  0.00     0.074 A 
ATOM     73  C   UNL A   1      44.398  25.890  30.550  1.00  0.00     0.031 C 
ATOM     74  C   UNL A   1      45.338  28.244  30.069  1.00  0.00     0.037 A 
BRANCH  61  75
ATOM     75  C   UNL A   1      43.290  27.089  34.993  1.00  0.00     0.064 A 
ATOM     76  C   UNL A   1      43.551  27.412  36.337  1.00  0.00     0.173 A 
ATOM     77  C   UNL A   1      43.543  25.749  34.622  1.00  0.00     0.173 A 
ATOM     78  F   UNL A   1      43.368  28.662  36.785  1.00  0.00    -0.203 F 
ATOM     79  C   UNL A   1      44.093  26.477  37.223  1.00  0.00     0.198 A 
ATOM     80  C   UNL A   1      44.027  24.806  35.524  1.00  0.00     0.198 A 
ATOM     81  F   UNL A   1      43.449  25.324  33.358  1.00  0.00    -0.203 F 
ATOM     82  F   UNL A   1      44.446  26.862  38.456  1.00  0.00    -0.200 F 
ATOM     83  C   UNL A   1      44.334  25.178  36.815  1.00  0.00     0.200 A 
ATOM     84  F   UNL A   1      44.273  23.558  35.102  1.00  0.00    -0.200 F 
ATOM     85  F   UNL A   1      44.909  24.300  37.644  1.00  0.00    -0.200 F 
ENDBRANCH  61  75
BRANCH  62  86
ATOM     86  C   UNL A   1      42.456  24.229  26.827  1.00  0.00     0.064 A 
ATOM     87  C   UNL A   1      43.312  23.780  25.806  1.00  0.00     0.173 A 
ATOM     88  C   UNL A   1      41.520  23.295  27.311  1.00  0.00     0.173 A 
ATOM     89  F   UNL A   1      44.265  24.590  25.321  1.00  0.00    -0.203 F 
ATOM     90  C   UNL A   1      43.251  22.469  25.319  1.00  0.00     0.198 A 
ATOM     91  C   UNL A   1      41.456  21.989  26.821  1.00  0.00     0.198 A 
ATOM     92  F   UNL A   1      40.714  23.595  28.339  1.00  0.00    -0.203 F 
ATOM     93  F   UNL A   1      44.127  22.058  24.392  1.00  0.00    -0.200 F 
ATOM     94  C   UNL A   1      42.330  21.572  25.835  1.00  0.00     0.200 A 
ATOM     95  F   UNL A   1      40.587  21.121  27.357  1.00  0.00    -0.200 F 
ATOM     96  F   UNL A   1      42.315  20.300  25.416  1.00  0.00    -0.200 F 
ENDBRANCH  62  86
BRANCH  74  97
ATOM     97  C   UNL A   1      45.736  29.156  28.942  1.00  0.00     0.064 A 
ATOM     98  C   UNL A   1      44.828  29.920  28.187  1.00  0.00     0.173 A 
ATOM     99  C   UNL A   1      47.102  29.369  28.712  1.00  0.00     0.173 A 
ATOM    100  F   UNL A   1      43.510  29.849  28.418  1.00  0.00    -0.203 F 
ATOM    101  C   UNL A   1      45.269  30.818  27.216  1.00  0.00     0.198 A 
ATOM    102  C   UNL A   1      47.541  30.295  27.771  1.00  0.00     0.198 A 
ATOM    103  F   UNL A   1      48.016  28.711  29.443  1.00  0.00    -0.203 F 
ATOM    104  F   UNL A   1      44.381  31.524  26.500  1.00  0.00    -0.200 F 
ATOM    105  C   UNL A   1      46.625  31.010  27.014  1.00  0.00     0.200 A 
ATOM    106  F   UNL A   1      48.854  30.513  27.615  1.00  0.00    -0.200 F 
ATOM    107  F   UNL A   1      47.053  31.903  26.111  1.00  0.00    -0.200 F 
ENDBRANCH  74  97
ENDBRANCH  48  49
ENDBRANCH  41  43
ENDBRANCH  40  41
ENDBRANCH  39  40
ENDBRANCH  38  39
ENDBRANCH  37  38
ENDBRANCH  36  37
ENDBRANCH   1  36
TORSDOF 21
ENDMDL
