MODEL 1
REMARK VINA RESULT:     -12.4      0.000      0.000
REMARK SMILES C[NH+]1CCC([NH+]2CCC(Oc3ccc4ccccc4c3)(C(=O)OCCOCCOCCOC(=O)c3ccc(-c4c5nc(c(-c6c(F)c(F)c(F)c(F)c6F)c6ccc([nH]6)c(-c6c(F)c(F)c(F)c(F)c6F)c6nc(c(-c7c(F)c(F)c(F)c(F)c7F)c7ccc4[nH]7)C=C6)C=C5)cc3)CC2)CC1
REMARK SMILES IDX 27 1 26 2 25 3 24 4 23 5 21 6 22 7 9 8 6 9 7 10 99 11 8 13
REMARK SMILES IDX 98 14 5 15 1 16 2 17 3 18 101 19 4 21 100 22 10 23 11 24
REMARK SMILES IDX 12 25 20 26 13 27 19 28 14 29 18 30 15 31 17 32 16 33 28 34
REMARK SMILES IDX 29 35 30 36 31 37 32 38 33 39 34 40 35 41 36 42 97 43 37 44
REMARK SMILES IDX 96 45 38 46 39 47 40 48 90 49 41 50 95 51 89 52 91 53 42 54
REMARK SMILES IDX 94 55 88 56 87 57 43 59 75 60 55 61 74 62 56 63 59 64 73 65
REMARK SMILES IDX 92 66 57 67 58 68 72 70 93 71 60 72 44 73 45 74 53 75 46 76
REMARK SMILES IDX 47 77 51 78 54 79 48 80 49 81 52 82 50 83 76 84 77 85 85 86
REMARK SMILES IDX 78 87 79 88 83 89 86 90 80 91 81 92 84 93 82 94 61 95 62 96
REMARK SMILES IDX 70 97 63 98 64 99 68 100 71 101 65 102 66 103 69 104 67 105
REMARK H PARENT 6 12 2 20 91 58 59 69
REMARK Flexibility Score: inf
ROOT
ATOM      1  C   UNL A   1      39.087  21.823  26.128  1.00  0.00     0.188 C 
ENDROOT
BRANCH   1   2
ATOM      2  O   UNL A   1      38.058  22.104  25.191  1.00  0.00    -0.376 OA
BRANCH   2   3
ATOM      3  C   UNL A   1      36.817  22.604  25.682  1.00  0.00     0.202 C 
BRANCH   3   4
ATOM      4  C   UNL A   1      36.000  23.437  24.690  1.00  0.00     0.261 C 
BRANCH   4   5
ATOM      5  O   UNL A   1      35.111  24.367  25.352  1.00  0.00    -0.460 OA
BRANCH   5   6
ATOM      6  C   UNL A   1      34.164  24.989  24.587  1.00  0.00     0.351 C 
ATOM      7  O   UNL A   1      34.438  25.751  23.664  1.00  0.00    -0.247 OA
BRANCH   6   8
ATOM      8  C   UNL A   1      32.719  24.683  25.052  1.00  0.00     0.216 C 
ATOM      9  N   UNL A   1      31.948  21.802  24.910  1.00  0.00    -0.332 N 
ATOM     10  C   UNL A   1      32.650  22.289  26.103  1.00  0.00     0.267 C 
ATOM     11  C   UNL A   1      32.343  22.561  23.715  1.00  0.00     0.267 C 
ATOM     12  H   UNL A   1      30.957  21.971  25.084  1.00  0.00     0.348 HD
ATOM     13  C   UNL A   1      32.610  23.807  26.315  1.00  0.00     0.122 C 
ATOM     14  C   UNL A   1      31.961  24.035  23.878  1.00  0.00     0.122 C 
BRANCH   9  15
ATOM     15  C   UNL A   1      32.059  20.328  24.695  1.00  0.00     0.195 C 
ATOM     16  C   UNL A   1      33.538  16.360  23.854  1.00  0.00     0.332 C 
ATOM     17  N   UNL A   1      33.435  17.801  24.078  1.00  0.00    -0.337 N 
ATOM     18  C   UNL A   1      33.039  18.112  25.459  1.00  0.00     0.268 C 
ATOM     19  C   UNL A   1      32.506  18.400  23.120  1.00  0.00     0.268 C 
ATOM     20  H   UNL A   1      34.360  18.205  23.932  1.00  0.00     0.347 HD
ATOM     21  C   UNL A   1      32.984  19.633  25.710  1.00  0.00     0.126 C 
ATOM     22  C   UNL A   1      32.496  19.912  23.286  1.00  0.00     0.126 C 
ENDBRANCH   9  15
BRANCH   8  23
ATOM     23  O   UNL A   1      32.349  26.059  25.369  1.00  0.00    -0.475 OA
BRANCH  23  24
ATOM     24  C   UNL A   1      31.270  26.582  24.726  1.00  0.00     0.121 A 
ATOM     25  C   UNL A   1      30.007  26.023  24.874  1.00  0.00     0.047 A 
ATOM     26  C   UNL A   1      31.439  27.768  24.016  1.00  0.00     0.055 A 
ATOM     27  C   UNL A   1      28.915  26.595  24.227  1.00  0.00     0.012 A 
ATOM     28  C   UNL A   1      30.344  28.375  23.386  1.00  0.00    -0.015 A 
ATOM     29  C   UNL A   1      29.069  27.768  23.477  1.00  0.00    -0.018 A 
ATOM     30  C   UNL A   1      30.479  29.577  22.675  1.00  0.00     0.009 A 
ATOM     31  C   UNL A   1      27.974  28.360  22.836  1.00  0.00     0.009 A 
ATOM     32  C   UNL A   1      29.375  30.164  22.055  1.00  0.00     0.001 A 
ATOM     33  C   UNL A   1      28.126  29.553  22.130  1.00  0.00     0.001 A 
ENDBRANCH  23  24
ENDBRANCH   8  23
ENDBRANCH   6   8
ENDBRANCH   5   6
ENDBRANCH   4   5
ENDBRANCH   3   4
ENDBRANCH   2   3
ENDBRANCH   1   2
BRANCH   1  34
ATOM     34  C   UNL A   1      39.693  20.417  26.100  1.00  0.00     0.188 C 
BRANCH  34  35
ATOM     35  O   UNL A   1      40.808  20.136  26.931  1.00  0.00    -0.376 OA
BRANCH  35  36
ATOM     36  C   UNL A   1      41.929  19.539  26.293  1.00  0.00     0.202 C 
BRANCH  36  37
ATOM     37  C   UNL A   1      42.984  20.539  25.816  1.00  0.00     0.261 C 
BRANCH  37  38
ATOM     38  O   UNL A   1      42.817  21.811  26.469  1.00  0.00    -0.460 OA
BRANCH  38  39
ATOM     39  C   UNL A   1      42.816  22.880  25.643  1.00  0.00     0.338 C 
ATOM     40  O   UNL A   1      43.045  22.851  24.439  1.00  0.00    -0.246 OA
BRANCH  39  41
ATOM     41  C   UNL A   1      42.354  24.105  26.351  1.00  0.00     0.060 A 
ATOM     42  C   UNL A   1      42.756  25.386  25.965  1.00  0.00     0.016 A 
ATOM     43  C   UNL A   1      41.631  23.964  27.536  1.00  0.00     0.016 A 
ATOM     44  C   UNL A   1      42.593  26.477  26.823  1.00  0.00     0.010 A 
ATOM     45  C   UNL A   1      41.359  25.081  28.337  1.00  0.00     0.010 A 
ATOM     46  C   UNL A   1      41.878  26.348  28.016  1.00  0.00    -0.014 A 
BRANCH  46  47
ATOM     47  C   UNL A   1      41.677  27.494  28.950  1.00  0.00     0.031 A 
ATOM     48  C   UNL A   1      42.589  27.664  30.136  1.00  0.00     0.074 A 
ATOM     49  C   UNL A   1      40.673  28.378  28.778  1.00  0.00     0.049 A 
ATOM     50  N   UNL A   1      42.392  28.315  31.254  1.00  0.00    -0.248 NA
ATOM     51  C   UNL A   1      43.903  27.005  30.052  1.00  0.00     0.031 C 
ATOM     52  C   UNL A   1      39.772  28.444  27.627  1.00  0.00     0.029 A 
ATOM     53  N   UNL A   1      40.226  29.387  29.602  1.00  0.00    -0.354 N 
ATOM     54  C   UNL A   1      43.522  28.090  32.030  1.00  0.00     0.074 A 
ATOM     55  C   UNL A   1      44.416  27.265  31.246  1.00  0.00     0.031 C 
ATOM     56  C   UNL A   1      38.891  29.437  27.811  1.00  0.00     0.029 A 
ATOM     57  C   UNL A   1      39.075  29.985  29.149  1.00  0.00     0.049 A 
ATOM     58  H   UNL A   1      40.685  29.653  30.431  1.00  0.00     0.167 HD
ATOM     59  C   UNL A   1      43.772  28.517  33.291  1.00  0.00     0.037 A 
ATOM     60  C   UNL A   1      38.201  30.801  29.767  1.00  0.00     0.037 A 
ATOM     61  C   UNL A   1      42.891  29.369  34.047  1.00  0.00     0.049 A 
ATOM     62  C   UNL A   1      38.428  31.170  31.205  1.00  0.00     0.074 A 
ATOM     63  C   UNL A   1      43.037  29.838  35.342  1.00  0.00     0.029 A 
ATOM     64  N   UNL A   1      41.702  29.893  33.565  1.00  0.00    -0.354 N 
ATOM     65  N   UNL A   1      39.423  30.846  31.993  1.00  0.00    -0.248 NA
ATOM     66  C   UNL A   1      37.389  31.983  31.850  1.00  0.00     0.031 C 
ATOM     67  C   UNL A   1      41.916  30.616  35.655  1.00  0.00     0.029 A 
ATOM     68  C   UNL A   1      41.094  30.667  34.542  1.00  0.00     0.049 A 
ATOM     69  H   UNL A   1      41.341  29.739  32.662  1.00  0.00     0.167 HD
ATOM     70  C   UNL A   1      39.135  31.419  33.224  1.00  0.00     0.074 A 
ATOM     71  C   UNL A   1      37.880  32.126  33.073  1.00  0.00     0.031 C 
ATOM     72  C   UNL A   1      39.844  31.360  34.377  1.00  0.00     0.037 A 
BRANCH  59  73
ATOM     73  C   UNL A   1      45.019  28.023  33.963  1.00  0.00     0.064 A 
ATOM     74  C   UNL A   1      46.222  28.739  33.924  1.00  0.00     0.173 A 
ATOM     75  C   UNL A   1      44.987  26.831  34.706  1.00  0.00     0.173 A 
ATOM     76  F   UNL A   1      46.310  29.874  33.215  1.00  0.00    -0.203 F 
ATOM     77  C   UNL A   1      47.353  28.273  34.593  1.00  0.00     0.198 A 
ATOM     78  C   UNL A   1      46.111  26.380  35.391  1.00  0.00     0.198 A 
ATOM     79  F   UNL A   1      43.858  26.109  34.775  1.00  0.00    -0.203 F 
ATOM     80  F   UNL A   1      48.504  28.956  34.516  1.00  0.00    -0.200 F 
ATOM     81  C   UNL A   1      47.295  27.100  35.332  1.00  0.00     0.200 A 
ATOM     82  F   UNL A   1      46.049  25.252  36.111  1.00  0.00    -0.200 F 
ATOM     83  F   UNL A   1      48.381  26.660  35.981  1.00  0.00    -0.200 F 
ENDBRANCH  59  73
BRANCH  60  84
ATOM     84  C   UNL A   1      36.969  31.230  29.053  1.00  0.00     0.064 A 
ATOM     85  C   UNL A   1      35.909  30.339  28.842  1.00  0.00     0.173 A 
ATOM     86  C   UNL A   1      36.820  32.547  28.588  1.00  0.00     0.173 A 
ATOM     87  F   UNL A   1      36.018  29.063  29.237  1.00  0.00    -0.203 F 
ATOM     88  C   UNL A   1      34.744  30.752  28.196  1.00  0.00     0.198 A 
ATOM     89  C   UNL A   1      35.643  32.965  27.974  1.00  0.00     0.198 A 
ATOM     90  F   UNL A   1      37.810  33.436  28.760  1.00  0.00    -0.203 F 
ATOM     91  F   UNL A   1      33.757  29.873  27.976  1.00  0.00    -0.200 F 
ATOM     92  C   UNL A   1      34.608  32.067  27.775  1.00  0.00     0.200 A 
ATOM     93  F   UNL A   1      35.512  34.240  27.585  1.00  0.00    -0.200 F 
ATOM     94  F   UNL A   1      33.480  32.466  27.172  1.00  0.00    -0.200 F 
ENDBRANCH  60  84
BRANCH  72  95
ATOM     95  C   UNL A   1      39.292  32.102  35.556  1.00  0.00     0.064 A 
ATOM     96  C   UNL A   1      38.447  31.476  36.484  1.00  0.00     0.173 A 
ATOM     97  C   UNL A   1      39.630  33.445  35.771  1.00  0.00     0.173 A 
ATOM     98  F   UNL A   1      38.083  30.197  36.309  1.00  0.00    -0.203 F 
ATOM     99  C   UNL A   1      37.945  32.177  37.577  1.00  0.00     0.198 A 
ATOM    100  C   UNL A   1      39.143  34.137  36.876  1.00  0.00     0.198 A 
ATOM    101  F   UNL A   1      40.436  34.086  34.911  1.00  0.00    -0.203 F 
ATOM    102  F   UNL A   1      37.106  31.572  38.429  1.00  0.00    -0.200 F 
ATOM    103  C   UNL A   1      38.297  33.504  37.774  1.00  0.00     0.200 A 
ATOM    104  F   UNL A   1      39.491  35.417  37.069  1.00  0.00    -0.200 F 
ATOM    105  F   UNL A   1      37.812  34.178  38.826  1.00  0.00    -0.200 F 
ENDBRANCH  72  95
ENDBRANCH  46  47
ENDBRANCH  39  41
ENDBRANCH  38  39
ENDBRANCH  37  38
ENDBRANCH  36  37
ENDBRANCH  35  36
ENDBRANCH  34  35
ENDBRANCH   1  34
TORSDOF 20
ENDMDL
MODEL 2
REMARK VINA RESULT:     -12.1      3.153      7.730
REMARK SMILES C[NH+]1CCC([NH+]2CCC(Oc3ccc4ccccc4c3)(C(=O)OCCOCCOCCOC(=O)c3ccc(-c4c5nc(c(-c6c(F)c(F)c(F)c(F)c6F)c6ccc([nH]6)c(-c6c(F)c(F)c(F)c(F)c6F)c6nc(c(-c7c(F)c(F)c(F)c(F)c7F)c7ccc4[nH]7)C=C6)C=C5)cc3)CC2)CC1
REMARK SMILES IDX 27 1 26 2 25 3 24 4 23 5 21 6 22 7 9 8 6 9 7 10 99 11 8 13
REMARK SMILES IDX 98 14 5 15 1 16 2 17 3 18 101 19 4 21 100 22 10 23 11 24
REMARK SMILES IDX 12 25 20 26 13 27 19 28 14 29 18 30 15 31 17 32 16 33 28 34
REMARK SMILES IDX 29 35 30 36 31 37 32 38 33 39 34 40 35 41 36 42 97 43 37 44
REMARK SMILES IDX 96 45 38 46 39 47 40 48 90 49 41 50 95 51 89 52 91 53 42 54
REMARK SMILES IDX 94 55 88 56 87 57 43 59 75 60 55 61 74 62 56 63 59 64 73 65
REMARK SMILES IDX 92 66 57 67 58 68 72 70 93 71 60 72 44 73 45 74 53 75 46 76
REMARK SMILES IDX 47 77 51 78 54 79 48 80 49 81 52 82 50 83 76 84 77 85 85 86
REMARK SMILES IDX 78 87 79 88 83 89 86 90 80 91 81 92 84 93 82 94 61 95 62 96
REMARK SMILES IDX 70 97 63 98 64 99 68 100 71 101 65 102 66 103 69 104 67 105
REMARK H PARENT 6 12 2 20 91 58 59 69
REMARK Flexibility Score: inf
ROOT
ATOM      1  C   UNL A   1      31.064  25.680  26.518  1.00  0.00     0.188 C 
ENDROOT
BRANCH   1   2
ATOM      2  O   UNL A   1      31.033  24.423  27.178  1.00  0.00    -0.376 OA
BRANCH   2   3
ATOM      3  C   UNL A   1      30.365  23.340  26.536  1.00  0.00     0.202 C 
BRANCH   3   4
ATOM      4  C   UNL A   1      31.262  22.184  26.083  1.00  0.00     0.261 C 
BRANCH   4   5
ATOM      5  O   UNL A   1      32.562  22.637  25.636  1.00  0.00    -0.460 OA
BRANCH   5   6
ATOM      6  C   UNL A   1      32.976  22.243  24.395  1.00  0.00     0.351 C 
ATOM      7  O   UNL A   1      32.778  21.117  23.945  1.00  0.00    -0.247 OA
BRANCH   6   8
ATOM      8  C   UNL A   1      33.776  23.340  23.650  1.00  0.00     0.216 C 
ATOM      9  N   UNL A   1      36.643  23.554  24.454  1.00  0.00    -0.332 N 
ATOM     10  C   UNL A   1      36.267  22.576  23.427  1.00  0.00     0.267 C 
ATOM     11  C   UNL A   1      35.549  23.763  25.413  1.00  0.00     0.267 C 
ATOM     12  H   UNL A   1      36.806  24.429  23.957  1.00  0.00     0.348 HD
ATOM     13  C   UNL A   1      34.914  22.823  22.749  1.00  0.00     0.122 C 
ATOM     14  C   UNL A   1      34.322  24.331  24.696  1.00  0.00     0.122 C 
BRANCH   9  15
ATOM     15  C   UNL A   1      37.935  23.251  25.140  1.00  0.00     0.195 C 
ATOM     16  C   UNL A   1      40.918  22.002  28.001  1.00  0.00     0.332 C 
ATOM     17  N   UNL A   1      39.652  22.283  27.326  1.00  0.00    -0.337 N 
ATOM     18  C   UNL A   1      39.503  21.495  26.094  1.00  0.00     0.268 C 
ATOM     19  C   UNL A   1      39.530  23.714  27.049  1.00  0.00     0.268 C 
ATOM     20  H   UNL A   1      38.897  22.006  27.952  1.00  0.00     0.347 HD
ATOM     21  C   UNL A   1      38.144  21.751  25.410  1.00  0.00     0.126 C 
ATOM     22  C   UNL A   1      38.162  24.010  26.452  1.00  0.00     0.126 C 
ENDBRANCH   9  15
BRANCH   8  23
ATOM     23  O   UNL A   1      32.672  23.825  22.827  1.00  0.00    -0.475 OA
BRANCH  23  24
ATOM     24  C   UNL A   1      32.425  25.162  22.833  1.00  0.00     0.121 A 
ATOM     25  C   UNL A   1      33.411  26.075  22.481  1.00  0.00     0.047 A 
ATOM     26  C   UNL A   1      31.122  25.589  23.078  1.00  0.00     0.055 A 
ATOM     27  C   UNL A   1      33.124  27.436  22.469  1.00  0.00     0.012 A 
ATOM     28  C   UNL A   1      30.808  26.955  23.038  1.00  0.00    -0.015 A 
ATOM     29  C   UNL A   1      31.829  27.891  22.749  1.00  0.00    -0.018 A 
ATOM     30  C   UNL A   1      29.502  27.416  23.266  1.00  0.00     0.009 A 
ATOM     31  C   UNL A   1      31.525  29.258  22.722  1.00  0.00     0.009 A 
ATOM     32  C   UNL A   1      29.213  28.780  23.221  1.00  0.00     0.001 A 
ATOM     33  C   UNL A   1      30.223  29.700  22.956  1.00  0.00     0.001 A 
ENDBRANCH  23  24
ENDBRANCH   8  23
ENDBRANCH   6   8
ENDBRANCH   5   6
ENDBRANCH   4   5
ENDBRANCH   3   4
ENDBRANCH   2   3
ENDBRANCH   1   2
BRANCH   1  34
ATOM     34  C   UNL A   1      32.413  26.403  26.456  1.00  0.00     0.188 C 
BRANCH  34  35
ATOM     35  O   UNL A   1      32.447  27.746  26.000  1.00  0.00    -0.376 OA
BRANCH  35  36
ATOM     36  C   UNL A   1      31.477  28.622  26.562  1.00  0.00     0.202 C 
BRANCH  36  37
ATOM     37  C   UNL A   1      31.783  30.106  26.361  1.00  0.00     0.261 C 
BRANCH  37  38
ATOM     38  O   UNL A   1      33.204  30.341  26.356  1.00  0.00    -0.460 OA
BRANCH  38  39
ATOM     39  C   UNL A   1      33.627  31.297  27.212  1.00  0.00     0.338 C 
ATOM     40  O   UNL A   1      32.944  32.219  27.645  1.00  0.00    -0.246 OA
BRANCH  39  41
ATOM     41  C   UNL A   1      35.007  31.015  27.693  1.00  0.00     0.060 A 
ATOM     42  C   UNL A   1      35.440  29.724  28.002  1.00  0.00     0.016 A 
ATOM     43  C   UNL A   1      35.843  32.090  28.002  1.00  0.00     0.016 A 
ATOM     44  C   UNL A   1      36.599  29.519  28.756  1.00  0.00     0.010 A 
ATOM     45  C   UNL A   1      37.066  31.871  28.648  1.00  0.00     0.010 A 
ATOM     46  C   UNL A   1      37.440  30.586  29.079  1.00  0.00    -0.014 A 
BRANCH  46  47
ATOM     47  C   UNL A   1      38.690  30.401  29.873  1.00  0.00     0.031 A 
ATOM     48  C   UNL A   1      39.823  29.584  29.310  1.00  0.00     0.074 A 
ATOM     49  C   UNL A   1      38.827  30.927  31.108  1.00  0.00     0.049 A 
ATOM     50  N   UNL A   1      40.805  28.980  29.931  1.00  0.00    -0.248 NA
ATOM     51  C   UNL A   1      39.850  29.422  27.847  1.00  0.00     0.031 C 
ATOM     52  C   UNL A   1      37.892  31.843  31.761  1.00  0.00     0.029 A 
ATOM     53  N   UNL A   1      39.813  30.739  32.050  1.00  0.00    -0.354 N 
ATOM     54  C   UNL A   1      41.524  28.314  28.946  1.00  0.00     0.074 A 
ATOM     55  C   UNL A   1      40.885  28.609  27.681  1.00  0.00     0.031 C 
ATOM     56  C   UNL A   1      38.347  32.142  32.985  1.00  0.00     0.029 A 
ATOM     57  C   UNL A   1      39.529  31.333  33.256  1.00  0.00     0.049 A 
ATOM     58  H   UNL A   1      40.638  30.230  31.877  1.00  0.00     0.167 HD
ATOM     59  C   UNL A   1      42.605  27.511  29.096  1.00  0.00     0.037 A 
ATOM     60  C   UNL A   1      40.084  31.174  34.472  1.00  0.00     0.037 A 
ATOM     61  C   UNL A   1      43.255  27.254  30.354  1.00  0.00     0.049 A 
ATOM     62  C   UNL A   1      41.204  30.189  34.647  1.00  0.00     0.074 A 
ATOM     63  C   UNL A   1      44.340  26.436  30.620  1.00  0.00     0.029 A 
ATOM     64  N   UNL A   1      42.885  27.829  31.560  1.00  0.00    -0.354 N 
ATOM     65  N   UNL A   1      41.799  29.447  33.746  1.00  0.00    -0.248 NA
ATOM     66  C   UNL A   1      41.700  29.989  36.015  1.00  0.00     0.031 C 
ATOM     67  C   UNL A   1      44.602  26.488  31.994  1.00  0.00     0.029 A 
ATOM     68  C   UNL A   1      43.709  27.371  32.576  1.00  0.00     0.049 A 
ATOM     69  H   UNL A   1      42.146  28.469  31.679  1.00  0.00     0.167 HD
ATOM     70  C   UNL A   1      42.743  28.697  34.434  1.00  0.00     0.074 A 
ATOM     71  C   UNL A   1      42.654  29.087  35.826  1.00  0.00     0.031 C 
ATOM     72  C   UNL A   1      43.604  27.766  33.956  1.00  0.00     0.037 A 
BRANCH  59  73
ATOM     73  C   UNL A   1      43.120  26.798  27.881  1.00  0.00     0.064 A 
ATOM     74  C   UNL A   1      43.960  27.422  26.949  1.00  0.00     0.173 A 
ATOM     75  C   UNL A   1      42.805  25.444  27.678  1.00  0.00     0.173 A 
ATOM     76  F   UNL A   1      44.277  28.717  27.088  1.00  0.00    -0.203 F 
ATOM     77  C   UNL A   1      44.456  26.720  25.852  1.00  0.00     0.198 A 
ATOM     78  C   UNL A   1      43.319  24.740  26.593  1.00  0.00     0.198 A 
ATOM     79  F   UNL A   1      42.005  24.801  28.542  1.00  0.00    -0.203 F 
ATOM     80  F   UNL A   1      45.232  27.344  24.954  1.00  0.00    -0.200 F 
ATOM     81  C   UNL A   1      44.142  25.379  25.679  1.00  0.00     0.200 A 
ATOM     82  F   UNL A   1      43.022  23.444  26.435  1.00  0.00    -0.200 F 
ATOM     83  F   UNL A   1      44.628  24.706  24.627  1.00  0.00    -0.200 F 
ENDBRANCH  59  73
BRANCH  60  84
ATOM     84  C   UNL A   1      39.504  31.887  35.640  1.00  0.00     0.064 A 
ATOM     85  C   UNL A   1      38.517  31.291  36.435  1.00  0.00     0.173 A 
ATOM     86  C   UNL A   1      39.944  33.173  35.997  1.00  0.00     0.173 A 
ATOM     87  F   UNL A   1      38.040  30.080  36.114  1.00  0.00    -0.203 F 
ATOM     88  C   UNL A   1      37.995  31.953  37.546  1.00  0.00     0.198 A 
ATOM     89  C   UNL A   1      39.446  33.817  37.126  1.00  0.00     0.198 A 
ATOM     90  F   UNL A   1      40.883  33.789  35.264  1.00  0.00    -0.203 F 
ATOM     91  F   UNL A   1      37.028  31.375  38.272  1.00  0.00    -0.200 F 
ATOM     92  C   UNL A   1      38.469  33.208  37.897  1.00  0.00     0.200 A 
ATOM     93  F   UNL A   1      39.920  35.022  37.469  1.00  0.00    -0.200 F 
ATOM     94  F   UNL A   1      37.979  33.834  38.976  1.00  0.00    -0.200 F 
ENDBRANCH  60  84
BRANCH  72  95
ATOM     95  C   UNL A   1      44.533  27.126  34.942  1.00  0.00     0.064 A 
ATOM     96  C   UNL A   1      45.784  27.686  35.239  1.00  0.00     0.173 A 
ATOM     97  C   UNL A   1      44.156  25.954  35.614  1.00  0.00     0.173 A 
ATOM     98  F   UNL A   1      46.193  28.796  34.609  1.00  0.00    -0.203 F 
ATOM     99  C   UNL A   1      46.634  27.081  36.161  1.00  0.00     0.198 A 
ATOM    100  C   UNL A   1      45.000  25.364  36.550  1.00  0.00     0.198 A 
ATOM    101  F   UNL A   1      42.968  25.383  35.364  1.00  0.00    -0.203 F 
ATOM    102  F   UNL A   1      47.843  27.609  36.399  1.00  0.00    -0.200 F 
ATOM    103  C   UNL A   1      46.240  25.925  36.818  1.00  0.00     0.200 A 
ATOM    104  F   UNL A   1      44.614  24.252  37.190  1.00  0.00    -0.200 F 
ATOM    105  F   UNL A   1      47.060  25.345  37.705  1.00  0.00    -0.200 F 
ENDBRANCH  72  95
ENDBRANCH  46  47
ENDBRANCH  39  41
ENDBRANCH  38  39
ENDBRANCH  37  38
ENDBRANCH  36  37
ENDBRANCH  35  36
ENDBRANCH  34  35
ENDBRANCH   1  34
TORSDOF 20
ENDMDL
MODEL 3
REMARK VINA RESULT:     -11.7      4.103      8.037
REMARK SMILES C[NH+]1CCC([NH+]2CCC(Oc3ccc4ccccc4c3)(C(=O)OCCOCCOCCOC(=O)c3ccc(-c4c5nc(c(-c6c(F)c(F)c(F)c(F)c6F)c6ccc([nH]6)c(-c6c(F)c(F)c(F)c(F)c6F)c6nc(c(-c7c(F)c(F)c(F)c(F)c7F)c7ccc4[nH]7)C=C6)C=C5)cc3)CC2)CC1
REMARK SMILES IDX 27 1 26 2 25 3 24 4 23 5 21 6 22 7 9 8 6 9 7 10 99 11 8 13
REMARK SMILES IDX 98 14 5 15 1 16 2 17 3 18 101 19 4 21 100 22 10 23 11 24
REMARK SMILES IDX 12 25 20 26 13 27 19 28 14 29 18 30 15 31 17 32 16 33 28 34
REMARK SMILES IDX 29 35 30 36 31 37 32 38 33 39 34 40 35 41 36 42 97 43 37 44
REMARK SMILES IDX 96 45 38 46 39 47 40 48 90 49 41 50 95 51 89 52 91 53 42 54
REMARK SMILES IDX 94 55 88 56 87 57 43 59 75 60 55 61 74 62 56 63 59 64 73 65
REMARK SMILES IDX 92 66 57 67 58 68 72 70 93 71 60 72 44 73 45 74 53 75 46 76
REMARK SMILES IDX 47 77 51 78 54 79 48 80 49 81 52 82 50 83 76 84 77 85 85 86
REMARK SMILES IDX 78 87 79 88 83 89 86 90 80 91 81 92 84 93 82 94 61 95 62 96
REMARK SMILES IDX 70 97 63 98 64 99 68 100 71 101 65 102 66 103 69 104 67 105
REMARK H PARENT 6 12 2 20 91 58 59 69
REMARK Flexibility Score: inf
ROOT
ATOM      1  C   UNL A   1      32.372  22.221  27.623  1.00  0.00     0.188 C 
ENDROOT
BRANCH   1   2
ATOM      2  O   UNL A   1      31.517  23.355  27.624  1.00  0.00    -0.376 OA
BRANCH   2   3
ATOM      3  C   UNL A   1      31.539  24.216  26.489  1.00  0.00     0.202 C 
BRANCH   3   4
ATOM      4  C   UNL A   1      31.896  25.679  26.774  1.00  0.00     0.261 C 
BRANCH   4   5
ATOM      5  O   UNL A   1      31.780  26.514  25.598  1.00  0.00    -0.460 OA
BRANCH   5   6
ATOM      6  C   UNL A   1      32.885  26.645  24.805  1.00  0.00     0.351 C 
ATOM      7  O   UNL A   1      33.974  27.024  25.226  1.00  0.00    -0.247 OA
BRANCH   6   8
ATOM      8  C   UNL A   1      32.597  26.333  23.315  1.00  0.00     0.216 C 
ATOM      9  N   UNL A   1      32.108  23.450  22.719  1.00  0.00    -0.332 N 
ATOM     10  C   UNL A   1      30.986  24.279  23.171  1.00  0.00     0.267 C 
ATOM     11  C   UNL A   1      33.379  23.921  23.287  1.00  0.00     0.267 C 
ATOM     12  H   UNL A   1      32.147  23.565  21.706  1.00  0.00     0.348 HD
ATOM     13  C   UNL A   1      31.185  25.792  23.022  1.00  0.00     0.122 C 
ATOM     14  C   UNL A   1      33.669  25.348  22.814  1.00  0.00     0.122 C 
BRANCH   9  15
ATOM     15  C   UNL A   1      31.911  21.985  22.936  1.00  0.00     0.195 C 
ATOM     16  C   UNL A   1      32.512  17.721  23.249  1.00  0.00     0.332 C 
ATOM     17  N   UNL A   1      32.713  19.156  23.051  1.00  0.00    -0.337 N 
ATOM     18  C   UNL A   1      32.488  19.915  24.290  1.00  0.00     0.268 C 
ATOM     19  C   UNL A   1      31.852  19.645  21.974  1.00  0.00     0.268 C 
ATOM     20  H   UNL A   1      33.685  19.300  22.782  1.00  0.00     0.347 HD
ATOM     21  C   UNL A   1      32.752  21.422  24.094  1.00  0.00     0.126 C 
ATOM     22  C   UNL A   1      32.152  21.112  21.699  1.00  0.00     0.126 C 
ENDBRANCH   9  15
BRANCH   8  23
ATOM     23  O   UNL A   1      32.714  27.706  22.830  1.00  0.00    -0.475 OA
BRANCH  23  24
ATOM     24  C   UNL A   1      31.725  28.576  23.168  1.00  0.00     0.121 A 
ATOM     25  C   UNL A   1      31.798  29.326  24.336  1.00  0.00     0.047 A 
ATOM     26  C   UNL A   1      30.698  28.793  22.252  1.00  0.00     0.055 A 
ATOM     27  C   UNL A   1      30.786  30.230  24.643  1.00  0.00     0.012 A 
ATOM     28  C   UNL A   1      29.689  29.724  22.532  1.00  0.00    -0.015 A 
ATOM     29  C   UNL A   1      29.724  30.437  23.754  1.00  0.00    -0.018 A 
ATOM     30  C   UNL A   1      28.648  29.974  21.625  1.00  0.00     0.009 A 
ATOM     31  C   UNL A   1      28.709  31.357  24.047  1.00  0.00     0.009 A 
ATOM     32  C   UNL A   1      27.653  30.906  21.924  1.00  0.00     0.001 A 
ATOM     33  C   UNL A   1      27.680  31.591  23.136  1.00  0.00     0.001 A 
ENDBRANCH  23  24
ENDBRANCH   8  23
ENDBRANCH   6   8
ENDBRANCH   5   6
ENDBRANCH   4   5
ENDBRANCH   3   4
ENDBRANCH   2   3
ENDBRANCH   1   2
BRANCH   1  34
ATOM     34  C   UNL A   1      33.881  22.484  27.624  1.00  0.00     0.188 C 
BRANCH  34  35
ATOM     35  O   UNL A   1      34.729  21.598  26.911  1.00  0.00    -0.376 OA
BRANCH  35  36
ATOM     36  C   UNL A   1      35.622  22.200  25.982  1.00  0.00     0.202 C 
BRANCH  36  37
ATOM     37  C   UNL A   1      36.499  21.203  25.222  1.00  0.00     0.261 C 
BRANCH  37  38
ATOM     38  O   UNL A   1      37.779  21.782  24.908  1.00  0.00    -0.460 OA
BRANCH  38  39
ATOM     39  C   UNL A   1      38.780  21.440  25.749  1.00  0.00     0.338 C 
ATOM     40  O   UNL A   1      39.284  20.327  25.843  1.00  0.00    -0.246 OA
BRANCH  39  41
ATOM     41  C   UNL A   1      39.309  22.633  26.467  1.00  0.00     0.060 A 
ATOM     42  C   UNL A   1      38.904  23.932  26.153  1.00  0.00     0.016 A 
ATOM     43  C   UNL A   1      40.364  22.462  27.365  1.00  0.00     0.016 A 
ATOM     44  C   UNL A   1      39.641  25.037  26.589  1.00  0.00     0.010 A 
ATOM     45  C   UNL A   1      41.024  23.576  27.900  1.00  0.00     0.010 A 
ATOM     46  C   UNL A   1      40.703  24.880  27.483  1.00  0.00    -0.014 A 
BRANCH  46  47
ATOM     47  C   UNL A   1      41.504  26.038  27.976  1.00  0.00     0.031 A 
ATOM     48  C   UNL A   1      40.844  27.109  28.805  1.00  0.00     0.074 A 
ATOM     49  C   UNL A   1      42.813  26.172  27.676  1.00  0.00     0.049 A 
ATOM     50  N   UNL A   1      41.210  28.348  29.012  1.00  0.00    -0.248 NA
ATOM     51  C   UNL A   1      39.597  26.731  29.491  1.00  0.00     0.031 C 
ATOM     52  C   UNL A   1      43.644  25.181  26.994  1.00  0.00     0.029 A 
ATOM     53  N   UNL A   1      43.670  27.227  27.891  1.00  0.00    -0.354 N 
ATOM     54  C   UNL A   1      40.210  28.915  29.791  1.00  0.00     0.074 A 
ATOM     55  C   UNL A   1      39.233  27.878  30.047  1.00  0.00     0.031 C 
ATOM     56  C   UNL A   1      44.885  25.665  26.853  1.00  0.00     0.029 A 
ATOM     57  C   UNL A   1      44.902  27.050  27.308  1.00  0.00     0.049 A 
ATOM     58  H   UNL A   1      43.427  28.027  28.411  1.00  0.00     0.167 HD
ATOM     59  C   UNL A   1      40.111  30.193  30.231  1.00  0.00     0.037 A 
ATOM     60  C   UNL A   1      45.899  27.921  27.066  1.00  0.00     0.037 A 
ATOM     61  C   UNL A   1      41.108  31.206  30.003  1.00  0.00     0.049 A 
ATOM     62  C   UNL A   1      45.726  29.363  27.451  1.00  0.00     0.074 A 
ATOM     63  C   UNL A   1      41.094  32.539  30.380  1.00  0.00     0.029 A 
ATOM     64  N   UNL A   1      42.309  30.992  29.345  1.00  0.00    -0.354 N 
ATOM     65  N   UNL A   1      44.722  29.939  28.063  1.00  0.00    -0.248 NA
ATOM     66  C   UNL A   1      46.808  30.281  27.072  1.00  0.00     0.031 C 
ATOM     67  C   UNL A   1      42.272  33.138  29.919  1.00  0.00     0.029 A 
ATOM     68  C   UNL A   1      43.037  32.170  29.292  1.00  0.00     0.049 A 
ATOM     69  H   UNL A   1      42.603  30.130  28.971  1.00  0.00     0.167 HD
ATOM     70  C   UNL A   1      45.051  31.285  28.149  1.00  0.00     0.074 A 
ATOM     71  C   UNL A   1      46.357  31.436  27.542  1.00  0.00     0.031 C 
ATOM     72  C   UNL A   1      44.333  32.304  28.680  1.00  0.00     0.037 A 
BRANCH  59  73
ATOM     73  C   UNL A   1      38.856  30.591  30.950  1.00  0.00     0.064 A 
ATOM     74  C   UNL A   1      38.762  30.583  32.347  1.00  0.00     0.173 A 
ATOM     75  C   UNL A   1      37.744  31.040  30.219  1.00  0.00     0.173 A 
ATOM     76  F   UNL A   1      39.789  30.147  33.091  1.00  0.00    -0.203 F 
ATOM     77  C   UNL A   1      37.596  30.997  32.988  1.00  0.00     0.198 A 
ATOM     78  C   UNL A   1      36.589  31.474  30.862  1.00  0.00     0.198 A 
ATOM     79  F   UNL A   1      37.784  31.068  28.878  1.00  0.00    -0.203 F 
ATOM     80  F   UNL A   1      37.514  30.951  34.325  1.00  0.00    -0.200 F 
ATOM     81  C   UNL A   1      36.514  31.450  32.246  1.00  0.00     0.200 A 
ATOM     82  F   UNL A   1      35.550  31.920  30.142  1.00  0.00    -0.200 F 
ATOM     83  F   UNL A   1      35.397  31.856  32.864  1.00  0.00    -0.200 F 
ENDBRANCH  59  73
BRANCH  60  84
ATOM     84  C   UNL A   1      47.103  27.468  26.321  1.00  0.00     0.064 A 
ATOM     85  C   UNL A   1      47.140  27.495  24.921  1.00  0.00     0.173 A 
ATOM     86  C   UNL A   1      48.250  27.020  26.998  1.00  0.00     0.173 A 
ATOM     87  F   UNL A   1      46.058  27.882  24.230  1.00  0.00    -0.203 F 
ATOM     88  C   UNL A   1      48.281  27.094  24.227  1.00  0.00     0.198 A 
ATOM     89  C   UNL A   1      49.399  26.653  26.303  1.00  0.00     0.198 A 
ATOM     90  F   UNL A   1      48.261  26.969  28.338  1.00  0.00    -0.203 F 
ATOM     91  F   UNL A   1      48.281  27.098  22.887  1.00  0.00    -0.200 F 
ATOM     92  C   UNL A   1      49.412  26.686  24.919  1.00  0.00     0.200 A 
ATOM     93  F   UNL A   1      50.493  26.276  26.978  1.00  0.00    -0.200 F 
ATOM     94  F   UNL A   1      50.514  26.321  24.249  1.00  0.00    -0.200 F 
ENDBRANCH  60  84
BRANCH  72  95
ATOM     95  C   UNL A   1      44.958  33.666  28.650  1.00  0.00     0.064 A 
ATOM     96  C   UNL A   1      45.818  34.099  29.669  1.00  0.00     0.173 A 
ATOM     97  C   UNL A   1      44.711  34.536  27.579  1.00  0.00     0.173 A 
ATOM     98  F   UNL A   1      46.069  33.308  30.722  1.00  0.00    -0.203 F 
ATOM     99  C   UNL A   1      46.393  35.366  29.626  1.00  0.00     0.198 A 
ATOM    100  C   UNL A   1      45.305  35.794  27.527  1.00  0.00     0.198 A 
ATOM    101  F   UNL A   1      43.896  34.164  26.579  1.00  0.00    -0.203 F 
ATOM    102  F   UNL A   1      47.179  35.778  30.630  1.00  0.00    -0.200 F 
ATOM    103  C   UNL A   1      46.140  36.209  28.553  1.00  0.00     0.200 A 
ATOM    104  F   UNL A   1      45.066  36.603  26.487  1.00  0.00    -0.200 F 
ATOM    105  F   UNL A   1      46.695  37.428  28.512  1.00  0.00    -0.200 F 
ENDBRANCH  72  95
ENDBRANCH  46  47
ENDBRANCH  39  41
ENDBRANCH  38  39
ENDBRANCH  37  38
ENDBRANCH  36  37
ENDBRANCH  35  36
ENDBRANCH  34  35
ENDBRANCH   1  34
TORSDOF 20
ENDMDL
