MODEL 1
REMARK VINA RESULT:     -14.2      0.000      0.000
REMARK SMILES Cc1cccc(OCC(=O)Nc2cc(C(=O)OCCOCCOCCOC(=O)c3ccc(-c4c5nc(c(-c6c(F)c(F)c(F)c(F)c6F)c6ccc([nH]6)c(-c6c(F)c(F)c(F)c(F)c6F)c6nc(c(-c7c(F)c(F)c(F)c(F)c7F)c7ccc4[nH]7)C=C6)C=C5)cc3)c(Cl)cc2Cl)c1
REMARK SMILES IDX 21 1 20 2 19 3 18 4 17 5 15 6 16 7 14 8 12 9 13 10 95 11
REMARK SMILES IDX 94 12 96 13 92 14 93 15 11 16 9 17 10 18 8 20 7 21 6 22 1 23
REMARK SMILES IDX 2 24 3 25 97 26 4 27 5 28 22 29 23 30 24 31 25 32 26 33
REMARK SMILES IDX 27 34 28 35 29 36 30 37 91 38 31 39 90 40 32 41 33 42 34 43
REMARK SMILES IDX 84 44 35 45 89 46 83 47 85 48 36 49 88 50 82 51 81 52 37 54
REMARK SMILES IDX 69 55 49 56 68 57 50 58 53 59 67 60 86 61 51 62 52 63 66 65
REMARK SMILES IDX 87 66 54 67 38 68 39 69 47 70 40 71 41 72 45 73 48 74 42 75
REMARK SMILES IDX 43 76 46 77 44 78 70 79 71 80 79 81 72 82 73 83 77 84 80 85
REMARK SMILES IDX 74 86 75 87 78 88 76 89 55 90 56 91 64 92 57 93 58 94 62 95
REMARK SMILES IDX 65 96 59 97 60 98 63 99 61 100
REMARK H PARENT 11 19 85 53 53 64
REMARK Flexibility Score: inf
ROOT
ATOM      1  C   UNL A   1      33.185  33.953  27.933  1.00  0.00     0.188 C 
ENDROOT
BRANCH   1   2
ATOM      2  O   UNL A   1      31.953  33.502  27.402  1.00  0.00    -0.376 OA
BRANCH   2   3
ATOM      3  C   UNL A   1      31.826  32.112  27.136  1.00  0.00     0.202 C 
BRANCH   3   4
ATOM      4  C   UNL A   1      33.008  31.100  27.327  1.00  0.00     0.261 C 
BRANCH   4   5
ATOM      5  O   UNL A   1      32.892  29.532  27.299  1.00  0.00    -0.460 OA
BRANCH   5   6
ATOM      6  C   UNL A   1      32.166  28.283  27.160  1.00  0.00     0.339 C 
ATOM      7  O   UNL A   1      31.521  27.881  28.128  1.00  0.00    -0.246 OA
BRANCH   6   8
ATOM      8  C   UNL A   1      32.384  27.076  25.717  1.00  0.00     0.080 A 
ATOM      9  C   UNL A   1      33.861  25.267  25.350  1.00  0.00     0.061 A 
ATOM     10  C   UNL A   1      33.674  26.591  25.756  1.00  0.00     0.045 A 
ATOM     11  C   UNL A   1      33.430  24.897  24.087  1.00  0.00     0.066 A 
ATOM     12  C   UNL A   1      32.250  25.441  23.698  1.00  0.00     0.044 A 
ATOM     13  Cl  UNL A   1      33.989  23.474  23.300  1.00  0.00    -0.082 Cl
ATOM     14  C   UNL A   1      31.621  26.317  24.610  1.00  0.00     0.057 A 
ATOM     15  Cl  UNL A   1      29.894  25.950  24.237  1.00  0.00    -0.083 Cl
BRANCH   9  16
ATOM     16  N   UNL A   1      33.660  24.225  26.309  1.00  0.00    -0.322 N 
ATOM     17  C   UNL A   1      34.468  23.188  26.791  1.00  0.00     0.262 C 
ATOM     18  O   UNL A   1      34.084  22.739  27.889  1.00  0.00    -0.271 OA
ATOM     19  H   UNL A   1      32.764  24.239  26.717  1.00  0.00     0.170 HD
BRANCH  17  20
ATOM     20  C   UNL A   1      35.934  22.352  26.008  1.00  0.00     0.329 C 
BRANCH  20  21
ATOM     21  O   UNL A   1      35.956  20.378  25.232  1.00  0.00    -0.484 OA
BRANCH  21  22
ATOM     22  C   UNL A   1      34.842  19.303  24.562  1.00  0.00     0.120 A 
ATOM     23  C   UNL A   1      33.624  15.620  24.964  1.00  0.00     0.044 C 
ATOM     24  C   UNL A   1      33.611  17.113  24.760  1.00  0.00    -0.047 A 
ATOM     25  C   UNL A   1      32.407  17.797  24.688  1.00  0.00     0.003 A 
ATOM     26  C   UNL A   1      34.812  17.859  24.684  1.00  0.00     0.049 A 
ATOM     27  C   UNL A   1      32.423  19.166  24.392  1.00  0.00     0.004 A 
ATOM     28  C   UNL A   1      33.639  19.890  24.237  1.00  0.00     0.046 A 
ENDBRANCH  21  22
ENDBRANCH  20  21
ENDBRANCH  17  20
ENDBRANCH   9  16
ENDBRANCH   6   8
ENDBRANCH   5   6
ENDBRANCH   4   5
ENDBRANCH   3   4
ENDBRANCH   2   3
ENDBRANCH   1   2
BRANCH   1  29
ATOM     29  C   UNL A   1      33.215  34.929  29.063  1.00  0.00     0.188 C 
BRANCH  29  30
ATOM     30  O   UNL A   1      33.298  34.264  30.315  1.00  0.00    -0.376 OA
BRANCH  30  31
ATOM     31  C   UNL A   1      34.358  34.763  31.119  1.00  0.00     0.202 C 
BRANCH  31  32
ATOM     32  C   UNL A   1      35.588  33.828  31.124  1.00  0.00     0.261 C 
BRANCH  32  33
ATOM     33  O   UNL A   1      35.332  32.643  30.322  1.00  0.00    -0.460 OA
BRANCH  33  34
ATOM     34  C   UNL A   1      36.180  32.288  29.287  1.00  0.00     0.338 C 
ATOM     35  O   UNL A   1      36.609  33.053  28.443  1.00  0.00    -0.246 OA
BRANCH  34  36
ATOM     36  C   UNL A   1      36.223  30.768  29.196  1.00  0.00     0.060 A 
ATOM     37  C   UNL A   1      36.536  29.888  30.248  1.00  0.00     0.016 A 
ATOM     38  C   UNL A   1      36.596  30.329  27.984  1.00  0.00     0.016 A 
ATOM     39  C   UNL A   1      37.558  28.842  30.118  1.00  0.00     0.010 A 
ATOM     40  C   UNL A   1      37.806  29.652  28.020  1.00  0.00     0.010 A 
ATOM     41  C   UNL A   1      38.415  28.787  29.017  1.00  0.00    -0.014 A 
BRANCH  41  42
ATOM     42  C   UNL A   1      39.907  27.756  28.859  1.00  0.00     0.031 A 
ATOM     43  C   UNL A   1      40.085  25.968  28.264  1.00  0.00     0.074 A 
ATOM     44  C   UNL A   1      41.085  28.428  29.047  1.00  0.00     0.049 A 
ATOM     45  N   UNL A   1      41.532  25.323  28.404  1.00  0.00    -0.248 NA
ATOM     46  C   UNL A   1      38.855  24.452  27.577  1.00  0.00     0.031 C 
ATOM     47  C   UNL A   1      42.456  28.005  28.754  1.00  0.00     0.029 A 
ATOM     48  N   UNL A   1      41.286  29.746  29.505  1.00  0.00    -0.354 N 
ATOM     49  C   UNL A   1      41.679  23.647  27.767  1.00  0.00     0.074 A 
ATOM     50  C   UNL A   1      39.894  23.079  27.327  1.00  0.00     0.031 C 
ATOM     51  C   UNL A   1      43.331  28.898  29.249  1.00  0.00     0.029 A 
ATOM     52  C   UNL A   1      42.571  29.825  30.054  1.00  0.00     0.049 A 
ATOM     53  H   UNL A   1      40.636  30.484  29.449  1.00  0.00     0.167 HD
ATOM     54  C   UNL A   1      42.941  23.160  27.653  1.00  0.00     0.037 A 
ATOM     55  C   UNL A   1      42.755  30.134  31.362  1.00  0.00     0.037 A 
ATOM     56  C   UNL A   1      43.854  24.065  28.362  1.00  0.00     0.049 A 
ATOM     57  C   UNL A   1      43.396  28.937  32.018  1.00  0.00     0.074 A 
ATOM     58  C   UNL A   1      44.743  25.045  27.954  1.00  0.00     0.029 A 
ATOM     59  N   UNL A   1      43.673  24.287  29.740  1.00  0.00    -0.354 N 
ATOM     60  N   UNL A   1      43.320  27.726  31.514  1.00  0.00    -0.248 NA
ATOM     61  C   UNL A   1      44.312  29.014  33.145  1.00  0.00     0.031 C 
ATOM     62  C   UNL A   1      45.090  25.842  29.091  1.00  0.00     0.029 A 
ATOM     63  C   UNL A   1      44.423  25.360  30.212  1.00  0.00     0.049 A 
ATOM     64  H   UNL A   1      43.080  23.742  30.308  1.00  0.00     0.167 HD
ATOM     65  C   UNL A   1      44.257  26.925  32.091  1.00  0.00     0.074 A 
ATOM     66  C   UNL A   1      44.820  27.768  33.142  1.00  0.00     0.031 C 
ATOM     67  C   UNL A   1      44.553  25.658  31.655  1.00  0.00     0.037 A 
BRANCH  54  68
ATOM     68  C   UNL A   1      43.284  22.051  26.692  1.00  0.00     0.064 A 
ATOM     69  C   UNL A   1      42.673  20.785  26.785  1.00  0.00     0.173 A 
ATOM     70  C   UNL A   1      44.282  22.142  25.701  1.00  0.00     0.173 A 
ATOM     71  F   UNL A   1      41.650  20.572  27.622  1.00  0.00    -0.203 F 
ATOM     72  C   UNL A   1      43.099  19.688  26.021  1.00  0.00     0.198 A 
ATOM     73  C   UNL A   1      44.762  21.034  24.994  1.00  0.00     0.198 A 
ATOM     74  F   UNL A   1      44.762  23.326  25.318  1.00  0.00    -0.203 F 
ATOM     75  F   UNL A   1      42.467  18.511  26.136  1.00  0.00    -0.200 F 
ATOM     76  C   UNL A   1      44.171  19.802  25.157  1.00  0.00     0.200 A 
ATOM     77  F   UNL A   1      45.789  21.179  24.143  1.00  0.00    -0.200 F 
ATOM     78  F   UNL A   1      44.604  18.743  24.457  1.00  0.00    -0.200 F 
ENDBRANCH  54  68
BRANCH  55  79
ATOM     79  C   UNL A   1      41.771  31.169  31.817  1.00  0.00     0.064 A 
ATOM     80  C   UNL A   1      42.054  32.502  31.409  1.00  0.00     0.173 A 
ATOM     81  C   UNL A   1      40.439  30.886  32.127  1.00  0.00     0.173 A 
ATOM     82  F   UNL A   1      43.320  32.863  31.145  1.00  0.00    -0.203 F 
ATOM     83  C   UNL A   1      41.043  33.409  31.091  1.00  0.00     0.198 A 
ATOM     84  C   UNL A   1      39.430  31.838  31.886  1.00  0.00     0.198 A 
ATOM     85  F   UNL A   1      40.073  29.651  32.497  1.00  0.00    -0.203 F 
ATOM     86  F   UNL A   1      41.342  34.564  30.477  1.00  0.00    -0.200 F 
ATOM     87  C   UNL A   1      39.726  33.059  31.293  1.00  0.00     0.200 A 
ATOM     88  F   UNL A   1      38.142  31.495  32.053  1.00  0.00    -0.200 F 
ATOM     89  F   UNL A   1      38.746  33.855  30.841  1.00  0.00    -0.200 F 
ENDBRANCH  55  79
BRANCH  67  90
ATOM     90  C   UNL A   1      45.147  24.609  32.572  1.00  0.00     0.064 A 
ATOM     91  C   UNL A   1      46.443  24.697  33.115  1.00  0.00     0.173 A 
ATOM     92  C   UNL A   1      44.360  23.548  33.079  1.00  0.00     0.173 A 
ATOM     93  F   UNL A   1      47.250  25.736  32.861  1.00  0.00    -0.203 F 
ATOM     94  C   UNL A   1      46.944  23.746  34.002  1.00  0.00     0.198 A 
ATOM     95  C   UNL A   1      44.827  22.665  34.047  1.00  0.00     0.198 A 
ATOM     96  F   UNL A   1      43.095  23.345  32.686  1.00  0.00    -0.203 F 
ATOM     97  F   UNL A   1      48.216  23.834  34.413  1.00  0.00    -0.200 F 
ATOM     98  C   UNL A   1      46.131  22.743  34.484  1.00  0.00     0.200 A 
ATOM     99  F   UNL A   1      43.995  21.753  34.566  1.00  0.00    -0.200 F 
ATOM    100  F   UNL A   1      46.594  21.870  35.387  1.00  0.00    -0.200 F 
ENDBRANCH  67  90
ENDBRANCH  41  42
ENDBRANCH  34  36
ENDBRANCH  33  34
ENDBRANCH  32  33
ENDBRANCH  31  32
ENDBRANCH  30  31
ENDBRANCH  29  30
ENDBRANCH   1  29
TORSDOF 21
ENDMDL
MODEL 2
REMARK VINA RESULT:     -14.0      2.963      4.688
REMARK SMILES Cc1cccc(OCC(=O)Nc2cc(C(=O)OCCOCCOCCOC(=O)c3ccc(-c4c5nc(c(-c6c(F)c(F)c(F)c(F)c6F)c6ccc([nH]6)c(-c6c(F)c(F)c(F)c(F)c6F)c6nc(c(-c7c(F)c(F)c(F)c(F)c7F)c7ccc4[nH]7)C=C6)C=C5)cc3)c(Cl)cc2Cl)c1
REMARK SMILES IDX 21 1 20 2 19 3 18 4 17 5 15 6 16 7 14 8 12 9 13 10 95 11
REMARK SMILES IDX 94 12 96 13 92 14 93 15 11 16 9 17 10 18 8 20 7 21 6 22 1 23
REMARK SMILES IDX 2 24 3 25 97 26 4 27 5 28 22 29 23 30 24 31 25 32 26 33
REMARK SMILES IDX 27 34 28 35 29 36 30 37 91 38 31 39 90 40 32 41 33 42 34 43
REMARK SMILES IDX 84 44 35 45 89 46 83 47 85 48 36 49 88 50 82 51 81 52 37 54
REMARK SMILES IDX 69 55 49 56 68 57 50 58 53 59 67 60 86 61 51 62 52 63 66 65
REMARK SMILES IDX 87 66 54 67 38 68 39 69 47 70 40 71 41 72 45 73 48 74 42 75
REMARK SMILES IDX 43 76 46 77 44 78 70 79 71 80 79 81 72 82 73 83 77 84 80 85
REMARK SMILES IDX 74 86 75 87 78 88 76 89 55 90 56 91 64 92 57 93 58 94 62 95
REMARK SMILES IDX 65 96 59 97 60 98 63 99 61 100
REMARK H PARENT 11 19 85 53 53 64
REMARK Flexibility Score: inf
ROOT
ATOM      1  C   UNL A   1      34.359  35.448  28.457  1.00  0.00     0.188 C 
ENDROOT
BRANCH   1   2
ATOM      2  O   UNL A   1      34.625  34.200  27.843  1.00  0.00    -0.376 OA
BRANCH   2   3
ATOM      3  C   UNL A   1      34.080  33.041  28.457  1.00  0.00     0.202 C 
BRANCH   3   4
ATOM      4  C   UNL A   1      34.746  31.627  28.342  1.00  0.00     0.261 C 
BRANCH   4   5
ATOM      5  O   UNL A   1      34.216  30.427  27.475  1.00  0.00    -0.460 OA
BRANCH   5   6
ATOM      6  C   UNL A   1      33.177  29.654  26.818  1.00  0.00     0.339 C 
ATOM      7  O   UNL A   1      32.048  29.675  27.309  1.00  0.00    -0.246 OA
BRANCH   6   8
ATOM      8  C   UNL A   1      33.495  28.380  25.455  1.00  0.00     0.080 A 
ATOM      9  C   UNL A   1      33.439  26.017  25.424  1.00  0.00     0.061 A 
ATOM     10  C   UNL A   1      33.857  27.193  26.054  1.00  0.00     0.045 A 
ATOM     11  C   UNL A   1      33.794  25.816  24.101  1.00  0.00     0.066 A 
ATOM     12  C   UNL A   1      33.744  26.920  23.315  1.00  0.00     0.044 A 
ATOM     13  Cl  UNL A   1      33.751  24.266  23.358  1.00  0.00    -0.082 Cl
ATOM     14  C   UNL A   1      33.355  28.127  23.938  1.00  0.00     0.057 A 
ATOM     15  Cl  UNL A   1      32.482  28.906  22.563  1.00  0.00    -0.083 Cl
BRANCH   9  16
ATOM     16  N   UNL A   1      32.126  25.521  25.705  1.00  0.00    -0.322 N 
ATOM     17  C   UNL A   1      31.635  24.521  26.552  1.00  0.00     0.262 C 
ATOM     18  O   UNL A   1      30.421  24.653  26.811  1.00  0.00    -0.271 OA
ATOM     19  H   UNL A   1      31.420  25.980  25.196  1.00  0.00     0.170 HD
BRANCH  17  20
ATOM     20  C   UNL A   1      32.484  23.021  27.249  1.00  0.00     0.329 C 
BRANCH  20  21
ATOM     21  O   UNL A   1      34.078  21.968  26.328  1.00  0.00    -0.484 OA
BRANCH  21  22
ATOM     22  C   UNL A   1      35.572  22.346  25.640  1.00  0.00     0.120 A 
ATOM     23  C   UNL A   1      38.833  24.318  26.466  1.00  0.00     0.044 C 
ATOM     24  C   UNL A   1      37.905  23.239  25.971  1.00  0.00    -0.047 A 
ATOM     25  C   UNL A   1      38.417  22.049  25.480  1.00  0.00     0.003 A 
ATOM     26  C   UNL A   1      36.499  23.388  26.036  1.00  0.00     0.049 A 
ATOM     27  C   UNL A   1      37.537  21.109  24.929  1.00  0.00     0.004 A 
ATOM     28  C   UNL A   1      36.127  21.307  24.926  1.00  0.00     0.046 A 
ENDBRANCH  21  22
ENDBRANCH  20  21
ENDBRANCH  17  20
ENDBRANCH   9  16
ENDBRANCH   6   8
ENDBRANCH   5   6
ENDBRANCH   4   5
ENDBRANCH   3   4
ENDBRANCH   2   3
ENDBRANCH   1   2
BRANCH   1  29
ATOM     29  C   UNL A   1      32.964  35.836  28.819  1.00  0.00     0.188 C 
BRANCH  29  30
ATOM     30  O   UNL A   1      32.781  35.841  30.228  1.00  0.00    -0.376 OA
BRANCH  30  31
ATOM     31  C   UNL A   1      33.281  37.027  30.831  1.00  0.00     0.202 C 
BRANCH  31  32
ATOM     32  C   UNL A   1      33.435  36.892  32.363  1.00  0.00     0.261 C 
BRANCH  32  33
ATOM     33  O   UNL A   1      34.768  36.424  32.704  1.00  0.00    -0.460 OA
BRANCH  33  34
ATOM     34  C   UNL A   1      34.954  35.209  33.341  1.00  0.00     0.338 C 
ATOM     35  O   UNL A   1      35.187  35.072  34.527  1.00  0.00    -0.246 OA
BRANCH  34  36
ATOM     36  C   UNL A   1      35.133  34.129  32.281  1.00  0.00     0.060 A 
ATOM     37  C   UNL A   1      35.047  32.741  32.497  1.00  0.00     0.016 A 
ATOM     38  C   UNL A   1      35.996  34.482  31.317  1.00  0.00     0.016 A 
ATOM     39  C   UNL A   1      36.100  31.814  32.066  1.00  0.00     0.010 A 
ATOM     40  C   UNL A   1      37.129  33.681  31.308  1.00  0.00     0.010 A 
ATOM     41  C   UNL A   1      37.334  32.272  31.599  1.00  0.00    -0.014 A 
BRANCH  41  42
ATOM     42  C   UNL A   1      38.826  31.265  31.322  1.00  0.00     0.031 A 
ATOM     43  C   UNL A   1      39.128  29.866  30.084  1.00  0.00     0.074 A 
ATOM     44  C   UNL A   1      39.934  31.695  32.000  1.00  0.00     0.049 A 
ATOM     45  N   UNL A   1      40.512  29.094  30.223  1.00  0.00    -0.248 NA
ATOM     46  C   UNL A   1      38.076  28.877  28.601  1.00  0.00     0.031 C 
ATOM     47  C   UNL A   1      41.337  31.307  31.832  1.00  0.00     0.029 A 
ATOM     48  N   UNL A   1      40.031  32.689  32.995  1.00  0.00    -0.354 N 
ATOM     49  C   UNL A   1      40.794  27.816  28.989  1.00  0.00     0.074 A 
ATOM     50  C   UNL A   1      39.146  27.637  28.012  1.00  0.00     0.031 C 
ATOM     51  C   UNL A   1      42.084  31.840  32.815  1.00  0.00     0.029 A 
ATOM     52  C   UNL A   1      41.168  32.423  33.767  1.00  0.00     0.049 A 
ATOM     53  H   UNL A   1      39.408  33.441  33.124  1.00  0.00     0.167 HD
ATOM     54  C   UNL A   1      42.051  27.307  28.932  1.00  0.00     0.037 A 
ATOM     55  C   UNL A   1      41.065  32.156  35.092  1.00  0.00     0.037 A 
ATOM     56  C   UNL A   1      42.789  27.760  30.117  1.00  0.00     0.049 A 
ATOM     57  C   UNL A   1      41.551  30.743  35.302  1.00  0.00     0.074 A 
ATOM     58  C   UNL A   1      43.745  28.738  30.338  1.00  0.00     0.029 A 
ATOM     59  N   UNL A   1      42.316  27.417  31.398  1.00  0.00    -0.354 N 
ATOM     60  N   UNL A   1      41.586  29.855  34.336  1.00  0.00    -0.248 NA
ATOM     61  C   UNL A   1      42.203  30.273  36.514  1.00  0.00     0.031 C 
ATOM     62  C   UNL A   1      43.838  28.969  31.747  1.00  0.00     0.029 A 
ATOM     63  C   UNL A   1      42.946  28.135  32.410  1.00  0.00     0.049 A 
ATOM     64  H   UNL A   1      41.615  26.744  31.559  1.00  0.00     0.167 HD
ATOM     65  C   UNL A   1      42.377  28.808  34.698  1.00  0.00     0.074 A 
ATOM     66  C   UNL A   1      42.701  29.096  36.093  1.00  0.00     0.031 C 
ATOM     67  C   UNL A   1      42.762  27.807  33.841  1.00  0.00     0.037 A 
BRANCH  54  68
ATOM     68  C   UNL A   1      42.594  26.659  27.684  1.00  0.00     0.064 A 
ATOM     69  C   UNL A   1      42.505  25.268  27.483  1.00  0.00     0.173 A 
ATOM     70  C   UNL A   1      43.301  27.347  26.678  1.00  0.00     0.173 A 
ATOM     71  F   UNL A   1      41.792  24.494  28.311  1.00  0.00    -0.203 F 
ATOM     72  C   UNL A   1      43.155  24.620  26.421  1.00  0.00     0.198 A 
ATOM     73  C   UNL A   1      44.014  26.699  25.663  1.00  0.00     0.198 A 
ATOM     74  F   UNL A   1      43.248  28.677  26.589  1.00  0.00    -0.203 F 
ATOM     75  F   UNL A   1      43.019  23.296  26.266  1.00  0.00    -0.200 F 
ATOM     76  C   UNL A   1      43.944  25.330  25.536  1.00  0.00     0.200 A 
ATOM     77  F   UNL A   1      44.752  27.416  24.803  1.00  0.00    -0.200 F 
ATOM     78  F   UNL A   1      44.597  24.706  24.547  1.00  0.00    -0.200 F 
ENDBRANCH  54  68
BRANCH  55  79
ATOM     79  C   UNL A   1      40.006  32.998  35.735  1.00  0.00     0.064 A 
ATOM     80  C   UNL A   1      38.905  32.283  36.282  1.00  0.00     0.173 A 
ATOM     81  C   UNL A   1      40.244  34.268  36.267  1.00  0.00     0.173 A 
ATOM     82  F   UNL A   1      38.582  31.077  35.786  1.00  0.00    -0.203 F 
ATOM     83  C   UNL A   1      38.254  32.700  37.443  1.00  0.00     0.198 A 
ATOM     84  C   UNL A   1      39.523  34.722  37.387  1.00  0.00     0.198 A 
ATOM     85  F   UNL A   1      41.275  35.006  35.832  1.00  0.00    -0.203 F 
ATOM     86  F   UNL A   1      37.393  31.880  38.065  1.00  0.00    -0.200 F 
ATOM     87  C   UNL A   1      38.593  33.905  38.018  1.00  0.00     0.200 A 
ATOM     88  F   UNL A   1      39.866  35.882  37.971  1.00  0.00    -0.200 F 
ATOM     89  F   UNL A   1      38.092  34.238  39.217  1.00  0.00    -0.200 F 
ENDBRANCH  55  79
BRANCH  67  90
ATOM     90  C   UNL A   1      43.145  26.427  34.335  1.00  0.00     0.064 A 
ATOM     91  C   UNL A   1      42.245  25.556  34.978  1.00  0.00     0.173 A 
ATOM     92  C   UNL A   1      44.403  25.861  34.025  1.00  0.00     0.173 A 
ATOM     93  F   UNL A   1      40.964  25.888  35.191  1.00  0.00    -0.203 F 
ATOM     94  C   UNL A   1      42.608  24.270  35.372  1.00  0.00     0.198 A 
ATOM     95  C   UNL A   1      44.723  24.539  34.323  1.00  0.00     0.198 A 
ATOM     96  F   UNL A   1      45.360  26.549  33.389  1.00  0.00    -0.203 F 
ATOM     97  F   UNL A   1      41.735  23.521  36.061  1.00  0.00    -0.200 F 
ATOM     98  C   UNL A   1      43.839  23.754  35.027  1.00  0.00     0.200 A 
ATOM     99  F   UNL A   1      45.889  24.032  33.902  1.00  0.00    -0.200 F 
ATOM    100  F   UNL A   1      44.160  22.495  35.348  1.00  0.00    -0.200 F 
ENDBRANCH  67  90
ENDBRANCH  41  42
ENDBRANCH  34  36
ENDBRANCH  33  34
ENDBRANCH  32  33
ENDBRANCH  31  32
ENDBRANCH  30  31
ENDBRANCH  29  30
ENDBRANCH   1  29
TORSDOF 21
ENDMDL
MODEL 3
REMARK VINA RESULT:     -13.6      2.891      4.236
REMARK SMILES Cc1cccc(OCC(=O)Nc2cc(C(=O)OCCOCCOCCOC(=O)c3ccc(-c4c5nc(c(-c6c(F)c(F)c(F)c(F)c6F)c6ccc([nH]6)c(-c6c(F)c(F)c(F)c(F)c6F)c6nc(c(-c7c(F)c(F)c(F)c(F)c7F)c7ccc4[nH]7)C=C6)C=C5)cc3)c(Cl)cc2Cl)c1
REMARK SMILES IDX 21 1 20 2 19 3 18 4 17 5 15 6 16 7 14 8 12 9 13 10 95 11
REMARK SMILES IDX 94 12 96 13 92 14 93 15 11 16 9 17 10 18 8 20 7 21 6 22 1 23
REMARK SMILES IDX 2 24 3 25 97 26 4 27 5 28 22 29 23 30 24 31 25 32 26 33
REMARK SMILES IDX 27 34 28 35 29 36 30 37 91 38 31 39 90 40 32 41 33 42 34 43
REMARK SMILES IDX 84 44 35 45 89 46 83 47 85 48 36 49 88 50 82 51 81 52 37 54
REMARK SMILES IDX 69 55 49 56 68 57 50 58 53 59 67 60 86 61 51 62 52 63 66 65
REMARK SMILES IDX 87 66 54 67 38 68 39 69 47 70 40 71 41 72 45 73 48 74 42 75
REMARK SMILES IDX 43 76 46 77 44 78 70 79 71 80 79 81 72 82 73 83 77 84 80 85
REMARK SMILES IDX 74 86 75 87 78 88 76 89 55 90 56 91 64 92 57 93 58 94 62 95
REMARK SMILES IDX 65 96 59 97 60 98 63 99 61 100
REMARK H PARENT 11 19 85 53 53 64
REMARK Flexibility Score: inf
ROOT
ATOM      1  C   UNL A   1      34.330  35.077  28.401  1.00  0.00     0.188 C 
ENDROOT
BRANCH   1   2
ATOM      2  O   UNL A   1      34.828  33.855  27.888  1.00  0.00    -0.376 OA
BRANCH   2   3
ATOM      3  C   UNL A   1      34.026  32.697  28.065  1.00  0.00     0.202 C 
BRANCH   3   4
ATOM      4  C   UNL A   1      34.611  31.243  28.015  1.00  0.00     0.261 C 
BRANCH   4   5
ATOM      5  O   UNL A   1      34.051  30.054  27.151  1.00  0.00    -0.460 OA
BRANCH   5   6
ATOM      6  C   UNL A   1      33.001  29.175  26.671  1.00  0.00     0.339 C 
ATOM      7  O   UNL A   1      31.985  29.065  27.357  1.00  0.00    -0.246 OA
BRANCH   6   8
ATOM      8  C   UNL A   1      33.202  27.955  25.238  1.00  0.00     0.080 A 
ATOM      9  C   UNL A   1      33.657  25.636  25.158  1.00  0.00     0.061 A 
ATOM     10  C   UNL A   1      33.965  26.895  25.681  1.00  0.00     0.045 A 
ATOM     11  C   UNL A   1      33.670  25.471  23.784  1.00  0.00     0.066 A 
ATOM     12  C   UNL A   1      33.166  26.511  23.073  1.00  0.00     0.044 A 
ATOM     13  Cl  UNL A   1      33.765  23.924  23.039  1.00  0.00    -0.082 Cl
ATOM     14  C   UNL A   1      32.709  27.624  23.812  1.00  0.00     0.057 A 
ATOM     15  Cl  UNL A   1      31.343  28.147  22.754  1.00  0.00    -0.083 Cl
BRANCH   9  16
ATOM     16  N   UNL A   1      32.614  24.876  25.777  1.00  0.00    -0.322 N 
ATOM     17  C   UNL A   1      32.597  23.906  26.786  1.00  0.00     0.262 C 
ATOM     18  O   UNL A   1      31.475  23.770  27.314  1.00  0.00    -0.271 OA
ATOM     19  H   UNL A   1      31.720  25.079  25.418  1.00  0.00     0.170 HD
BRANCH  17  20
ATOM     20  C   UNL A   1      33.943  22.762  27.368  1.00  0.00     0.329 C 
BRANCH  20  21
ATOM     21  O   UNL A   1      34.675  21.079  26.304  1.00  0.00    -0.484 OA
BRANCH  21  22
ATOM     22  C   UNL A   1      34.264  20.229  24.905  1.00  0.00     0.120 A 
ATOM     23  C   UNL A   1      33.968  16.563  23.611  1.00  0.00     0.044 C 
ATOM     24  C   UNL A   1      33.666  18.019  23.855  1.00  0.00    -0.047 A 
ATOM     25  C   UNL A   1      32.477  18.570  23.401  1.00  0.00     0.003 A 
ATOM     26  C   UNL A   1      34.552  18.845  24.586  1.00  0.00     0.049 A 
ATOM     27  C   UNL A   1      32.271  19.948  23.548  1.00  0.00     0.004 A 
ATOM     28  C   UNL A   1      33.210  20.785  24.215  1.00  0.00     0.046 A 
ENDBRANCH  21  22
ENDBRANCH  20  21
ENDBRANCH  17  20
ENDBRANCH   9  16
ENDBRANCH   6   8
ENDBRANCH   5   6
ENDBRANCH   4   5
ENDBRANCH   3   4
ENDBRANCH   2   3
ENDBRANCH   1   2
BRANCH   1  29
ATOM     29  C   UNL A   1      32.901  35.202  28.815  1.00  0.00     0.188 C 
BRANCH  29  30
ATOM     30  O   UNL A   1      32.757  35.042  30.219  1.00  0.00    -0.376 OA
BRANCH  30  31
ATOM     31  C   UNL A   1      32.609  36.286  30.890  1.00  0.00     0.202 C 
BRANCH  31  32
ATOM     32  C   UNL A   1      33.033  36.213  32.374  1.00  0.00     0.261 C 
BRANCH  32  33
ATOM     33  O   UNL A   1      34.471  36.030  32.486  1.00  0.00    -0.460 OA
BRANCH  33  34
ATOM     34  C   UNL A   1      34.999  34.980  33.216  1.00  0.00     0.338 C 
ATOM     35  O   UNL A   1      35.455  35.071  34.340  1.00  0.00    -0.246 OA
BRANCH  34  36
ATOM     36  C   UNL A   1      35.201  33.794  32.281  1.00  0.00     0.060 A 
ATOM     37  C   UNL A   1      35.215  32.439  32.661  1.00  0.00     0.016 A 
ATOM     38  C   UNL A   1      35.997  34.081  31.240  1.00  0.00     0.016 A 
ATOM     39  C   UNL A   1      36.307  31.531  32.287  1.00  0.00     0.010 A 
ATOM     40  C   UNL A   1      37.178  33.353  31.266  1.00  0.00     0.010 A 
ATOM     41  C   UNL A   1      37.487  32.003  31.708  1.00  0.00    -0.014 A 
BRANCH  41  42
ATOM     42  C   UNL A   1      39.027  31.062  31.474  1.00  0.00     0.031 A 
ATOM     43  C   UNL A   1      39.382  29.583  30.346  1.00  0.00     0.074 A 
ATOM     44  C   UNL A   1      40.124  31.607  32.084  1.00  0.00     0.049 A 
ATOM     45  N   UNL A   1      40.811  28.903  30.511  1.00  0.00    -0.248 NA
ATOM     46  C   UNL A   1      38.356  28.418  28.979  1.00  0.00     0.031 C 
ATOM     47  C   UNL A   1      41.543  31.286  31.910  1.00  0.00     0.029 A 
ATOM     48  N   UNL A   1      40.186  32.685  32.991  1.00  0.00    -0.354 N 
ATOM     49  C   UNL A   1      41.139  27.545  29.378  1.00  0.00     0.074 A 
ATOM     50  C   UNL A   1      39.482  27.195  28.464  1.00  0.00     0.031 C 
ATOM     51  C   UNL A   1      42.280  31.939  32.827  1.00  0.00     0.029 A 
ATOM     52  C   UNL A   1      41.353  32.547  33.751  1.00  0.00     0.049 A 
ATOM     53  H   UNL A   1      39.524  33.408  33.076  1.00  0.00     0.167 HD
ATOM     54  C   UNL A   1      42.421  27.104  29.329  1.00  0.00     0.037 A 
ATOM     55  C   UNL A   1      41.296  32.386  35.097  1.00  0.00     0.037 A 
ATOM     56  C   UNL A   1      43.158  27.694  30.453  1.00  0.00     0.049 A 
ATOM     57  C   UNL A   1      41.867  31.024  35.409  1.00  0.00     0.074 A 
ATOM     58  C   UNL A   1      44.061  28.739  30.567  1.00  0.00     0.029 A 
ATOM     59  N   UNL A   1      42.734  27.433  31.769  1.00  0.00    -0.354 N 
ATOM     60  N   UNL A   1      41.931  30.062  34.517  1.00  0.00    -0.248 NA
ATOM     61  C   UNL A   1      42.572  30.694  36.637  1.00  0.00     0.031 C 
ATOM     62  C   UNL A   1      44.172  29.091  31.949  1.00  0.00     0.029 A 
ATOM     63  C   UNL A   1      43.344  28.267  32.703  1.00  0.00     0.049 A 
ATOM     64  H   UNL A   1      42.077  26.738  32.004  1.00  0.00     0.167 HD
ATOM     65  C   UNL A   1      42.790  29.094  34.942  1.00  0.00     0.074 A 
ATOM     66  C   UNL A   1      43.127  29.515  36.299  1.00  0.00     0.031 C 
ATOM     67  C   UNL A   1      43.212  28.049  34.160  1.00  0.00     0.037 A 
BRANCH  54  68
ATOM     68  C   UNL A   1      42.973  26.386  28.124  1.00  0.00     0.064 A 
ATOM     69  C   UNL A   1      43.666  27.079  27.112  1.00  0.00     0.173 A 
ATOM     70  C   UNL A   1      42.774  25.017  27.857  1.00  0.00     0.173 A 
ATOM     71  F   UNL A   1      44.003  28.366  27.264  1.00  0.00    -0.203 F 
ATOM     72  C   UNL A   1      44.033  26.471  25.902  1.00  0.00     0.198 A 
ATOM     73  C   UNL A   1      43.068  24.426  26.624  1.00  0.00     0.198 A 
ATOM     74  F   UNL A   1      42.373  24.182  28.817  1.00  0.00    -0.203 F 
ATOM     75  F   UNL A   1      44.711  27.173  24.983  1.00  0.00    -0.200 F 
ATOM     76  C   UNL A   1      43.697  25.157  25.641  1.00  0.00     0.200 A 
ATOM     77  F   UNL A   1      42.752  23.141  26.406  1.00  0.00    -0.200 F 
ATOM     78  F   UNL A   1      44.013  24.588  24.469  1.00  0.00    -0.200 F 
ENDBRANCH  54  68
BRANCH  55  79
ATOM     79  C   UNL A   1      40.205  33.219  35.697  1.00  0.00     0.064 A 
ATOM     80  C   UNL A   1      39.120  32.491  36.259  1.00  0.00     0.173 A 
ATOM     81  C   UNL A   1      40.398  34.514  36.183  1.00  0.00     0.173 A 
ATOM     82  F   UNL A   1      38.839  31.258  35.806  1.00  0.00    -0.203 F 
ATOM     83  C   UNL A   1      38.443  32.931  37.398  1.00  0.00     0.198 A 
ATOM     84  C   UNL A   1      39.651  34.987  37.278  1.00  0.00     0.198 A 
ATOM     85  F   UNL A   1      41.410  35.266  35.730  1.00  0.00    -0.203 F 
ATOM     86  F   UNL A   1      37.601  32.108  38.042  1.00  0.00    -0.200 F 
ATOM     87  C   UNL A   1      38.739  34.166  37.930  1.00  0.00     0.200 A 
ATOM     88  F   UNL A   1      39.953  36.178  37.821  1.00  0.00    -0.200 F 
ATOM     89  F   UNL A   1      38.216  34.528  39.111  1.00  0.00    -0.200 F 
ENDBRANCH  55  79
BRANCH  67  90
ATOM     90  C   UNL A   1      43.684  26.739  34.755  1.00  0.00     0.064 A 
ATOM     91  C   UNL A   1      45.023  26.485  35.109  1.00  0.00     0.173 A 
ATOM     92  C   UNL A   1      42.764  25.739  35.150  1.00  0.00     0.173 A 
ATOM     93  F   UNL A   1      45.985  27.404  34.951  1.00  0.00    -0.203 F 
ATOM     94  C   UNL A   1      45.421  25.291  35.707  1.00  0.00     0.198 A 
ATOM     95  C   UNL A   1      43.152  24.597  35.845  1.00  0.00     0.198 A 
ATOM     96  F   UNL A   1      41.450  25.842  34.913  1.00  0.00    -0.203 F 
ATOM     97  F   UNL A   1      46.723  25.072  35.937  1.00  0.00    -0.200 F 
ATOM     98  C   UNL A   1      44.485  24.357  36.094  1.00  0.00     0.200 A 
ATOM     99  F   UNL A   1      42.219  23.745  36.289  1.00  0.00    -0.200 F 
ATOM    100  F   UNL A   1      44.863  23.241  36.728  1.00  0.00    -0.200 F 
ENDBRANCH  67  90
ENDBRANCH  41  42
ENDBRANCH  34  36
ENDBRANCH  33  34
ENDBRANCH  32  33
ENDBRANCH  31  32
ENDBRANCH  30  31
ENDBRANCH  29  30
ENDBRANCH   1  29
TORSDOF 21
ENDMDL
