MODEL 1
REMARK VINA RESULT:     -10.6      0.000      0.000
REMARK SMILES COc1ccc(-n2c(=S)[nH]cc(CC(=O)OCCOCCOCCOC(=O)c3ccc(-c4c5nc(c(-c6c(F)c(F)c(F)c(F)c6F)c6ccc([nH]6)c(-c6c(F)c(F)c(F)c(F)c6F)c6nc(c(-c7c(F)c(F)c(F)c(F)c7F)c7ccc4[nH]7)C=C6)C=C5)cc3)c2=O)cc1Cl
REMARK SMILES IDX 20 1 19 2 18 3 17 4 16 5 14 6 15 7 13 8 12 9 7 10 8 11 91 12
REMARK SMILES IDX 9 13 10 14 92 15 11 16 6 18 3 19 4 20 94 21 5 22 93 23 95 24
REMARK SMILES IDX 2 25 1 26 21 27 22 28 23 29 24 30 25 31 26 32 27 33 28 34
REMARK SMILES IDX 29 35 90 36 30 37 89 38 31 39 32 40 33 41 83 42 34 43 88 44
REMARK SMILES IDX 82 45 84 46 35 47 87 48 81 49 80 50 36 52 68 53 48 54 67 55
REMARK SMILES IDX 49 56 52 57 66 58 85 59 50 60 51 61 65 63 86 64 53 65 37 66
REMARK SMILES IDX 38 67 46 68 39 69 40 70 44 71 47 72 41 73 42 74 45 75 43 76
REMARK SMILES IDX 69 77 70 78 78 79 71 80 72 81 76 82 79 83 73 84 74 85 77 86
REMARK SMILES IDX 75 87 54 88 55 89 63 90 56 91 57 92 61 93 64 94 58 95 59 96
REMARK SMILES IDX 62 97 60 98
REMARK H PARENT 10 17 84 51 52 62
REMARK Flexibility Score: inf
ROOT
ATOM      1  C   UNL A   1      33.576  26.618  24.954  1.00  0.00     0.188 C 
ENDROOT
BRANCH   1   2
ATOM      2  O   UNL A   1      34.186  27.255  23.841  1.00  0.00    -0.376 OA
BRANCH   2   3
ATOM      3  C   UNL A   1      33.371  27.572  22.714  1.00  0.00     0.202 C 
BRANCH   3   4
ATOM      4  C   UNL A   1      32.700  26.397  21.983  1.00  0.00     0.261 C 
BRANCH   4   5
ATOM      5  O   UNL A   1      31.254  26.476  21.866  1.00  0.00    -0.463 OA
BRANCH   5   6
ATOM      6  C   UNL A   1      30.542  25.986  22.917  1.00  0.00     0.310 C 
ATOM      7  O   UNL A   1      29.769  26.666  23.590  1.00  0.00    -0.252 OA
BRANCH   6   8
ATOM      8  C   UNL A   1      30.617  24.469  23.134  1.00  0.00     0.165 C 
BRANCH   8   9
ATOM      9  C   UNL A   1      31.291  23.855  24.332  1.00  0.00     0.045 A 
ATOM     10  N   UNL A   1      33.274  22.760  25.305  1.00  0.00    -0.253 N 
ATOM     11  C   UNL A   1      32.686  22.789  26.580  1.00  0.00     0.184 A 
ATOM     12  C   UNL A   1      32.606  23.179  24.143  1.00  0.00     0.262 A 
ATOM     13  S   UNL A   1      33.283  22.189  28.031  1.00  0.00    -0.040 S 
ATOM     14  N   UNL A   1      31.494  23.467  26.655  1.00  0.00    -0.338 N 
ATOM     15  O   UNL A   1      33.043  23.060  22.999  1.00  0.00    -0.269 OA
ATOM     16  C   UNL A   1      30.873  24.039  25.590  1.00  0.00     0.095 A 
ATOM     17  H   UNL A   1      31.062  23.544  27.536  1.00  0.00     0.168 HD
BRANCH  10  18
ATOM     18  C   UNL A   1      34.672  22.489  25.176  1.00  0.00     0.053 A 
ATOM     19  C   UNL A   1      37.433  22.032  25.183  1.00  0.00     0.137 A 
ATOM     20  C   UNL A   1      36.943  23.326  25.365  1.00  0.00     0.050 A 
ATOM     21  C   UNL A   1      36.544  20.962  25.018  1.00  0.00     0.085 A 
ATOM     22  C   UNL A   1      35.568  23.556  25.345  1.00  0.00     0.031 A 
ATOM     23  C   UNL A   1      35.163  21.192  25.004  1.00  0.00     0.051 A 
ATOM     24  Cl  UNL A   1      37.089  19.329  24.890  1.00  0.00    -0.080 Cl
BRANCH  19  25
ATOM     25  O   UNL A   1      38.793  21.882  25.273  1.00  0.00    -0.495 OA
ATOM     26  C   UNL A   1      39.280  22.293  26.551  1.00  0.00     0.278 C 
ENDBRANCH  19  25
ENDBRANCH  10  18
ENDBRANCH   8   9
ENDBRANCH   6   8
ENDBRANCH   5   6
ENDBRANCH   4   5
ENDBRANCH   3   4
ENDBRANCH   2   3
ENDBRANCH   1   2
BRANCH   1  27
ATOM     27  C   UNL A   1      32.986  27.502  26.054  1.00  0.00     0.188 C 
BRANCH  27  28
ATOM     28  O   UNL A   1      31.660  27.901  25.792  1.00  0.00    -0.376 OA
BRANCH  28  29
ATOM     29  C   UNL A   1      31.459  29.217  25.311  1.00  0.00     0.202 C 
BRANCH  29  30
ATOM     30  C   UNL A   1      32.639  30.106  25.713  1.00  0.00     0.261 C 
BRANCH  30  31
ATOM     31  O   UNL A   1      32.557  30.668  27.038  1.00  0.00    -0.460 OA
BRANCH  31  32
ATOM     32  C   UNL A   1      33.210  31.826  27.281  1.00  0.00     0.338 C 
ATOM     33  O   UNL A   1      32.752  32.958  27.211  1.00  0.00    -0.246 OA
BRANCH  32  34
ATOM     34  C   UNL A   1      34.497  31.490  27.946  1.00  0.00     0.060 A 
ATOM     35  C   UNL A   1      35.512  32.438  28.092  1.00  0.00     0.016 A 
ATOM     36  C   UNL A   1      34.719  30.164  28.348  1.00  0.00     0.016 A 
ATOM     37  C   UNL A   1      36.737  32.061  28.651  1.00  0.00     0.010 A 
ATOM     38  C   UNL A   1      35.946  29.785  28.901  1.00  0.00     0.010 A 
ATOM     39  C   UNL A   1      36.960  30.736  29.074  1.00  0.00    -0.014 A 
BRANCH  39  40
ATOM     40  C   UNL A   1      38.187  30.410  29.845  1.00  0.00     0.031 A 
ATOM     41  C   UNL A   1      38.414  30.890  31.247  1.00  0.00     0.074 A 
ATOM     42  C   UNL A   1      39.121  29.650  29.239  1.00  0.00     0.049 A 
ATOM     43  N   UNL A   1      39.377  30.573  32.076  1.00  0.00    -0.248 NA
ATOM     44  C   UNL A   1      37.452  31.861  31.785  1.00  0.00     0.031 C 
ATOM     45  C   UNL A   1      39.041  29.178  27.856  1.00  0.00     0.029 A 
ATOM     46  N   UNL A   1      40.301  29.128  29.705  1.00  0.00    -0.354 N 
ATOM     47  C   UNL A   1      39.124  31.277  33.245  1.00  0.00     0.074 A 
ATOM     48  C   UNL A   1      37.951  32.091  32.994  1.00  0.00     0.031 C 
ATOM     49  C   UNL A   1      40.099  28.396  27.599  1.00  0.00     0.029 A 
ATOM     50  C   UNL A   1      40.943  28.331  28.789  1.00  0.00     0.049 A 
ATOM     51  H   UNL A   1      40.652  29.307  30.606  1.00  0.00     0.167 HD
ATOM     52  C   UNL A   1      39.795  31.224  34.422  1.00  0.00     0.037 A 
ATOM     53  C   UNL A   1      42.076  27.611  28.899  1.00  0.00     0.037 A 
ATOM     54  C   UNL A   1      40.969  30.421  34.658  1.00  0.00     0.049 A 
ATOM     55  C   UNL A   1      42.817  27.596  30.206  1.00  0.00     0.074 A 
ATOM     56  C   UNL A   1      41.681  30.259  35.835  1.00  0.00     0.029 A 
ATOM     57  N   UNL A   1      41.616  29.656  33.697  1.00  0.00    -0.354 N 
ATOM     58  N   UNL A   1      42.504  28.176  31.339  1.00  0.00    -0.248 NA
ATOM     59  C   UNL A   1      44.065  26.822  30.252  1.00  0.00     0.031 C 
ATOM     60  C   UNL A   1      42.789  29.447  35.573  1.00  0.00     0.029 A 
ATOM     61  C   UNL A   1      42.740  29.055  34.246  1.00  0.00     0.049 A 
ATOM     62  H   UNL A   1      41.321  29.556  32.763  1.00  0.00     0.167 HD
ATOM     63  C   UNL A   1      43.507  27.828  32.234  1.00  0.00     0.074 A 
ATOM     64  C   UNL A   1      44.422  26.963  31.521  1.00  0.00     0.031 C 
ATOM     65  C   UNL A   1      43.655  28.202  33.529  1.00  0.00     0.037 A 
BRANCH  52  66
ATOM     66  C   UNL A   1      39.267  32.038  35.572  1.00  0.00     0.064 A 
ATOM     67  C   UNL A   1      38.397  31.477  36.519  1.00  0.00     0.173 A 
ATOM     68  C   UNL A   1      39.710  33.352  35.790  1.00  0.00     0.173 A 
ATOM     69  F   UNL A   1      37.946  30.224  36.361  1.00  0.00    -0.203 F 
ATOM     70  C   UNL A   1      37.976  32.205  37.630  1.00  0.00     0.198 A 
ATOM     71  C   UNL A   1      39.310  34.067  36.916  1.00  0.00     0.198 A 
ATOM     72  F   UNL A   1      40.556  33.933  34.926  1.00  0.00    -0.203 F 
ATOM     73  F   UNL A   1      37.121  31.656  38.503  1.00  0.00    -0.200 F 
ATOM     74  C   UNL A   1      38.439  33.496  37.831  1.00  0.00     0.200 A 
ATOM     75  F   UNL A   1      39.776  35.307  37.122  1.00  0.00    -0.200 F 
ATOM     76  F   UNL A   1      38.049  34.187  38.911  1.00  0.00    -0.200 F 
ENDBRANCH  52  66
BRANCH  53  77
ATOM     77  C   UNL A   1      42.542  26.805  27.740  1.00  0.00     0.064 A 
ATOM     78  C   UNL A   1      43.371  27.370  26.762  1.00  0.00     0.173 A 
ATOM     79  C   UNL A   1      42.197  25.453  27.605  1.00  0.00     0.173 A 
ATOM     80  F   UNL A   1      43.716  28.663  26.841  1.00  0.00    -0.203 F 
ATOM     81  C   UNL A   1      43.831  26.613  25.687  1.00  0.00     0.198 A 
ATOM     82  C   UNL A   1      42.682  24.690  26.546  1.00  0.00     0.198 A 
ATOM     83  F   UNL A   1      41.412  24.865  28.521  1.00  0.00    -0.203 F 
ATOM     84  F   UNL A   1      44.596  27.185  24.747  1.00  0.00    -0.200 F 
ATOM     85  C   UNL A   1      43.494  25.272  25.584  1.00  0.00     0.200 A 
ATOM     86  F   UNL A   1      42.370  23.389  26.462  1.00  0.00    -0.200 F 
ATOM     87  F   UNL A   1      43.949  24.542  24.558  1.00  0.00    -0.200 F 
ENDBRANCH  53  77
BRANCH  65  88
ATOM     88  C   UNL A   1      44.860  27.693  34.267  1.00  0.00     0.064 A 
ATOM     89  C   UNL A   1      44.829  26.472  34.958  1.00  0.00     0.173 A 
ATOM     90  C   UNL A   1      46.079  28.388  34.219  1.00  0.00     0.173 A 
ATOM     91  F   UNL A   1      43.686  25.775  35.047  1.00  0.00    -0.203 F 
ATOM     92  C   UNL A   1      45.969  25.972  35.582  1.00  0.00     0.198 A 
ATOM     93  C   UNL A   1      47.225  27.869  34.817  1.00  0.00     0.198 A 
ATOM     94  F   UNL A   1      46.165  29.557  33.567  1.00  0.00    -0.203 F 
ATOM     95  F   UNL A   1      45.906  24.820  36.265  1.00  0.00    -0.200 F 
ATOM     96  C   UNL A   1      47.168  26.664  35.501  1.00  0.00     0.200 A 
ATOM     97  F   UNL A   1      48.386  28.531  34.724  1.00  0.00    -0.200 F 
ATOM     98  F   UNL A   1      48.269  26.171  36.083  1.00  0.00    -0.200 F 
ENDBRANCH  65  88
ENDBRANCH  39  40
ENDBRANCH  32  34
ENDBRANCH  31  32
ENDBRANCH  30  31
ENDBRANCH  29  30
ENDBRANCH  28  29
ENDBRANCH  27  28
ENDBRANCH   1  27
TORSDOF 20
ENDMDL
MODEL 2
REMARK VINA RESULT:     -10.0      1.798      2.886
REMARK SMILES COc1ccc(-n2c(=S)[nH]cc(CC(=O)OCCOCCOCCOC(=O)c3ccc(-c4c5nc(c(-c6c(F)c(F)c(F)c(F)c6F)c6ccc([nH]6)c(-c6c(F)c(F)c(F)c(F)c6F)c6nc(c(-c7c(F)c(F)c(F)c(F)c7F)c7ccc4[nH]7)C=C6)C=C5)cc3)c2=O)cc1Cl
REMARK SMILES IDX 20 1 19 2 18 3 17 4 16 5 14 6 15 7 13 8 12 9 7 10 8 11 91 12
REMARK SMILES IDX 9 13 10 14 92 15 11 16 6 18 3 19 4 20 94 21 5 22 93 23 95 24
REMARK SMILES IDX 2 25 1 26 21 27 22 28 23 29 24 30 25 31 26 32 27 33 28 34
REMARK SMILES IDX 29 35 90 36 30 37 89 38 31 39 32 40 33 41 83 42 34 43 88 44
REMARK SMILES IDX 82 45 84 46 35 47 87 48 81 49 80 50 36 52 68 53 48 54 67 55
REMARK SMILES IDX 49 56 52 57 66 58 85 59 50 60 51 61 65 63 86 64 53 65 37 66
REMARK SMILES IDX 38 67 46 68 39 69 40 70 44 71 47 72 41 73 42 74 45 75 43 76
REMARK SMILES IDX 69 77 70 78 78 79 71 80 72 81 76 82 79 83 73 84 74 85 77 86
REMARK SMILES IDX 75 87 54 88 55 89 63 90 56 91 57 92 61 93 64 94 58 95 59 96
REMARK SMILES IDX 62 97 60 98
REMARK H PARENT 10 17 84 51 52 62
REMARK Flexibility Score: inf
ROOT
ATOM      1  C   UNL A   1      32.837  29.381  25.068  1.00  0.00     0.188 C 
ENDROOT
BRANCH   1   2
ATOM      2  O   UNL A   1      33.162  29.361  23.687  1.00  0.00    -0.376 OA
BRANCH   2   3
ATOM      3  C   UNL A   1      32.392  28.526  22.824  1.00  0.00     0.202 C 
BRANCH   3   4
ATOM      4  C   UNL A   1      32.625  27.010  22.926  1.00  0.00     0.261 C 
BRANCH   4   5
ATOM      5  O   UNL A   1      31.428  26.202  23.085  1.00  0.00    -0.463 OA
BRANCH   5   6
ATOM      6  C   UNL A   1      30.728  26.394  24.236  1.00  0.00     0.310 C 
ATOM      7  O   UNL A   1      29.534  26.688  24.263  1.00  0.00    -0.252 OA
BRANCH   6   8
ATOM      8  C   UNL A   1      31.465  26.056  25.539  1.00  0.00     0.165 C 
BRANCH   8   9
ATOM      9  C   UNL A   1      32.550  25.015  25.606  1.00  0.00     0.045 A 
ATOM     10  N   UNL A   1      33.223  22.652  25.385  1.00  0.00    -0.253 N 
ATOM     11  C   UNL A   1      34.568  22.999  25.590  1.00  0.00     0.184 A 
ATOM     12  C   UNL A   1      32.171  23.579  25.474  1.00  0.00     0.262 A 
ATOM     13  S   UNL A   1      35.914  21.997  25.671  1.00  0.00    -0.040 S 
ATOM     14  N   UNL A   1      34.817  24.347  25.662  1.00  0.00    -0.338 N 
ATOM     15  O   UNL A   1      30.975  23.293  25.416  1.00  0.00    -0.269 OA
ATOM     16  C   UNL A   1      33.856  25.306  25.592  1.00  0.00     0.095 A 
ATOM     17  H   UNL A   1      35.751  24.638  25.771  1.00  0.00     0.168 HD
BRANCH  10  18
ATOM     18  C   UNL A   1      32.895  21.362  24.864  1.00  0.00     0.053 A 
ATOM     19  C   UNL A   1      32.494  18.840  23.719  1.00  0.00     0.137 A 
ATOM     20  C   UNL A   1      32.585  19.967  22.902  1.00  0.00     0.050 A 
ATOM     21  C   UNL A   1      32.623  18.969  25.108  1.00  0.00     0.085 A 
ATOM     22  C   UNL A   1      32.769  21.225  23.472  1.00  0.00     0.031 A 
ATOM     23  C   UNL A   1      32.814  20.231  25.682  1.00  0.00     0.051 A 
ATOM     24  Cl  UNL A   1      32.620  17.600  26.160  1.00  0.00    -0.080 Cl
BRANCH  19  25
ATOM     25  O   UNL A   1      32.371  17.635  23.077  1.00  0.00    -0.495 OA
ATOM     26  C   UNL A   1      33.648  17.070  22.778  1.00  0.00     0.278 C 
ENDBRANCH  19  25
ENDBRANCH  10  18
ENDBRANCH   8   9
ENDBRANCH   6   8
ENDBRANCH   5   6
ENDBRANCH   4   5
ENDBRANCH   3   4
ENDBRANCH   2   3
ENDBRANCH   1   2
BRANCH   1  27
ATOM     27  C   UNL A   1      31.485  29.969  25.480  1.00  0.00     0.188 C 
BRANCH  27  28
ATOM     28  O   UNL A   1      31.527  30.640  26.718  1.00  0.00    -0.376 OA
BRANCH  28  29
ATOM     29  C   UNL A   1      32.636  31.485  26.963  1.00  0.00     0.202 C 
BRANCH  29  30
ATOM     30  C   UNL A   1      32.150  32.881  27.362  1.00  0.00     0.261 C 
BRANCH  30  31
ATOM     31  O   UNL A   1      33.191  33.860  27.552  1.00  0.00    -0.460 OA
BRANCH  31  32
ATOM     32  C   UNL A   1      33.397  34.339  28.799  1.00  0.00     0.338 C 
ATOM     33  O   UNL A   1      32.611  34.984  29.478  1.00  0.00    -0.246 OA
BRANCH  32  34
ATOM     34  C   UNL A   1      34.625  33.694  29.336  1.00  0.00     0.060 A 
ATOM     35  C   UNL A   1      35.899  34.132  28.967  1.00  0.00     0.016 A 
ATOM     36  C   UNL A   1      34.486  32.565  30.157  1.00  0.00     0.016 A 
ATOM     37  C   UNL A   1      37.027  33.448  29.431  1.00  0.00     0.010 A 
ATOM     38  C   UNL A   1      35.614  31.878  30.616  1.00  0.00     0.010 A 
ATOM     39  C   UNL A   1      36.895  32.325  30.271  1.00  0.00    -0.014 A 
BRANCH  39  40
ATOM     40  C   UNL A   1      38.104  31.743  30.910  1.00  0.00     0.031 A 
ATOM     41  C   UNL A   1      38.538  32.105  32.299  1.00  0.00     0.074 A 
ATOM     42  C   UNL A   1      38.823  30.857  30.194  1.00  0.00     0.049 A 
ATOM     43  N   UNL A   1      39.495  31.577  33.022  1.00  0.00    -0.248 NA
ATOM     44  C   UNL A   1      37.824  33.207  32.957  1.00  0.00     0.031 C 
ATOM     45  C   UNL A   1      38.536  30.476  28.811  1.00  0.00     0.029 A 
ATOM     46  N   UNL A   1      39.922  30.107  30.528  1.00  0.00    -0.354 N 
ATOM     47  C   UNL A   1      39.480  32.258  34.231  1.00  0.00     0.074 A 
ATOM     48  C   UNL A   1      38.462  33.283  34.120  1.00  0.00     0.031 C 
ATOM     49  C   UNL A   1      39.403  29.528  28.429  1.00  0.00     0.029 A 
ATOM     50  C   UNL A   1      40.321  29.252  29.531  1.00  0.00     0.049 A 
ATOM     51  H   UNL A   1      40.378  30.175  31.397  1.00  0.00     0.167 HD
ATOM     52  C   UNL A   1      40.230  32.026  35.337  1.00  0.00     0.037 A 
ATOM     53  C   UNL A   1      41.306  28.334  29.509  1.00  0.00     0.037 A 
ATOM     54  C   UNL A   1      41.251  31.011  35.434  1.00  0.00     0.049 A 
ATOM     55  C   UNL A   1      42.143  28.119  30.738  1.00  0.00     0.074 A 
ATOM     56  C   UNL A   1      42.020  30.665  36.533  1.00  0.00     0.029 A 
ATOM     57  N   UNL A   1      41.658  30.190  34.392  1.00  0.00    -0.354 N 
ATOM     58  N   UNL A   1      42.044  28.691  31.913  1.00  0.00    -0.248 NA
ATOM     59  C   UNL A   1      43.225  27.130  30.640  1.00  0.00     0.031 C 
ATOM     60  C   UNL A   1      42.931  29.678  36.140  1.00  0.00     0.029 A 
ATOM     61  C   UNL A   1      42.694  29.368  34.812  1.00  0.00     0.049 A 
ATOM     62  H   UNL A   1      41.268  30.191  33.488  1.00  0.00     0.167 HD
ATOM     63  C   UNL A   1      43.039  28.122  32.697  1.00  0.00     0.074 A 
ATOM     64  C   UNL A   1      43.712  27.141  31.873  1.00  0.00     0.031 C 
ATOM     65  C   UNL A   1      43.367  28.399  33.984  1.00  0.00     0.037 A 
BRANCH  52  66
ATOM     66  C   UNL A   1      39.966  32.864  36.558  1.00  0.00     0.064 A 
ATOM     67  C   UNL A   1      40.682  34.046  36.795  1.00  0.00     0.173 A 
ATOM     68  C   UNL A   1      38.925  32.543  37.443  1.00  0.00     0.173 A 
ATOM     69  F   UNL A   1      41.686  34.403  35.979  1.00  0.00    -0.203 F 
ATOM     70  C   UNL A   1      40.380  34.866  37.881  1.00  0.00     0.198 A 
ATOM     71  C   UNL A   1      38.606  33.378  38.510  1.00  0.00     0.198 A 
ATOM     72  F   UNL A   1      38.195  31.432  37.255  1.00  0.00    -0.203 F 
ATOM     73  F   UNL A   1      41.100  35.974  38.102  1.00  0.00    -0.200 F 
ATOM     74  C   UNL A   1      39.337  34.535  38.732  1.00  0.00     0.200 A 
ATOM     75  F   UNL A   1      37.583  33.069  39.320  1.00  0.00    -0.200 F 
ATOM     76  F   UNL A   1      39.034  35.335  39.764  1.00  0.00    -0.200 F 
ENDBRANCH  52  66
BRANCH  53  77
ATOM     77  C   UNL A   1      41.511  27.514  28.286  1.00  0.00     0.064 A 
ATOM     78  C   UNL A   1      42.439  27.902  27.311  1.00  0.00     0.173 A 
ATOM     79  C   UNL A   1      40.810  26.317  28.083  1.00  0.00     0.173 A 
ATOM     80  F   UNL A   1      43.122  29.047  27.453  1.00  0.00    -0.203 F 
ATOM     81  C   UNL A   1      42.653  27.126  26.174  1.00  0.00     0.198 A 
ATOM     82  C   UNL A   1      41.048  25.527  26.961  1.00  0.00     0.198 A 
ATOM     83  F   UNL A   1      39.917  25.898  28.993  1.00  0.00    -0.203 F 
ATOM     84  F   UNL A   1      43.523  27.535  25.240  1.00  0.00    -0.200 F 
ATOM     85  C   UNL A   1      41.964  25.935  26.004  1.00  0.00     0.200 A 
ATOM     86  F   UNL A   1      40.394  24.366  26.812  1.00  0.00    -0.200 F 
ATOM     87  F   UNL A   1      42.182  25.181  24.919  1.00  0.00    -0.200 F 
ENDBRANCH  53  77
BRANCH  65  88
ATOM     88  C   UNL A   1      44.517  27.643  34.586  1.00  0.00     0.064 A 
ATOM     89  C   UNL A   1      45.828  28.138  34.523  1.00  0.00     0.173 A 
ATOM     90  C   UNL A   1      44.300  26.454  35.301  1.00  0.00     0.173 A 
ATOM     91  F   UNL A   1      46.093  29.262  33.840  1.00  0.00    -0.203 F 
ATOM     92  C   UNL A   1      46.880  27.468  35.143  1.00  0.00     0.198 A 
ATOM     93  C   UNL A   1      45.348  25.803  35.947  1.00  0.00     0.198 A 
ATOM     94  F   UNL A   1      43.065  25.939  35.398  1.00  0.00    -0.203 F 
ATOM     95  F   UNL A   1      48.129  27.943  35.040  1.00  0.00    -0.200 F 
ATOM     96  C   UNL A   1      46.637  26.308  35.864  1.00  0.00     0.200 A 
ATOM     97  F   UNL A   1      45.109  24.692  36.657  1.00  0.00    -0.200 F 
ATOM     98  F   UNL A   1      47.646  25.676  36.478  1.00  0.00    -0.200 F 
ENDBRANCH  65  88
ENDBRANCH  39  40
ENDBRANCH  32  34
ENDBRANCH  31  32
ENDBRANCH  30  31
ENDBRANCH  29  30
ENDBRANCH  28  29
ENDBRANCH  27  28
ENDBRANCH   1  27
TORSDOF 20
ENDMDL
MODEL 3
REMARK VINA RESULT:      -9.9      1.642      2.449
REMARK SMILES COc1ccc(-n2c(=S)[nH]cc(CC(=O)OCCOCCOCCOC(=O)c3ccc(-c4c5nc(c(-c6c(F)c(F)c(F)c(F)c6F)c6ccc([nH]6)c(-c6c(F)c(F)c(F)c(F)c6F)c6nc(c(-c7c(F)c(F)c(F)c(F)c7F)c7ccc4[nH]7)C=C6)C=C5)cc3)c2=O)cc1Cl
REMARK SMILES IDX 20 1 19 2 18 3 17 4 16 5 14 6 15 7 13 8 12 9 7 10 8 11 91 12
REMARK SMILES IDX 9 13 10 14 92 15 11 16 6 18 3 19 4 20 94 21 5 22 93 23 95 24
REMARK SMILES IDX 2 25 1 26 21 27 22 28 23 29 24 30 25 31 26 32 27 33 28 34
REMARK SMILES IDX 29 35 90 36 30 37 89 38 31 39 32 40 33 41 83 42 34 43 88 44
REMARK SMILES IDX 82 45 84 46 35 47 87 48 81 49 80 50 36 52 68 53 48 54 67 55
REMARK SMILES IDX 49 56 52 57 66 58 85 59 50 60 51 61 65 63 86 64 53 65 37 66
REMARK SMILES IDX 38 67 46 68 39 69 40 70 44 71 47 72 41 73 42 74 45 75 43 76
REMARK SMILES IDX 69 77 70 78 78 79 71 80 72 81 76 82 79 83 73 84 74 85 77 86
REMARK SMILES IDX 75 87 54 88 55 89 63 90 56 91 57 92 61 93 64 94 58 95 59 96
REMARK SMILES IDX 62 97 60 98
REMARK H PARENT 10 17 84 51 52 62
REMARK Flexibility Score: inf
ROOT
ATOM      1  C   UNL A   1      32.948  28.783  25.511  1.00  0.00     0.188 C 
ENDROOT
BRANCH   1   2
ATOM      2  O   UNL A   1      33.387  29.345  24.284  1.00  0.00    -0.376 OA
BRANCH   2   3
ATOM      3  C   UNL A   1      33.212  28.584  23.090  1.00  0.00     0.202 C 
BRANCH   3   4
ATOM      4  C   UNL A   1      33.606  27.099  23.143  1.00  0.00     0.261 C 
BRANCH   4   5
ATOM      5  O   UNL A   1      33.941  26.494  21.864  1.00  0.00    -0.463 OA
BRANCH   5   6
ATOM      6  C   UNL A   1      32.899  25.977  21.158  1.00  0.00     0.310 C 
ATOM      7  O   UNL A   1      33.028  25.409  20.075  1.00  0.00    -0.252 OA
BRANCH   6   8
ATOM      8  C   UNL A   1      31.537  25.981  21.865  1.00  0.00     0.165 C 
BRANCH   8   9
ATOM      9  C   UNL A   1      31.240  25.105  23.053  1.00  0.00     0.045 A 
ATOM     10  N   UNL A   1      31.687  23.027  24.304  1.00  0.00    -0.253 N 
ATOM     11  C   UNL A   1      30.830  23.445  25.336  1.00  0.00     0.184 A 
ATOM     12  C   UNL A   1      31.859  23.749  23.112  1.00  0.00     0.262 A 
ATOM     13  S   UNL A   1      30.398  22.632  26.741  1.00  0.00    -0.040 S 
ATOM     14  N   UNL A   1      30.342  24.721  25.205  1.00  0.00    -0.338 N 
ATOM     15  O   UNL A   1      32.507  23.360  22.141  1.00  0.00    -0.269 OA
ATOM     16  C   UNL A   1      30.604  25.535  24.149  1.00  0.00     0.095 A 
ATOM     17  H   UNL A   1      29.765  25.070  25.922  1.00  0.00     0.168 HD
BRANCH  10  18
ATOM     18  C   UNL A   1      32.585  21.937  24.526  1.00  0.00     0.053 A 
ATOM     19  C   UNL A   1      34.355  19.776  24.691  1.00  0.00     0.137 A 
ATOM     20  C   UNL A   1      33.073  19.585  24.175  1.00  0.00     0.050 A 
ATOM     21  C   UNL A   1      34.761  21.051  25.107  1.00  0.00     0.085 A 
ATOM     22  C   UNL A   1      32.185  20.658  24.108  1.00  0.00     0.031 A 
ATOM     23  C   UNL A   1      33.873  22.130  25.034  1.00  0.00     0.051 A 
ATOM     24  Cl  UNL A   1      36.367  21.366  25.658  1.00  0.00    -0.080 Cl
BRANCH  19  25
ATOM     25  O   UNL A   1      35.185  18.685  24.669  1.00  0.00    -0.495 OA
ATOM     26  C   UNL A   1      34.453  17.477  24.459  1.00  0.00     0.278 C 
ENDBRANCH  19  25
ENDBRANCH  10  18
ENDBRANCH   8   9
ENDBRANCH   6   8
ENDBRANCH   5   6
ENDBRANCH   4   5
ENDBRANCH   3   4
ENDBRANCH   2   3
ENDBRANCH   1   2
BRANCH   1  27
ATOM     27  C   UNL A   1      31.775  29.454  26.229  1.00  0.00     0.188 C 
BRANCH  27  28
ATOM     28  O   UNL A   1      32.181  30.302  27.279  1.00  0.00    -0.376 OA
BRANCH  28  29
ATOM     29  C   UNL A   1      32.980  31.420  26.941  1.00  0.00     0.202 C 
BRANCH  29  30
ATOM     30  C   UNL A   1      32.290  32.710  27.391  1.00  0.00     0.261 C 
BRANCH  30  31
ATOM     31  O   UNL A   1      33.164  33.844  27.559  1.00  0.00    -0.460 OA
BRANCH  31  32
ATOM     32  C   UNL A   1      33.358  34.321  28.809  1.00  0.00     0.338 C 
ATOM     33  O   UNL A   1      32.562  34.954  29.487  1.00  0.00    -0.246 OA
BRANCH  32  34
ATOM     34  C   UNL A   1      34.591  33.688  29.348  1.00  0.00     0.060 A 
ATOM     35  C   UNL A   1      35.862  34.119  28.961  1.00  0.00     0.016 A 
ATOM     36  C   UNL A   1      34.460  32.575  30.193  1.00  0.00     0.016 A 
ATOM     37  C   UNL A   1      36.994  33.445  29.429  1.00  0.00     0.010 A 
ATOM     38  C   UNL A   1      35.592  31.898  30.657  1.00  0.00     0.010 A 
ATOM     39  C   UNL A   1      36.870  32.340  30.293  1.00  0.00    -0.014 A 
BRANCH  39  40
ATOM     40  C   UNL A   1      38.084  31.771  30.934  1.00  0.00     0.031 A 
ATOM     41  C   UNL A   1      38.524  32.155  32.315  1.00  0.00     0.074 A 
ATOM     42  C   UNL A   1      38.803  30.878  30.227  1.00  0.00     0.049 A 
ATOM     43  N   UNL A   1      39.487  31.642  33.041  1.00  0.00    -0.248 NA
ATOM     44  C   UNL A   1      37.810  33.264  32.961  1.00  0.00     0.031 C 
ATOM     45  C   UNL A   1      38.510  30.475  28.851  1.00  0.00     0.029 A 
ATOM     46  N   UNL A   1      39.907  30.136  30.566  1.00  0.00    -0.354 N 
ATOM     47  C   UNL A   1      39.476  32.339  34.240  1.00  0.00     0.074 A 
ATOM     48  C   UNL A   1      38.453  33.359  34.119  1.00  0.00     0.031 C 
ATOM     49  C   UNL A   1      39.379  29.525  28.479  1.00  0.00     0.029 A 
ATOM     50  C   UNL A   1      40.304  29.269  29.580  1.00  0.00     0.049 A 
ATOM     51  H   UNL A   1      40.367  30.219  31.432  1.00  0.00     0.167 HD
ATOM     52  C   UNL A   1      40.232  32.127  35.345  1.00  0.00     0.037 A 
ATOM     53  C   UNL A   1      41.292  28.354  29.565  1.00  0.00     0.037 A 
ATOM     54  C   UNL A   1      41.258  31.117  35.451  1.00  0.00     0.049 A 
ATOM     55  C   UNL A   1      42.137  28.160  30.793  1.00  0.00     0.074 A 
ATOM     56  C   UNL A   1      42.034  30.790  36.551  1.00  0.00     0.029 A 
ATOM     57  N   UNL A   1      41.662  30.282  34.419  1.00  0.00    -0.354 N 
ATOM     58  N   UNL A   1      42.041  28.749  31.961  1.00  0.00    -0.248 NA
ATOM     59  C   UNL A   1      43.221  27.174  30.704  1.00  0.00     0.031 C 
ATOM     60  C   UNL A   1      42.946  29.801  36.168  1.00  0.00     0.029 A 
ATOM     61  C   UNL A   1      42.704  29.470  34.846  1.00  0.00     0.049 A 
ATOM     62  H   UNL A   1      41.268  30.269  33.517  1.00  0.00     0.167 HD
ATOM     63  C   UNL A   1      43.043  28.195  32.747  1.00  0.00     0.074 A 
ATOM     64  C   UNL A   1      43.715  27.205  31.934  1.00  0.00     0.031 C 
ATOM     65  C   UNL A   1      43.377  28.492  34.028  1.00  0.00     0.037 A 
BRANCH  52  66
ATOM     66  C   UNL A   1      39.972  32.981  36.555  1.00  0.00     0.064 A 
ATOM     67  C   UNL A   1      39.009  32.616  37.508  1.00  0.00     0.173 A 
ATOM     68  C   UNL A   1      40.754  34.116  36.819  1.00  0.00     0.173 A 
ATOM     69  F   UNL A   1      38.236  31.539  37.307  1.00  0.00    -0.203 F 
ATOM     70  C   UNL A   1      38.827  33.364  38.669  1.00  0.00     0.198 A 
ATOM     71  C   UNL A   1      40.589  34.844  37.994  1.00  0.00     0.198 A 
ATOM     72  F   UNL A   1      41.701  34.502  35.950  1.00  0.00    -0.203 F 
ATOM     73  F   UNL A   1      37.880  33.010  39.549  1.00  0.00    -0.200 F 
ATOM     74  C   UNL A   1      39.623  34.471  38.916  1.00  0.00     0.200 A 
ATOM     75  F   UNL A   1      41.375  35.903  38.242  1.00  0.00    -0.200 F 
ATOM     76  F   UNL A   1      39.460  35.177  40.044  1.00  0.00    -0.200 F 
ENDBRANCH  52  66
BRANCH  53  77
ATOM     77  C   UNL A   1      41.494  27.517  28.354  1.00  0.00     0.064 A 
ATOM     78  C   UNL A   1      40.747  26.348  28.158  1.00  0.00     0.173 A 
ATOM     79  C   UNL A   1      42.408  27.884  27.356  1.00  0.00     0.173 A 
ATOM     80  F   UNL A   1      39.872  25.948  29.092  1.00  0.00    -0.203 F 
ATOM     81  C   UNL A   1      40.914  25.573  27.013  1.00  0.00     0.198 A 
ATOM     82  C   UNL A   1      42.551  27.125  26.198  1.00  0.00     0.198 A 
ATOM     83  F   UNL A   1      43.140  29.000  27.493  1.00  0.00    -0.203 F 
ATOM     84  F   UNL A   1      40.211  24.441  26.865  1.00  0.00    -0.200 F 
ATOM     85  C   UNL A   1      41.809  25.966  26.030  1.00  0.00     0.200 A 
ATOM     86  F   UNL A   1      43.403  27.520  25.241  1.00  0.00    -0.200 F 
ATOM     87  F   UNL A   1      41.957  25.228  24.922  1.00  0.00    -0.200 F 
ENDBRANCH  53  77
BRANCH  65  88
ATOM     88  C   UNL A   1      44.532  27.749  34.636  1.00  0.00     0.064 A 
ATOM     89  C   UNL A   1      44.359  26.488  35.226  1.00  0.00     0.173 A 
ATOM     90  C   UNL A   1      45.837  28.262  34.559  1.00  0.00     0.173 A 
ATOM     91  F   UNL A   1      43.131  25.958  35.338  1.00  0.00    -0.203 F 
ATOM     92  C   UNL A   1      45.445  25.774  35.726  1.00  0.00     0.198 A 
ATOM     93  C   UNL A   1      46.924  27.532  35.032  1.00  0.00     0.198 A 
ATOM     94  F   UNL A   1      46.060  29.461  34.000  1.00  0.00    -0.203 F 
ATOM     95  F   UNL A   1      45.249  24.586  36.316  1.00  0.00    -0.200 F 
ATOM     96  C   UNL A   1      46.727  26.291  35.617  1.00  0.00     0.200 A 
ATOM     97  F   UNL A   1      48.164  28.025  34.911  1.00  0.00    -0.200 F 
ATOM     98  F   UNL A   1      47.773  25.593  36.079  1.00  0.00    -0.200 F 
ENDBRANCH  65  88
ENDBRANCH  39  40
ENDBRANCH  32  34
ENDBRANCH  31  32
ENDBRANCH  30  31
ENDBRANCH  29  30
ENDBRANCH  28  29
ENDBRANCH  27  28
ENDBRANCH   1  27
TORSDOF 20
ENDMDL
