MODEL 1
REMARK VINA RESULT:     -12.5      0.000      0.000
REMARK SMILES CC1(C)Oc2ccc(NC(=O)[C@H]3CC=CC[C@@H]3C(=O)OCCOCCOCCOC(=O)c3ccc(-c4c5nc(c(-c6c(F)c(F)c(F)c(F)c6F)c6ccc([nH]6)c(-c6c(F)c(F)c(F)c(F)c6F)c6nc(c(-c7c(F)c(F)c(F)c(F)c7F)c7ccc4[nH]7)C=C6)C=C5)cc3)cc2NC1=O
REMARK SMILES IDX 24 1 23 2 22 3 21 4 20 5 18 6 19 7 17 8 12 9 13 10 14 11
REMARK SMILES IDX 16 12 15 13 10 14 9 15 11 17 8 18 1 19 2 20 3 21 4 22 98 23
REMARK SMILES IDX 5 24 97 25 99 26 6 27 96 28 7 30 95 31 25 32 26 33 27 34
REMARK SMILES IDX 28 35 29 36 30 37 31 38 32 39 33 40 94 41 34 42 93 43 35 44
REMARK SMILES IDX 36 45 37 46 87 47 38 48 92 49 86 50 88 51 39 52 91 53 85 54
REMARK SMILES IDX 84 55 40 57 72 58 52 59 71 60 53 61 56 62 70 63 89 64 54 65
REMARK SMILES IDX 55 66 69 68 90 69 57 70 41 71 42 72 50 73 43 74 44 75 48 76
REMARK SMILES IDX 51 77 45 78 46 79 49 80 47 81 73 82 74 83 82 84 75 85 76 86
REMARK SMILES IDX 80 87 83 88 77 89 78 90 81 91 79 92 58 93 59 94 67 95 60 96
REMARK SMILES IDX 61 97 65 98 68 99 62 100 63 101 66 102 64 103
REMARK H PARENT 9 16 97 29 88 56 56 67
REMARK Flexibility Score: inf
ROOT
ATOM      1  C   UNL A   1      35.349  31.920  28.015  1.00  0.00     0.188 C 
ENDROOT
BRANCH   1   2
ATOM      2  O   UNL A   1      34.055  31.379  28.231  1.00  0.00    -0.376 OA
BRANCH   2   3
ATOM      3  C   UNL A   1      33.437  30.688  27.151  1.00  0.00     0.202 C 
BRANCH   3   4
ATOM      4  C   UNL A   1      33.615  29.163  27.092  1.00  0.00     0.261 C 
BRANCH   4   5
ATOM      5  O   UNL A   1      34.183  28.676  25.844  1.00  0.00    -0.463 OA
BRANCH   5   6
ATOM      6  C   UNL A   1      33.304  28.493  24.834  1.00  0.00     0.310 C 
ATOM      7  O   UNL A   1      33.269  29.237  23.854  1.00  0.00    -0.252 OA
BRANCH   6   8
ATOM      8  C   UNL A   1      32.362  27.271  24.931  1.00  0.00     0.116 C 
ATOM      9  C   UNL A   1      32.925  25.858  24.873  1.00  0.00     0.097 C 
ATOM     10  C   UNL A   1      32.577  25.265  23.478  1.00  0.00     0.041 C 
ATOM     11  C   UNL A   1      31.104  25.329  23.194  1.00  0.00    -0.030 C 
ATOM     12  C   UNL A   1      30.856  27.361  24.613  1.00  0.00     0.043 C 
ATOM     13  C   UNL A   1      30.323  26.256  23.756  1.00  0.00    -0.030 C 
BRANCH   9  14
ATOM     14  C   UNL A   1      32.449  24.833  25.984  1.00  0.00     0.228 C 
ATOM     15  N   UNL A   1      32.728  23.490  26.113  1.00  0.00    -0.326 N 
ATOM     16  H   UNL A   1      32.492  23.149  27.006  1.00  0.00     0.169 HD
ATOM     17  O   UNL A   1      31.789  25.296  26.931  1.00  0.00    -0.274 OA
BRANCH  15  18
ATOM     18  C   UNL A   1      33.268  22.483  25.287  1.00  0.00     0.043 A 
ATOM     19  C   UNL A   1      34.402  16.632  23.656  1.00  0.00     0.067 C 
ATOM     20  C   UNL A   1      33.463  17.740  24.106  1.00  0.00     0.182 C 
ATOM     21  C   UNL A   1      32.409  17.197  25.087  1.00  0.00     0.067 C 
ATOM     22  O   UNL A   1      34.359  18.630  24.759  1.00  0.00    -0.476 OA
ATOM     23  C   UNL A   1      32.626  18.337  22.954  1.00  0.00     0.268 C 
ATOM     24  C   UNL A   1      34.043  19.943  24.646  1.00  0.00     0.144 A 
ATOM     25  N   UNL A   1      32.135  19.597  23.251  1.00  0.00    -0.319 N 
ATOM     26  O   UNL A   1      32.298  17.721  21.946  1.00  0.00    -0.270 OA
ATOM     27  C   UNL A   1      34.993  20.846  25.076  1.00  0.00     0.051 A 
ATOM     28  C   UNL A   1      32.833  20.412  24.152  1.00  0.00     0.086 A 
ATOM     29  H   UNL A   1      31.303  19.917  22.834  1.00  0.00     0.170 HD
ATOM     30  C   UNL A   1      34.623  22.173  25.270  1.00  0.00     0.030 A 
ATOM     31  C   UNL A   1      32.403  21.685  24.523  1.00  0.00     0.056 A 
ENDBRANCH  15  18
ENDBRANCH   9  14
ENDBRANCH   6   8
ENDBRANCH   5   6
ENDBRANCH   4   5
ENDBRANCH   3   4
ENDBRANCH   2   3
ENDBRANCH   1   2
BRANCH   1  32
ATOM     32  C   UNL A   1      35.648  33.353  28.491  1.00  0.00     0.188 C 
BRANCH  32  33
ATOM     33  O   UNL A   1      34.514  33.984  29.053  1.00  0.00    -0.376 OA
BRANCH  33  34
ATOM     34  C   UNL A   1      34.289  35.287  28.545  1.00  0.00     0.202 C 
BRANCH  34  35
ATOM     35  C   UNL A   1      33.068  35.897  29.240  1.00  0.00     0.261 C 
BRANCH  35  36
ATOM     36  O   UNL A   1      32.524  35.118  30.335  1.00  0.00    -0.460 OA
BRANCH  36  37
ATOM     37  C   UNL A   1      32.616  35.655  31.577  1.00  0.00     0.338 C 
ATOM     38  O   UNL A   1      31.828  36.423  32.089  1.00  0.00    -0.246 OA
BRANCH  37  39
ATOM     39  C   UNL A   1      33.742  35.011  32.312  1.00  0.00     0.060 A 
ATOM     40  C   UNL A   1      33.695  33.677  32.710  1.00  0.00     0.016 A 
ATOM     41  C   UNL A   1      34.908  35.748  32.545  1.00  0.00     0.016 A 
ATOM     42  C   UNL A   1      34.829  33.079  33.294  1.00  0.00     0.010 A 
ATOM     43  C   UNL A   1      36.033  35.162  33.147  1.00  0.00     0.010 A 
ATOM     44  C   UNL A   1      36.018  33.806  33.507  1.00  0.00    -0.014 A 
BRANCH  44  45
ATOM     45  C   UNL A   1      37.278  33.099  33.888  1.00  0.00     0.031 A 
ATOM     46  C   UNL A   1      37.876  33.142  35.270  1.00  0.00     0.074 A 
ATOM     47  C   UNL A   1      37.895  32.348  32.955  1.00  0.00     0.049 A 
ATOM     48  N   UNL A   1      39.048  32.714  35.683  1.00  0.00    -0.248 NA
ATOM     49  C   UNL A   1      37.076  33.779  36.317  1.00  0.00     0.031 C 
ATOM     50  C   UNL A   1      37.424  32.157  31.585  1.00  0.00     0.029 A 
ATOM     51  N   UNL A   1      39.005  31.546  33.046  1.00  0.00    -0.354 N 
ATOM     52  C   UNL A   1      39.196  33.176  36.991  1.00  0.00     0.074 A 
ATOM     53  C   UNL A   1      37.941  33.814  37.326  1.00  0.00     0.031 C 
ATOM     54  C   UNL A   1      38.161  31.196  31.006  1.00  0.00     0.029 A 
ATOM     55  C   UNL A   1      39.185  30.742  31.948  1.00  0.00     0.049 A 
ATOM     56  H   UNL A   1      39.612  31.547  33.821  1.00  0.00     0.167 HD
ATOM     57  C   UNL A   1      40.298  33.110  37.788  1.00  0.00     0.037 A 
ATOM     58  C   UNL A   1      40.039  29.718  31.751  1.00  0.00     0.037 A 
ATOM     59  C   UNL A   1      41.405  32.217  37.540  1.00  0.00     0.049 A 
ATOM     60  C   UNL A   1      41.042  29.353  32.815  1.00  0.00     0.074 A 
ATOM     61  C   UNL A   1      42.508  31.959  38.342  1.00  0.00     0.029 A 
ATOM     62  N   UNL A   1      41.495  31.361  36.458  1.00  0.00    -0.354 N 
ATOM     63  N   UNL A   1      41.258  29.918  33.975  1.00  0.00    -0.248 NA
ATOM     64  C   UNL A   1      41.920  28.200  32.546  1.00  0.00     0.031 C 
ATOM     65  C   UNL A   1      43.238  30.919  37.768  1.00  0.00     0.029 A 
ATOM     66  C   UNL A   1      42.570  30.508  36.630  1.00  0.00     0.049 A 
ATOM     67  H   UNL A   1      40.885  31.358  35.685  1.00  0.00     0.167 HD
ATOM     68  C   UNL A   1      42.268  29.180  34.579  1.00  0.00     0.074 A 
ATOM     69  C   UNL A   1      42.612  28.108  33.675  1.00  0.00     0.031 C 
ATOM     70  C   UNL A   1      42.867  29.396  35.773  1.00  0.00     0.037 A 
BRANCH  57  71
ATOM     71  C   UNL A   1      40.423  33.991  39.010  1.00  0.00     0.064 A 
ATOM     72  C   UNL A   1      40.066  33.577  40.297  1.00  0.00     0.173 A 
ATOM     73  C   UNL A   1      41.014  35.271  38.889  1.00  0.00     0.173 A 
ATOM     74  F   UNL A   1      39.553  32.354  40.496  1.00  0.00    -0.203 F 
ATOM     75  C   UNL A   1      40.227  34.420  41.397  1.00  0.00     0.198 A 
ATOM     76  C   UNL A   1      41.222  36.090  39.998  1.00  0.00     0.198 A 
ATOM     77  F   UNL A   1      41.419  35.720  37.691  1.00  0.00    -0.203 F 
ATOM     78  F   UNL A   1      39.817  34.016  42.607  1.00  0.00    -0.200 F 
ATOM     79  C   UNL A   1      40.811  35.669  41.249  1.00  0.00     0.200 A 
ATOM     80  F   UNL A   1      41.832  37.275  39.856  1.00  0.00    -0.200 F 
ATOM     81  F   UNL A   1      40.985  36.460  42.316  1.00  0.00    -0.200 F 
ENDBRANCH  57  71
BRANCH  58  82
ATOM     82  C   UNL A   1      39.881  28.865  30.547  1.00  0.00     0.064 A 
ATOM     83  C   UNL A   1      40.415  29.289  29.320  1.00  0.00     0.173 A 
ATOM     84  C   UNL A   1      39.235  27.624  30.587  1.00  0.00     0.173 A 
ATOM     85  F   UNL A   1      41.040  30.472  29.234  1.00  0.00    -0.203 F 
ATOM     86  C   UNL A   1      40.276  28.518  28.170  1.00  0.00     0.198 A 
ATOM     87  C   UNL A   1      39.130  26.837  29.442  1.00  0.00     0.198 A 
ATOM     88  F   UNL A   1      38.731  27.165  31.741  1.00  0.00    -0.203 F 
ATOM     89  F   UNL A   1      40.748  28.973  27.002  1.00  0.00    -0.200 F 
ATOM     90  C   UNL A   1      39.638  27.289  28.234  1.00  0.00     0.200 A 
ATOM     91  F   UNL A   1      38.537  25.637  29.512  1.00  0.00    -0.200 F 
ATOM     92  F   UNL A   1      39.511  26.543  27.129  1.00  0.00    -0.200 F 
ENDBRANCH  58  82
BRANCH  70  93
ATOM     93  C   UNL A   1      43.923  28.448  36.256  1.00  0.00     0.064 A 
ATOM     94  C   UNL A   1      43.587  27.235  36.871  1.00  0.00     0.173 A 
ATOM     95  C   UNL A   1      45.268  28.665  35.916  1.00  0.00     0.173 A 
ATOM     96  F   UNL A   1      42.314  26.983  37.214  1.00  0.00    -0.203 F 
ATOM     97  C   UNL A   1      44.556  26.266  37.114  1.00  0.00     0.198 A 
ATOM     98  C   UNL A   1      46.231  27.685  36.141  1.00  0.00     0.198 A 
ATOM     99  F   UNL A   1      45.637  29.807  35.313  1.00  0.00    -0.203 F 
ATOM    100  F   UNL A   1      44.212  25.107  37.691  1.00  0.00    -0.200 F 
ATOM    101  C   UNL A   1      45.873  26.483  36.733  1.00  0.00     0.200 A 
ATOM    102  F   UNL A   1      47.499  27.890  35.754  1.00  0.00    -0.200 F 
ATOM    103  F   UNL A   1      46.794  25.530  36.924  1.00  0.00    -0.200 F 
ENDBRANCH  70  93
ENDBRANCH  44  45
ENDBRANCH  37  39
ENDBRANCH  36  37
ENDBRANCH  35  36
ENDBRANCH  34  35
ENDBRANCH  33  34
ENDBRANCH  32  33
ENDBRANCH   1  32
TORSDOF 19
ENDMDL
MODEL 2
REMARK VINA RESULT:     -12.1      0.645      7.088
REMARK SMILES CC1(C)Oc2ccc(NC(=O)[C@H]3CC=CC[C@@H]3C(=O)OCCOCCOCCOC(=O)c3ccc(-c4c5nc(c(-c6c(F)c(F)c(F)c(F)c6F)c6ccc([nH]6)c(-c6c(F)c(F)c(F)c(F)c6F)c6nc(c(-c7c(F)c(F)c(F)c(F)c7F)c7ccc4[nH]7)C=C6)C=C5)cc3)cc2NC1=O
REMARK SMILES IDX 24 1 23 2 22 3 21 4 20 5 18 6 19 7 17 8 12 9 13 10 14 11
REMARK SMILES IDX 16 12 15 13 10 14 9 15 11 17 8 18 1 19 2 20 3 21 4 22 98 23
REMARK SMILES IDX 5 24 97 25 99 26 6 27 96 28 7 30 95 31 25 32 26 33 27 34
REMARK SMILES IDX 28 35 29 36 30 37 31 38 32 39 33 40 94 41 34 42 93 43 35 44
REMARK SMILES IDX 36 45 37 46 87 47 38 48 92 49 86 50 88 51 39 52 91 53 85 54
REMARK SMILES IDX 84 55 40 57 72 58 52 59 71 60 53 61 56 62 70 63 89 64 54 65
REMARK SMILES IDX 55 66 69 68 90 69 57 70 41 71 42 72 50 73 43 74 44 75 48 76
REMARK SMILES IDX 51 77 45 78 46 79 49 80 47 81 73 82 74 83 82 84 75 85 76 86
REMARK SMILES IDX 80 87 83 88 77 89 78 90 81 91 79 92 58 93 59 94 67 95 60 96
REMARK SMILES IDX 61 97 65 98 68 99 62 100 63 101 66 102 64 103
REMARK H PARENT 9 16 97 29 88 56 56 67
REMARK Flexibility Score: inf
ROOT
ATOM      1  C   UNL A   1      35.385  32.023  28.109  1.00  0.00     0.188 C 
ENDROOT
BRANCH   1   2
ATOM      2  O   UNL A   1      34.188  31.307  28.372  1.00  0.00    -0.376 OA
BRANCH   2   3
ATOM      3  C   UNL A   1      33.384  30.928  27.261  1.00  0.00     0.202 C 
BRANCH   3   4
ATOM      4  C   UNL A   1      33.186  29.424  27.010  1.00  0.00     0.261 C 
BRANCH   4   5
ATOM      5  O   UNL A   1      34.021  28.882  25.948  1.00  0.00    -0.463 OA
BRANCH   5   6
ATOM      6  C   UNL A   1      33.372  28.536  24.815  1.00  0.00     0.310 C 
ATOM      7  O   UNL A   1      33.560  29.121  23.748  1.00  0.00    -0.252 OA
BRANCH   6   8
ATOM      8  C   UNL A   1      32.406  27.331  24.894  1.00  0.00     0.116 C 
ATOM      9  C   UNL A   1      32.942  25.908  24.832  1.00  0.00     0.097 C 
ATOM     10  C   UNL A   1      32.598  25.331  23.429  1.00  0.00     0.041 C 
ATOM     11  C   UNL A   1      31.129  25.425  23.132  1.00  0.00    -0.030 C 
ATOM     12  C   UNL A   1      30.905  27.452  24.562  1.00  0.00     0.043 C 
ATOM     13  C   UNL A   1      30.359  26.363  23.692  1.00  0.00    -0.030 C 
BRANCH   9  14
ATOM     14  C   UNL A   1      32.436  24.885  25.931  1.00  0.00     0.228 C 
ATOM     15  N   UNL A   1      32.690  23.537  26.055  1.00  0.00    -0.326 N 
ATOM     16  H   UNL A   1      32.438  23.194  26.943  1.00  0.00     0.169 HD
ATOM     17  O   UNL A   1      31.773  25.353  26.874  1.00  0.00    -0.274 OA
BRANCH  15  18
ATOM     18  C   UNL A   1      33.222  22.525  25.229  1.00  0.00     0.043 A 
ATOM     19  C   UNL A   1      34.395  16.667  23.650  1.00  0.00     0.067 C 
ATOM     20  C   UNL A   1      33.452  17.769  24.110  1.00  0.00     0.182 C 
ATOM     21  C   UNL A   1      32.433  17.226  25.126  1.00  0.00     0.067 C 
ATOM     22  O   UNL A   1      34.353  18.680  24.726  1.00  0.00    -0.476 OA
ATOM     23  C   UNL A   1      32.576  18.337  22.973  1.00  0.00     0.268 C 
ATOM     24  C   UNL A   1      34.016  19.987  24.603  1.00  0.00     0.144 A 
ATOM     25  N   UNL A   1      32.076  19.595  23.265  1.00  0.00    -0.319 N 
ATOM     26  O   UNL A   1      32.231  17.703  21.982  1.00  0.00    -0.270 OA
ATOM     27  C   UNL A   1      34.963  20.909  24.994  1.00  0.00     0.051 A 
ATOM     28  C   UNL A   1      32.786  20.432  24.136  1.00  0.00     0.086 A 
ATOM     29  H   UNL A   1      31.228  19.897  22.866  1.00  0.00     0.170 HD
ATOM     30  C   UNL A   1      34.580  22.234  25.180  1.00  0.00     0.030 A 
ATOM     31  C   UNL A   1      32.348  21.705  24.500  1.00  0.00     0.056 A 
ENDBRANCH  15  18
ENDBRANCH   9  14
ENDBRANCH   6   8
ENDBRANCH   5   6
ENDBRANCH   4   5
ENDBRANCH   3   4
ENDBRANCH   2   3
ENDBRANCH   1   2
BRANCH   1  32
ATOM     32  C   UNL A   1      35.436  33.531  28.416  1.00  0.00     0.188 C 
BRANCH  32  33
ATOM     33  O   UNL A   1      34.149  34.096  28.569  1.00  0.00    -0.376 OA
BRANCH  33  34
ATOM     34  C   UNL A   1      34.129  35.501  28.387  1.00  0.00     0.202 C 
BRANCH  34  35
ATOM     35  C   UNL A   1      33.016  36.106  29.248  1.00  0.00     0.261 C 
BRANCH  35  36
ATOM     36  O   UNL A   1      32.508  35.247  30.299  1.00  0.00    -0.460 OA
BRANCH  36  37
ATOM     37  C   UNL A   1      32.574  35.722  31.568  1.00  0.00     0.338 C 
ATOM     38  O   UNL A   1      31.781  36.474  32.096  1.00  0.00    -0.246 OA
BRANCH  37  39
ATOM     39  C   UNL A   1      33.673  35.031  32.299  1.00  0.00     0.060 A 
ATOM     40  C   UNL A   1      33.586  33.690  32.664  1.00  0.00     0.016 A 
ATOM     41  C   UNL A   1      34.855  35.731  32.562  1.00  0.00     0.016 A 
ATOM     42  C   UNL A   1      34.697  33.048  33.245  1.00  0.00     0.010 A 
ATOM     43  C   UNL A   1      35.958  35.100  33.162  1.00  0.00     0.010 A 
ATOM     44  C   UNL A   1      35.903  33.738  33.489  1.00  0.00    -0.014 A 
BRANCH  44  45
ATOM     45  C   UNL A   1      37.140  32.988  33.866  1.00  0.00     0.031 A 
ATOM     46  C   UNL A   1      37.968  32.195  32.889  1.00  0.00     0.074 A 
ATOM     47  C   UNL A   1      37.561  33.055  35.144  1.00  0.00     0.049 A 
ATOM     48  N   UNL A   1      38.961  31.365  33.120  1.00  0.00    -0.248 NA
ATOM     49  C   UNL A   1      37.616  32.316  31.473  1.00  0.00     0.031 C 
ATOM     50  C   UNL A   1      36.907  33.818  36.205  1.00  0.00     0.029 A 
ATOM     51  N   UNL A   1      38.682  32.537  35.742  1.00  0.00    -0.354 N 
ATOM     52  C   UNL A   1      39.242  30.742  31.905  1.00  0.00     0.074 A 
ATOM     53  C   UNL A   1      38.388  31.381  30.928  1.00  0.00     0.031 C 
ATOM     54  C   UNL A   1      37.704  33.825  37.285  1.00  0.00     0.029 A 
ATOM     55  C   UNL A   1      38.899  33.027  37.006  1.00  0.00     0.049 A 
ATOM     56  H   UNL A   1      39.273  31.880  35.308  1.00  0.00     0.167 HD
ATOM     57  C   UNL A   1      40.092  29.704  31.669  1.00  0.00     0.037 A 
ATOM     58  C   UNL A   1      39.965  32.894  37.818  1.00  0.00     0.037 A 
ATOM     59  C   UNL A   1      41.131  29.304  32.587  1.00  0.00     0.049 A 
ATOM     60  C   UNL A   1      41.137  32.043  37.399  1.00  0.00     0.074 A 
ATOM     61  C   UNL A   1      42.137  28.366  32.402  1.00  0.00     0.029 A 
ATOM     62  N   UNL A   1      41.361  29.893  33.816  1.00  0.00    -0.354 N 
ATOM     63  N   UNL A   1      41.295  31.337  36.308  1.00  0.00    -0.248 NA
ATOM     64  C   UNL A   1      42.283  31.972  38.321  1.00  0.00     0.031 C 
ATOM     65  C   UNL A   1      42.997  28.419  33.498  1.00  0.00     0.029 A 
ATOM     66  C   UNL A   1      42.545  29.414  34.345  1.00  0.00     0.049 A 
ATOM     67  H   UNL A   1      40.772  30.553  34.247  1.00  0.00     0.167 HD
ATOM     68  C   UNL A   1      42.559  30.766  36.402  1.00  0.00     0.074 A 
ATOM     69  C   UNL A   1      43.141  31.222  37.642  1.00  0.00     0.031 C 
ATOM     70  C   UNL A   1      43.164  29.920  35.538  1.00  0.00     0.037 A 
BRANCH  57  71
ATOM     71  C   UNL A   1      39.991  28.897  30.394  1.00  0.00     0.064 A 
ATOM     72  C   UNL A   1      40.593  29.278  29.192  1.00  0.00     0.173 A 
ATOM     73  C   UNL A   1      39.338  27.642  30.415  1.00  0.00     0.173 A 
ATOM     74  F   UNL A   1      41.280  30.428  29.113  1.00  0.00    -0.203 F 
ATOM     75  C   UNL A   1      40.494  28.482  28.050  1.00  0.00     0.198 A 
ATOM     76  C   UNL A   1      39.285  26.825  29.286  1.00  0.00     0.198 A 
ATOM     77  F   UNL A   1      38.771  27.191  31.544  1.00  0.00    -0.203 F 
ATOM     78  F   UNL A   1      41.029  28.907  26.897  1.00  0.00    -0.200 F 
ATOM     79  C   UNL A   1      39.849  27.256  28.099  1.00  0.00     0.200 A 
ATOM     80  F   UNL A   1      38.704  25.619  29.353  1.00  0.00    -0.200 F 
ATOM     81  F   UNL A   1      39.781  26.487  27.004  1.00  0.00    -0.200 F 
ENDBRANCH  57  71
BRANCH  58  82
ATOM     82  C   UNL A   1      40.040  33.710  39.056  1.00  0.00     0.064 A 
ATOM     83  C   UNL A   1      39.520  33.202  40.256  1.00  0.00     0.173 A 
ATOM     84  C   UNL A   1      40.637  34.976  39.084  1.00  0.00     0.173 A 
ATOM     85  F   UNL A   1      38.937  31.995  40.275  1.00  0.00    -0.203 F 
ATOM     86  C   UNL A   1      39.564  33.945  41.431  1.00  0.00     0.198 A 
ATOM     87  C   UNL A   1      40.713  35.704  40.270  1.00  0.00     0.198 A 
ATOM     88  F   UNL A   1      41.169  35.494  37.967  1.00  0.00    -0.203 F 
ATOM     89  F   UNL A   1      39.013  33.456  42.550  1.00  0.00    -0.200 F 
ATOM     90  C   UNL A   1      40.166  35.193  41.438  1.00  0.00     0.200 A 
ATOM     91  F   UNL A   1      41.319  36.898  40.281  1.00  0.00    -0.200 F 
ATOM     92  F   UNL A   1      40.216  35.907  42.571  1.00  0.00    -0.200 F 
ENDBRANCH  58  82
BRANCH  70  93
ATOM     93  C   UNL A   1      44.558  29.445  35.817  1.00  0.00     0.064 A 
ATOM     94  C   UNL A   1      45.674  30.211  35.456  1.00  0.00     0.173 A 
ATOM     95  C   UNL A   1      44.765  28.318  36.629  1.00  0.00     0.173 A 
ATOM     96  F   UNL A   1      45.526  31.296  34.681  1.00  0.00    -0.203 F 
ATOM     97  C   UNL A   1      46.946  29.876  35.912  1.00  0.00     0.198 A 
ATOM     98  C   UNL A   1      46.035  27.999  37.100  1.00  0.00     0.198 A 
ATOM     99  F   UNL A   1      43.725  27.560  37.012  1.00  0.00    -0.203 F 
ATOM    100  F   UNL A   1      47.999  30.629  35.566  1.00  0.00    -0.200 F 
ATOM    101  C   UNL A   1      47.124  28.782  36.747  1.00  0.00     0.200 A 
ATOM    102  F   UNL A   1      46.201  26.952  37.923  1.00  0.00    -0.200 F 
ATOM    103  F   UNL A   1      48.342  28.490  37.223  1.00  0.00    -0.200 F 
ENDBRANCH  70  93
ENDBRANCH  44  45
ENDBRANCH  37  39
ENDBRANCH  36  37
ENDBRANCH  35  36
ENDBRANCH  34  35
ENDBRANCH  33  34
ENDBRANCH  32  33
ENDBRANCH   1  32
TORSDOF 19
ENDMDL
MODEL 3
REMARK VINA RESULT:     -12.1      5.139      7.708
REMARK SMILES CC1(C)Oc2ccc(NC(=O)[C@H]3CC=CC[C@@H]3C(=O)OCCOCCOCCOC(=O)c3ccc(-c4c5nc(c(-c6c(F)c(F)c(F)c(F)c6F)c6ccc([nH]6)c(-c6c(F)c(F)c(F)c(F)c6F)c6nc(c(-c7c(F)c(F)c(F)c(F)c7F)c7ccc4[nH]7)C=C6)C=C5)cc3)cc2NC1=O
REMARK SMILES IDX 24 1 23 2 22 3 21 4 20 5 18 6 19 7 17 8 12 9 13 10 14 11
REMARK SMILES IDX 16 12 15 13 10 14 9 15 11 17 8 18 1 19 2 20 3 21 4 22 98 23
REMARK SMILES IDX 5 24 97 25 99 26 6 27 96 28 7 30 95 31 25 32 26 33 27 34
REMARK SMILES IDX 28 35 29 36 30 37 31 38 32 39 33 40 94 41 34 42 93 43 35 44
REMARK SMILES IDX 36 45 37 46 87 47 38 48 92 49 86 50 88 51 39 52 91 53 85 54
REMARK SMILES IDX 84 55 40 57 72 58 52 59 71 60 53 61 56 62 70 63 89 64 54 65
REMARK SMILES IDX 55 66 69 68 90 69 57 70 41 71 42 72 50 73 43 74 44 75 48 76
REMARK SMILES IDX 51 77 45 78 46 79 49 80 47 81 73 82 74 83 82 84 75 85 76 86
REMARK SMILES IDX 80 87 83 88 77 89 78 90 81 91 79 92 58 93 59 94 67 95 60 96
REMARK SMILES IDX 61 97 65 98 68 99 62 100 63 101 66 102 64 103
REMARK H PARENT 9 16 97 29 88 56 56 67
REMARK Flexibility Score: inf
ROOT
ATOM      1  C   UNL A   1      35.017  33.436  28.185  1.00  0.00     0.188 C 
ENDROOT
BRANCH   1   2
ATOM      2  O   UNL A   1      33.909  32.635  27.804  1.00  0.00    -0.376 OA
BRANCH   2   3
ATOM      3  C   UNL A   1      34.061  31.221  27.861  1.00  0.00     0.202 C 
BRANCH   3   4
ATOM      4  C   UNL A   1      33.209  30.378  26.899  1.00  0.00     0.261 C 
BRANCH   4   5
ATOM      5  O   UNL A   1      33.511  28.954  26.926  1.00  0.00    -0.463 OA
BRANCH   5   6
ATOM      6  C   UNL A   1      33.433  28.318  25.737  1.00  0.00     0.310 C 
ATOM      7  O   UNL A   1      34.186  28.587  24.801  1.00  0.00    -0.252 OA
BRANCH   6   8
ATOM      8  C   UNL A   1      32.383  27.192  25.605  1.00  0.00     0.116 C 
ATOM      9  C   UNL A   1      32.821  25.752  25.372  1.00  0.00     0.097 C 
ATOM     10  C   UNL A   1      32.516  25.397  23.889  1.00  0.00     0.041 C 
ATOM     11  C   UNL A   1      31.076  25.642  23.540  1.00  0.00    -0.030 C 
ATOM     12  C   UNL A   1      30.915  27.470  25.224  1.00  0.00     0.043 C 
ATOM     13  C   UNL A   1      30.344  26.553  24.189  1.00  0.00    -0.030 C 
BRANCH   9  14
ATOM     14  C   UNL A   1      32.184  24.633  26.295  1.00  0.00     0.228 C 
ATOM     15  N   UNL A   1      32.390  23.271  26.288  1.00  0.00    -0.326 N 
ATOM     16  H   UNL A   1      32.044  22.842  27.104  1.00  0.00     0.169 HD
ATOM     17  O   UNL A   1      31.446  25.018  27.219  1.00  0.00    -0.274 OA
BRANCH  15  18
ATOM     18  C   UNL A   1      32.973  22.338  25.406  1.00  0.00     0.043 A 
ATOM     19  C   UNL A   1      34.407  16.650  23.465  1.00  0.00     0.067 C 
ATOM     20  C   UNL A   1      33.414  17.679  23.983  1.00  0.00     0.182 C 
ATOM     21  C   UNL A   1      32.408  17.029  24.948  1.00  0.00     0.067 C 
ATOM     22  O   UNL A   1      34.269  18.585  24.669  1.00  0.00    -0.476 OA
ATOM     23  C   UNL A   1      32.527  18.284  22.873  1.00  0.00     0.268 C 
ATOM     24  C   UNL A   1      33.879  19.882  24.627  1.00  0.00     0.144 A 
ATOM     25  N   UNL A   1      31.972  19.498  23.240  1.00  0.00    -0.319 N 
ATOM     26  O   UNL A   1      32.220  17.702  21.839  1.00  0.00    -0.270 OA
ATOM     27  C   UNL A   1      34.783  20.814  25.090  1.00  0.00     0.051 A 
ATOM     28  C   UNL A   1      32.636  20.305  24.173  1.00  0.00     0.086 A 
ATOM     29  H   UNL A   1      31.117  19.791  22.850  1.00  0.00     0.170 HD
ATOM     30  C   UNL A   1      34.342  22.107  25.356  1.00  0.00     0.030 A 
ATOM     31  C   UNL A   1      32.142  21.532  24.613  1.00  0.00     0.056 A 
ENDBRANCH  15  18
ENDBRANCH   9  14
ENDBRANCH   6   8
ENDBRANCH   5   6
ENDBRANCH   4   5
ENDBRANCH   3   4
ENDBRANCH   2   3
ENDBRANCH   1   2
BRANCH   1  32
ATOM     32  C   UNL A   1      34.900  34.329  29.432  1.00  0.00     0.188 C 
BRANCH  32  33
ATOM     33  O   UNL A   1      34.077  33.758  30.431  1.00  0.00    -0.376 OA
BRANCH  33  34
ATOM     34  C   UNL A   1      34.021  34.529  31.619  1.00  0.00     0.202 C 
BRANCH  34  35
ATOM     35  C   UNL A   1      34.194  33.606  32.829  1.00  0.00     0.261 C 
BRANCH  35  36
ATOM     36  O   UNL A   1      34.905  32.370  32.570  1.00  0.00    -0.460 OA
BRANCH  36  37
ATOM     37  C   UNL A   1      36.083  32.191  33.220  1.00  0.00     0.338 C 
ATOM     38  O   UNL A   1      36.282  32.353  34.406  1.00  0.00    -0.246 OA
BRANCH  37  39
ATOM     39  C   UNL A   1      37.071  31.571  32.292  1.00  0.00     0.060 A 
ATOM     40  C   UNL A   1      37.023  31.781  30.916  1.00  0.00     0.016 A 
ATOM     41  C   UNL A   1      38.119  30.814  32.827  1.00  0.00     0.016 A 
ATOM     42  C   UNL A   1      38.048  31.274  30.093  1.00  0.00     0.010 A 
ATOM     43  C   UNL A   1      39.131  30.288  32.006  1.00  0.00     0.010 A 
ATOM     44  C   UNL A   1      39.123  30.535  30.626  1.00  0.00    -0.014 A 
BRANCH  44  45
ATOM     45  C   UNL A   1      40.319  30.226  29.784  1.00  0.00     0.031 A 
ATOM     46  C   UNL A   1      41.508  31.142  29.653  1.00  0.00     0.074 A 
ATOM     47  C   UNL A   1      40.355  29.045  29.136  1.00  0.00     0.049 A 
ATOM     48  N   UNL A   1      42.527  31.069  28.826  1.00  0.00    -0.248 NA
ATOM     49  C   UNL A   1      41.543  32.310  30.533  1.00  0.00     0.031 C 
ATOM     50  C   UNL A   1      39.313  28.023  29.195  1.00  0.00     0.029 A 
ATOM     51  N   UNL A   1      41.341  28.479  28.368  1.00  0.00    -0.354 N 
ATOM     52  C   UNL A   1      43.235  32.262  28.970  1.00  0.00     0.074 A 
ATOM     53  C   UNL A   1      42.585  32.978  30.046  1.00  0.00     0.031 C 
ATOM     54  C   UNL A   1      39.770  26.908  28.603  1.00  0.00     0.029 A 
ATOM     55  C   UNL A   1      41.114  27.156  28.082  1.00  0.00     0.049 A 
ATOM     56  H   UNL A   1      42.132  28.973  28.052  1.00  0.00     0.167 HD
ATOM     57  C   UNL A   1      44.284  32.713  28.227  1.00  0.00     0.037 A 
ATOM     58  C   UNL A   1      41.923  26.238  27.518  1.00  0.00     0.037 A 
ATOM     59  C   UNL A   1      45.083  31.860  27.382  1.00  0.00     0.049 A 
ATOM     60  C   UNL A   1      43.293  26.632  27.029  1.00  0.00     0.074 A 
ATOM     61  C   UNL A   1      46.248  32.168  26.693  1.00  0.00     0.029 A 
ATOM     62  N   UNL A   1      44.862  30.508  27.198  1.00  0.00    -0.354 N 
ATOM     63  N   UNL A   1      43.865  27.809  27.037  1.00  0.00    -0.248 NA
ATOM     64  C   UNL A   1      44.136  25.569  26.456  1.00  0.00     0.031 C 
ATOM     65  C   UNL A   1      46.752  30.996  26.130  1.00  0.00     0.029 A 
ATOM     66  C   UNL A   1      45.919  29.955  26.499  1.00  0.00     0.049 A 
ATOM     67  H   UNL A   1      44.072  30.015  27.516  1.00  0.00     0.167 HD
ATOM     68  C   UNL A   1      45.133  27.622  26.500  1.00  0.00     0.074 A 
ATOM     69  C   UNL A   1      45.265  26.217  26.197  1.00  0.00     0.031 C 
ATOM     70  C   UNL A   1      46.089  28.549  26.264  1.00  0.00     0.037 A 
BRANCH  57  71
ATOM     71  C   UNL A   1      44.678  34.173  28.253  1.00  0.00     0.064 A 
ATOM     72  C   UNL A   1      44.106  35.140  27.423  1.00  0.00     0.173 A 
ATOM     73  C   UNL A   1      45.604  34.626  29.222  1.00  0.00     0.173 A 
ATOM     74  F   UNL A   1      43.177  34.792  26.519  1.00  0.00    -0.203 F 
ATOM     75  C   UNL A   1      44.485  36.480  27.507  1.00  0.00     0.198 A 
ATOM     76  C   UNL A   1      45.943  35.974  29.339  1.00  0.00     0.198 A 
ATOM     77  F   UNL A   1      46.166  33.761  30.082  1.00  0.00    -0.203 F 
ATOM     78  F   UNL A   1      43.963  37.371  26.653  1.00  0.00    -0.200 F 
ATOM     79  C   UNL A   1      45.394  36.897  28.467  1.00  0.00     0.200 A 
ATOM     80  F   UNL A   1      46.784  36.378  30.301  1.00  0.00    -0.200 F 
ATOM     81  F   UNL A   1      45.733  38.190  28.556  1.00  0.00    -0.200 F 
ENDBRANCH  57  71
BRANCH  58  82
ATOM     82  C   UNL A   1      41.512  24.811  27.520  1.00  0.00     0.064 A 
ATOM     83  C   UNL A   1      42.174  23.899  28.355  1.00  0.00     0.173 A 
ATOM     84  C   UNL A   1      40.459  24.334  26.731  1.00  0.00     0.173 A 
ATOM     85  F   UNL A   1      43.190  24.312  29.127  1.00  0.00    -0.203 F 
ATOM     86  C   UNL A   1      41.821  22.553  28.374  1.00  0.00     0.198 A 
ATOM     87  C   UNL A   1      40.082  22.993  26.779  1.00  0.00     0.198 A 
ATOM     88  F   UNL A   1      39.780  25.172  25.935  1.00  0.00    -0.203 F 
ATOM     89  F   UNL A   1      42.506  21.695  29.141  1.00  0.00    -0.200 F 
ATOM     90  C   UNL A   1      40.771  22.103  27.590  1.00  0.00     0.200 A 
ATOM     91  F   UNL A   1      39.050  22.565  26.041  1.00  0.00    -0.200 F 
ATOM     92  F   UNL A   1      40.425  20.808  27.613  1.00  0.00    -0.200 F 
ENDBRANCH  58  82
BRANCH  70  93
ATOM     93  C   UNL A   1      47.413  28.124  25.705  1.00  0.00     0.064 A 
ATOM     94  C   UNL A   1      48.501  27.845  26.541  1.00  0.00     0.173 A 
ATOM     95  C   UNL A   1      47.528  27.801  24.343  1.00  0.00     0.173 A 
ATOM     96  F   UNL A   1      48.439  28.137  27.849  1.00  0.00    -0.203 F 
ATOM     97  C   UNL A   1      49.651  27.241  26.039  1.00  0.00     0.198 A 
ATOM     98  C   UNL A   1      48.670  27.178  23.848  1.00  0.00     0.198 A 
ATOM     99  F   UNL A   1      46.507  28.038  23.504  1.00  0.00    -0.203 F 
ATOM    100  F   UNL A   1      50.675  26.970  26.859  1.00  0.00    -0.200 F 
ATOM    101  C   UNL A   1      49.727  26.891  24.698  1.00  0.00     0.200 A 
ATOM    102  F   UNL A   1      48.734  26.824  22.556  1.00  0.00    -0.200 F 
ATOM    103  F   UNL A   1      50.816  26.267  24.227  1.00  0.00    -0.200 F 
ENDBRANCH  70  93
ENDBRANCH  44  45
ENDBRANCH  37  39
ENDBRANCH  36  37
ENDBRANCH  35  36
ENDBRANCH  34  35
ENDBRANCH  33  34
ENDBRANCH  32  33
ENDBRANCH   1  32
TORSDOF 19
ENDMDL
