MODEL 1
REMARK VINA RESULT:     -10.5      0.000      0.000
REMARK SMILES CC[C@@H](C(=O)OCCOCCOCCOC(=O)c1ccc(-c2c3nc(c(-c4c(F)c(F)c(F)c(F)c4F)c4ccc([nH]4)c(-c4c(F)c(F)c(F)c(F)c4F)c4nc(c(-c5c(F)c(F)c(F)c(F)c5F)c5ccc2[nH]5)C=C4)C=C3)cc1)[N@@H+]1CCc2ccc(N)cc2C1
REMARK SMILES IDX 10 1 9 2 8 3 7 4 6 5 4 6 5 7 3 8 2 9 1 10 81 11 82 12 91 13
REMARK SMILES IDX 83 15 90 16 84 17 89 18 85 19 87 20 86 21 88 22 11 25 12 26
REMARK SMILES IDX 13 27 14 28 15 29 16 30 17 31 18 32 19 33 80 34 20 35 79 36
REMARK SMILES IDX 21 37 22 38 23 39 73 40 24 41 78 42 72 43 74 44 25 45 77 46
REMARK SMILES IDX 71 47 70 48 26 50 58 51 38 52 57 53 39 54 42 55 56 56 75 57
REMARK SMILES IDX 40 58 41 59 55 61 76 62 43 63 27 64 28 65 36 66 29 67 30 68
REMARK SMILES IDX 34 69 37 70 31 71 32 72 35 73 33 74 59 75 60 76 68 77 61 78
REMARK SMILES IDX 62 79 66 80 69 81 63 82 64 83 67 84 65 85 44 86 45 87 53 88
REMARK SMILES IDX 46 89 47 90 51 91 54 92 48 93 49 94 52 95 50 96
REMARK H PARENT 81 14 88 23 88 24 74 49 42 60
REMARK Flexibility Score: inf
ROOT
ATOM      1  C   UNL A   1      36.903  23.067  25.125  1.00  0.00     0.188 C 
ENDROOT
BRANCH   1   2
ATOM      2  O   UNL A   1      35.545  23.059  25.641  1.00  0.00    -0.376 OA
BRANCH   2   3
ATOM      3  C   UNL A   1      35.229  21.864  26.404  1.00  0.00     0.202 C 
BRANCH   3   4
ATOM      4  C   UNL A   1      34.082  21.967  27.493  1.00  0.00     0.261 C 
BRANCH   4   5
ATOM      5  O   UNL A   1      33.269  23.192  27.447  1.00  0.00    -0.459 OA
BRANCH   5   6
ATOM      6  C   UNL A   1      32.017  23.225  26.866  1.00  0.00     0.364 C 
ATOM      7  O   UNL A   1      30.996  23.223  27.548  1.00  0.00    -0.245 OA
BRANCH   6   8
ATOM      8  C   UNL A   1      31.997  23.465  25.222  1.00  0.00     0.295 C 
BRANCH   8   9
ATOM      9  C   UNL A   1      31.864  22.243  24.278  1.00  0.00     0.074 C 
ATOM     10  C   UNL A   1      32.113  20.860  24.859  1.00  0.00     0.011 C 
ENDBRANCH   8   9
BRANCH   8  11
ATOM     11  N   UNL A   1      32.949  24.587  24.767  1.00  0.00    -0.319 N 
ATOM     12  C   UNL A   1      33.146  25.875  25.553  1.00  0.00     0.268 C 
ATOM     13  C   UNL A   1      32.505  25.021  23.468  1.00  0.00     0.300 C 
ATOM     14  H   UNL A   1      33.847  24.113  24.868  1.00  0.00     0.349 HD
ATOM     15  C   UNL A   1      33.007  27.278  24.692  1.00  0.00     0.097 C 
ATOM     16  C   UNL A   1      31.330  25.931  23.664  1.00  0.00     0.012 A 
ATOM     17  C   UNL A   1      31.734  27.204  23.885  1.00  0.00    -0.033 A 
ATOM     18  C   UNL A   1      30.004  25.692  24.008  1.00  0.00     0.035 A 
ATOM     19  C   UNL A   1      30.886  28.145  23.383  1.00  0.00     0.006 A 
ATOM     20  C   UNL A   1      29.044  26.650  23.815  1.00  0.00     0.032 A 
ATOM     21  C   UNL A   1      29.515  27.849  23.333  1.00  0.00     0.026 A 
BRANCH  20  22
ATOM     22  N   UNL A   1      27.713  26.349  23.977  1.00  0.00    -0.399 N 
ATOM     23  H   UNL A   1      27.079  27.051  24.249  1.00  0.00     0.156 HD
ATOM     24  H   UNL A   1      27.394  25.431  23.822  1.00  0.00     0.156 HD
ENDBRANCH  20  22
ENDBRANCH   8  11
ENDBRANCH   6   8
ENDBRANCH   5   6
ENDBRANCH   4   5
ENDBRANCH   3   4
ENDBRANCH   2   3
ENDBRANCH   1   2
BRANCH   1  25
ATOM     25  C   UNL A   1      38.072  23.207  26.147  1.00  0.00     0.188 C 
BRANCH  25  26
ATOM     26  O   UNL A   1      38.890  22.026  26.198  1.00  0.00    -0.376 OA
BRANCH  26  27
ATOM     27  C   UNL A   1      38.526  21.000  25.262  1.00  0.00     0.202 C 
BRANCH  27  28
ATOM     28  C   UNL A   1      39.252  19.652  25.422  1.00  0.00     0.261 C 
BRANCH  28  29
ATOM     29  O   UNL A   1      40.197  19.646  26.506  1.00  0.00    -0.460 OA
BRANCH  29  30
ATOM     30  C   UNL A   1      41.514  19.681  26.117  1.00  0.00     0.338 C 
ATOM     31  O   UNL A   1      42.090  18.872  25.445  1.00  0.00    -0.246 OA
BRANCH  30  32
ATOM     32  C   UNL A   1      42.115  20.984  26.526  1.00  0.00     0.060 A 
ATOM     33  C   UNL A   1      42.221  21.279  27.896  1.00  0.00     0.016 A 
ATOM     34  C   UNL A   1      42.638  21.869  25.582  1.00  0.00     0.016 A 
ATOM     35  C   UNL A   1      42.931  22.411  28.321  1.00  0.00     0.010 A 
ATOM     36  C   UNL A   1      43.285  23.030  26.004  1.00  0.00     0.010 A 
ATOM     37  C   UNL A   1      43.448  23.303  27.372  1.00  0.00    -0.014 A 
BRANCH  37  38
ATOM     38  C   UNL A   1      43.968  24.630  27.772  1.00  0.00     0.031 A 
ATOM     39  C   UNL A   1      42.964  25.680  28.139  1.00  0.00     0.074 A 
ATOM     40  C   UNL A   1      45.279  24.930  27.727  1.00  0.00     0.049 A 
ATOM     41  N   UNL A   1      43.132  26.962  28.331  1.00  0.00    -0.248 NA
ATOM     42  C   UNL A   1      41.576  25.219  28.302  1.00  0.00     0.031 C 
ATOM     43  C   UNL A   1      46.362  23.989  27.449  1.00  0.00     0.029 A 
ATOM     44  N   UNL A   1      45.914  26.137  27.891  1.00  0.00    -0.354 N 
ATOM     45  C   UNL A   1      41.874  27.456  28.639  1.00  0.00     0.074 A 
ATOM     46  C   UNL A   1      40.950  26.346  28.597  1.00  0.00     0.031 C 
ATOM     47  C   UNL A   1      47.529  24.661  27.435  1.00  0.00     0.029 A 
ATOM     48  C   UNL A   1      47.267  26.084  27.655  1.00  0.00     0.049 A 
ATOM     49  H   UNL A   1      45.445  26.962  28.152  1.00  0.00     0.167 HD
ATOM     50  C   UNL A   1      41.515  28.728  28.923  1.00  0.00     0.037 A 
ATOM     51  C   UNL A   1      48.173  27.080  27.584  1.00  0.00     0.037 A 
ATOM     52  C   UNL A   1      42.418  29.843  28.921  1.00  0.00     0.049 A 
ATOM     53  C   UNL A   1      47.722  28.511  27.756  1.00  0.00     0.074 A 
ATOM     54  C   UNL A   1      42.148  31.173  29.188  1.00  0.00     0.029 A 
ATOM     55  N   UNL A   1      43.767  29.757  28.615  1.00  0.00    -0.354 N 
ATOM     56  N   UNL A   1      46.534  28.977  28.053  1.00  0.00    -0.248 NA
ATOM     57  C   UNL A   1      48.739  29.556  27.554  1.00  0.00     0.031 C 
ATOM     58  C   UNL A   1      43.328  31.900  28.998  1.00  0.00     0.029 A 
ATOM     59  C   UNL A   1      44.338  31.016  28.652  1.00  0.00     0.049 A 
ATOM     60  H   UNL A   1      44.247  28.924  28.404  1.00  0.00     0.167 HD
ATOM     61  C   UNL A   1      46.663  30.360  28.097  1.00  0.00     0.074 A 
ATOM     62  C   UNL A   1      48.048  30.661  27.801  1.00  0.00     0.031 C 
ATOM     63  C   UNL A   1      45.719  31.297  28.359  1.00  0.00     0.037 A 
BRANCH  50  64
ATOM     64  C   UNL A   1      40.068  28.970  29.212  1.00  0.00     0.064 A 
ATOM     65  C   UNL A   1      39.559  28.875  30.516  1.00  0.00     0.173 A 
ATOM     66  C   UNL A   1      39.179  29.276  28.173  1.00  0.00     0.173 A 
ATOM     67  F   UNL A   1      40.369  28.554  31.536  1.00  0.00    -0.203 F 
ATOM     68  C   UNL A   1      38.202  29.058  30.764  1.00  0.00     0.198 A 
ATOM     69  C   UNL A   1      37.827  29.480  28.430  1.00  0.00     0.198 A 
ATOM     70  F   UNL A   1      39.620  29.364  26.909  1.00  0.00    -0.203 F 
ATOM     71  F   UNL A   1      37.727  28.915  32.009  1.00  0.00    -0.200 F 
ATOM     72  C   UNL A   1      37.339  29.365  29.723  1.00  0.00     0.200 A 
ATOM     73  F   UNL A   1      36.994  29.776  27.423  1.00  0.00    -0.200 F 
ATOM     74  F   UNL A   1      36.032  29.536  29.963  1.00  0.00    -0.200 F 
ENDBRANCH  50  64
BRANCH  51  75
ATOM     75  C   UNL A   1      49.600  26.781  27.293  1.00  0.00     0.064 A 
ATOM     76  C   UNL A   1      50.516  26.578  28.334  1.00  0.00     0.173 A 
ATOM     77  C   UNL A   1      50.087  26.747  25.978  1.00  0.00     0.173 A 
ATOM     78  F   UNL A   1      50.104  26.642  29.609  1.00  0.00    -0.203 F 
ATOM     79  C   UNL A   1      51.868  26.365  28.072  1.00  0.00     0.198 A 
ATOM     80  C   UNL A   1      51.436  26.510  25.717  1.00  0.00     0.198 A 
ATOM     81  F   UNL A   1      49.255  26.953  24.948  1.00  0.00    -0.203 F 
ATOM     82  F   UNL A   1      52.731  26.221  29.088  1.00  0.00    -0.200 F 
ATOM     83  C   UNL A   1      52.326  26.326  26.764  1.00  0.00     0.200 A 
ATOM     84  F   UNL A   1      51.874  26.476  24.451  1.00  0.00    -0.200 F 
ATOM     85  F   UNL A   1      53.627  26.129  26.513  1.00  0.00    -0.200 F 
ENDBRANCH  51  75
BRANCH  63  86
ATOM     86  C   UNL A   1      46.147  32.735  28.362  1.00  0.00     0.064 A 
ATOM     87  C   UNL A   1      46.697  33.331  29.504  1.00  0.00     0.173 A 
ATOM     88  C   UNL A   1      46.075  33.499  27.188  1.00  0.00     0.173 A 
ATOM     89  F   UNL A   1      46.773  32.645  30.654  1.00  0.00    -0.203 F 
ATOM     90  C   UNL A   1      47.153  34.646  29.473  1.00  0.00     0.198 A 
ATOM     91  C   UNL A   1      46.555  34.805  27.154  1.00  0.00     0.198 A 
ATOM     92  F   UNL A   1      45.563  32.970  26.066  1.00  0.00    -0.203 F 
ATOM     93  F   UNL A   1      47.654  35.207  30.584  1.00  0.00    -0.200 F 
ATOM     94  C   UNL A   1      47.091  35.379  28.296  1.00  0.00     0.200 A 
ATOM     95  F   UNL A   1      46.504  35.507  26.013  1.00  0.00    -0.200 F 
ATOM     96  F   UNL A   1      47.547  36.638  28.265  1.00  0.00    -0.200 F 
ENDBRANCH  63  86
ENDBRANCH  37  38
ENDBRANCH  30  32
ENDBRANCH  29  30
ENDBRANCH  28  29
ENDBRANCH  27  28
ENDBRANCH  26  27
ENDBRANCH  25  26
ENDBRANCH   1  25
TORSDOF 20
ENDMDL
MODEL 2
REMARK VINA RESULT:     -10.4      4.935     10.177
REMARK SMILES CC[C@@H](C(=O)OCCOCCOCCOC(=O)c1ccc(-c2c3nc(c(-c4c(F)c(F)c(F)c(F)c4F)c4ccc([nH]4)c(-c4c(F)c(F)c(F)c(F)c4F)c4nc(c(-c5c(F)c(F)c(F)c(F)c5F)c5ccc2[nH]5)C=C4)C=C3)cc1)[N@@H+]1CCc2ccc(N)cc2C1
REMARK SMILES IDX 10 1 9 2 8 3 7 4 6 5 4 6 5 7 3 8 2 9 1 10 81 11 82 12 91 13
REMARK SMILES IDX 83 15 90 16 84 17 89 18 85 19 87 20 86 21 88 22 11 25 12 26
REMARK SMILES IDX 13 27 14 28 15 29 16 30 17 31 18 32 19 33 80 34 20 35 79 36
REMARK SMILES IDX 21 37 22 38 23 39 73 40 24 41 78 42 72 43 74 44 25 45 77 46
REMARK SMILES IDX 71 47 70 48 26 50 58 51 38 52 57 53 39 54 42 55 56 56 75 57
REMARK SMILES IDX 40 58 41 59 55 61 76 62 43 63 27 64 28 65 36 66 29 67 30 68
REMARK SMILES IDX 34 69 37 70 31 71 32 72 35 73 33 74 59 75 60 76 68 77 61 78
REMARK SMILES IDX 62 79 66 80 69 81 63 82 64 83 67 84 65 85 44 86 45 87 53 88
REMARK SMILES IDX 46 89 47 90 51 91 54 92 48 93 49 94 52 95 50 96
REMARK H PARENT 81 14 88 23 88 24 74 49 42 60
REMARK Flexibility Score: inf
ROOT
ATOM      1  C   UNL A   1      29.532  27.315  23.091  1.00  0.00     0.188 C 
ENDROOT
BRANCH   1   2
ATOM      2  O   UNL A   1      30.400  26.151  23.043  1.00  0.00    -0.376 OA
BRANCH   2   3
ATOM      3  C   UNL A   1      31.605  26.367  22.260  1.00  0.00     0.202 C 
BRANCH   3   4
ATOM      4  C   UNL A   1      32.792  25.331  22.434  1.00  0.00     0.261 C 
BRANCH   4   5
ATOM      5  O   UNL A   1      33.835  25.714  23.398  1.00  0.00    -0.459 OA
BRANCH   5   6
ATOM      6  C   UNL A   1      33.576  25.865  24.745  1.00  0.00     0.364 C 
ATOM      7  O   UNL A   1      33.978  26.844  25.368  1.00  0.00    -0.245 OA
BRANCH   6   8
ATOM      8  C   UNL A   1      32.535  24.749  25.403  1.00  0.00     0.295 C 
BRANCH   8   9
ATOM      9  C   UNL A   1      31.100  25.186  25.790  1.00  0.00     0.074 C 
ATOM     10  C   UNL A   1      30.928  26.499  26.537  1.00  0.00     0.011 C 
ENDBRANCH   8   9
BRANCH   8  11
ATOM     11  N   UNL A   1      33.236  23.764  26.357  1.00  0.00    -0.319 N 
ATOM     12  C   UNL A   1      34.622  23.195  26.088  1.00  0.00     0.268 C 
ATOM     13  C   UNL A   1      32.387  22.606  26.471  1.00  0.00     0.300 C 
ATOM     14  H   UNL A   1      33.386  24.370  27.164  1.00  0.00     0.349 HD
ATOM     15  C   UNL A   1      34.768  21.554  26.207  1.00  0.00     0.097 C 
ATOM     16  C   UNL A   1      32.594  21.761  25.251  1.00  0.00     0.012 A 
ATOM     17  C   UNL A   1      33.650  20.929  25.410  1.00  0.00    -0.033 A 
ATOM     18  C   UNL A   1      32.180  21.901  23.930  1.00  0.00     0.035 A 
ATOM     19  C   UNL A   1      33.506  19.731  24.777  1.00  0.00     0.006 A 
ATOM     20  C   UNL A   1      32.223  20.841  23.065  1.00  0.00     0.032 A 
ATOM     21  C   UNL A   1      32.759  19.689  23.589  1.00  0.00     0.026 A 
BRANCH  20  22
ATOM     22  N   UNL A   1      31.640  20.929  21.823  1.00  0.00    -0.399 N 
ATOM     23  H   UNL A   1      30.992  21.645  21.632  1.00  0.00     0.156 HD
ATOM     24  H   UNL A   1      31.870  20.275  21.124  1.00  0.00     0.156 HD
ENDBRANCH  20  22
ENDBRANCH   8  11
ENDBRANCH   6   8
ENDBRANCH   5   6
ENDBRANCH   4   5
ENDBRANCH   3   4
ENDBRANCH   2   3
ENDBRANCH   1   2
BRANCH   1  25
ATOM     25  C   UNL A   1      30.174  28.716  22.857  1.00  0.00     0.188 C 
BRANCH  25  26
ATOM     26  O   UNL A   1      30.296  29.466  24.079  1.00  0.00    -0.376 OA
BRANCH  26  27
ATOM     27  C   UNL A   1      31.602  29.443  24.673  1.00  0.00     0.202 C 
BRANCH  27  28
ATOM     28  C   UNL A   1      31.804  30.358  25.894  1.00  0.00     0.261 C 
BRANCH  28  29
ATOM     29  O   UNL A   1      33.173  30.421  26.329  1.00  0.00    -0.460 OA
BRANCH  29  30
ATOM     30  C   UNL A   1      33.481  31.525  27.087  1.00  0.00     0.338 C 
ATOM     31  O   UNL A   1      32.809  32.506  27.241  1.00  0.00    -0.246 OA
BRANCH  30  32
ATOM     32  C   UNL A   1      34.741  31.269  27.844  1.00  0.00     0.060 A 
ATOM     33  C   UNL A   1      34.976  29.978  28.346  1.00  0.00     0.016 A 
ATOM     34  C   UNL A   1      35.712  32.260  27.991  1.00  0.00     0.016 A 
ATOM     35  C   UNL A   1      36.218  29.657  28.913  1.00  0.00     0.010 A 
ATOM     36  C   UNL A   1      36.922  31.957  28.616  1.00  0.00     0.010 A 
ATOM     37  C   UNL A   1      37.189  30.654  29.068  1.00  0.00    -0.014 A 
BRANCH  37  38
ATOM     38  C   UNL A   1      38.399  30.424  29.889  1.00  0.00     0.031 A 
ATOM     39  C   UNL A   1      39.433  29.486  29.343  1.00  0.00     0.074 A 
ATOM     40  C   UNL A   1      38.544  30.954  31.117  1.00  0.00     0.049 A 
ATOM     41  N   UNL A   1      40.475  28.962  29.932  1.00  0.00    -0.248 NA
ATOM     42  C   UNL A   1      39.259  29.076  27.940  1.00  0.00     0.031 C 
ATOM     43  C   UNL A   1      37.649  31.928  31.739  1.00  0.00     0.029 A 
ATOM     44  N   UNL A   1      39.500  30.715  32.074  1.00  0.00    -0.354 N 
ATOM     45  C   UNL A   1      41.079  28.165  28.971  1.00  0.00     0.074 A 
ATOM     46  C   UNL A   1      40.285  28.261  27.767  1.00  0.00     0.031 C 
ATOM     47  C   UNL A   1      38.084  32.183  32.987  1.00  0.00     0.029 A 
ATOM     48  C   UNL A   1      39.259  31.355  33.266  1.00  0.00     0.049 A 
ATOM     49  H   UNL A   1      40.284  30.139  31.921  1.00  0.00     0.167 HD
ATOM     50  C   UNL A   1      42.194  27.409  29.083  1.00  0.00     0.037 A 
ATOM     51  C   UNL A   1      39.892  31.246  34.451  1.00  0.00     0.037 A 
ATOM     52  C   UNL A   1      42.960  27.271  30.288  1.00  0.00     0.049 A 
ATOM     53  C   UNL A   1      41.044  30.280  34.594  1.00  0.00     0.074 A 
ATOM     54  C   UNL A   1      44.101  26.521  30.504  1.00  0.00     0.029 A 
ATOM     55  N   UNL A   1      42.646  27.886  31.490  1.00  0.00    -0.354 N 
ATOM     56  N   UNL A   1      41.618  29.532  33.684  1.00  0.00    -0.248 NA
ATOM     57  C   UNL A   1      41.618  30.126  35.941  1.00  0.00     0.031 C 
ATOM     58  C   UNL A   1      44.453  26.646  31.852  1.00  0.00     0.029 A 
ATOM     59  C   UNL A   1      43.552  27.505  32.463  1.00  0.00     0.049 A 
ATOM     60  H   UNL A   1      41.892  28.502  31.629  1.00  0.00     0.167 HD
ATOM     61  C   UNL A   1      42.630  28.838  34.338  1.00  0.00     0.074 A 
ATOM     62  C   UNL A   1      42.597  29.258  35.723  1.00  0.00     0.031 C 
ATOM     63  C   UNL A   1      43.507  27.935  33.836  1.00  0.00     0.037 A 
BRANCH  50  64
ATOM     64  C   UNL A   1      42.610  26.640  27.870  1.00  0.00     0.064 A 
ATOM     65  C   UNL A   1      42.116  25.352  27.617  1.00  0.00     0.173 A 
ATOM     66  C   UNL A   1      43.528  27.188  26.963  1.00  0.00     0.173 A 
ATOM     67  F   UNL A   1      41.258  24.778  28.474  1.00  0.00    -0.203 F 
ATOM     68  C   UNL A   1      42.545  24.631  26.507  1.00  0.00     0.198 A 
ATOM     69  C   UNL A   1      43.938  26.472  25.844  1.00  0.00     0.198 A 
ATOM     70  F   UNL A   1      44.036  28.412  27.173  1.00  0.00    -0.203 F 
ATOM     71  F   UNL A   1      42.099  23.382  26.309  1.00  0.00    -0.200 F 
ATOM     72  C   UNL A   1      43.451  25.193  25.620  1.00  0.00     0.200 A 
ATOM     73  F   UNL A   1      44.814  27.015  24.987  1.00  0.00    -0.200 F 
ATOM     74  F   UNL A   1      43.868  24.495  24.555  1.00  0.00    -0.200 F 
ENDBRANCH  50  64
BRANCH  51  75
ATOM     75  C   UNL A   1      39.435  32.035  35.625  1.00  0.00     0.064 A 
ATOM     76  C   UNL A   1      39.973  33.302  35.891  1.00  0.00     0.173 A 
ATOM     77  C   UNL A   1      38.497  31.521  36.533  1.00  0.00     0.173 A 
ATOM     78  F   UNL A   1      40.902  33.818  35.073  1.00  0.00    -0.203 F 
ATOM     79  C   UNL A   1      39.600  34.020  37.025  1.00  0.00     0.198 A 
ATOM     80  C   UNL A   1      38.108  32.249  37.655  1.00  0.00     0.198 A 
ATOM     81  F   UNL A   1      37.967  30.306  36.333  1.00  0.00    -0.203 F 
ATOM     82  F   UNL A   1      40.165  35.208  37.280  1.00  0.00    -0.200 F 
ATOM     83  C   UNL A   1      38.664  33.495  37.905  1.00  0.00     0.200 A 
ATOM     84  F   UNL A   1      37.205  31.738  38.502  1.00  0.00    -0.200 F 
ATOM     85  F   UNL A   1      38.312  34.181  39.000  1.00  0.00    -0.200 F 
ENDBRANCH  51  75
BRANCH  63  86
ATOM     86  C   UNL A   1      44.520  27.352  34.775  1.00  0.00     0.064 A 
ATOM     87  C   UNL A   1      45.731  28.004  35.040  1.00  0.00     0.173 A 
ATOM     88  C   UNL A   1      44.241  26.168  35.474  1.00  0.00     0.173 A 
ATOM     89  F   UNL A   1      46.049  29.131  34.386  1.00  0.00    -0.203 F 
ATOM     90  C   UNL A   1      46.633  27.487  35.967  1.00  0.00     0.198 A 
ATOM     91  C   UNL A   1      45.134  25.667  36.417  1.00  0.00     0.198 A 
ATOM     92  F   UNL A   1      43.091  25.511  35.260  1.00  0.00    -0.203 F 
ATOM     93  F   UNL A   1      47.798  28.112  36.188  1.00  0.00    -0.200 F 
ATOM     94  C   UNL A   1      46.330  26.324  36.661  1.00  0.00     0.200 A 
ATOM     95  F   UNL A   1      44.833  24.551  37.095  1.00  0.00    -0.200 F 
ATOM     96  F   UNL A   1      47.191  25.838  37.565  1.00  0.00    -0.200 F 
ENDBRANCH  63  86
ENDBRANCH  37  38
ENDBRANCH  30  32
ENDBRANCH  29  30
ENDBRANCH  28  29
ENDBRANCH  27  28
ENDBRANCH  26  27
ENDBRANCH  25  26
ENDBRANCH   1  25
TORSDOF 20
ENDMDL
MODEL 3
REMARK VINA RESULT:     -10.3      3.537      7.654
REMARK SMILES CC[C@@H](C(=O)OCCOCCOCCOC(=O)c1ccc(-c2c3nc(c(-c4c(F)c(F)c(F)c(F)c4F)c4ccc([nH]4)c(-c4c(F)c(F)c(F)c(F)c4F)c4nc(c(-c5c(F)c(F)c(F)c(F)c5F)c5ccc2[nH]5)C=C4)C=C3)cc1)[N@@H+]1CCc2ccc(N)cc2C1
REMARK SMILES IDX 10 1 9 2 8 3 7 4 6 5 4 6 5 7 3 8 2 9 1 10 81 11 82 12 91 13
REMARK SMILES IDX 83 15 90 16 84 17 89 18 85 19 87 20 86 21 88 22 11 25 12 26
REMARK SMILES IDX 13 27 14 28 15 29 16 30 17 31 18 32 19 33 80 34 20 35 79 36
REMARK SMILES IDX 21 37 22 38 23 39 73 40 24 41 78 42 72 43 74 44 25 45 77 46
REMARK SMILES IDX 71 47 70 48 26 50 58 51 38 52 57 53 39 54 42 55 56 56 75 57
REMARK SMILES IDX 40 58 41 59 55 61 76 62 43 63 27 64 28 65 36 66 29 67 30 68
REMARK SMILES IDX 34 69 37 70 31 71 32 72 35 73 33 74 59 75 60 76 68 77 61 78
REMARK SMILES IDX 62 79 66 80 69 81 63 82 64 83 67 84 65 85 44 86 45 87 53 88
REMARK SMILES IDX 46 89 47 90 51 91 54 92 48 93 49 94 52 95 50 96
REMARK H PARENT 81 14 88 23 88 24 74 49 42 60
REMARK Flexibility Score: inf
ROOT
ATOM      1  C   UNL A   1      32.016  27.711  22.915  1.00  0.00     0.188 C 
ENDROOT
BRANCH   1   2
ATOM      2  O   UNL A   1      31.603  26.410  23.413  1.00  0.00    -0.376 OA
BRANCH   2   3
ATOM      3  C   UNL A   1      32.309  25.307  22.785  1.00  0.00     0.202 C 
BRANCH   3   4
ATOM      4  C   UNL A   1      33.866  25.179  23.055  1.00  0.00     0.261 C 
BRANCH   4   5
ATOM      5  O   UNL A   1      34.487  23.920  22.618  1.00  0.00    -0.459 OA
BRANCH   5   6
ATOM      6  C   UNL A   1      35.563  23.360  23.276  1.00  0.00     0.364 C 
ATOM      7  O   UNL A   1      36.656  23.242  22.728  1.00  0.00    -0.245 OA
BRANCH   6   8
ATOM      8  C   UNL A   1      35.332  23.047  24.892  1.00  0.00     0.295 C 
BRANCH   8   9
ATOM      9  C   UNL A   1      36.445  23.419  25.903  1.00  0.00     0.074 C 
ATOM     10  C   UNL A   1      37.778  22.696  25.800  1.00  0.00     0.011 C 
ENDBRANCH   8   9
BRANCH   8  11
ATOM     11  N   UNL A   1      34.583  21.726  25.146  1.00  0.00    -0.319 N 
ATOM     12  C   UNL A   1      33.459  21.226  24.249  1.00  0.00     0.268 C 
ATOM     13  C   UNL A   1      33.986  21.820  26.453  1.00  0.00     0.300 C 
ATOM     14  H   UNL A   1      35.334  21.057  24.973  1.00  0.00     0.349 HD
ATOM     15  C   UNL A   1      32.067  20.775  25.015  1.00  0.00     0.097 C 
ATOM     16  C   UNL A   1      32.741  22.645  26.332  1.00  0.00     0.012 A 
ATOM     17  C   UNL A   1      31.685  21.878  25.971  1.00  0.00    -0.033 A 
ATOM     18  C   UNL A   1      32.530  24.010  26.167  1.00  0.00     0.035 A 
ATOM     19  C   UNL A   1      30.499  22.292  26.500  1.00  0.00     0.006 A 
ATOM     20  C   UNL A   1      31.299  24.563  26.402  1.00  0.00     0.032 A 
ATOM     21  C   UNL A   1      30.315  23.663  26.735  1.00  0.00     0.026 A 
BRANCH  20  22
ATOM     22  N   UNL A   1      31.140  25.929  26.422  1.00  0.00    -0.399 N 
ATOM     23  H   UNL A   1      31.704  26.481  27.011  1.00  0.00     0.156 HD
ATOM     24  H   UNL A   1      30.463  26.354  25.849  1.00  0.00     0.156 HD
ENDBRANCH  20  22
ENDBRANCH   8  11
ENDBRANCH   6   8
ENDBRANCH   5   6
ENDBRANCH   4   5
ENDBRANCH   3   4
ENDBRANCH   2   3
ENDBRANCH   1   2
BRANCH   1  25
ATOM     25  C   UNL A   1      32.202  28.863  23.948  1.00  0.00     0.188 C 
BRANCH  25  26
ATOM     26  O   UNL A   1      31.410  28.662  25.132  1.00  0.00    -0.376 OA
BRANCH  26  27
ATOM     27  C   UNL A   1      31.780  29.480  26.251  1.00  0.00     0.202 C 
BRANCH  27  28
ATOM     28  C   UNL A   1      33.138  29.160  26.902  1.00  0.00     0.261 C 
BRANCH  28  29
ATOM     29  O   UNL A   1      34.142  30.151  26.625  1.00  0.00    -0.460 OA
BRANCH  29  30
ATOM     30  C   UNL A   1      34.606  30.819  27.732  1.00  0.00     0.338 C 
ATOM     31  O   UNL A   1      34.027  31.655  28.366  1.00  0.00    -0.246 OA
BRANCH  30  32
ATOM     32  C   UNL A   1      35.914  30.235  28.149  1.00  0.00     0.060 A 
ATOM     33  C   UNL A   1      36.041  29.722  29.451  1.00  0.00     0.016 A 
ATOM     34  C   UNL A   1      36.977  30.124  27.251  1.00  0.00     0.016 A 
ATOM     35  C   UNL A   1      37.195  29.016  29.822  1.00  0.00     0.010 A 
ATOM     36  C   UNL A   1      38.151  29.480  27.644  1.00  0.00     0.010 A 
ATOM     37  C   UNL A   1      38.263  28.912  28.924  1.00  0.00    -0.014 A 
BRANCH  37  38
ATOM     38  C   UNL A   1      39.586  28.410  29.361  1.00  0.00     0.031 A 
ATOM     39  C   UNL A   1      40.407  29.308  30.235  1.00  0.00     0.074 A 
ATOM     40  C   UNL A   1      40.088  27.239  28.929  1.00  0.00     0.049 A 
ATOM     41  N   UNL A   1      41.660  29.204  30.593  1.00  0.00    -0.248 NA
ATOM     42  C   UNL A   1      39.721  30.494  30.772  1.00  0.00     0.031 C 
ATOM     43  C   UNL A   1      39.372  26.245  28.131  1.00  0.00     0.029 A 
ATOM     44  N   UNL A   1      41.343  26.704  29.088  1.00  0.00    -0.354 N 
ATOM     45  C   UNL A   1      41.907  30.306  31.396  1.00  0.00     0.074 A 
ATOM     46  C   UNL A   1      40.685  31.074  31.466  1.00  0.00     0.031 C 
ATOM     47  C   UNL A   1      40.211  25.232  27.845  1.00  0.00     0.029 A 
ATOM     48  C   UNL A   1      41.532  25.529  28.400  1.00  0.00     0.049 A 
ATOM     49  H   UNL A   1      42.042  27.123  29.641  1.00  0.00     0.167 HD
ATOM     50  C   UNL A   1      43.057  30.657  32.015  1.00  0.00     0.037 A 
ATOM     51  C   UNL A   1      42.656  24.808  28.211  1.00  0.00     0.037 A 
ATOM     52  C   UNL A   1      44.286  29.925  31.912  1.00  0.00     0.049 A 
ATOM     53  C   UNL A   1      43.962  25.299  28.788  1.00  0.00     0.074 A 
ATOM     54  C   UNL A   1      45.508  30.205  32.497  1.00  0.00     0.029 A 
ATOM     55  N   UNL A   1      44.452  28.776  31.156  1.00  0.00    -0.354 N 
ATOM     56  N   UNL A   1      44.194  26.338  29.552  1.00  0.00    -0.248 NA
ATOM     57  C   UNL A   1      45.169  24.527  28.450  1.00  0.00     0.031 C 
ATOM     58  C   UNL A   1      46.428  29.248  32.055  1.00  0.00     0.029 A 
ATOM     59  C   UNL A   1      45.767  28.352  31.229  1.00  0.00     0.049 A 
ATOM     60  H   UNL A   1      43.741  28.328  30.644  1.00  0.00     0.167 HD
ATOM     61  C   UNL A   1      45.561  26.334  29.805  1.00  0.00     0.074 A 
ATOM     62  C   UNL A   1      46.109  25.184  29.117  1.00  0.00     0.031 C 
ATOM     63  C   UNL A   1      46.295  27.203  30.541  1.00  0.00     0.037 A 
BRANCH  50  64
ATOM     64  C   UNL A   1      43.030  31.918  32.819  1.00  0.00     0.064 A 
ATOM     65  C   UNL A   1      42.700  31.908  34.182  1.00  0.00     0.173 A 
ATOM     66  C   UNL A   1      43.314  33.150  32.214  1.00  0.00     0.173 A 
ATOM     67  F   UNL A   1      42.393  30.753  34.793  1.00  0.00    -0.203 F 
ATOM     68  C   UNL A   1      42.636  33.093  34.907  1.00  0.00     0.198 A 
ATOM     69  C   UNL A   1      43.269  34.331  32.948  1.00  0.00     0.198 A 
ATOM     70  F   UNL A   1      43.621  33.208  30.909  1.00  0.00    -0.203 F 
ATOM     71  F   UNL A   1      42.272  33.068  36.197  1.00  0.00    -0.200 F 
ATOM     72  C   UNL A   1      42.924  34.302  34.291  1.00  0.00     0.200 A 
ATOM     73  F   UNL A   1      43.547  35.498  32.352  1.00  0.00    -0.200 F 
ATOM     74  F   UNL A   1      42.856  35.443  34.990  1.00  0.00    -0.200 F 
ENDBRANCH  50  64
BRANCH  51  75
ATOM     75  C   UNL A   1      42.624  23.561  27.402  1.00  0.00     0.064 A 
ATOM     76  C   UNL A   1      42.248  22.341  27.981  1.00  0.00     0.173 A 
ATOM     77  C   UNL A   1      43.018  23.551  26.056  1.00  0.00     0.173 A 
ATOM     78  F   UNL A   1      41.902  22.294  29.276  1.00  0.00    -0.203 F 
ATOM     79  C   UNL A   1      42.280  21.156  27.249  1.00  0.00     0.198 A 
ATOM     80  C   UNL A   1      43.027  22.369  25.318  1.00  0.00     0.198 A 
ATOM     81  F   UNL A   1      43.403  24.690  25.461  1.00  0.00    -0.203 F 
ATOM     82  F   UNL A   1      41.963  19.996  27.840  1.00  0.00    -0.200 F 
ATOM     83  C   UNL A   1      42.665  21.172  25.916  1.00  0.00     0.200 A 
ATOM     84  F   UNL A   1      43.401  22.389  24.032  1.00  0.00    -0.200 F 
ATOM     85  F   UNL A   1      42.704  20.031  25.215  1.00  0.00    -0.200 F 
ENDBRANCH  51  75
BRANCH  63  86
ATOM     86  C   UNL A   1      47.767  26.941  30.665  1.00  0.00     0.064 A 
ATOM     87  C   UNL A   1      48.271  26.042  31.613  1.00  0.00     0.173 A 
ATOM     88  C   UNL A   1      48.671  27.538  29.774  1.00  0.00     0.173 A 
ATOM     89  F   UNL A   1      47.448  25.458  32.496  1.00  0.00    -0.203 F 
ATOM     90  C   UNL A   1      49.633  25.755  31.671  1.00  0.00     0.198 A 
ATOM     91  C   UNL A   1      50.028  27.231  29.819  1.00  0.00     0.198 A 
ATOM     92  F   UNL A   1      48.235  28.400  28.843  1.00  0.00    -0.203 F 
ATOM     93  F   UNL A   1      50.100  24.912  32.603  1.00  0.00    -0.200 F 
ATOM     94  C   UNL A   1      50.508  26.342  30.769  1.00  0.00     0.200 A 
ATOM     95  F   UNL A   1      50.870  27.790  28.939  1.00  0.00    -0.200 F 
ATOM     96  F   UNL A   1      51.816  26.052  30.816  1.00  0.00    -0.200 F 
ENDBRANCH  63  86
ENDBRANCH  37  38
ENDBRANCH  30  32
ENDBRANCH  29  30
ENDBRANCH  28  29
ENDBRANCH  27  28
ENDBRANCH  26  27
ENDBRANCH  25  26
ENDBRANCH   1  25
TORSDOF 20
ENDMDL
