MODEL 1
REMARK VINA RESULT:     -11.6      0.000      0.000
REMARK SMILES O=C(OCCOCCOCCOC(=O)[C@H]1CC[C@@H]2CCCC[C@@H]2N1C(=O)Cc1ccn[nH]1)c1ccc(-c2c3nc(c(-c4c(F)c(F)c(F)c(F)c4F)c4ccc([nH]4)c(-c4c(F)c(F)c(F)c(F)c4F)c4nc(c(-c5c(F)c(F)c(F)c(F)c5F)c5ccc2[nH]5)C=C4)C=C3)cc1
REMARK SMILES IDX 8 1 7 2 6 3 5 4 4 5 3 6 2 7 1 8 33 9 34 10 95 11 35 12 94 13
REMARK SMILES IDX 36 14 37 15 38 16 88 17 39 18 93 19 87 20 89 21 40 22 92 23
REMARK SMILES IDX 86 24 85 25 41 27 73 28 53 29 72 30 54 31 57 32 71 33 90 34
REMARK SMILES IDX 55 35 56 36 70 38 91 39 58 40 42 41 43 42 51 43 44 44 45 45
REMARK SMILES IDX 49 46 52 47 46 48 47 49 50 50 48 51 74 52 75 53 83 54 76 55
REMARK SMILES IDX 77 56 81 57 84 58 78 59 79 60 82 61 80 62 59 63 60 64 68 65
REMARK SMILES IDX 61 66 62 67 66 68 69 69 63 70 64 71 67 72 65 73 9 74 10 75
REMARK SMILES IDX 11 76 12 77 13 78 14 79 15 80 16 81 24 82 17 83 23 84 18 85
REMARK SMILES IDX 22 86 19 87 21 88 20 89 25 90 26 91 27 92 28 93 29 94 32 95
REMARK SMILES IDX 30 96 31 97
REMARK H PARENT 89 26 57 37 32 98
REMARK Flexibility Score: inf
ROOT
ATOM      1  C   UNL A   1      32.724  29.191  24.972  1.00  0.00     0.188 C 
ENDROOT
BRANCH   1   2
ATOM      2  C   UNL A   1      33.324  29.585  26.318  1.00  0.00     0.188 C 
BRANCH   2   3
ATOM      3  O   UNL A   1      32.527  30.400  27.166  1.00  0.00    -0.376 OA
BRANCH   3   4
ATOM      4  C   UNL A   1      31.692  31.373  26.552  1.00  0.00     0.202 C 
BRANCH   4   5
ATOM      5  C   UNL A   1      31.808  32.828  27.028  1.00  0.00     0.261 C 
BRANCH   5   6
ATOM      6  O   UNL A   1      33.100  33.443  27.244  1.00  0.00    -0.460 OA
BRANCH   6   7
ATOM      7  C   UNL A   1      33.568  33.788  28.463  1.00  0.00     0.338 C 
ATOM      8  O   UNL A   1      32.945  34.423  29.302  1.00  0.00    -0.246 OA
BRANCH   7   9
ATOM      9  C   UNL A   1      34.805  33.032  28.787  1.00  0.00     0.060 A 
ATOM     10  C   UNL A   1      34.755  31.786  29.422  1.00  0.00     0.016 A 
ATOM     11  C   UNL A   1      36.046  33.592  28.474  1.00  0.00     0.016 A 
ATOM     12  C   UNL A   1      35.903  31.076  29.717  1.00  0.00     0.010 A 
ATOM     13  C   UNL A   1      37.214  32.923  28.844  1.00  0.00     0.010 A 
ATOM     14  C   UNL A   1      37.135  31.679  29.492  1.00  0.00    -0.014 A 
BRANCH  14  15
ATOM     15  C   UNL A   1      38.290  31.172  30.250  1.00  0.00     0.031 A 
ATOM     16  C   UNL A   1      39.119  30.124  29.598  1.00  0.00     0.074 A 
ATOM     17  C   UNL A   1      38.670  31.703  31.419  1.00  0.00     0.049 A 
ATOM     18  N   UNL A   1      40.129  29.460  30.080  1.00  0.00    -0.248 NA
ATOM     19  C   UNL A   1      38.806  29.826  28.190  1.00  0.00     0.031 C 
ATOM     20  C   UNL A   1      38.112  32.917  31.979  1.00  0.00     0.029 A 
ATOM     21  N   UNL A   1      39.594  31.304  32.343  1.00  0.00    -0.354 N 
ATOM     22  C   UNL A   1      40.580  28.674  29.035  1.00  0.00     0.074 A 
ATOM     23  C   UNL A   1      39.725  28.924  27.898  1.00  0.00     0.031 C 
ATOM     24  C   UNL A   1      38.608  33.105  33.211  1.00  0.00     0.029 A 
ATOM     25  C   UNL A   1      39.509  32.013  33.516  1.00  0.00     0.049 A 
ATOM     26  H   UNL A   1      40.249  30.587  32.186  1.00  0.00     0.167 HD
ATOM     27  C   UNL A   1      41.623  27.819  29.048  1.00  0.00     0.037 A 
ATOM     28  C   UNL A   1      40.062  31.784  34.718  1.00  0.00     0.037 A 
ATOM     29  C   UNL A   1      42.409  27.570  30.225  1.00  0.00     0.049 A 
ATOM     30  C   UNL A   1      41.053  30.674  34.796  1.00  0.00     0.074 A 
ATOM     31  C   UNL A   1      43.441  26.674  30.403  1.00  0.00     0.029 A 
ATOM     32  N   UNL A   1      42.217  28.215  31.446  1.00  0.00    -0.354 N 
ATOM     33  N   UNL A   1      41.432  29.863  33.839  1.00  0.00    -0.248 NA
ATOM     34  C   UNL A   1      41.729  30.471  36.079  1.00  0.00     0.031 C 
ATOM     35  C   UNL A   1      43.823  26.721  31.749  1.00  0.00     0.029 A 
ATOM     36  C   UNL A   1      43.083  27.703  32.395  1.00  0.00     0.049 A 
ATOM     37  H   UNL A   1      41.561  28.930  31.608  1.00  0.00     0.167 HD
ATOM     38  C   UNL A   1      42.434  29.083  34.379  1.00  0.00     0.074 A 
ATOM     39  C   UNL A   1      42.580  29.503  35.764  1.00  0.00     0.031 C 
ATOM     40  C   UNL A   1      43.184  28.134  33.770  1.00  0.00     0.037 A 
BRANCH  27  41
ATOM     41  C   UNL A   1      41.843  27.034  27.792  1.00  0.00     0.064 A 
ATOM     42  C   UNL A   1      41.208  25.805  27.553  1.00  0.00     0.173 A 
ATOM     43  C   UNL A   1      42.808  27.463  26.869  1.00  0.00     0.173 A 
ATOM     44  F   UNL A   1      40.311  25.326  28.429  1.00  0.00    -0.203 F 
ATOM     45  C   UNL A   1      41.570  25.011  26.467  1.00  0.00     0.198 A 
ATOM     46  C   UNL A   1      43.142  26.684  25.766  1.00  0.00     0.198 A 
ATOM     47  F   UNL A   1      43.459  28.620  27.061  1.00  0.00    -0.203 F 
ATOM     48  F   UNL A   1      41.022  23.798  26.312  1.00  0.00    -0.200 F 
ATOM     49  C   UNL A   1      42.536  25.452  25.575  1.00  0.00     0.200 A 
ATOM     50  F   UNL A   1      44.079  27.111  24.909  1.00  0.00    -0.200 F 
ATOM     51  F   UNL A   1      42.905  24.677  24.546  1.00  0.00    -0.200 F 
ENDBRANCH  27  41
BRANCH  28  52
ATOM     52  C   UNL A   1      39.658  32.591  35.895  1.00  0.00     0.064 A 
ATOM     53  C   UNL A   1      40.330  33.764  36.255  1.00  0.00     0.173 A 
ATOM     54  C   UNL A   1      38.531  32.227  36.650  1.00  0.00     0.173 A 
ATOM     55  F   UNL A   1      41.415  34.149  35.569  1.00  0.00    -0.203 F 
ATOM     56  C   UNL A   1      39.888  34.547  37.322  1.00  0.00     0.198 A 
ATOM     57  C   UNL A   1      38.086  33.014  37.711  1.00  0.00     0.198 A 
ATOM     58  F   UNL A   1      37.842  31.120  36.333  1.00  0.00    -0.203 F 
ATOM     59  F   UNL A   1      40.550  35.666  37.649  1.00  0.00    -0.200 F 
ATOM     60  C   UNL A   1      38.763  34.175  38.045  1.00  0.00     0.200 A 
ATOM     61  F   UNL A   1      36.986  32.659  38.391  1.00  0.00    -0.200 F 
ATOM     62  F   UNL A   1      38.330  34.938  39.058  1.00  0.00    -0.200 F 
ENDBRANCH  28  52
BRANCH  40  63
ATOM     63  C   UNL A   1      44.263  27.515  34.596  1.00  0.00     0.064 A 
ATOM     64  C   UNL A   1      45.523  28.113  34.730  1.00  0.00     0.173 A 
ATOM     65  C   UNL A   1      44.004  26.334  35.303  1.00  0.00     0.173 A 
ATOM     66  F   UNL A   1      45.819  29.229  34.047  1.00  0.00    -0.203 F 
ATOM     67  C   UNL A   1      46.493  27.539  35.543  1.00  0.00     0.198 A 
ATOM     68  C   UNL A   1      44.964  25.782  36.141  1.00  0.00     0.198 A 
ATOM     69  F   UNL A   1      42.811  25.728  35.197  1.00  0.00    -0.203 F 
ATOM     70  F   UNL A   1      47.707  28.101  35.631  1.00  0.00    -0.200 F 
ATOM     71  C   UNL A   1      46.208  26.383  36.257  1.00  0.00     0.200 A 
ATOM     72  F   UNL A   1      44.684  24.673  36.839  1.00  0.00    -0.200 F 
ATOM     73  F   UNL A   1      47.139  25.845  37.055  1.00  0.00    -0.200 F 
ENDBRANCH  40  63
ENDBRANCH  14  15
ENDBRANCH   7   9
ENDBRANCH   6   7
ENDBRANCH   5   6
ENDBRANCH   4   5
ENDBRANCH   3   4
ENDBRANCH   2   3
ENDBRANCH   1   2
BRANCH   1  74
ATOM     74  O   UNL A   1      32.337  27.830  24.888  1.00  0.00    -0.376 OA
BRANCH  74  75
ATOM     75  C   UNL A   1      30.954  27.584  25.130  1.00  0.00     0.202 C 
BRANCH  75  76
ATOM     76  C   UNL A   1      30.597  26.174  25.620  1.00  0.00     0.261 C 
BRANCH  76  77
ATOM     77  O   UNL A   1      31.501  25.064  25.393  1.00  0.00    -0.462 OA
BRANCH  77  78
ATOM     78  C   UNL A   1      31.825  24.139  26.329  1.00  0.00     0.328 C 
ATOM     79  O   UNL A   1      31.146  23.892  27.326  1.00  0.00    -0.250 OA
BRANCH  78  80
ATOM     80  C   UNL A   1      33.094  23.351  25.929  1.00  0.00     0.195 C 
ATOM     81  C   UNL A   1      33.821  22.722  27.123  1.00  0.00     0.037 C 
ATOM     82  N   UNL A   1      33.103  22.344  24.816  1.00  0.00    -0.325 N 
ATOM     83  C   UNL A   1      35.193  22.196  26.714  1.00  0.00     0.008 C 
ATOM     84  C   UNL A   1      34.474  22.010  24.310  1.00  0.00     0.089 C 
ATOM     85  C   UNL A   1      35.227  21.319  25.460  1.00  0.00     0.012 C 
ATOM     86  C   UNL A   1      35.266  23.189  23.696  1.00  0.00     0.025 C 
ATOM     87  C   UNL A   1      36.657  20.954  25.051  1.00  0.00     0.006 C 
ATOM     88  C   UNL A   1      36.775  22.957  23.506  1.00  0.00     0.002 C 
ATOM     89  C   UNL A   1      37.473  22.156  24.601  1.00  0.00     0.000 C 
BRANCH  82  90
ATOM     90  C   UNL A   1      32.197  21.264  24.756  1.00  0.00     0.229 C 
ATOM     91  O   UNL A   1      31.246  21.177  25.547  1.00  0.00    -0.274 OA
BRANCH  90  92
ATOM     92  C   UNL A   1      32.345  20.147  23.731  1.00  0.00     0.155 C 
BRANCH  92  93
ATOM     93  C   UNL A   1      32.606  18.830  24.373  1.00  0.00     0.044 A 
ATOM     94  C   UNL A   1      32.790  17.575  23.837  1.00  0.00     0.045 A 
ATOM     95  N   UNL A   1      32.758  18.667  25.726  1.00  0.00    -0.282 N 
ATOM     96  C   UNL A   1      32.801  16.708  24.941  1.00  0.00     0.135 A 
ATOM     97  N   UNL A   1      32.778  17.373  26.097  1.00  0.00    -0.184 NA
ATOM     98  H   UNL A   1      32.845  19.416  26.358  1.00  0.00     0.190 HD
ENDBRANCH  92  93
ENDBRANCH  90  92
ENDBRANCH  82  90
ENDBRANCH  78  80
ENDBRANCH  77  78
ENDBRANCH  76  77
ENDBRANCH  75  76
ENDBRANCH  74  75
ENDBRANCH   1  74
TORSDOF 20
ENDMDL
MODEL 2
REMARK VINA RESULT:     -11.5      4.605      8.642
REMARK SMILES O=C(OCCOCCOCCOC(=O)[C@H]1CC[C@@H]2CCCC[C@@H]2N1C(=O)Cc1ccn[nH]1)c1ccc(-c2c3nc(c(-c4c(F)c(F)c(F)c(F)c4F)c4ccc([nH]4)c(-c4c(F)c(F)c(F)c(F)c4F)c4nc(c(-c5c(F)c(F)c(F)c(F)c5F)c5ccc2[nH]5)C=C4)C=C3)cc1
REMARK SMILES IDX 8 1 7 2 6 3 5 4 4 5 3 6 2 7 1 8 33 9 34 10 95 11 35 12 94 13
REMARK SMILES IDX 36 14 37 15 38 16 88 17 39 18 93 19 87 20 89 21 40 22 92 23
REMARK SMILES IDX 86 24 85 25 41 27 73 28 53 29 72 30 54 31 57 32 71 33 90 34
REMARK SMILES IDX 55 35 56 36 70 38 91 39 58 40 42 41 43 42 51 43 44 44 45 45
REMARK SMILES IDX 49 46 52 47 46 48 47 49 50 50 48 51 74 52 75 53 83 54 76 55
REMARK SMILES IDX 77 56 81 57 84 58 78 59 79 60 82 61 80 62 59 63 60 64 68 65
REMARK SMILES IDX 61 66 62 67 66 68 69 69 63 70 64 71 67 72 65 73 9 74 10 75
REMARK SMILES IDX 11 76 12 77 13 78 14 79 15 80 16 81 24 82 17 83 23 84 18 85
REMARK SMILES IDX 22 86 19 87 21 88 20 89 25 90 26 91 27 92 28 93 29 94 32 95
REMARK SMILES IDX 30 96 31 97
REMARK H PARENT 89 26 57 37 32 98
REMARK Flexibility Score: inf
ROOT
ATOM      1  C   UNL A   1      35.292  21.443  25.073  1.00  0.00     0.188 C 
ENDROOT
BRANCH   1   2
ATOM      2  C   UNL A   1      36.612  21.991  24.539  1.00  0.00     0.188 C 
BRANCH   2   3
ATOM      3  O   UNL A   1      37.805  21.466  25.103  1.00  0.00    -0.376 OA
BRANCH   3   4
ATOM      4  C   UNL A   1      38.015  20.063  25.011  1.00  0.00     0.202 C 
BRANCH   4   5
ATOM      5  C   UNL A   1      39.231  19.466  25.736  1.00  0.00     0.261 C 
BRANCH   5   6
ATOM      6  O   UNL A   1      40.440  20.237  25.927  1.00  0.00    -0.460 OA
BRANCH   6   7
ATOM      7  C   UNL A   1      41.060  20.369  27.119  1.00  0.00     0.338 C 
ATOM      8  O   UNL A   1      41.690  19.488  27.686  1.00  0.00    -0.246 OA
BRANCH   7   9
ATOM      9  C   UNL A   1      41.160  21.800  27.507  1.00  0.00     0.060 A 
ATOM     10  C   UNL A   1      40.390  22.783  26.877  1.00  0.00     0.016 A 
ATOM     11  C   UNL A   1      42.064  22.172  28.506  1.00  0.00     0.016 A 
ATOM     12  C   UNL A   1      40.475  24.114  27.242  1.00  0.00     0.010 A 
ATOM     13  C   UNL A   1      42.218  23.522  28.823  1.00  0.00     0.010 A 
ATOM     14  C   UNL A   1      41.442  24.491  28.165  1.00  0.00    -0.014 A 
BRANCH  14  15
ATOM     15  C   UNL A   1      41.870  25.899  28.167  1.00  0.00     0.031 A 
ATOM     16  C   UNL A   1      43.195  26.204  27.565  1.00  0.00     0.074 A 
ATOM     17  C   UNL A   1      41.066  26.892  28.570  1.00  0.00     0.049 A 
ATOM     18  N   UNL A   1      43.832  27.338  27.517  1.00  0.00    -0.248 NA
ATOM     19  C   UNL A   1      43.867  25.092  26.871  1.00  0.00     0.031 C 
ATOM     20  C   UNL A   1      39.662  26.725  28.881  1.00  0.00     0.029 A 
ATOM     21  N   UNL A   1      41.301  28.220  28.793  1.00  0.00    -0.354 N 
ATOM     22  C   UNL A   1      44.973  27.082  26.780  1.00  0.00     0.074 A 
ATOM     23  C   UNL A   1      44.957  25.683  26.417  1.00  0.00     0.031 C 
ATOM     24  C   UNL A   1      39.179  27.874  29.377  1.00  0.00     0.029 A 
ATOM     25  C   UNL A   1      40.253  28.844  29.421  1.00  0.00     0.049 A 
ATOM     26  H   UNL A   1      42.132  28.679  28.530  1.00  0.00     0.167 HD
ATOM     27  C   UNL A   1      45.944  27.958  26.447  1.00  0.00     0.037 A 
ATOM     28  C   UNL A   1      40.178  30.050  30.009  1.00  0.00     0.037 A 
ATOM     29  C   UNL A   1      45.935  29.328  26.881  1.00  0.00     0.049 A 
ATOM     30  C   UNL A   1      41.357  30.947  29.844  1.00  0.00     0.074 A 
ATOM     31  C   UNL A   1      46.889  30.303  26.685  1.00  0.00     0.029 A 
ATOM     32  N   UNL A   1      44.913  29.905  27.632  1.00  0.00    -0.354 N 
ATOM     33  N   UNL A   1      42.482  30.693  29.222  1.00  0.00    -0.248 NA
ATOM     34  C   UNL A   1      41.252  32.295  30.404  1.00  0.00     0.031 C 
ATOM     35  C   UNL A   1      46.482  31.447  27.382  1.00  0.00     0.029 A 
ATOM     36  C   UNL A   1      45.236  31.213  27.948  1.00  0.00     0.049 A 
ATOM     37  H   UNL A   1      44.083  29.449  27.899  1.00  0.00     0.167 HD
ATOM     38  C   UNL A   1      43.208  31.866  29.260  1.00  0.00     0.074 A 
ATOM     39  C   UNL A   1      42.400  32.825  29.998  1.00  0.00     0.031 C 
ATOM     40  C   UNL A   1      44.413  32.130  28.703  1.00  0.00     0.037 A 
BRANCH  27  41
ATOM     41  C   UNL A   1      47.113  27.390  25.702  1.00  0.00     0.064 A 
ATOM     42  C   UNL A   1      48.192  26.773  26.356  1.00  0.00     0.173 A 
ATOM     43  C   UNL A   1      47.210  27.585  24.318  1.00  0.00     0.173 A 
ATOM     44  F   UNL A   1      48.169  26.605  27.688  1.00  0.00    -0.203 F 
ATOM     45  C   UNL A   1      49.345  26.422  25.658  1.00  0.00     0.198 A 
ATOM     46  C   UNL A   1      48.350  27.201  23.618  1.00  0.00     0.198 A 
ATOM     47  F   UNL A   1      46.216  28.188  23.648  1.00  0.00    -0.203 F 
ATOM     48  F   UNL A   1      50.401  25.924  26.316  1.00  0.00    -0.200 F 
ATOM     49  C   UNL A   1      49.422  26.636  24.290  1.00  0.00     0.200 A 
ATOM     50  F   UNL A   1      48.422  27.413  22.296  1.00  0.00    -0.200 F 
ATOM     51  F   UNL A   1      50.542  26.324  23.622  1.00  0.00    -0.200 F 
ENDBRANCH  27  41
BRANCH  28  52
ATOM     52  C   UNL A   1      38.983  30.423  30.803  1.00  0.00     0.064 A 
ATOM     53  C   UNL A   1      38.913  30.203  32.183  1.00  0.00     0.173 A 
ATOM     54  C   UNL A   1      37.902  31.078  30.192  1.00  0.00     0.173 A 
ATOM     55  F   UNL A   1      39.917  29.574  32.811  1.00  0.00    -0.203 F 
ATOM     56  C   UNL A   1      37.808  30.627  32.924  1.00  0.00     0.198 A 
ATOM     57  C   UNL A   1      36.803  31.509  30.933  1.00  0.00     0.198 A 
ATOM     58  F   UNL A   1      37.930  31.329  28.874  1.00  0.00    -0.203 F 
ATOM     59  F   UNL A   1      37.763  30.402  34.244  1.00  0.00    -0.200 F 
ATOM     60  C   UNL A   1      36.758  31.286  32.300  1.00  0.00     0.200 A 
ATOM     61  F   UNL A   1      35.802  32.163  30.327  1.00  0.00    -0.200 F 
ATOM     62  F   UNL A   1      35.708  31.709  33.016  1.00  0.00    -0.200 F 
ENDBRANCH  28  52
BRANCH  40  63
ATOM     63  C   UNL A   1      44.911  33.531  28.838  1.00  0.00     0.064 A 
ATOM     64  C   UNL A   1      44.630  34.508  27.875  1.00  0.00     0.173 A 
ATOM     65  C   UNL A   1      45.632  33.903  29.980  1.00  0.00     0.173 A 
ATOM     66  F   UNL A   1      43.966  34.185  26.755  1.00  0.00    -0.203 F 
ATOM     67  C   UNL A   1      45.066  35.816  28.050  1.00  0.00     0.198 A 
ATOM     68  C   UNL A   1      46.036  35.219  30.167  1.00  0.00     0.198 A 
ATOM     69  F   UNL A   1      45.926  32.994  30.922  1.00  0.00    -0.203 F 
ATOM     70  F   UNL A   1      44.825  36.732  27.101  1.00  0.00    -0.200 F 
ATOM     71  C   UNL A   1      45.756  36.172  29.200  1.00  0.00     0.200 A 
ATOM     72  F   UNL A   1      46.692  35.563  31.283  1.00  0.00    -0.200 F 
ATOM     73  F   UNL A   1      46.157  37.438  29.375  1.00  0.00    -0.200 F 
ENDBRANCH  40  63
ENDBRANCH  14  15
ENDBRANCH   7   9
ENDBRANCH   6   7
ENDBRANCH   5   6
ENDBRANCH   4   5
ENDBRANCH   3   4
ENDBRANCH   2   3
ENDBRANCH   1   2
BRANCH   1  74
ATOM     74  O   UNL A   1      34.163  21.786  24.288  1.00  0.00    -0.376 OA
BRANCH  74  75
ATOM     75  C   UNL A   1      33.150  22.514  24.980  1.00  0.00     0.202 C 
BRANCH  75  76
ATOM     76  C   UNL A   1      32.958  23.973  24.548  1.00  0.00     0.261 C 
BRANCH  76  77
ATOM     77  O   UNL A   1      32.795  24.314  23.149  1.00  0.00    -0.462 OA
BRANCH  77  78
ATOM     78  C   UNL A   1      33.121  25.514  22.611  1.00  0.00     0.328 C 
ATOM     79  O   UNL A   1      33.537  25.671  21.463  1.00  0.00    -0.250 OA
BRANCH  78  80
ATOM     80  C   UNL A   1      32.797  26.675  23.580  1.00  0.00     0.195 C 
ATOM     81  C   UNL A   1      33.602  27.948  23.297  1.00  0.00     0.037 C 
ATOM     82  N   UNL A   1      31.390  27.093  23.897  1.00  0.00    -0.325 N 
ATOM     83  C   UNL A   1      33.449  28.957  24.430  1.00  0.00     0.008 C 
ATOM     84  C   UNL A   1      31.269  27.921  25.141  1.00  0.00     0.089 C 
ATOM     85  C   UNL A   1      32.015  29.241  24.882  1.00  0.00     0.012 C 
ATOM     86  C   UNL A   1      31.711  27.227  26.452  1.00  0.00     0.025 C 
ATOM     87  C   UNL A   1      31.970  30.157  26.109  1.00  0.00     0.006 C 
ATOM     88  C   UNL A   1      31.933  28.155  27.659  1.00  0.00     0.002 C 
ATOM     89  C   UNL A   1      32.558  29.513  27.356  1.00  0.00     0.000 C 
BRANCH  82  90
ATOM     90  C   UNL A   1      30.450  27.427  22.899  1.00  0.00     0.229 C 
ATOM     91  O   UNL A   1      30.774  27.489  21.704  1.00  0.00    -0.274 OA
BRANCH  90  92
ATOM     92  C   UNL A   1      28.997  27.738  23.236  1.00  0.00     0.155 C 
BRANCH  92  93
ATOM     93  C   UNL A   1      28.631  29.139  22.893  1.00  0.00     0.044 A 
ATOM     94  C   UNL A   1      29.392  30.282  22.791  1.00  0.00     0.045 A 
ATOM     95  N   UNL A   1      27.360  29.524  22.553  1.00  0.00    -0.282 N 
ATOM     96  C   UNL A   1      28.463  31.321  22.628  1.00  0.00     0.135 A 
ATOM     97  N   UNL A   1      27.219  30.861  22.486  1.00  0.00    -0.184 NA
ATOM     98  H   UNL A   1      26.628  28.890  22.376  1.00  0.00     0.190 HD
ENDBRANCH  92  93
ENDBRANCH  90  92
ENDBRANCH  82  90
ENDBRANCH  78  80
ENDBRANCH  77  78
ENDBRANCH  76  77
ENDBRANCH  75  76
ENDBRANCH  74  75
ENDBRANCH   1  74
TORSDOF 20
ENDMDL
MODEL 3
REMARK VINA RESULT:     -11.5      5.189      9.379
REMARK SMILES O=C(OCCOCCOCCOC(=O)[C@H]1CC[C@@H]2CCCC[C@@H]2N1C(=O)Cc1ccn[nH]1)c1ccc(-c2c3nc(c(-c4c(F)c(F)c(F)c(F)c4F)c4ccc([nH]4)c(-c4c(F)c(F)c(F)c(F)c4F)c4nc(c(-c5c(F)c(F)c(F)c(F)c5F)c5ccc2[nH]5)C=C4)C=C3)cc1
REMARK SMILES IDX 8 1 7 2 6 3 5 4 4 5 3 6 2 7 1 8 33 9 34 10 95 11 35 12 94 13
REMARK SMILES IDX 36 14 37 15 38 16 88 17 39 18 93 19 87 20 89 21 40 22 92 23
REMARK SMILES IDX 86 24 85 25 41 27 73 28 53 29 72 30 54 31 57 32 71 33 90 34
REMARK SMILES IDX 55 35 56 36 70 38 91 39 58 40 42 41 43 42 51 43 44 44 45 45
REMARK SMILES IDX 49 46 52 47 46 48 47 49 50 50 48 51 74 52 75 53 83 54 76 55
REMARK SMILES IDX 77 56 81 57 84 58 78 59 79 60 82 61 80 62 59 63 60 64 68 65
REMARK SMILES IDX 61 66 62 67 66 68 69 69 63 70 64 71 67 72 65 73 9 74 10 75
REMARK SMILES IDX 11 76 12 77 13 78 14 79 15 80 16 81 24 82 17 83 23 84 18 85
REMARK SMILES IDX 22 86 19 87 21 88 20 89 25 90 26 91 27 92 28 93 29 94 32 95
REMARK SMILES IDX 30 96 31 97
REMARK H PARENT 89 26 57 37 32 98
REMARK Flexibility Score: inf
ROOT
ATOM      1  C   UNL A   1      35.418  24.124  25.359  1.00  0.00     0.188 C 
ENDROOT
BRANCH   1   2
ATOM      2  C   UNL A   1      36.234  23.017  26.020  1.00  0.00     0.188 C 
BRANCH   2   3
ATOM      3  O   UNL A   1      37.573  22.850  25.577  1.00  0.00    -0.376 OA
BRANCH   3   4
ATOM      4  C   UNL A   1      38.058  21.522  25.431  1.00  0.00     0.202 C 
BRANCH   4   5
ATOM      5  C   UNL A   1      39.413  21.174  26.064  1.00  0.00     0.261 C 
BRANCH   5   6
ATOM      6  O   UNL A   1      40.048  19.898  25.817  1.00  0.00    -0.460 OA
BRANCH   6   7
ATOM      7  C   UNL A   1      41.321  19.617  26.170  1.00  0.00     0.338 C 
ATOM      8  O   UNL A   1      41.857  18.524  26.058  1.00  0.00    -0.246 OA
BRANCH   7   9
ATOM      9  C   UNL A   1      42.091  20.864  26.411  1.00  0.00     0.060 A 
ATOM     10  C   UNL A   1      42.231  21.401  27.695  1.00  0.00     0.016 A 
ATOM     11  C   UNL A   1      42.666  21.528  25.324  1.00  0.00     0.016 A 
ATOM     12  C   UNL A   1      42.954  22.557  27.923  1.00  0.00     0.010 A 
ATOM     13  C   UNL A   1      43.326  22.741  25.531  1.00  0.00     0.010 A 
ATOM     14  C   UNL A   1      43.440  23.265  26.830  1.00  0.00    -0.014 A 
BRANCH  14  15
ATOM     15  C   UNL A   1      43.739  24.692  27.022  1.00  0.00     0.031 A 
ATOM     16  C   UNL A   1      45.145  25.124  26.804  1.00  0.00     0.074 A 
ATOM     17  C   UNL A   1      42.783  25.600  27.257  1.00  0.00     0.049 A 
ATOM     18  N   UNL A   1      45.681  26.296  26.987  1.00  0.00    -0.248 NA
ATOM     19  C   UNL A   1      46.059  24.112  26.248  1.00  0.00     0.031 C 
ATOM     20  C   UNL A   1      41.363  25.322  27.182  1.00  0.00     0.029 A 
ATOM     21  N   UNL A   1      42.845  26.920  27.607  1.00  0.00    -0.354 N 
ATOM     22  C   UNL A   1      46.989  26.169  26.559  1.00  0.00     0.074 A 
ATOM     23  C   UNL A   1      47.178  24.803  26.127  1.00  0.00     0.031 C 
ATOM     24  C   UNL A   1      40.679  26.398  27.599  1.00  0.00     0.029 A 
ATOM     25  C   UNL A   1      41.624  27.427  27.975  1.00  0.00     0.049 A 
ATOM     26  H   UNL A   1      43.676  27.448  27.596  1.00  0.00     0.167 HD
ATOM     27  C   UNL A   1      47.939  27.127  26.540  1.00  0.00     0.037 A 
ATOM     28  C   UNL A   1      41.305  28.579  28.590  1.00  0.00     0.037 A 
ATOM     29  C   UNL A   1      47.709  28.457  27.033  1.00  0.00     0.049 A 
ATOM     30  C   UNL A   1      42.411  29.558  28.788  1.00  0.00     0.074 A 
ATOM     31  C   UNL A   1      48.601  29.503  27.148  1.00  0.00     0.029 A 
ATOM     32  N   UNL A   1      46.487  28.911  27.523  1.00  0.00    -0.354 N 
ATOM     33  N   UNL A   1      43.675  29.423  28.467  1.00  0.00    -0.248 NA
ATOM     34  C   UNL A   1      42.059  30.851  29.376  1.00  0.00     0.031 C 
ATOM     35  C   UNL A   1      47.939  30.563  27.778  1.00  0.00     0.029 A 
ATOM     36  C   UNL A   1      46.612  30.209  27.985  1.00  0.00     0.049 A 
ATOM     37  H   UNL A   1      45.655  28.384  27.539  1.00  0.00     0.167 HD
ATOM     38  C   UNL A   1      44.270  30.633  28.759  1.00  0.00     0.074 A 
ATOM     39  C   UNL A   1      43.227  31.481  29.314  1.00  0.00     0.031 C 
ATOM     40  C   UNL A   1      45.553  31.013  28.550  1.00  0.00     0.037 A 
BRANCH  27  41
ATOM     41  C   UNL A   1      49.301  26.691  26.095  1.00  0.00     0.064 A 
ATOM     42  C   UNL A   1      50.248  26.161  26.986  1.00  0.00     0.173 A 
ATOM     43  C   UNL A   1      49.705  26.930  24.774  1.00  0.00     0.173 A 
ATOM     44  F   UNL A   1      49.927  25.958  28.273  1.00  0.00    -0.203 F 
ATOM     45  C   UNL A   1      51.563  25.939  26.582  1.00  0.00     0.198 A 
ATOM     46  C   UNL A   1      51.010  26.674  24.366  1.00  0.00     0.198 A 
ATOM     47  F   UNL A   1      48.844  27.454  23.888  1.00  0.00    -0.203 F 
ATOM     48  F   UNL A   1      52.476  25.526  27.473  1.00  0.00    -0.200 F 
ATOM     49  C   UNL A   1      51.942  26.195  25.273  1.00  0.00     0.200 A 
ATOM     50  F   UNL A   1      51.373  26.926  23.101  1.00  0.00    -0.200 F 
ATOM     51  F   UNL A   1      53.213  26.007  24.892  1.00  0.00    -0.200 F 
ENDBRANCH  27  41
BRANCH  28  52
ATOM     52  C   UNL A   1      39.921  28.815  29.065  1.00  0.00     0.064 A 
ATOM     53  C   UNL A   1      38.924  29.316  28.221  1.00  0.00     0.173 A 
ATOM     54  C   UNL A   1      39.554  28.474  30.377  1.00  0.00     0.173 A 
ATOM     55  F   UNL A   1      39.226  29.663  26.962  1.00  0.00    -0.203 F 
ATOM     56  C   UNL A   1      37.610  29.463  28.669  1.00  0.00     0.198 A 
ATOM     57  C   UNL A   1      38.240  28.614  30.821  1.00  0.00     0.198 A 
ATOM     58  F   UNL A   1      40.471  27.973  31.219  1.00  0.00    -0.203 F 
ATOM     59  F   UNL A   1      36.673  29.948  27.843  1.00  0.00    -0.200 F 
ATOM     60  C   UNL A   1      37.268  29.105  29.965  1.00  0.00     0.200 A 
ATOM     61  F   UNL A   1      37.914  28.247  32.068  1.00  0.00    -0.200 F 
ATOM     62  F   UNL A   1      36.002  29.230  30.387  1.00  0.00    -0.200 F 
ENDBRANCH  28  52
BRANCH  40  63
ATOM     63  C   UNL A   1      45.885  32.429  28.888  1.00  0.00     0.064 A 
ATOM     64  C   UNL A   1      46.477  32.775  30.110  1.00  0.00     0.173 A 
ATOM     65  C   UNL A   1      45.653  33.440  27.946  1.00  0.00     0.173 A 
ATOM     66  F   UNL A   1      46.689  31.841  31.048  1.00  0.00    -0.203 F 
ATOM     67  C   UNL A   1      46.818  34.095  30.379  1.00  0.00     0.198 A 
ATOM     68  C   UNL A   1      46.027  34.751  28.205  1.00  0.00     0.198 A 
ATOM     69  F   UNL A   1      45.083  33.148  26.767  1.00  0.00    -0.203 F 
ATOM     70  F   UNL A   1      47.347  34.418  31.567  1.00  0.00    -0.200 F 
ATOM     71  C   UNL A   1      46.605  35.078  29.422  1.00  0.00     0.200 A 
ATOM     72  F   UNL A   1      45.831  35.697  27.277  1.00  0.00    -0.200 F 
ATOM     73  F   UNL A   1      46.954  36.346  29.677  1.00  0.00    -0.200 F 
ENDBRANCH  40  63
ENDBRANCH  14  15
ENDBRANCH   7   9
ENDBRANCH   6   7
ENDBRANCH   5   6
ENDBRANCH   4   5
ENDBRANCH   3   4
ENDBRANCH   2   3
ENDBRANCH   1   2
BRANCH   1  74
ATOM     74  O   UNL A   1      35.197  23.931  23.972  1.00  0.00    -0.376 OA
BRANCH  74  75
ATOM     75  C   UNL A   1      34.379  22.809  23.646  1.00  0.00     0.202 C 
BRANCH  75  76
ATOM     76  C   UNL A   1      33.373  23.018  22.508  1.00  0.00     0.261 C 
BRANCH  76  77
ATOM     77  O   UNL A   1      32.709  24.295  22.336  1.00  0.00    -0.462 OA
BRANCH  77  78
ATOM     78  C   UNL A   1      31.620  24.691  23.038  1.00  0.00     0.328 C 
ATOM     79  O   UNL A   1      30.576  24.045  23.124  1.00  0.00    -0.250 OA
BRANCH  78  80
ATOM     80  C   UNL A   1      31.892  26.002  23.812  1.00  0.00     0.195 C 
ATOM     81  C   UNL A   1      33.152  26.737  23.343  1.00  0.00     0.037 C 
ATOM     82  N   UNL A   1      30.829  27.036  24.047  1.00  0.00    -0.325 N 
ATOM     83  C   UNL A   1      33.520  27.862  24.305  1.00  0.00     0.008 C 
ATOM     84  C   UNL A   1      31.153  28.002  25.146  1.00  0.00     0.089 C 
ATOM     85  C   UNL A   1      32.383  28.808  24.694  1.00  0.00     0.012 C 
ATOM     86  C   UNL A   1      31.326  27.380  26.553  1.00  0.00     0.025 C 
ATOM     87  C   UNL A   1      32.814  29.816  25.764  1.00  0.00     0.006 C 
ATOM     88  C   UNL A   1      32.001  28.278  27.604  1.00  0.00     0.002 C 
ATOM     89  C   UNL A   1      33.136  29.165  27.101  1.00  0.00     0.000 C 
BRANCH  82  90
ATOM     90  C   UNL A   1      30.070  27.602  23.000  1.00  0.00     0.229 C 
ATOM     91  O   UNL A   1      30.536  27.721  21.858  1.00  0.00    -0.274 OA
BRANCH  90  92
ATOM     92  C   UNL A   1      28.648  28.104  23.220  1.00  0.00     0.155 C 
BRANCH  92  93
ATOM     93  C   UNL A   1      28.483  29.519  22.790  1.00  0.00     0.044 A 
ATOM     94  C   UNL A   1      28.673  30.705  23.464  1.00  0.00     0.045 A 
ATOM     95  N   UNL A   1      28.119  29.885  21.520  1.00  0.00    -0.282 N 
ATOM     96  C   UNL A   1      28.173  31.694  22.604  1.00  0.00     0.135 A 
ATOM     97  N   UNL A   1      27.830  31.194  21.415  1.00  0.00    -0.184 NA
ATOM     98  H   UNL A   1      28.075  29.255  20.764  1.00  0.00     0.190 HD
ENDBRANCH  92  93
ENDBRANCH  90  92
ENDBRANCH  82  90
ENDBRANCH  78  80
ENDBRANCH  77  78
ENDBRANCH  76  77
ENDBRANCH  75  76
ENDBRANCH  74  75
ENDBRANCH   1  74
TORSDOF 20
ENDMDL
