MODEL 1
REMARK VINA RESULT:     -11.6      0.000      0.000
REMARK SMILES O=C(Cn1c(SCCc2ccccc2)nc2ccccc21)OCCOCCOCCOC(=O)c1ccc(-c2c3nc(c(-c4c(F)c(F)c(F)c(F)c4F)c4ccc([nH]4)c(-c4c(F)c(F)c(F)c(F)c4F)c4nc(c(-c5c(F)c(F)c(F)c(F)c5F)c5ccc2[nH]5)C=C4)C=C3)cc1
REMARK SMILES IDX 25 1 24 2 23 3 22 4 2 5 1 6 3 7 4 8 5 9 21 10 15 11 16 12
REMARK SMILES IDX 20 13 17 14 19 15 18 16 6 17 7 18 8 19 9 20 10 21 14 22
REMARK SMILES IDX 11 23 13 24 12 25 26 26 27 27 28 28 29 29 30 30 31 31 32 32
REMARK SMILES IDX 33 33 34 34 35 35 96 36 36 37 95 38 37 39 38 40 39 41 89 42
REMARK SMILES IDX 40 43 94 44 88 45 90 46 41 47 93 48 87 49 86 50 42 52 74 53
REMARK SMILES IDX 54 54 73 55 55 56 58 57 72 58 91 59 56 60 57 61 71 63 92 64
REMARK SMILES IDX 59 65 43 66 44 67 52 68 45 69 46 70 50 71 53 72 47 73 48 74
REMARK SMILES IDX 51 75 49 76 75 77 76 78 84 79 77 80 78 81 82 82 85 83 79 84
REMARK SMILES IDX 80 85 83 86 81 87 60 88 61 89 69 90 62 91 63 92 67 93 70 94
REMARK SMILES IDX 64 95 65 96 68 97 66 98
REMARK H PARENT 90 51 58 62
REMARK Flexibility Score: inf
ROOT
ATOM      1  O   UNL A   1      40.002  22.135  26.098  1.00  0.00    -0.376 OA
ENDROOT
BRANCH   1   2
ATOM      2  C   UNL A   1      38.598  22.041  25.868  1.00  0.00     0.202 C 
BRANCH   2   3
ATOM      3  C   UNL A   1      37.898  23.393  26.040  1.00  0.00     0.261 C 
BRANCH   3   4
ATOM      4  O   UNL A   1      36.465  23.295  25.941  1.00  0.00    -0.462 OA
BRANCH   4   5
ATOM      5  C   UNL A   1      35.824  22.414  25.128  1.00  0.00     0.326 C 
ATOM      6  O   UNL A   1      35.742  22.657  23.925  1.00  0.00    -0.250 OA
BRANCH   5   7
ATOM      7  C   UNL A   1      35.091  21.252  25.739  1.00  0.00     0.247 C 
BRANCH   7   8
ATOM      8  N   UNL A   1      33.957  20.763  24.995  1.00  0.00    -0.308 N 
ATOM      9  C   UNL A   1      32.710  21.286  24.789  1.00  0.00     0.169 A 
ATOM     10  C   UNL A   1      33.914  19.483  24.462  1.00  0.00     0.069 A 
ATOM     11  N   UNL A   1      32.097  20.661  23.808  1.00  0.00    -0.222 NA
ATOM     12  C   UNL A   1      32.785  19.495  23.655  1.00  0.00     0.090 A 
ATOM     13  C   UNL A   1      34.702  18.339  24.638  1.00  0.00     0.028 A 
ATOM     14  C   UNL A   1      32.456  18.362  22.906  1.00  0.00     0.030 A 
ATOM     15  C   UNL A   1      34.329  17.197  23.929  1.00  0.00     0.002 A 
ATOM     16  C   UNL A   1      33.237  17.212  23.060  1.00  0.00     0.002 A 
BRANCH   9  17
ATOM     17  S   UNL A   1      31.803  22.369  25.762  1.00  0.00    -0.088 SA
BRANCH  17  18
ATOM     18  C   UNL A   1      32.390  24.026  25.567  1.00  0.00     0.083 C 
BRANCH  18  19
ATOM     19  C   UNL A   1      31.793  25.153  26.415  1.00  0.00     0.047 C 
BRANCH  19  20
ATOM     20  C   UNL A   1      32.306  26.568  26.488  1.00  0.00    -0.047 A 
ATOM     21  C   UNL A   1      33.621  26.876  26.136  1.00  0.00     0.004 A 
ATOM     22  C   UNL A   1      31.506  27.589  27.037  1.00  0.00     0.004 A 
ATOM     23  C   UNL A   1      34.113  28.173  26.295  1.00  0.00     0.000 A 
ATOM     24  C   UNL A   1      32.005  28.877  27.226  1.00  0.00     0.000 A 
ATOM     25  C   UNL A   1      33.312  29.170  26.849  1.00  0.00     0.000 A 
ENDBRANCH  19  20
ENDBRANCH  18  19
ENDBRANCH  17  18
ENDBRANCH   9  17
ENDBRANCH   7   8
ENDBRANCH   5   7
ENDBRANCH   4   5
ENDBRANCH   3   4
ENDBRANCH   2   3
ENDBRANCH   1   2
BRANCH   1  26
ATOM     26  C   UNL A   1      40.428  21.706  27.385  1.00  0.00     0.188 C 
BRANCH  26  27
ATOM     27  C   UNL A   1      41.091  20.323  27.432  1.00  0.00     0.188 C 
BRANCH  27  28
ATOM     28  O   UNL A   1      42.337  20.150  26.774  1.00  0.00    -0.376 OA
BRANCH  28  29
ATOM     29  C   UNL A   1      42.437  19.158  25.752  1.00  0.00     0.202 C 
BRANCH  29  30
ATOM     30  C   UNL A   1      43.842  18.811  25.248  1.00  0.00     0.261 C 
BRANCH  30  31
ATOM     31  O   UNL A   1      44.271  19.709  24.211  1.00  0.00    -0.460 OA
BRANCH  31  32
ATOM     32  C   UNL A   1      45.496  20.262  24.384  1.00  0.00     0.338 C 
ATOM     33  O   UNL A   1      46.589  19.779  24.130  1.00  0.00    -0.246 OA
BRANCH  32  34
ATOM     34  C   UNL A   1      45.290  21.649  24.812  1.00  0.00     0.060 A 
ATOM     35  C   UNL A   1      45.970  22.119  25.919  1.00  0.00     0.016 A 
ATOM     36  C   UNL A   1      44.345  22.456  24.158  1.00  0.00     0.016 A 
ATOM     37  C   UNL A   1      45.617  23.364  26.420  1.00  0.00     0.010 A 
ATOM     38  C   UNL A   1      43.967  23.694  24.696  1.00  0.00     0.010 A 
ATOM     39  C   UNL A   1      44.553  24.138  25.876  1.00  0.00    -0.014 A 
BRANCH  39  40
ATOM     40  C   UNL A   1      44.183  25.387  26.603  1.00  0.00     0.031 A 
ATOM     41  C   UNL A   1      45.255  26.415  26.559  1.00  0.00     0.074 A 
ATOM     42  C   UNL A   1      43.082  25.665  27.352  1.00  0.00     0.049 A 
ATOM     43  N   UNL A   1      45.903  26.885  27.577  1.00  0.00    -0.248 NA
ATOM     44  C   UNL A   1      45.797  26.811  25.248  1.00  0.00     0.031 C 
ATOM     45  C   UNL A   1      41.875  24.853  27.493  1.00  0.00     0.029 A 
ATOM     46  N   UNL A   1      42.804  26.759  28.167  1.00  0.00    -0.354 N 
ATOM     47  C   UNL A   1      46.812  27.782  27.041  1.00  0.00     0.074 A 
ATOM     48  C   UNL A   1      46.819  27.584  25.614  1.00  0.00     0.031 C 
ATOM     49  C   UNL A   1      40.937  25.545  28.175  1.00  0.00     0.029 A 
ATOM     50  C   UNL A   1      41.478  26.829  28.599  1.00  0.00     0.049 A 
ATOM     51  H   UNL A   1      43.484  27.425  28.417  1.00  0.00     0.167 HD
ATOM     52  C   UNL A   1      47.231  28.844  27.771  1.00  0.00     0.037 A 
ATOM     53  C   UNL A   1      40.824  27.847  29.226  1.00  0.00     0.037 A 
ATOM     54  C   UNL A   1      47.156  28.613  29.185  1.00  0.00     0.049 A 
ATOM     55  C   UNL A   1      41.786  28.701  29.961  1.00  0.00     0.074 A 
ATOM     56  C   UNL A   1      47.905  27.949  30.128  1.00  0.00     0.029 A 
ATOM     57  N   UNL A   1      45.941  28.871  29.751  1.00  0.00    -0.354 N 
ATOM     58  N   UNL A   1      42.264  28.422  31.137  1.00  0.00    -0.248 NA
ATOM     59  C   UNL A   1      42.392  29.855  29.307  1.00  0.00     0.031 C 
ATOM     60  C   UNL A   1      47.074  27.798  31.277  1.00  0.00     0.029 A 
ATOM     61  C   UNL A   1      45.845  28.411  31.040  1.00  0.00     0.049 A 
ATOM     62  H   UNL A   1      45.211  29.338  29.283  1.00  0.00     0.167 HD
ATOM     63  C   UNL A   1      43.484  29.053  31.181  1.00  0.00     0.074 A 
ATOM     64  C   UNL A   1      43.422  30.062  30.132  1.00  0.00     0.031 C 
ATOM     65  C   UNL A   1      44.561  28.429  31.740  1.00  0.00     0.037 A 
BRANCH  52  66
ATOM     66  C   UNL A   1      47.199  30.230  27.179  1.00  0.00     0.064 A 
ATOM     67  C   UNL A   1      48.319  31.071  27.268  1.00  0.00     0.173 A 
ATOM     68  C   UNL A   1      45.995  30.855  26.772  1.00  0.00     0.173 A 
ATOM     69  F   UNL A   1      49.490  30.597  27.719  1.00  0.00    -0.203 F 
ATOM     70  C   UNL A   1      48.236  32.434  26.964  1.00  0.00     0.198 A 
ATOM     71  C   UNL A   1      45.929  32.193  26.409  1.00  0.00     0.198 A 
ATOM     72  F   UNL A   1      44.816  30.218  26.825  1.00  0.00    -0.203 F 
ATOM     73  F   UNL A   1      49.302  33.225  27.148  1.00  0.00    -0.200 F 
ATOM     74  C   UNL A   1      47.046  32.990  26.523  1.00  0.00     0.200 A 
ATOM     75  F   UNL A   1      44.755  32.715  26.024  1.00  0.00    -0.200 F 
ATOM     76  F   UNL A   1      46.959  34.300  26.258  1.00  0.00    -0.200 F 
ENDBRANCH  52  66
BRANCH  53  77
ATOM     77  C   UNL A   1      39.375  28.222  29.194  1.00  0.00     0.064 A 
ATOM     78  C   UNL A   1      38.598  28.276  30.373  1.00  0.00     0.173 A 
ATOM     79  C   UNL A   1      38.796  28.818  28.059  1.00  0.00     0.173 A 
ATOM     80  F   UNL A   1      39.057  27.763  31.523  1.00  0.00    -0.203 F 
ATOM     81  C   UNL A   1      37.363  28.937  30.421  1.00  0.00     0.198 A 
ATOM     82  C   UNL A   1      37.555  29.461  28.104  1.00  0.00     0.198 A 
ATOM     83  F   UNL A   1      39.458  28.887  26.897  1.00  0.00    -0.203 F 
ATOM     84  F   UNL A   1      36.704  29.045  31.583  1.00  0.00    -0.200 F 
ATOM     85  C   UNL A   1      36.851  29.544  29.288  1.00  0.00     0.200 A 
ATOM     86  F   UNL A   1      37.086  30.066  27.004  1.00  0.00    -0.200 F 
ATOM     87  F   UNL A   1      35.712  30.246  29.348  1.00  0.00    -0.200 F 
ENDBRANCH  53  77
BRANCH  65  88
ATOM     88  C   UNL A   1      44.381  27.600  32.999  1.00  0.00     0.064 A 
ATOM     89  C   UNL A   1      44.288  28.077  34.321  1.00  0.00     0.173 A 
ATOM     90  C   UNL A   1      44.211  26.210  32.839  1.00  0.00     0.173 A 
ATOM     91  F   UNL A   1      44.361  29.383  34.616  1.00  0.00    -0.203 F 
ATOM     92  C   UNL A   1      43.979  27.228  35.391  1.00  0.00     0.198 A 
ATOM     93  C   UNL A   1      43.847  25.376  33.895  1.00  0.00     0.198 A 
ATOM     94  F   UNL A   1      44.379  25.641  31.633  1.00  0.00    -0.203 F 
ATOM     95  F   UNL A   1      43.868  27.732  36.630  1.00  0.00    -0.200 F 
ATOM     96  C   UNL A   1      43.720  25.888  35.172  1.00  0.00     0.200 A 
ATOM     97  F   UNL A   1      43.610  24.077  33.665  1.00  0.00    -0.200 F 
ATOM     98  F   UNL A   1      43.353  25.090  36.184  1.00  0.00    -0.200 F 
ENDBRANCH  65  88
ENDBRANCH  39  40
ENDBRANCH  32  34
ENDBRANCH  31  32
ENDBRANCH  30  31
ENDBRANCH  29  30
ENDBRANCH  28  29
ENDBRANCH  27  28
ENDBRANCH  26  27
ENDBRANCH   1  26
TORSDOF 22
ENDMDL
MODEL 2
REMARK VINA RESULT:     -11.2      1.013      3.837
REMARK SMILES O=C(Cn1c(SCCc2ccccc2)nc2ccccc21)OCCOCCOCCOC(=O)c1ccc(-c2c3nc(c(-c4c(F)c(F)c(F)c(F)c4F)c4ccc([nH]4)c(-c4c(F)c(F)c(F)c(F)c4F)c4nc(c(-c5c(F)c(F)c(F)c(F)c5F)c5ccc2[nH]5)C=C4)C=C3)cc1
REMARK SMILES IDX 25 1 24 2 23 3 22 4 2 5 1 6 3 7 4 8 5 9 21 10 15 11 16 12
REMARK SMILES IDX 20 13 17 14 19 15 18 16 6 17 7 18 8 19 9 20 10 21 14 22
REMARK SMILES IDX 11 23 13 24 12 25 26 26 27 27 28 28 29 29 30 30 31 31 32 32
REMARK SMILES IDX 33 33 34 34 35 35 96 36 36 37 95 38 37 39 38 40 39 41 89 42
REMARK SMILES IDX 40 43 94 44 88 45 90 46 41 47 93 48 87 49 86 50 42 52 74 53
REMARK SMILES IDX 54 54 73 55 55 56 58 57 72 58 91 59 56 60 57 61 71 63 92 64
REMARK SMILES IDX 59 65 43 66 44 67 52 68 45 69 46 70 50 71 53 72 47 73 48 74
REMARK SMILES IDX 51 75 49 76 75 77 76 78 84 79 77 80 78 81 82 82 85 83 79 84
REMARK SMILES IDX 80 85 83 86 81 87 60 88 61 89 69 90 62 91 63 92 67 93 70 94
REMARK SMILES IDX 64 95 65 96 68 97 66 98
REMARK H PARENT 90 51 58 62
REMARK Flexibility Score: inf
ROOT
ATOM      1  O   UNL A   1      40.634  21.887  25.885  1.00  0.00    -0.376 OA
ENDROOT
BRANCH   1   2
ATOM      2  C   UNL A   1      39.228  21.652  25.876  1.00  0.00     0.202 C 
BRANCH   2   3
ATOM      3  C   UNL A   1      38.440  22.874  26.357  1.00  0.00     0.261 C 
BRANCH   3   4
ATOM      4  O   UNL A   1      37.775  23.566  25.282  1.00  0.00    -0.462 OA
BRANCH   4   5
ATOM      5  C   UNL A   1      36.425  23.627  25.145  1.00  0.00     0.326 C 
ATOM      6  O   UNL A   1      35.940  23.770  24.024  1.00  0.00    -0.250 OA
BRANCH   5   7
ATOM      7  C   UNL A   1      35.565  23.682  26.378  1.00  0.00     0.247 C 
BRANCH   7   8
ATOM      8  N   UNL A   1      34.142  23.623  26.154  1.00  0.00    -0.308 N 
ATOM      9  C   UNL A   1      33.314  22.582  25.837  1.00  0.00     0.169 A 
ATOM     10  C   UNL A   1      33.357  24.763  26.061  1.00  0.00     0.069 A 
ATOM     11  N   UNL A   1      32.054  22.914  26.021  1.00  0.00    -0.222 NA
ATOM     12  C   UNL A   1      32.057  24.275  26.073  1.00  0.00     0.090 A 
ATOM     13  C   UNL A   1      33.648  26.126  25.924  1.00  0.00     0.028 A 
ATOM     14  C   UNL A   1      30.981  25.167  26.045  1.00  0.00     0.030 A 
ATOM     15  C   UNL A   1      32.565  27.001  25.839  1.00  0.00     0.002 A 
ATOM     16  C   UNL A   1      31.252  26.534  25.920  1.00  0.00     0.002 A 
BRANCH   9  17
ATOM     17  S   UNL A   1      33.661  21.117  25.016  1.00  0.00    -0.088 SA
BRANCH  17  18
ATOM     18  C   UNL A   1      32.432  20.781  23.791  1.00  0.00     0.083 C 
BRANCH  18  19
ATOM     19  C   UNL A   1      32.349  19.392  23.151  1.00  0.00     0.047 C 
BRANCH  19  20
ATOM     20  C   UNL A   1      32.765  18.096  23.798  1.00  0.00    -0.047 A 
ATOM     21  C   UNL A   1      32.274  17.727  25.052  1.00  0.00     0.004 A 
ATOM     22  C   UNL A   1      33.757  17.289  23.207  1.00  0.00     0.004 A 
ATOM     23  C   UNL A   1      32.734  16.570  25.682  1.00  0.00     0.000 A 
ATOM     24  C   UNL A   1      34.241  16.151  23.849  1.00  0.00     0.000 A 
ATOM     25  C   UNL A   1      33.724  15.789  25.088  1.00  0.00     0.000 A 
ENDBRANCH  19  20
ENDBRANCH  18  19
ENDBRANCH  17  18
ENDBRANCH   9  17
ENDBRANCH   7   8
ENDBRANCH   5   7
ENDBRANCH   4   5
ENDBRANCH   3   4
ENDBRANCH   2   3
ENDBRANCH   1   2
BRANCH   1  26
ATOM     26  C   UNL A   1      41.278  21.626  27.125  1.00  0.00     0.188 C 
BRANCH  26  27
ATOM     27  C   UNL A   1      41.170  20.181  27.631  1.00  0.00     0.188 C 
BRANCH  27  28
ATOM     28  O   UNL A   1      42.247  19.293  27.368  1.00  0.00    -0.376 OA
BRANCH  28  29
ATOM     29  C   UNL A   1      42.351  18.713  26.068  1.00  0.00     0.202 C 
BRANCH  29  30
ATOM     30  C   UNL A   1      43.728  18.748  25.395  1.00  0.00     0.261 C 
BRANCH  30  31
ATOM     31  O   UNL A   1      43.900  19.934  24.601  1.00  0.00    -0.460 OA
BRANCH  31  32
ATOM     32  C   UNL A   1      45.119  20.522  24.683  1.00  0.00     0.338 C 
ATOM     33  O   UNL A   1      46.208  20.052  24.391  1.00  0.00    -0.246 OA
BRANCH  32  34
ATOM     34  C   UNL A   1      44.901  21.922  25.062  1.00  0.00     0.060 A 
ATOM     35  C   UNL A   1      45.605  22.446  26.129  1.00  0.00     0.016 A 
ATOM     36  C   UNL A   1      43.923  22.686  24.405  1.00  0.00     0.016 A 
ATOM     37  C   UNL A   1      45.245  23.704  26.590  1.00  0.00     0.010 A 
ATOM     38  C   UNL A   1      43.540  23.938  24.904  1.00  0.00     0.010 A 
ATOM     39  C   UNL A   1      44.152  24.439  26.048  1.00  0.00    -0.014 A 
BRANCH  39  40
ATOM     40  C   UNL A   1      43.782  25.710  26.735  1.00  0.00     0.031 A 
ATOM     41  C   UNL A   1      44.850  26.739  26.652  1.00  0.00     0.074 A 
ATOM     42  C   UNL A   1      42.684  26.009  27.481  1.00  0.00     0.049 A 
ATOM     43  N   UNL A   1      45.502  27.244  27.650  1.00  0.00    -0.248 NA
ATOM     44  C   UNL A   1      45.384  27.094  25.326  1.00  0.00     0.031 C 
ATOM     45  C   UNL A   1      41.480  25.198  27.654  1.00  0.00     0.029 A 
ATOM     46  N   UNL A   1      42.406  27.128  28.261  1.00  0.00    -0.354 N 
ATOM     47  C   UNL A   1      46.405  28.126  27.080  1.00  0.00     0.074 A 
ATOM     48  C   UNL A   1      46.405  27.882  25.660  1.00  0.00     0.031 C 
ATOM     49  C   UNL A   1      40.543  25.910  28.319  1.00  0.00     0.029 A 
ATOM     50  C   UNL A   1      41.083  27.208  28.697  1.00  0.00     0.049 A 
ATOM     51  H   UNL A   1      43.085  27.804  28.485  1.00  0.00     0.167 HD
ATOM     52  C   UNL A   1      46.825  29.213  27.773  1.00  0.00     0.037 A 
ATOM     53  C   UNL A   1      40.429  28.244  29.294  1.00  0.00     0.037 A 
ATOM     54  C   UNL A   1      46.758  29.028  29.194  1.00  0.00     0.049 A 
ATOM     55  C   UNL A   1      41.392  29.125  29.996  1.00  0.00     0.074 A 
ATOM     56  C   UNL A   1      47.514  28.398  30.155  1.00  0.00     0.029 A 
ATOM     57  N   UNL A   1      45.545  29.301  29.758  1.00  0.00    -0.354 N 
ATOM     58  N   UNL A   1      41.876  28.886  31.178  1.00  0.00    -0.248 NA
ATOM     59  C   UNL A   1      41.990  30.259  29.301  1.00  0.00     0.031 C 
ATOM     60  C   UNL A   1      46.689  28.282  31.312  1.00  0.00     0.029 A 
ATOM     61  C   UNL A   1      45.457  28.883  31.062  1.00  0.00     0.049 A 
ATOM     62  H   UNL A   1      44.811  29.750  29.278  1.00  0.00     0.167 HD
ATOM     63  C   UNL A   1      43.095  29.521  31.194  1.00  0.00     0.074 A 
ATOM     64  C   UNL A   1      43.023  30.496  30.113  1.00  0.00     0.031 C 
ATOM     65  C   UNL A   1      44.177  28.920  31.767  1.00  0.00     0.037 A 
BRANCH  52  66
ATOM     66  C   UNL A   1      46.784  30.579  27.136  1.00  0.00     0.064 A 
ATOM     67  C   UNL A   1      47.918  31.406  27.149  1.00  0.00     0.173 A 
ATOM     68  C   UNL A   1      45.572  31.206  26.759  1.00  0.00     0.173 A 
ATOM     69  F   UNL A   1      49.101  30.931  27.566  1.00  0.00    -0.203 F 
ATOM     70  C   UNL A   1      47.839  32.759  26.802  1.00  0.00     0.198 A 
ATOM     71  C   UNL A   1      45.508  32.533  26.354  1.00  0.00     0.198 A 
ATOM     72  F   UNL A   1      44.389  30.589  26.883  1.00  0.00    -0.203 F 
ATOM     73  F   UNL A   1      48.922  33.541  26.914  1.00  0.00    -0.200 F 
ATOM     74  C   UNL A   1      46.639  33.317  26.393  1.00  0.00     0.200 A 
ATOM     75  F   UNL A   1      44.325  33.057  26.000  1.00  0.00    -0.200 F 
ATOM     76  F   UNL A   1      46.557  34.619  26.087  1.00  0.00    -0.200 F 
ENDBRANCH  52  66
BRANCH  53  77
ATOM     77  C   UNL A   1      38.978  28.613  29.258  1.00  0.00     0.064 A 
ATOM     78  C   UNL A   1      38.194  28.651  30.433  1.00  0.00     0.173 A 
ATOM     79  C   UNL A   1      38.403  29.219  28.126  1.00  0.00     0.173 A 
ATOM     80  F   UNL A   1      38.649  28.129  31.580  1.00  0.00    -0.203 F 
ATOM     81  C   UNL A   1      36.956  29.307  30.480  1.00  0.00     0.198 A 
ATOM     82  C   UNL A   1      37.159  29.856  28.170  1.00  0.00     0.198 A 
ATOM     83  F   UNL A   1      39.071  29.302  26.968  1.00  0.00    -0.203 F 
ATOM     84  F   UNL A   1      36.290  29.400  31.640  1.00  0.00    -0.200 F 
ATOM     85  C   UNL A   1      36.448  29.924  29.351  1.00  0.00     0.200 A 
ATOM     86  F   UNL A   1      36.693  30.469  27.073  1.00  0.00    -0.200 F 
ATOM     87  F   UNL A   1      35.306  30.620  29.411  1.00  0.00    -0.200 F 
ENDBRANCH  53  77
BRANCH  65  88
ATOM     88  C   UNL A   1      44.006  28.132  33.054  1.00  0.00     0.064 A 
ATOM     89  C   UNL A   1      43.864  26.735  33.179  1.00  0.00     0.173 A 
ATOM     90  C   UNL A   1      44.069  28.850  34.265  1.00  0.00     0.173 A 
ATOM     91  F   UNL A   1      43.859  25.920  32.115  1.00  0.00    -0.203 F 
ATOM     92  C   UNL A   1      43.857  26.105  34.430  1.00  0.00     0.198 A 
ATOM     93  C   UNL A   1      44.120  28.216  35.506  1.00  0.00     0.198 A 
ATOM     94  F   UNL A   1      44.105  30.193  34.256  1.00  0.00    -0.203 F 
ATOM     95  F   UNL A   1      43.753  24.769  34.500  1.00  0.00    -0.200 F 
ATOM     96  C   UNL A   1      44.024  26.841  35.587  1.00  0.00     0.200 A 
ATOM     97  F   UNL A   1      44.272  28.947  36.619  1.00  0.00    -0.200 F 
ATOM     98  F   UNL A   1      44.090  26.231  36.779  1.00  0.00    -0.200 F 
ENDBRANCH  65  88
ENDBRANCH  39  40
ENDBRANCH  32  34
ENDBRANCH  31  32
ENDBRANCH  30  31
ENDBRANCH  29  30
ENDBRANCH  28  29
ENDBRANCH  27  28
ENDBRANCH  26  27
ENDBRANCH   1  26
TORSDOF 22
ENDMDL
MODEL 3
REMARK VINA RESULT:     -11.1      1.833      2.944
REMARK SMILES O=C(Cn1c(SCCc2ccccc2)nc2ccccc21)OCCOCCOCCOC(=O)c1ccc(-c2c3nc(c(-c4c(F)c(F)c(F)c(F)c4F)c4ccc([nH]4)c(-c4c(F)c(F)c(F)c(F)c4F)c4nc(c(-c5c(F)c(F)c(F)c(F)c5F)c5ccc2[nH]5)C=C4)C=C3)cc1
REMARK SMILES IDX 25 1 24 2 23 3 22 4 2 5 1 6 3 7 4 8 5 9 21 10 15 11 16 12
REMARK SMILES IDX 20 13 17 14 19 15 18 16 6 17 7 18 8 19 9 20 10 21 14 22
REMARK SMILES IDX 11 23 13 24 12 25 26 26 27 27 28 28 29 29 30 30 31 31 32 32
REMARK SMILES IDX 33 33 34 34 35 35 96 36 36 37 95 38 37 39 38 40 39 41 89 42
REMARK SMILES IDX 40 43 94 44 88 45 90 46 41 47 93 48 87 49 86 50 42 52 74 53
REMARK SMILES IDX 54 54 73 55 55 56 58 57 72 58 91 59 56 60 57 61 71 63 92 64
REMARK SMILES IDX 59 65 43 66 44 67 52 68 45 69 46 70 50 71 53 72 47 73 48 74
REMARK SMILES IDX 51 75 49 76 75 77 76 78 84 79 77 80 78 81 82 82 85 83 79 84
REMARK SMILES IDX 80 85 83 86 81 87 60 88 61 89 69 90 62 91 63 92 67 93 70 94
REMARK SMILES IDX 64 95 65 96 68 97 66 98
REMARK H PARENT 90 51 58 62
REMARK Flexibility Score: inf
ROOT
ATOM      1  O   UNL A   1      40.219  21.690  25.671  1.00  0.00    -0.376 OA
ENDROOT
BRANCH   1   2
ATOM      2  C   UNL A   1      38.846  21.737  26.051  1.00  0.00     0.202 C 
BRANCH   2   3
ATOM      3  C   UNL A   1      38.340  23.177  26.193  1.00  0.00     0.261 C 
BRANCH   3   4
ATOM      4  O   UNL A   1      37.298  23.496  25.251  1.00  0.00    -0.462 OA
BRANCH   4   5
ATOM      5  C   UNL A   1      36.054  23.907  25.613  1.00  0.00     0.326 C 
ATOM      6  O   UNL A   1      35.496  23.362  26.565  1.00  0.00    -0.250 OA
BRANCH   5   7
ATOM      7  C   UNL A   1      35.328  24.898  24.747  1.00  0.00     0.247 C 
BRANCH   7   8
ATOM      8  N   UNL A   1      33.890  24.893  24.856  1.00  0.00    -0.308 N 
ATOM      9  C   UNL A   1      32.930  24.185  24.187  1.00  0.00     0.169 A 
ATOM     10  C   UNL A   1      33.201  25.820  25.624  1.00  0.00     0.069 A 
ATOM     11  N   UNL A   1      31.772  24.268  24.807  1.00  0.00    -0.222 NA
ATOM     12  C   UNL A   1      31.899  25.337  25.640  1.00  0.00     0.090 A 
ATOM     13  C   UNL A   1      33.567  27.019  26.247  1.00  0.00     0.028 A 
ATOM     14  C   UNL A   1      30.920  26.008  26.379  1.00  0.00     0.030 A 
ATOM     15  C   UNL A   1      32.568  27.709  26.933  1.00  0.00     0.002 A 
ATOM     16  C   UNL A   1      31.270  27.203  27.018  1.00  0.00     0.002 A 
BRANCH   9  17
ATOM     17  S   UNL A   1      32.968  23.504  22.614  1.00  0.00    -0.088 SA
BRANCH  17  18
ATOM     18  C   UNL A   1      32.945  24.773  21.383  1.00  0.00     0.083 C 
BRANCH  18  19
ATOM     19  C   UNL A   1      31.851  25.844  21.408  1.00  0.00     0.047 C 
BRANCH  19  20
ATOM     20  C   UNL A   1      31.886  27.123  22.205  1.00  0.00    -0.047 A 
ATOM     21  C   UNL A   1      33.088  27.790  22.443  1.00  0.00     0.004 A 
ATOM     22  C   UNL A   1      30.721  27.603  22.834  1.00  0.00     0.004 A 
ATOM     23  C   UNL A   1      33.122  28.923  23.258  1.00  0.00     0.000 A 
ATOM     24  C   UNL A   1      30.757  28.715  23.673  1.00  0.00     0.000 A 
ATOM     25  C   UNL A   1      31.961  29.379  23.881  1.00  0.00     0.000 A 
ENDBRANCH  19  20
ENDBRANCH  18  19
ENDBRANCH  17  18
ENDBRANCH   9  17
ENDBRANCH   7   8
ENDBRANCH   5   7
ENDBRANCH   4   5
ENDBRANCH   3   4
ENDBRANCH   2   3
ENDBRANCH   1   2
BRANCH   1  26
ATOM     26  C   UNL A   1      41.140  21.676  26.754  1.00  0.00     0.188 C 
BRANCH  26  27
ATOM     27  C   UNL A   1      41.128  20.403  27.611  1.00  0.00     0.188 C 
BRANCH  27  28
ATOM     28  O   UNL A   1      42.153  19.442  27.405  1.00  0.00    -0.376 OA
BRANCH  28  29
ATOM     29  C   UNL A   1      42.310  18.881  26.102  1.00  0.00     0.202 C 
BRANCH  29  30
ATOM     30  C   UNL A   1      43.724  18.867  25.511  1.00  0.00     0.261 C 
BRANCH  30  31
ATOM     31  O   UNL A   1      43.940  19.976  24.623  1.00  0.00    -0.460 OA
BRANCH  31  32
ATOM     32  C   UNL A   1      45.157  20.567  24.709  1.00  0.00     0.338 C 
ATOM     33  O   UNL A   1      46.248  20.099  24.422  1.00  0.00    -0.246 OA
BRANCH  32  34
ATOM     34  C   UNL A   1      44.935  21.967  25.084  1.00  0.00     0.060 A 
ATOM     35  C   UNL A   1      45.617  22.490  26.165  1.00  0.00     0.016 A 
ATOM     36  C   UNL A   1      43.973  22.734  24.406  1.00  0.00     0.016 A 
ATOM     37  C   UNL A   1      45.251  23.749  26.619  1.00  0.00     0.010 A 
ATOM     38  C   UNL A   1      43.582  23.988  24.898  1.00  0.00     0.010 A 
ATOM     39  C   UNL A   1      44.172  24.486  26.054  1.00  0.00    -0.014 A 
BRANCH  39  40
ATOM     40  C   UNL A   1      43.790  25.758  26.734  1.00  0.00     0.031 A 
ATOM     41  C   UNL A   1      44.843  26.802  26.629  1.00  0.00     0.074 A 
ATOM     42  C   UNL A   1      42.696  26.048  27.489  1.00  0.00     0.049 A 
ATOM     43  N   UNL A   1      45.498  27.326  27.615  1.00  0.00    -0.248 NA
ATOM     44  C   UNL A   1      45.356  27.152  25.294  1.00  0.00     0.031 C 
ATOM     45  C   UNL A   1      41.507  25.221  27.684  1.00  0.00     0.029 A 
ATOM     46  N   UNL A   1      42.411  27.170  28.262  1.00  0.00    -0.354 N 
ATOM     47  C   UNL A   1      46.382  28.216  27.026  1.00  0.00     0.074 A 
ATOM     48  C   UNL A   1      46.369  27.958  25.609  1.00  0.00     0.031 C 
ATOM     49  C   UNL A   1      40.568  25.925  28.353  1.00  0.00     0.029 A 
ATOM     50  C   UNL A   1      41.092  27.235  28.713  1.00  0.00     0.049 A 
ATOM     51  H   UNL A   1      43.083  27.858  28.472  1.00  0.00     0.167 HD
ATOM     52  C   UNL A   1      46.793  29.315  27.704  1.00  0.00     0.037 A 
ATOM     53  C   UNL A   1      40.430  28.266  29.308  1.00  0.00     0.037 A 
ATOM     54  C   UNL A   1      46.745  29.143  29.128  1.00  0.00     0.049 A 
ATOM     55  C   UNL A   1      41.387  29.168  29.990  1.00  0.00     0.074 A 
ATOM     56  C   UNL A   1      47.521  28.533  30.085  1.00  0.00     0.029 A 
ATOM     57  N   UNL A   1      45.534  29.403  29.702  1.00  0.00    -0.354 N 
ATOM     58  N   UNL A   1      41.889  28.948  31.168  1.00  0.00    -0.248 NA
ATOM     59  C   UNL A   1      41.961  30.304  29.278  1.00  0.00     0.031 C 
ATOM     60  C   UNL A   1      46.711  28.416  31.253  1.00  0.00     0.029 A 
ATOM     61  C   UNL A   1      45.467  28.996  31.011  1.00  0.00     0.049 A 
ATOM     62  H   UNL A   1      44.788  29.837  29.228  1.00  0.00     0.167 HD
ATOM     63  C   UNL A   1      43.097  29.601  31.165  1.00  0.00     0.074 A 
ATOM     64  C   UNL A   1      42.999  30.564  30.076  1.00  0.00     0.031 C 
ATOM     65  C   UNL A   1      44.195  29.021  31.731  1.00  0.00     0.037 A 
BRANCH  52  66
ATOM     66  C   UNL A   1      46.725  30.674  27.055  1.00  0.00     0.064 A 
ATOM     67  C   UNL A   1      47.839  31.528  27.069  1.00  0.00     0.173 A 
ATOM     68  C   UNL A   1      45.501  31.269  26.664  1.00  0.00     0.173 A 
ATOM     69  F   UNL A   1      49.030  31.085  27.498  1.00  0.00    -0.203 F 
ATOM     70  C   UNL A   1      47.730  32.876  26.710  1.00  0.00     0.198 A 
ATOM     71  C   UNL A   1      45.409  32.591  26.247  1.00  0.00     0.198 A 
ATOM     72  F   UNL A   1      44.332  30.625  26.785  1.00  0.00    -0.203 F 
ATOM     73  F   UNL A   1      48.794  33.684  26.822  1.00  0.00    -0.200 F 
ATOM     74  C   UNL A   1      46.520  33.402  26.288  1.00  0.00     0.200 A 
ATOM     75  F   UNL A   1      44.217  33.084  25.881  1.00  0.00    -0.200 F 
ATOM     76  F   UNL A   1      46.410  34.699  25.970  1.00  0.00    -0.200 F 
ENDBRANCH  52  66
BRANCH  53  77
ATOM     77  C   UNL A   1      38.973  28.614  29.285  1.00  0.00     0.064 A 
ATOM     78  C   UNL A   1      38.206  28.668  30.470  1.00  0.00     0.173 A 
ATOM     79  C   UNL A   1      38.372  29.185  28.148  1.00  0.00     0.173 A 
ATOM     80  F   UNL A   1      38.685  28.178  31.622  1.00  0.00    -0.203 F 
ATOM     81  C   UNL A   1      36.960  29.306  30.520  1.00  0.00     0.198 A 
ATOM     82  C   UNL A   1      37.121  29.805  28.196  1.00  0.00     0.198 A 
ATOM     83  F   UNL A   1      39.023  29.252  26.979  1.00  0.00    -0.203 F 
ATOM     84  F   UNL A   1      36.309  29.416  31.688  1.00  0.00    -0.200 F 
ATOM     85  C   UNL A   1      36.426  29.890  29.386  1.00  0.00     0.200 A 
ATOM     86  F   UNL A   1      36.630  30.387  27.093  1.00  0.00    -0.200 F 
ATOM     87  F   UNL A   1      35.275  30.571  29.447  1.00  0.00    -0.200 F 
ENDBRANCH  53  77
BRANCH  65  88
ATOM     88  C   UNL A   1      44.050  28.243  33.027  1.00  0.00     0.064 A 
ATOM     89  C   UNL A   1      43.866  26.852  33.163  1.00  0.00     0.173 A 
ATOM     90  C   UNL A   1      44.188  28.961  34.232  1.00  0.00     0.173 A 
ATOM     91  F   UNL A   1      43.790  26.034  32.103  1.00  0.00    -0.203 F 
ATOM     92  C   UNL A   1      43.889  26.226  34.416  1.00  0.00     0.198 A 
ATOM     93  C   UNL A   1      44.268  28.329  35.472  1.00  0.00     0.198 A 
ATOM     94  F   UNL A   1      44.269  30.302  34.216  1.00  0.00    -0.203 F 
ATOM     95  F   UNL A   1      43.743  24.894  34.496  1.00  0.00    -0.200 F 
ATOM     96  C   UNL A   1      44.129  26.958  35.563  1.00  0.00     0.200 A 
ATOM     97  F   UNL A   1      44.491  29.057  36.575  1.00  0.00    -0.200 F 
ATOM     98  F   UNL A   1      44.223  26.349  36.754  1.00  0.00    -0.200 F 
ENDBRANCH  65  88
ENDBRANCH  39  40
ENDBRANCH  32  34
ENDBRANCH  31  32
ENDBRANCH  30  31
ENDBRANCH  29  30
ENDBRANCH  28  29
ENDBRANCH  27  28
ENDBRANCH  26  27
ENDBRANCH   1  26
TORSDOF 22
ENDMDL
