MODEL 1
REMARK VINA RESULT:     -11.9      0.000      0.000
REMARK SMILES CS(=O)(=O)c1ccc(NS(=O)(=O)c2ccc(F)c(C(=O)OCCOCCOCCOC(=O)c3ccc(-c4c5nc(c(-c6c(F)c(F)c(F)c(F)c6F)c6ccc([nH]6)c(-c6c(F)c(F)c(F)c(F)c6F)c6nc(c(-c7c(F)c(F)c(F)c(F)c7F)c7ccc4[nH]7)C=C6)C=C5)cc3)c2)cc1
REMARK SMILES IDX 25 1 24 2 23 3 22 4 21 5 19 6 20 7 18 8 13 9 14 10 96 11
REMARK SMILES IDX 15 12 16 13 17 14 10 15 11 16 12 17 9 18 8 20 5 21 6 22
REMARK SMILES IDX 98 23 7 24 97 25 2 26 1 27 3 28 4 29 26 30 27 31 28 32 29 33
REMARK SMILES IDX 30 34 31 35 32 36 33 37 34 38 95 39 35 40 94 41 36 42 37 43
REMARK SMILES IDX 38 44 88 45 39 46 93 47 87 48 89 49 40 50 92 51 86 52 85 53
REMARK SMILES IDX 41 55 73 56 53 57 72 58 54 59 57 60 71 61 90 62 55 63 56 64
REMARK SMILES IDX 70 66 91 67 58 68 42 69 43 70 51 71 44 72 45 73 49 74 52 75
REMARK SMILES IDX 46 76 47 77 50 78 48 79 74 80 75 81 83 82 76 83 77 84 81 85
REMARK SMILES IDX 84 86 78 87 79 88 82 89 80 90 59 91 60 92 68 93 61 94 62 95
REMARK SMILES IDX 66 96 69 97 63 98 64 99 67 100 65 101
REMARK H PARENT 9 19 89 54 57 65
REMARK Flexibility Score: inf
ROOT
ATOM      1  C   UNL A   1      40.015  20.838  26.451  1.00  0.00     0.188 C 
ENDROOT
BRANCH   1   2
ATOM      2  O   UNL A   1      39.686  22.216  26.416  1.00  0.00    -0.376 OA
BRANCH   2   3
ATOM      3  C   UNL A   1      38.372  22.600  26.024  1.00  0.00     0.202 C 
BRANCH   3   4
ATOM      4  C   UNL A   1      37.613  21.668  25.080  1.00  0.00     0.261 C 
BRANCH   4   5
ATOM      5  O   UNL A   1      36.359  22.263  24.709  1.00  0.00    -0.460 OA
BRANCH   5   6
ATOM      6  C   UNL A   1      35.285  21.882  25.435  1.00  0.00     0.341 C 
ATOM      7  O   UNL A   1      35.267  21.423  26.563  1.00  0.00    -0.246 OA
BRANCH   6   8
ATOM      8  C   UNL A   1      34.082  22.236  24.673  1.00  0.00     0.097 A 
ATOM      9  C   UNL A   1      32.575  23.873  23.756  1.00  0.00     0.088 A 
ATOM     10  C   UNL A   1      31.826  22.863  23.136  1.00  0.00     0.025 A 
ATOM     11  C   UNL A   1      33.667  23.565  24.579  1.00  0.00     0.041 A 
ATOM     12  C   UNL A   1      32.224  21.533  23.283  1.00  0.00     0.041 A 
ATOM     13  C   UNL A   1      33.365  21.230  24.026  1.00  0.00     0.137 A 
ATOM     14  F   UNL A   1      33.738  19.947  24.130  1.00  0.00    -0.206 F 
BRANCH   9  15
ATOM     15  S   UNL A   1      32.377  25.571  23.250  1.00  0.00     0.261 S 
ATOM     16  O   UNL A   1      32.677  25.647  21.837  1.00  0.00    -0.201 OA
ATOM     17  O   UNL A   1      33.075  26.381  24.223  1.00  0.00    -0.201 OA
BRANCH  15  18
ATOM     18  N   UNL A   1      30.748  25.884  23.445  1.00  0.00    -0.280 N 
ATOM     19  H   UNL A   1      30.210  25.157  23.835  1.00  0.00     0.180 HD
BRANCH  18  20
ATOM     20  C   UNL A   1      30.042  27.077  23.112  1.00  0.00     0.049 A 
ATOM     21  C   UNL A   1      28.952  29.664  23.055  1.00  0.00     0.067 A 
ATOM     22  C   UNL A   1      28.146  28.585  23.395  1.00  0.00     0.022 A 
ATOM     23  C   UNL A   1      30.269  29.450  22.640  1.00  0.00     0.022 A 
ATOM     24  C   UNL A   1      28.689  27.295  23.382  1.00  0.00     0.028 A 
ATOM     25  C   UNL A   1      30.811  28.160  22.679  1.00  0.00     0.028 A 
BRANCH  21  26
ATOM     26  S   UNL A   1      28.402  31.345  23.228  1.00  0.00     0.175 S 
ATOM     27  C   UNL A   1      28.592  32.130  21.651  1.00  0.00     0.163 C 
ATOM     28  O   UNL A   1      29.311  31.979  24.161  1.00  0.00    -0.224 OA
ATOM     29  O   UNL A   1      26.977  31.272  23.494  1.00  0.00    -0.224 OA
ENDBRANCH  21  26
ENDBRANCH  18  20
ENDBRANCH  15  18
ENDBRANCH   9  15
ENDBRANCH   6   8
ENDBRANCH   5   6
ENDBRANCH   4   5
ENDBRANCH   3   4
ENDBRANCH   2   3
ENDBRANCH   1   2
BRANCH   1  30
ATOM     30  C   UNL A   1      41.215  20.348  27.290  1.00  0.00     0.188 C 
BRANCH  30  31
ATOM     31  O   UNL A   1      42.326  19.705  26.704  1.00  0.00    -0.376 OA
BRANCH  31  32
ATOM     32  C   UNL A   1      42.970  20.257  25.570  1.00  0.00     0.202 C 
BRANCH  32  33
ATOM     33  C   UNL A   1      43.671  21.620  25.624  1.00  0.00     0.261 C 
BRANCH  33  34
ATOM     34  O   UNL A   1      42.850  22.747  25.299  1.00  0.00    -0.460 OA
BRANCH  34  35
ATOM     35  C   UNL A   1      43.515  23.921  25.184  1.00  0.00     0.338 C 
ATOM     36  O   UNL A   1      44.428  24.192  24.424  1.00  0.00    -0.246 OA
BRANCH  35  37
ATOM     37  C   UNL A   1      42.858  24.935  26.026  1.00  0.00     0.060 A 
ATOM     38  C   UNL A   1      43.386  26.233  26.043  1.00  0.00     0.016 A 
ATOM     39  C   UNL A   1      41.777  24.590  26.838  1.00  0.00     0.016 A 
ATOM     40  C   UNL A   1      42.852  27.189  26.905  1.00  0.00     0.010 A 
ATOM     41  C   UNL A   1      41.259  25.541  27.718  1.00  0.00     0.010 A 
ATOM     42  C   UNL A   1      41.815  26.832  27.777  1.00  0.00    -0.014 A 
BRANCH  42  43
ATOM     43  C   UNL A   1      41.438  27.731  28.890  1.00  0.00     0.031 A 
ATOM     44  C   UNL A   1      42.221  27.647  30.169  1.00  0.00     0.074 A 
ATOM     45  C   UNL A   1      40.410  28.589  28.776  1.00  0.00     0.049 A 
ATOM     46  N   UNL A   1      42.013  28.244  31.314  1.00  0.00    -0.248 NA
ATOM     47  C   UNL A   1      43.398  26.762  30.155  1.00  0.00     0.031 C 
ATOM     48  C   UNL A   1      39.608  28.792  27.574  1.00  0.00     0.029 A 
ATOM     49  N   UNL A   1      39.856  29.435  29.704  1.00  0.00    -0.354 N 
ATOM     50  C   UNL A   1      43.024  27.800  32.157  1.00  0.00     0.074 A 
ATOM     51  C   UNL A   1      43.835  26.872  31.400  1.00  0.00     0.031 C 
ATOM     52  C   UNL A   1      38.643  29.690  27.844  1.00  0.00     0.029 A 
ATOM     53  C   UNL A   1      38.743  30.094  29.246  1.00  0.00     0.049 A 
ATOM     54  H   UNL A   1      40.223  29.558  30.609  1.00  0.00     0.167 HD
ATOM     55  C   UNL A   1      43.253  28.139  33.446  1.00  0.00     0.037 A 
ATOM     56  C   UNL A   1      37.887  30.904  29.900  1.00  0.00     0.037 A 
ATOM     57  C   UNL A   1      42.440  29.054  34.201  1.00  0.00     0.049 A 
ATOM     58  C   UNL A   1      38.120  31.207  31.358  1.00  0.00     0.074 A 
ATOM     59  C   UNL A   1      42.593  29.466  35.512  1.00  0.00     0.029 A 
ATOM     60  N   UNL A   1      41.313  29.692  33.706  1.00  0.00    -0.354 N 
ATOM     61  N   UNL A   1      39.087  30.799  32.146  1.00  0.00    -0.248 NA
ATOM     62  C   UNL A   1      37.140  32.080  32.020  1.00  0.00     0.031 C 
ATOM     63  C   UNL A   1      41.532  30.323  35.826  1.00  0.00     0.029 A 
ATOM     64  C   UNL A   1      40.748  30.481  34.694  1.00  0.00     0.049 A 
ATOM     65  H   UNL A   1      40.966  29.599  32.790  1.00  0.00     0.167 HD
ATOM     66  C   UNL A   1      38.851  31.391  33.380  1.00  0.00     0.074 A 
ATOM     67  C   UNL A   1      37.651  32.190  33.238  1.00  0.00     0.031 C 
ATOM     68  C   UNL A   1      39.565  31.287  34.528  1.00  0.00     0.037 A 
BRANCH  55  69
ATOM     69  C   UNL A   1      44.417  27.489  34.130  1.00  0.00     0.064 A 
ATOM     70  C   UNL A   1      45.683  28.091  34.160  1.00  0.00     0.173 A 
ATOM     71  C   UNL A   1      44.258  26.256  34.783  1.00  0.00     0.173 A 
ATOM     72  F   UNL A   1      45.890  29.260  33.535  1.00  0.00    -0.203 F 
ATOM     73  C   UNL A   1      46.754  27.472  34.800  1.00  0.00     0.198 A 
ATOM     74  C   UNL A   1      45.325  25.652  35.442  1.00  0.00     0.198 A 
ATOM     75  F   UNL A   1      43.067  25.640  34.782  1.00  0.00    -0.203 F 
ATOM     76  F   UNL A   1      47.966  28.044  34.778  1.00  0.00    -0.200 F 
ATOM     77  C   UNL A   1      46.573  26.257  35.445  1.00  0.00     0.200 A 
ATOM     78  F   UNL A   1      45.146  24.484  36.072  1.00  0.00    -0.200 F 
ATOM     79  F   UNL A   1      47.604  25.666  36.063  1.00  0.00    -0.200 F 
ENDBRANCH  55  69
BRANCH  56  80
ATOM     80  C   UNL A   1      36.715  31.475  29.189  1.00  0.00     0.064 A 
ATOM     81  C   UNL A   1      36.657  32.840  28.875  1.00  0.00     0.173 A 
ATOM     82  C   UNL A   1      35.620  30.676  28.830  1.00  0.00     0.173 A 
ATOM     83  F   UNL A   1      37.669  33.650  29.223  1.00  0.00    -0.203 F 
ATOM     84  C   UNL A   1      35.541  33.387  28.246  1.00  0.00     0.198 A 
ATOM     85  C   UNL A   1      34.515  31.219  28.179  1.00  0.00     0.198 A 
ATOM     86  F   UNL A   1      35.624  29.365  29.113  1.00  0.00    -0.203 F 
ATOM     87  F   UNL A   1      35.492  34.703  27.999  1.00  0.00    -0.200 F 
ATOM     88  C   UNL A   1      34.473  32.575  27.894  1.00  0.00     0.200 A 
ATOM     89  F   UNL A   1      33.489  30.430  27.833  1.00  0.00    -0.200 F 
ATOM     90  F   UNL A   1      33.400  33.102  27.289  1.00  0.00    -0.200 F 
ENDBRANCH  56  80
BRANCH  68  91
ATOM     91  C   UNL A   1      39.107  32.091  35.708  1.00  0.00     0.064 A 
ATOM     92  C   UNL A   1      38.314  31.531  36.719  1.00  0.00     0.173 A 
ATOM     93  C   UNL A   1      39.523  33.423  35.858  1.00  0.00     0.173 A 
ATOM     94  F   UNL A   1      37.880  30.266  36.615  1.00  0.00    -0.203 F 
ATOM     95  C   UNL A   1      37.941  32.282  37.832  1.00  0.00     0.198 A 
ATOM     96  C   UNL A   1      39.171  34.161  36.984  1.00  0.00     0.198 A 
ATOM     97  F   UNL A   1      40.290  34.002  34.920  1.00  0.00    -0.203 F 
ATOM     98  F   UNL A   1      37.155  31.739  38.771  1.00  0.00    -0.200 F 
ATOM     99  C   UNL A   1      38.377  33.592  37.968  1.00  0.00     0.200 A 
ATOM    100  F   UNL A   1      39.604  35.423  37.119  1.00  0.00    -0.200 F 
ATOM    101  F   UNL A   1      38.028  34.308  39.045  1.00  0.00    -0.200 F 
ENDBRANCH  68  91
ENDBRANCH  42  43
ENDBRANCH  35  37
ENDBRANCH  34  35
ENDBRANCH  33  34
ENDBRANCH  32  33
ENDBRANCH  31  32
ENDBRANCH  30  31
ENDBRANCH   1  30
TORSDOF 21
ENDMDL
MODEL 2
REMARK VINA RESULT:     -11.3      5.255      7.678
REMARK SMILES CS(=O)(=O)c1ccc(NS(=O)(=O)c2ccc(F)c(C(=O)OCCOCCOCCOC(=O)c3ccc(-c4c5nc(c(-c6c(F)c(F)c(F)c(F)c6F)c6ccc([nH]6)c(-c6c(F)c(F)c(F)c(F)c6F)c6nc(c(-c7c(F)c(F)c(F)c(F)c7F)c7ccc4[nH]7)C=C6)C=C5)cc3)c2)cc1
REMARK SMILES IDX 25 1 24 2 23 3 22 4 21 5 19 6 20 7 18 8 13 9 14 10 96 11
REMARK SMILES IDX 15 12 16 13 17 14 10 15 11 16 12 17 9 18 8 20 5 21 6 22
REMARK SMILES IDX 98 23 7 24 97 25 2 26 1 27 3 28 4 29 26 30 27 31 28 32 29 33
REMARK SMILES IDX 30 34 31 35 32 36 33 37 34 38 95 39 35 40 94 41 36 42 37 43
REMARK SMILES IDX 38 44 88 45 39 46 93 47 87 48 89 49 40 50 92 51 86 52 85 53
REMARK SMILES IDX 41 55 73 56 53 57 72 58 54 59 57 60 71 61 90 62 55 63 56 64
REMARK SMILES IDX 70 66 91 67 58 68 42 69 43 70 51 71 44 72 45 73 49 74 52 75
REMARK SMILES IDX 46 76 47 77 50 78 48 79 74 80 75 81 83 82 76 83 77 84 81 85
REMARK SMILES IDX 84 86 78 87 79 88 82 89 80 90 59 91 60 92 68 93 61 94 62 95
REMARK SMILES IDX 66 96 69 97 63 98 64 99 67 100 65 101
REMARK H PARENT 9 19 89 54 57 65
REMARK Flexibility Score: inf
ROOT
ATOM      1  C   UNL A   1      39.660  22.462  26.790  1.00  0.00     0.188 C 
ENDROOT
BRANCH   1   2
ATOM      2  O   UNL A   1      39.078  23.714  26.469  1.00  0.00    -0.376 OA
BRANCH   2   3
ATOM      3  C   UNL A   1      37.682  23.774  26.194  1.00  0.00     0.202 C 
BRANCH   3   4
ATOM      4  C   UNL A   1      37.009  22.508  25.661  1.00  0.00     0.261 C 
BRANCH   4   5
ATOM      5  O   UNL A   1      35.686  22.817  25.196  1.00  0.00    -0.460 OA
BRANCH   5   6
ATOM      6  C   UNL A   1      34.674  22.484  26.027  1.00  0.00     0.341 C 
ATOM      7  O   UNL A   1      34.741  21.905  27.097  1.00  0.00    -0.246 OA
BRANCH   6   8
ATOM      8  C   UNL A   1      33.439  23.059  25.481  1.00  0.00     0.097 A 
ATOM      9  C   UNL A   1      31.775  24.797  25.411  1.00  0.00     0.088 A 
ATOM     10  C   UNL A   1      31.127  24.158  24.345  1.00  0.00     0.025 A 
ATOM     11  C   UNL A   1      32.895  24.221  26.028  1.00  0.00     0.041 A 
ATOM     12  C   UNL A   1      31.654  22.967  23.843  1.00  0.00     0.041 A 
ATOM     13  C   UNL A   1      32.822  22.439  24.394  1.00  0.00     0.137 A 
ATOM     14  F   UNL A   1      33.320  21.308  23.876  1.00  0.00    -0.206 F 
BRANCH   9  15
ATOM     15  S   UNL A   1      31.410  26.500  25.789  1.00  0.00     0.261 S 
ATOM     16  O   UNL A   1      30.362  26.515  26.785  1.00  0.00    -0.201 OA
ATOM     17  O   UNL A   1      31.271  27.187  24.525  1.00  0.00    -0.201 OA
BRANCH  15  18
ATOM     18  N   UNL A   1      32.804  27.084  26.502  1.00  0.00    -0.280 N 
ATOM     19  H   UNL A   1      33.417  26.408  26.872  1.00  0.00     0.180 HD
BRANCH  18  20
ATOM     20  C   UNL A   1      33.209  28.444  26.640  1.00  0.00     0.049 A 
ATOM     21  C   UNL A   1      34.072  30.939  27.595  1.00  0.00     0.067 A 
ATOM     22  C   UNL A   1      32.740  30.760  27.241  1.00  0.00     0.022 A 
ATOM     23  C   UNL A   1      34.997  29.916  27.375  1.00  0.00     0.022 A 
ATOM     24  C   UNL A   1      32.329  29.525  26.728  1.00  0.00     0.028 A 
ATOM     25  C   UNL A   1      34.561  28.670  26.908  1.00  0.00     0.028 A 
BRANCH  21  26
ATOM     26  S   UNL A   1      34.639  32.404  28.425  1.00  0.00     0.175 S 
ATOM     27  C   UNL A   1      36.411  32.363  28.423  1.00  0.00     0.163 C 
ATOM     28  O   UNL A   1      34.187  32.297  29.798  1.00  0.00    -0.224 OA
ATOM     29  O   UNL A   1      34.242  33.518  27.585  1.00  0.00    -0.224 OA
ENDBRANCH  21  26
ENDBRANCH  18  20
ENDBRANCH  15  18
ENDBRANCH   9  15
ENDBRANCH   6   8
ENDBRANCH   5   6
ENDBRANCH   4   5
ENDBRANCH   3   4
ENDBRANCH   2   3
ENDBRANCH   1   2
BRANCH   1  30
ATOM     30  C   UNL A   1      41.094  22.132  26.324  1.00  0.00     0.188 C 
BRANCH  30  31
ATOM     31  O   UNL A   1      41.945  21.282  27.062  1.00  0.00    -0.376 OA
BRANCH  31  32
ATOM     32  C   UNL A   1      41.759  19.878  27.048  1.00  0.00     0.202 C 
BRANCH  32  33
ATOM     33  C   UNL A   1      42.576  18.965  26.127  1.00  0.00     0.261 C 
BRANCH  33  34
ATOM     34  O   UNL A   1      42.913  19.521  24.851  1.00  0.00    -0.460 OA
BRANCH  34  35
ATOM     35  C   UNL A   1      44.241  19.591  24.593  1.00  0.00     0.338 C 
ATOM     36  O   UNL A   1      44.956  18.727  24.116  1.00  0.00    -0.246 OA
BRANCH  35  37
ATOM     37  C   UNL A   1      44.709  20.967  24.828  1.00  0.00     0.060 A 
ATOM     38  C   UNL A   1      45.336  21.259  26.047  1.00  0.00     0.016 A 
ATOM     39  C   UNL A   1      44.471  21.968  23.886  1.00  0.00     0.016 A 
ATOM     40  C   UNL A   1      45.700  22.572  26.344  1.00  0.00     0.010 A 
ATOM     41  C   UNL A   1      44.814  23.285  24.194  1.00  0.00     0.010 A 
ATOM     42  C   UNL A   1      45.399  23.596  25.436  1.00  0.00    -0.014 A 
BRANCH  42  43
ATOM     43  C   UNL A   1      45.505  25.011  25.851  1.00  0.00     0.031 A 
ATOM     44  C   UNL A   1      46.852  25.673  25.785  1.00  0.00     0.074 A 
ATOM     45  C   UNL A   1      44.435  25.688  26.299  1.00  0.00     0.049 A 
ATOM     46  N   UNL A   1      47.218  26.860  26.197  1.00  0.00    -0.248 NA
ATOM     47  C   UNL A   1      47.935  24.886  25.172  1.00  0.00     0.031 C 
ATOM     48  C   UNL A   1      43.073  25.169  26.367  1.00  0.00     0.029 A 
ATOM     49  N   UNL A   1      44.340  26.962  26.803  1.00  0.00    -0.354 N 
ATOM     50  C   UNL A   1      48.572  26.956  25.904  1.00  0.00     0.074 A 
ATOM     51  C   UNL A   1      48.968  25.705  25.296  1.00  0.00     0.031 C 
ATOM     52  C   UNL A   1      42.277  26.108  26.909  1.00  0.00     0.029 A 
ATOM     53  C   UNL A   1      43.083  27.278  27.255  1.00  0.00     0.049 A 
ATOM     54  H   UNL A   1      45.099  27.588  26.836  1.00  0.00     0.167 HD
ATOM     55  C   UNL A   1      49.409  27.996  26.124  1.00  0.00     0.037 A 
ATOM     56  C   UNL A   1      42.648  28.376  27.905  1.00  0.00     0.037 A 
ATOM     57  C   UNL A   1      49.016  29.235  26.738  1.00  0.00     0.049 A 
ATOM     58  C   UNL A   1      43.617  29.491  28.206  1.00  0.00     0.074 A 
ATOM     59  C   UNL A   1      49.789  30.352  27.001  1.00  0.00     0.029 A 
ATOM     60  N   UNL A   1      47.737  29.513  27.195  1.00  0.00    -0.354 N 
ATOM     61  N   UNL A   1      44.892  29.585  27.912  1.00  0.00    -0.248 NA
ATOM     62  C   UNL A   1      43.085  30.653  28.935  1.00  0.00     0.031 C 
ATOM     63  C   UNL A   1      48.986  31.293  27.655  1.00  0.00     0.029 A 
ATOM     64  C   UNL A   1      47.702  30.779  27.756  1.00  0.00     0.049 A 
ATOM     65  H   UNL A   1      46.968  28.903  27.130  1.00  0.00     0.167 HD
ATOM     66  C   UNL A   1      45.304  30.824  28.387  1.00  0.00     0.074 A 
ATOM     67  C   UNL A   1      44.144  31.449  28.986  1.00  0.00     0.031 C 
ATOM     68  C   UNL A   1      46.532  31.394  28.328  1.00  0.00     0.037 A 
BRANCH  55  69
ATOM     69  C   UNL A   1      50.842  27.822  25.722  1.00  0.00     0.064 A 
ATOM     70  C   UNL A   1      51.268  28.038  24.404  1.00  0.00     0.173 A 
ATOM     71  C   UNL A   1      51.805  27.454  26.674  1.00  0.00     0.173 A 
ATOM     72  F   UNL A   1      50.381  28.372  23.454  1.00  0.00    -0.203 F 
ATOM     73  C   UNL A   1      52.604  27.870  24.048  1.00  0.00     0.198 A 
ATOM     74  C   UNL A   1      53.144  27.311  26.319  1.00  0.00     0.198 A 
ATOM     75  F   UNL A   1      51.448  27.236  27.948  1.00  0.00    -0.203 F 
ATOM     76  F   UNL A   1      52.981  28.038  22.773  1.00  0.00    -0.200 F 
ATOM     77  C   UNL A   1      53.541  27.513  25.006  1.00  0.00     0.200 A 
ATOM     78  F   UNL A   1      54.049  26.975  27.248  1.00  0.00    -0.200 F 
ATOM     79  F   UNL A   1      54.826  27.356  24.661  1.00  0.00    -0.200 F 
ENDBRANCH  55  69
BRANCH  56  80
ATOM     80  C   UNL A   1      41.230  28.472  28.333  1.00  0.00     0.064 A 
ATOM     81  C   UNL A   1      40.825  28.017  29.595  1.00  0.00     0.173 A 
ATOM     82  C   UNL A   1      40.246  28.997  27.483  1.00  0.00     0.173 A 
ATOM     83  F   UNL A   1      41.726  27.481  30.433  1.00  0.00    -0.203 F 
ATOM     84  C   UNL A   1      39.489  28.066  29.984  1.00  0.00     0.198 A 
ATOM     85  C   UNL A   1      38.913  29.070  27.882  1.00  0.00     0.198 A 
ATOM     86  F   UNL A   1      40.580  29.442  26.263  1.00  0.00    -0.203 F 
ATOM     87  F   UNL A   1      39.122  27.582  31.179  1.00  0.00    -0.200 F 
ATOM     88  C   UNL A   1      38.534  28.597  29.129  1.00  0.00     0.200 A 
ATOM     89  F   UNL A   1      37.996  29.591  27.056  1.00  0.00    -0.200 F 
ATOM     90  F   UNL A   1      37.249  28.644  29.504  1.00  0.00    -0.200 F 
ENDBRANCH  56  80
BRANCH  68  91
ATOM     91  C   UNL A   1      46.681  32.782  28.877  1.00  0.00     0.064 A 
ATOM     92  C   UNL A   1      47.062  33.014  30.206  1.00  0.00     0.173 A 
ATOM     93  C   UNL A   1      46.503  33.895  28.039  1.00  0.00     0.173 A 
ATOM     94  F   UNL A   1      47.232  31.984  31.049  1.00  0.00    -0.203 F 
ATOM     95  C   UNL A   1      47.243  34.311  30.681  1.00  0.00     0.198 A 
ATOM     96  C   UNL A   1      46.710  35.187  28.511  1.00  0.00     0.198 A 
ATOM     97  F   UNL A   1      46.146  33.724  26.756  1.00  0.00    -0.203 F 
ATOM     98  F   UNL A   1      47.574  34.511  31.964  1.00  0.00    -0.200 F 
ATOM     99  C   UNL A   1      47.077  35.394  29.832  1.00  0.00     0.200 A 
ATOM    100  F   UNL A   1      46.562  36.232  27.684  1.00  0.00    -0.200 F 
ATOM    101  F   UNL A   1      47.264  36.640  30.288  1.00  0.00    -0.200 F 
ENDBRANCH  68  91
ENDBRANCH  42  43
ENDBRANCH  35  37
ENDBRANCH  34  35
ENDBRANCH  33  34
ENDBRANCH  32  33
ENDBRANCH  31  32
ENDBRANCH  30  31
ENDBRANCH   1  30
TORSDOF 21
ENDMDL
MODEL 3
REMARK VINA RESULT:     -11.1      5.104     10.759
REMARK SMILES CS(=O)(=O)c1ccc(NS(=O)(=O)c2ccc(F)c(C(=O)OCCOCCOCCOC(=O)c3ccc(-c4c5nc(c(-c6c(F)c(F)c(F)c(F)c6F)c6ccc([nH]6)c(-c6c(F)c(F)c(F)c(F)c6F)c6nc(c(-c7c(F)c(F)c(F)c(F)c7F)c7ccc4[nH]7)C=C6)C=C5)cc3)c2)cc1
REMARK SMILES IDX 25 1 24 2 23 3 22 4 21 5 19 6 20 7 18 8 13 9 14 10 96 11
REMARK SMILES IDX 15 12 16 13 17 14 10 15 11 16 12 17 9 18 8 20 5 21 6 22
REMARK SMILES IDX 98 23 7 24 97 25 2 26 1 27 3 28 4 29 26 30 27 31 28 32 29 33
REMARK SMILES IDX 30 34 31 35 32 36 33 37 34 38 95 39 35 40 94 41 36 42 37 43
REMARK SMILES IDX 38 44 88 45 39 46 93 47 87 48 89 49 40 50 92 51 86 52 85 53
REMARK SMILES IDX 41 55 73 56 53 57 72 58 54 59 57 60 71 61 90 62 55 63 56 64
REMARK SMILES IDX 70 66 91 67 58 68 42 69 43 70 51 71 44 72 45 73 49 74 52 75
REMARK SMILES IDX 46 76 47 77 50 78 48 79 74 80 75 81 83 82 76 83 77 84 81 85
REMARK SMILES IDX 84 86 78 87 79 88 82 89 80 90 59 91 60 92 68 93 61 94 62 95
REMARK SMILES IDX 66 96 69 97 63 98 64 99 67 100 65 101
REMARK H PARENT 9 19 89 54 57 65
REMARK Flexibility Score: inf
ROOT
ATOM      1  C   UNL A   1      33.780  30.895  27.262  1.00  0.00     0.188 C 
ENDROOT
BRANCH   1   2
ATOM      2  O   UNL A   1      33.027  29.741  27.595  1.00  0.00    -0.376 OA
BRANCH   2   3
ATOM      3  C   UNL A   1      31.954  29.351  26.744  1.00  0.00     0.202 C 
BRANCH   3   4
ATOM      4  C   UNL A   1      32.062  29.702  25.260  1.00  0.00     0.261 C 
BRANCH   4   5
ATOM      5  O   UNL A   1      30.812  29.440  24.603  1.00  0.00    -0.460 OA
BRANCH   5   6
ATOM      6  C   UNL A   1      30.895  28.922  23.358  1.00  0.00     0.341 C 
ATOM      7  O   UNL A   1      31.012  29.521  22.303  1.00  0.00    -0.246 OA
BRANCH   6   8
ATOM      8  C   UNL A   1      30.949  27.461  23.484  1.00  0.00     0.097 A 
ATOM      9  C   UNL A   1      32.190  25.406  23.652  1.00  0.00     0.088 A 
ATOM     10  C   UNL A   1      31.002  24.680  23.813  1.00  0.00     0.025 A 
ATOM     11  C   UNL A   1      32.170  26.788  23.421  1.00  0.00     0.041 A 
ATOM     12  C   UNL A   1      29.784  25.362  23.820  1.00  0.00     0.041 A 
ATOM     13  C   UNL A   1      29.766  26.750  23.684  1.00  0.00     0.137 A 
ATOM     14  F   UNL A   1      28.584  27.381  23.719  1.00  0.00    -0.206 F 
BRANCH   9  15
ATOM     15  S   UNL A   1      33.756  24.662  24.069  1.00  0.00     0.261 S 
ATOM     16  O   UNL A   1      34.425  25.540  25.004  1.00  0.00    -0.201 OA
ATOM     17  O   UNL A   1      34.372  24.261  22.825  1.00  0.00    -0.201 OA
BRANCH  15  18
ATOM     18  N   UNL A   1      33.354  23.258  24.881  1.00  0.00    -0.280 N 
ATOM     19  H   UNL A   1      32.865  23.372  25.728  1.00  0.00     0.180 HD
BRANCH  18  20
ATOM     20  C   UNL A   1      33.638  21.915  24.495  1.00  0.00     0.049 A 
ATOM     21  C   UNL A   1      33.751  19.120  24.266  1.00  0.00     0.067 A 
ATOM     22  C   UNL A   1      34.826  19.809  24.812  1.00  0.00     0.022 A 
ATOM     23  C   UNL A   1      32.667  19.822  23.735  1.00  0.00     0.022 A 
ATOM     24  C   UNL A   1      34.777  21.206  24.885  1.00  0.00     0.028 A 
ATOM     25  C   UNL A   1      32.610  21.215  23.860  1.00  0.00     0.028 A 
BRANCH  21  26
ATOM     26  S   UNL A   1      33.648  17.346  24.306  1.00  0.00     0.175 S 
ATOM     27  C   UNL A   1      32.526  16.909  25.606  1.00  0.00     0.163 C 
ATOM     28  O   UNL A   1      34.968  16.868  24.668  1.00  0.00    -0.224 OA
ATOM     29  O   UNL A   1      33.020  16.955  23.058  1.00  0.00    -0.224 OA
ENDBRANCH  21  26
ENDBRANCH  18  20
ENDBRANCH  15  18
ENDBRANCH   9  15
ENDBRANCH   6   8
ENDBRANCH   5   6
ENDBRANCH   4   5
ENDBRANCH   3   4
ENDBRANCH   2   3
ENDBRANCH   1   2
BRANCH   1  30
ATOM     30  C   UNL A   1      33.972  32.021  28.301  1.00  0.00     0.188 C 
BRANCH  30  31
ATOM     31  O   UNL A   1      34.148  33.369  27.921  1.00  0.00    -0.376 OA
BRANCH  31  32
ATOM     32  C   UNL A   1      34.496  34.353  28.878  1.00  0.00     0.202 C 
BRANCH  32  33
ATOM     33  C   UNL A   1      34.317  34.116  30.382  1.00  0.00     0.261 C 
BRANCH  33  34
ATOM     34  O   UNL A   1      35.529  33.968  31.130  1.00  0.00    -0.460 OA
BRANCH  34  35
ATOM     35  C   UNL A   1      35.789  32.707  31.551  1.00  0.00     0.338 C 
ATOM     36  O   UNL A   1      35.009  31.904  32.031  1.00  0.00    -0.246 OA
BRANCH  35  37
ATOM     37  C   UNL A   1      37.172  32.352  31.192  1.00  0.00     0.060 A 
ATOM     38  C   UNL A   1      37.630  32.668  29.906  1.00  0.00     0.016 A 
ATOM     39  C   UNL A   1      37.982  31.658  32.091  1.00  0.00     0.016 A 
ATOM     40  C   UNL A   1      38.898  32.256  29.499  1.00  0.00     0.010 A 
ATOM     41  C   UNL A   1      39.242  31.226  31.674  1.00  0.00     0.010 A 
ATOM     42  C   UNL A   1      39.690  31.495  30.368  1.00  0.00    -0.014 A 
BRANCH  42  43
ATOM     43  C   UNL A   1      40.897  30.806  29.861  1.00  0.00     0.031 A 
ATOM     44  C   UNL A   1      42.167  31.597  29.731  1.00  0.00     0.074 A 
ATOM     45  C   UNL A   1      40.861  29.511  29.502  1.00  0.00     0.049 A 
ATOM     46  N   UNL A   1      43.316  31.250  29.210  1.00  0.00    -0.248 NA
ATOM     47  C   UNL A   1      42.134  32.972  30.258  1.00  0.00     0.031 C 
ATOM     48  C   UNL A   1      39.704  28.631  29.624  1.00  0.00     0.029 A 
ATOM     49  N   UNL A   1      41.833  28.722  28.940  1.00  0.00    -0.354 N 
ATOM     50  C   UNL A   1      44.136  32.363  29.337  1.00  0.00     0.074 A 
ATOM     51  C   UNL A   1      43.352  33.402  29.967  1.00  0.00     0.031 C 
ATOM     52  C   UNL A   1      40.022  27.424  29.125  1.00  0.00     0.029 A 
ATOM     53  C   UNL A   1      41.394  27.461  28.619  1.00  0.00     0.049 A 
ATOM     54  H   UNL A   1      42.755  29.029  28.782  1.00  0.00     0.167 HD
ATOM     55  C   UNL A   1      45.428  32.503  28.961  1.00  0.00     0.037 A 
ATOM     56  C   UNL A   1      42.024  26.467  27.962  1.00  0.00     0.037 A 
ATOM     57  C   UNL A   1      46.203  31.472  28.325  1.00  0.00     0.049 A 
ATOM     58  C   UNL A   1      43.439  26.674  27.485  1.00  0.00     0.074 A 
ATOM     59  C   UNL A   1      47.521  31.515  27.910  1.00  0.00     0.029 A 
ATOM     60  N   UNL A   1      45.720  30.213  28.006  1.00  0.00    -0.354 N 
ATOM     61  N   UNL A   1      44.216  27.722  27.622  1.00  0.00    -0.248 NA
ATOM     62  C   UNL A   1      44.063  25.559  26.757  1.00  0.00     0.031 C 
ATOM     63  C   UNL A   1      47.826  30.293  27.300  1.00  0.00     0.029 A 
ATOM     64  C   UNL A   1      46.710  29.474  27.379  1.00  0.00     0.049 A 
ATOM     65  H   UNL A   1      44.810  29.891  28.196  1.00  0.00     0.167 HD
ATOM     66  C   UNL A   1      45.427  27.381  27.031  1.00  0.00     0.074 A 
ATOM     67  C   UNL A   1      45.283  26.028  26.535  1.00  0.00     0.031 C 
ATOM     68  C   UNL A   1      46.556  28.120  26.912  1.00  0.00     0.037 A 
BRANCH  55  69
ATOM     69  C   UNL A   1      46.073  33.834  29.202  1.00  0.00     0.064 A 
ATOM     70  C   UNL A   1      46.013  34.863  28.251  1.00  0.00     0.173 A 
ATOM     71  C   UNL A   1      46.741  34.090  30.409  1.00  0.00     0.173 A 
ATOM     72  F   UNL A   1      45.401  34.661  27.074  1.00  0.00    -0.203 F 
ATOM     73  C   UNL A   1      46.618  36.094  28.491  1.00  0.00     0.198 A 
ATOM     74  C   UNL A   1      47.325  35.330  30.655  1.00  0.00     0.198 A 
ATOM     75  F   UNL A   1      46.826  33.138  31.350  1.00  0.00    -0.203 F 
ATOM     76  F   UNL A   1      46.587  37.049  27.551  1.00  0.00    -0.200 F 
ATOM     77  C   UNL A   1      47.268  36.328  29.694  1.00  0.00     0.200 A 
ATOM     78  F   UNL A   1      47.944  35.558  31.821  1.00  0.00    -0.200 F 
ATOM     79  F   UNL A   1      47.847  37.515  29.924  1.00  0.00    -0.200 F 
ENDBRANCH  55  69
BRANCH  56  80
ATOM     80  C   UNL A   1      41.317  25.188  27.697  1.00  0.00     0.064 A 
ATOM     81  C   UNL A   1      41.690  24.009  28.356  1.00  0.00     0.173 A 
ATOM     82  C   UNL A   1      40.274  25.112  26.764  1.00  0.00     0.173 A 
ATOM     83  F   UNL A   1      42.702  24.026  29.238  1.00  0.00    -0.203 F 
ATOM     84  C   UNL A   1      41.058  22.799  28.079  1.00  0.00     0.198 A 
ATOM     85  C   UNL A   1      39.625  23.907  26.506  1.00  0.00     0.198 A 
ATOM     86  F   UNL A   1      39.883  26.212  26.103  1.00  0.00    -0.203 F 
ATOM     87  F   UNL A   1      41.464  21.677  28.690  1.00  0.00    -0.200 F 
ATOM     88  C   UNL A   1      40.022  22.750  27.158  1.00  0.00     0.200 A 
ATOM     89  F   UNL A   1      38.620  23.865  25.621  1.00  0.00    -0.200 F 
ATOM     90  F   UNL A   1      39.414  21.585  26.892  1.00  0.00    -0.200 F 
ENDBRANCH  56  80
BRANCH  68  91
ATOM     91  C   UNL A   1      47.747  27.472  26.270  1.00  0.00     0.064 A 
ATOM     92  C   UNL A   1      47.929  27.477  24.881  1.00  0.00     0.173 A 
ATOM     93  C   UNL A   1      48.751  26.897  27.065  1.00  0.00     0.173 A 
ATOM     94  F   UNL A   1      46.992  28.003  24.078  1.00  0.00    -0.203 F 
ATOM     95  C   UNL A   1      49.067  26.914  24.307  1.00  0.00     0.198 A 
ATOM     96  C   UNL A   1      49.899  26.359  26.490  1.00  0.00     0.198 A 
ATOM     97  F   UNL A   1      48.626  26.876  28.401  1.00  0.00    -0.203 F 
ATOM     98  F   UNL A   1      49.206  26.897  22.975  1.00  0.00    -0.200 F 
ATOM     99  C   UNL A   1      50.054  26.365  25.113  1.00  0.00     0.200 A 
ATOM    100  F   UNL A   1      50.857  25.841  27.271  1.00  0.00    -0.200 F 
ATOM    101  F   UNL A   1      51.154  25.835  24.560  1.00  0.00    -0.200 F 
ENDBRANCH  68  91
ENDBRANCH  42  43
ENDBRANCH  35  37
ENDBRANCH  34  35
ENDBRANCH  33  34
ENDBRANCH  32  33
ENDBRANCH  31  32
ENDBRANCH  30  31
ENDBRANCH   1  30
TORSDOF 21
ENDMDL
