MODEL 1
REMARK VINA RESULT:      -7.9      0.000      0.000
REMARK SMILES CC[C@H](C)C[C@@H](C)[NH2+]Cc1cc(C(=O)OCCOCCOCCOC(=O)c2ccc(-c3c4nc(c(-c5c(F)c(F)c(F)c(F)c5F)c5ccc([nH]5)c(-c5c(F)c(F)c(F)c(F)c5F)c5nc(c(-c6c(F)c(F)c(F)c(F)c6F)c6ccc3[nH]6)C=C5)C=C4)cc2)cs1
REMARK SMILES IDX 17 1 16 2 15 3 13 4 14 5 12 6 10 7 11 8 91 9 90 10 9 11 8 12
REMARK SMILES IDX 6 15 7 16 5 17 3 18 4 19 2 20 1 21 18 22 19 23 20 24 21 25
REMARK SMILES IDX 22 26 23 27 24 28 25 29 26 30 27 31 28 32 89 33 29 34 88 35
REMARK SMILES IDX 30 36 31 37 32 38 82 39 33 40 87 41 81 42 83 43 34 44 86 45
REMARK SMILES IDX 80 46 79 47 35 49 67 50 47 51 66 52 48 53 51 54 65 55 84 56
REMARK SMILES IDX 49 57 50 58 64 60 85 61 52 62 36 63 37 64 45 65 38 66 39 67
REMARK SMILES IDX 43 68 46 69 40 70 41 71 44 72 42 73 68 74 69 75 77 76 70 77
REMARK SMILES IDX 71 78 75 79 78 80 72 81 73 82 76 83 74 84 53 85 54 86 62 87
REMARK SMILES IDX 55 88 56 89 60 90 63 91 57 92 58 93 61 94 59 95
REMARK H PARENT 8 13 8 14 83 48 51 59
REMARK Flexibility Score: inf
ROOT
ATOM      1  C   UNL A   1      33.365  36.294  33.078  1.00  0.00     0.202 C 
ENDROOT
BRANCH   1   2
ATOM      2  C   UNL A   1      32.768  36.659  31.715  1.00  0.00     0.261 C 
BRANCH   2   3
ATOM      3  O   UNL A   1      33.637  36.418  30.598  1.00  0.00    -0.460 OA
BRANCH   3   4
ATOM      4  C   UNL A   1      33.040  35.846  29.510  1.00  0.00     0.339 C 
ATOM      5  O   UNL A   1      32.153  36.374  28.848  1.00  0.00    -0.246 OA
BRANCH   4   6
ATOM      6  C   UNL A   1      33.609  34.545  29.151  1.00  0.00     0.071 A 
ATOM      7  C   UNL A   1      34.942  32.593  29.193  1.00  0.00     0.060 A 
ATOM      8  C   UNL A   1      34.631  33.787  29.826  1.00  0.00     0.037 A 
ATOM      9  S   UNL A   1      33.937  32.356  27.820  1.00  0.00    -0.142 S 
ATOM     10  C   UNL A   1      33.189  33.872  28.020  1.00  0.00     0.081 A 
BRANCH   7  11
ATOM     11  C   UNL A   1      35.950  31.550  29.620  1.00  0.00     0.308 C 
BRANCH  11  12
ATOM     12  N   UNL A   1      37.165  31.481  28.806  1.00  0.00    -0.340 N 
ATOM     13  H   UNL A   1      37.156  32.276  28.167  1.00  0.00     0.346 HD
ATOM     14  H   UNL A   1      37.936  31.482  29.474  1.00  0.00     0.346 HD
BRANCH  12  15
ATOM     15  C   UNL A   1      37.351  30.263  28.001  1.00  0.00     0.179 C 
ATOM     16  C   UNL A   1      36.140  29.328  28.056  1.00  0.00     0.075 C 
BRANCH  15  17
ATOM     17  C   UNL A   1      38.645  29.580  28.525  1.00  0.00     0.068 C 
BRANCH  17  18
ATOM     18  C   UNL A   1      38.459  28.411  29.523  1.00  0.00    -0.009 C 
ATOM     19  C   UNL A   1      39.003  27.085  28.988  1.00  0.00     0.008 C 
BRANCH  18  20
ATOM     20  C   UNL A   1      39.042  28.765  30.913  1.00  0.00    -0.000 C 
ATOM     21  C   UNL A   1      38.341  28.128  32.105  1.00  0.00     0.004 C 
ENDBRANCH  18  20
ENDBRANCH  17  18
ENDBRANCH  15  17
ENDBRANCH  12  15
ENDBRANCH  11  12
ENDBRANCH   7  11
ENDBRANCH   4   6
ENDBRANCH   3   4
ENDBRANCH   2   3
ENDBRANCH   1   2
BRANCH   1  22
ATOM     22  O   UNL A   1      34.778  36.275  33.203  1.00  0.00    -0.376 OA
BRANCH  22  23
ATOM     23  C   UNL A   1      35.479  35.040  33.299  1.00  0.00     0.188 C 
BRANCH  23  24
ATOM     24  C   UNL A   1      35.603  34.278  34.634  1.00  0.00     0.188 C 
BRANCH  24  25
ATOM     25  O   UNL A   1      36.019  32.927  34.515  1.00  0.00    -0.376 OA
BRANCH  25  26
ATOM     26  C   UNL A   1      36.043  32.395  33.197  1.00  0.00     0.202 C 
BRANCH  26  27
ATOM     27  C   UNL A   1      37.323  31.625  32.854  1.00  0.00     0.261 C 
BRANCH  27  28
ATOM     28  O   UNL A   1      38.539  32.223  33.331  1.00  0.00    -0.460 OA
BRANCH  28  29
ATOM     29  C   UNL A   1      39.178  33.063  32.489  1.00  0.00     0.338 C 
ATOM     30  O   UNL A   1      39.035  34.269  32.399  1.00  0.00    -0.246 OA
BRANCH  29  31
ATOM     31  C   UNL A   1      40.216  32.288  31.778  1.00  0.00     0.060 A 
ATOM     32  C   UNL A   1      41.097  31.493  32.520  1.00  0.00     0.016 A 
ATOM     33  C   UNL A   1      40.318  32.352  30.385  1.00  0.00     0.016 A 
ATOM     34  C   UNL A   1      42.102  30.775  31.867  1.00  0.00     0.010 A 
ATOM     35  C   UNL A   1      41.334  31.646  29.736  1.00  0.00     0.010 A 
ATOM     36  C   UNL A   1      42.247  30.873  30.475  1.00  0.00    -0.014 A 
BRANCH  36  37
ATOM     37  C   UNL A   1      43.439  30.299  29.803  1.00  0.00     0.031 A 
ATOM     38  C   UNL A   1      44.648  31.171  29.610  1.00  0.00     0.074 A 
ATOM     39  C   UNL A   1      43.449  29.028  29.364  1.00  0.00     0.049 A 
ATOM     40  N   UNL A   1      45.784  30.901  29.021  1.00  0.00    -0.248 NA
ATOM     41  C   UNL A   1      44.560  32.535  30.154  1.00  0.00     0.031 C 
ATOM     42  C   UNL A   1      42.351  28.075  29.506  1.00  0.00     0.029 A 
ATOM     43  N   UNL A   1      44.422  28.327  28.695  1.00  0.00    -0.354 N 
ATOM     44  C   UNL A   1      46.546  32.057  29.125  1.00  0.00     0.074 A 
ATOM     45  C   UNL A   1      45.733  33.041  29.807  1.00  0.00     0.031 C 
ATOM     46  C   UNL A   1      42.707  26.914  28.928  1.00  0.00     0.029 A 
ATOM     47  C   UNL A   1      44.045  27.052  28.354  1.00  0.00     0.049 A 
ATOM     48  H   UNL A   1      45.305  28.704  28.479  1.00  0.00     0.167 HD
ATOM     49  C   UNL A   1      47.812  32.277  28.698  1.00  0.00     0.037 A 
ATOM     50  C   UNL A   1      44.700  26.112  27.644  1.00  0.00     0.037 A 
ATOM     51  C   UNL A   1      48.618  31.306  28.008  1.00  0.00     0.049 A 
ATOM     52  C   UNL A   1      46.083  26.403  27.120  1.00  0.00     0.074 A 
ATOM     53  C   UNL A   1      49.920  31.430  27.554  1.00  0.00     0.029 A 
ATOM     54  N   UNL A   1      48.194  30.032  27.663  1.00  0.00    -0.354 N 
ATOM     55  N   UNL A   1      46.812  27.484  27.258  1.00  0.00    -0.248 NA
ATOM     56  C   UNL A   1      46.736  25.340  26.342  1.00  0.00     0.031 C 
ATOM     57  C   UNL A   1      50.267  30.246  26.894  1.00  0.00     0.029 A 
ATOM     58  C   UNL A   1      49.199  29.368  26.978  1.00  0.00     0.049 A 
ATOM     59  H   UNL A   1      47.309  29.655  27.873  1.00  0.00     0.167 HD
ATOM     60  C   UNL A   1      48.014  27.223  26.611  1.00  0.00     0.074 A 
ATOM     61  C   UNL A   1      47.921  25.877  26.087  1.00  0.00     0.031 C 
ATOM     62  C   UNL A   1      49.097  28.025  26.469  1.00  0.00     0.037 A 
BRANCH  49  63
ATOM     63  C   UNL A   1      48.393  33.636  28.947  1.00  0.00     0.064 A 
ATOM     64  C   UNL A   1      48.260  34.674  28.012  1.00  0.00     0.173 A 
ATOM     65  C   UNL A   1      49.075  33.909  30.142  1.00  0.00     0.173 A 
ATOM     66  F   UNL A   1      47.630  34.456  26.848  1.00  0.00    -0.203 F 
ATOM     67  C   UNL A   1      48.810  35.929  28.254  1.00  0.00     0.198 A 
ATOM     68  C   UNL A   1      49.602  35.174  30.391  1.00  0.00     0.198 A 
ATOM     69  F   UNL A   1      49.229  32.951  31.068  1.00  0.00    -0.203 F 
ATOM     70  F   UNL A   1      48.710  36.893  27.327  1.00  0.00    -0.200 F 
ATOM     71  C   UNL A   1      49.475  36.180  29.445  1.00  0.00     0.200 A 
ATOM     72  F   UNL A   1      50.238  35.417  31.545  1.00  0.00    -0.200 F 
ATOM     73  F   UNL A   1      50.003  37.389  29.677  1.00  0.00    -0.200 F 
ENDBRANCH  49  63
BRANCH  50  74
ATOM     74  C   UNL A   1      44.055  24.801  27.379  1.00  0.00     0.064 A 
ATOM     75  C   UNL A   1      43.605  24.464  26.096  1.00  0.00     0.173 A 
ATOM     76  C   UNL A   1      43.857  23.867  28.407  1.00  0.00     0.173 A 
ATOM     77  F   UNL A   1      43.743  25.337  25.087  1.00  0.00    -0.203 F 
ATOM     78  C   UNL A   1      42.969  23.247  25.853  1.00  0.00     0.198 A 
ATOM     79  C   UNL A   1      43.244  22.642  28.158  1.00  0.00     0.198 A 
ATOM     80  F   UNL A   1      44.263  24.147  29.655  1.00  0.00    -0.203 F 
ATOM     81  F   UNL A   1      42.510  22.967  24.626  1.00  0.00    -0.200 F 
ATOM     82  C   UNL A   1      42.795  22.335  26.882  1.00  0.00     0.200 A 
ATOM     83  F   UNL A   1      43.082  21.761  29.155  1.00  0.00    -0.200 F 
ATOM     84  F   UNL A   1      42.184  21.165  26.648  1.00  0.00    -0.200 F 
ENDBRANCH  50  74
BRANCH  62  85
ATOM     85  C   UNL A   1      50.287  27.462  25.748  1.00  0.00     0.064 A 
ATOM     86  C   UNL A   1      51.354  26.869  26.439  1.00  0.00     0.173 A 
ATOM     87  C   UNL A   1      50.336  27.471  24.346  1.00  0.00     0.173 A 
ATOM     88  F   UNL A   1      51.360  26.847  27.780  1.00  0.00    -0.203 F 
ATOM     89  C   UNL A   1      52.434  26.320  25.751  1.00  0.00     0.198 A 
ATOM     90  C   UNL A   1      51.405  26.900  23.661  1.00  0.00     0.198 A 
ATOM     91  F   UNL A   1      49.336  28.020  23.638  1.00  0.00    -0.203 F 
ATOM     92  F   UNL A   1      53.460  25.792  26.433  1.00  0.00    -0.200 F 
ATOM     93  C   UNL A   1      52.455  26.330  24.364  1.00  0.00     0.200 A 
ATOM     94  F   UNL A   1      51.417  26.898  22.321  1.00  0.00    -0.200 F 
ATOM     95  F   UNL A   1      53.492  25.794  23.705  1.00  0.00    -0.200 F 
ENDBRANCH  62  85
ENDBRANCH  36  37
ENDBRANCH  29  31
ENDBRANCH  28  29
ENDBRANCH  27  28
ENDBRANCH  26  27
ENDBRANCH  25  26
ENDBRANCH  24  25
ENDBRANCH  23  24
ENDBRANCH  22  23
ENDBRANCH   1  22
TORSDOF 23
ENDMDL
MODEL 2
REMARK VINA RESULT:      -7.7      4.528      6.009
REMARK SMILES CC[C@H](C)C[C@@H](C)[NH2+]Cc1cc(C(=O)OCCOCCOCCOC(=O)c2ccc(-c3c4nc(c(-c5c(F)c(F)c(F)c(F)c5F)c5ccc([nH]5)c(-c5c(F)c(F)c(F)c(F)c5F)c5nc(c(-c6c(F)c(F)c(F)c(F)c6F)c6ccc3[nH]6)C=C5)C=C4)cc2)cs1
REMARK SMILES IDX 17 1 16 2 15 3 13 4 14 5 12 6 10 7 11 8 91 9 90 10 9 11 8 12
REMARK SMILES IDX 6 15 7 16 5 17 3 18 4 19 2 20 1 21 18 22 19 23 20 24 21 25
REMARK SMILES IDX 22 26 23 27 24 28 25 29 26 30 27 31 28 32 89 33 29 34 88 35
REMARK SMILES IDX 30 36 31 37 32 38 82 39 33 40 87 41 81 42 83 43 34 44 86 45
REMARK SMILES IDX 80 46 79 47 35 49 67 50 47 51 66 52 48 53 51 54 65 55 84 56
REMARK SMILES IDX 49 57 50 58 64 60 85 61 52 62 36 63 37 64 45 65 38 66 39 67
REMARK SMILES IDX 43 68 46 69 40 70 41 71 44 72 42 73 68 74 69 75 77 76 70 77
REMARK SMILES IDX 71 78 75 79 78 80 72 81 73 82 76 83 74 84 53 85 54 86 62 87
REMARK SMILES IDX 55 88 56 89 60 90 63 91 57 92 58 93 61 94 59 95
REMARK H PARENT 8 13 8 14 83 48 51 59
REMARK Flexibility Score: inf
ROOT
ATOM      1  C   UNL A   1      33.590  37.008  32.836  1.00  0.00     0.202 C 
ENDROOT
BRANCH   1   2
ATOM      2  C   UNL A   1      33.197  37.525  31.448  1.00  0.00     0.261 C 
BRANCH   2   3
ATOM      3  O   UNL A   1      32.727  36.514  30.544  1.00  0.00    -0.460 OA
BRANCH   3   4
ATOM      4  C   UNL A   1      33.226  36.590  29.274  1.00  0.00     0.339 C 
ATOM      5  O   UNL A   1      33.287  37.621  28.613  1.00  0.00    -0.246 OA
BRANCH   4   6
ATOM      6  C   UNL A   1      33.758  35.317  28.781  1.00  0.00     0.071 A 
ATOM      7  C   UNL A   1      33.875  33.093  27.990  1.00  0.00     0.060 A 
ATOM      8  C   UNL A   1      33.044  34.127  28.397  1.00  0.00     0.037 A 
ATOM      9  S   UNL A   1      35.517  33.595  28.001  1.00  0.00    -0.142 S 
ATOM     10  C   UNL A   1      35.119  35.121  28.641  1.00  0.00     0.081 A 
BRANCH   7  11
ATOM     11  C   UNL A   1      33.476  31.715  27.512  1.00  0.00     0.308 C 
BRANCH  11  12
ATOM     12  N   UNL A   1      34.069  30.598  28.251  1.00  0.00    -0.340 N 
ATOM     13  H   UNL A   1      34.331  30.943  29.176  1.00  0.00     0.346 HD
ATOM     14  H   UNL A   1      33.356  29.870  28.256  1.00  0.00     0.346 HD
BRANCH  12  15
ATOM     15  C   UNL A   1      35.260  29.972  27.656  1.00  0.00     0.179 C 
ATOM     16  C   UNL A   1      34.929  28.697  26.875  1.00  0.00     0.075 C 
BRANCH  15  17
ATOM     17  C   UNL A   1      36.250  29.703  28.824  1.00  0.00     0.068 C 
BRANCH  17  18
ATOM     18  C   UNL A   1      37.757  29.705  28.474  1.00  0.00    -0.009 C 
ATOM     19  C   UNL A   1      38.511  30.873  29.112  1.00  0.00     0.008 C 
BRANCH  18  20
ATOM     20  C   UNL A   1      38.409  28.339  28.801  1.00  0.00    -0.000 C 
ATOM     21  C   UNL A   1      39.276  27.741  27.703  1.00  0.00     0.004 C 
ENDBRANCH  18  20
ENDBRANCH  17  18
ENDBRANCH  15  17
ENDBRANCH  12  15
ENDBRANCH  11  12
ENDBRANCH   7  11
ENDBRANCH   4   6
ENDBRANCH   3   4
ENDBRANCH   2   3
ENDBRANCH   1   2
BRANCH   1  22
ATOM     22  O   UNL A   1      34.857  36.387  32.980  1.00  0.00    -0.376 OA
BRANCH  22  23
ATOM     23  C   UNL A   1      35.015  34.996  32.721  1.00  0.00     0.188 C 
BRANCH  23  24
ATOM     24  C   UNL A   1      34.026  33.949  33.273  1.00  0.00     0.188 C 
BRANCH  24  25
ATOM     25  O   UNL A   1      33.947  32.748  32.524  1.00  0.00    -0.376 OA
BRANCH  25  26
ATOM     26  C   UNL A   1      34.785  32.669  31.379  1.00  0.00     0.202 C 
BRANCH  26  27
ATOM     27  C   UNL A   1      35.996  31.746  31.548  1.00  0.00     0.261 C 
BRANCH  27  28
ATOM     28  O   UNL A   1      36.175  31.214  32.871  1.00  0.00    -0.460 OA
BRANCH  28  29
ATOM     29  C   UNL A   1      37.147  31.769  33.626  1.00  0.00     0.338 C 
ATOM     30  O   UNL A   1      37.016  32.603  34.503  1.00  0.00    -0.246 OA
BRANCH  29  31
ATOM     31  C   UNL A   1      38.413  31.075  33.315  1.00  0.00     0.060 A 
ATOM     32  C   UNL A   1      38.488  29.688  33.486  1.00  0.00     0.016 A 
ATOM     33  C   UNL A   1      39.522  31.794  32.860  1.00  0.00     0.016 A 
ATOM     34  C   UNL A   1      39.686  29.018  33.222  1.00  0.00     0.010 A 
ATOM     35  C   UNL A   1      40.724  31.125  32.612  1.00  0.00     0.010 A 
ATOM     36  C   UNL A   1      40.819  29.738  32.816  1.00  0.00    -0.014 A 
BRANCH  36  37
ATOM     37  C   UNL A   1      42.145  29.073  32.752  1.00  0.00     0.031 A 
ATOM     38  C   UNL A   1      43.075  29.205  33.925  1.00  0.00     0.074 A 
ATOM     39  C   UNL A   1      42.523  28.371  31.670  1.00  0.00     0.049 A 
ATOM     40  N   UNL A   1      44.291  28.746  34.081  1.00  0.00    -0.248 NA
ATOM     41  C   UNL A   1      42.564  29.961  35.079  1.00  0.00     0.031 C 
ATOM     42  C   UNL A   1      41.709  28.151  30.477  1.00  0.00     0.029 A 
ATOM     43  N   UNL A   1      43.702  27.721  31.400  1.00  0.00    -0.354 N 
ATOM     44  C   UNL A   1      44.687  29.155  35.347  1.00  0.00     0.074 A 
ATOM     45  C   UNL A   1      43.597  29.924  35.907  1.00  0.00     0.031 C 
ATOM     46  C   UNL A   1      42.419  27.427  29.594  1.00  0.00     0.029 A 
ATOM     47  C   UNL A   1      43.745  27.156  30.150  1.00  0.00     0.049 A 
ATOM     48  H   UNL A   1      44.447  27.668  32.042  1.00  0.00     0.167 HD
ATOM     49  C   UNL A   1      45.853  28.905  35.989  1.00  0.00     0.037 A 
ATOM     50  C   UNL A   1      44.747  26.509  29.521  1.00  0.00     0.037 A 
ATOM     51  C   UNL A   1      46.944  28.152  35.431  1.00  0.00     0.049 A 
ATOM     52  C   UNL A   1      46.061  26.302  30.231  1.00  0.00     0.074 A 
ATOM     53  C   UNL A   1      48.158  27.830  36.014  1.00  0.00     0.029 A 
ATOM     54  N   UNL A   1      46.958  27.614  34.154  1.00  0.00    -0.354 N 
ATOM     55  N   UNL A   1      46.413  26.656  31.443  1.00  0.00    -0.248 NA
ATOM     56  C   UNL A   1      47.116  25.601  29.484  1.00  0.00     0.031 C 
ATOM     57  C   UNL A   1      48.924  27.134  35.072  1.00  0.00     0.029 A 
ATOM     58  C   UNL A   1      48.169  26.982  33.920  1.00  0.00     0.049 A 
ATOM     59  H   UNL A   1      46.216  27.671  33.508  1.00  0.00     0.167 HD
ATOM     60  C   UNL A   1      47.715  26.199  31.613  1.00  0.00     0.074 A 
ATOM     61  C   UNL A   1      48.088  25.535  30.382  1.00  0.00     0.031 C 
ATOM     62  C   UNL A   1      48.524  26.317  32.693  1.00  0.00     0.037 A 
BRANCH  49  63
ATOM     63  C   UNL A   1      46.013  29.476  37.366  1.00  0.00     0.064 A 
ATOM     64  C   UNL A   1      46.583  30.741  37.574  1.00  0.00     0.173 A 
ATOM     65  C   UNL A   1      45.575  28.758  38.488  1.00  0.00     0.173 A 
ATOM     66  F   UNL A   1      47.032  31.458  36.533  1.00  0.00    -0.203 F 
ATOM     67  C   UNL A   1      46.731  31.256  38.859  1.00  0.00     0.198 A 
ATOM     68  C   UNL A   1      45.702  29.288  39.770  1.00  0.00     0.198 A 
ATOM     69  F   UNL A   1      45.022  27.544  38.343  1.00  0.00    -0.203 F 
ATOM     70  F   UNL A   1      47.320  32.447  39.037  1.00  0.00    -0.200 F 
ATOM     71  C   UNL A   1      46.286  30.532  39.955  1.00  0.00     0.200 A 
ATOM     72  F   UNL A   1      45.264  28.591  40.827  1.00  0.00    -0.200 F 
ATOM     73  F   UNL A   1      46.428  31.030  41.190  1.00  0.00    -0.200 F 
ENDBRANCH  49  63
BRANCH  50  74
ATOM     74  C   UNL A   1      44.553  26.012  28.136  1.00  0.00     0.064 A 
ATOM     75  C   UNL A   1      44.927  26.788  27.030  1.00  0.00     0.173 A 
ATOM     76  C   UNL A   1      43.972  24.760  27.888  1.00  0.00     0.173 A 
ATOM     77  F   UNL A   1      45.458  28.006  27.217  1.00  0.00    -0.203 F 
ATOM     78  C   UNL A   1      44.715  26.336  25.729  1.00  0.00     0.198 A 
ATOM     79  C   UNL A   1      43.782  24.299  26.587  1.00  0.00     0.198 A 
ATOM     80  F   UNL A   1      43.588  23.984  28.912  1.00  0.00    -0.203 F 
ATOM     81  F   UNL A   1      45.042  27.117  24.690  1.00  0.00    -0.200 F 
ATOM     82  C   UNL A   1      44.148  25.090  25.508  1.00  0.00     0.200 A 
ATOM     83  F   UNL A   1      43.239  23.092  26.378  1.00  0.00    -0.200 F 
ATOM     84  F   UNL A   1      43.945  24.656  24.257  1.00  0.00    -0.200 F 
ENDBRANCH  50  74
BRANCH  62  85
ATOM     85  C   UNL A   1      49.884  25.686  32.613  1.00  0.00     0.064 A 
ATOM     86  C   UNL A   1      50.993  26.389  32.117  1.00  0.00     0.173 A 
ATOM     87  C   UNL A   1      50.090  24.381  33.084  1.00  0.00     0.173 A 
ATOM     88  F   UNL A   1      50.846  27.634  31.642  1.00  0.00    -0.203 F 
ATOM     89  C   UNL A   1      52.254  25.799  32.082  1.00  0.00     0.198 A 
ATOM     90  C   UNL A   1      51.356  23.804  33.071  1.00  0.00     0.198 A 
ATOM     91  F   UNL A   1      49.062  23.670  33.575  1.00  0.00    -0.203 F 
ATOM     92  F   UNL A   1      53.293  26.475  31.570  1.00  0.00    -0.200 F 
ATOM     93  C   UNL A   1      52.436  24.511  32.564  1.00  0.00     0.200 A 
ATOM     94  F   UNL A   1      51.532  22.565  33.550  1.00  0.00    -0.200 F 
ATOM     95  F   UNL A   1      53.653  23.950  32.537  1.00  0.00    -0.200 F 
ENDBRANCH  62  85
ENDBRANCH  36  37
ENDBRANCH  29  31
ENDBRANCH  28  29
ENDBRANCH  27  28
ENDBRANCH  26  27
ENDBRANCH  25  26
ENDBRANCH  24  25
ENDBRANCH  23  24
ENDBRANCH  22  23
ENDBRANCH   1  22
TORSDOF 23
ENDMDL
MODEL 3
REMARK VINA RESULT:      -7.6      3.927      6.333
REMARK SMILES CC[C@H](C)C[C@@H](C)[NH2+]Cc1cc(C(=O)OCCOCCOCCOC(=O)c2ccc(-c3c4nc(c(-c5c(F)c(F)c(F)c(F)c5F)c5ccc([nH]5)c(-c5c(F)c(F)c(F)c(F)c5F)c5nc(c(-c6c(F)c(F)c(F)c(F)c6F)c6ccc3[nH]6)C=C5)C=C4)cc2)cs1
REMARK SMILES IDX 17 1 16 2 15 3 13 4 14 5 12 6 10 7 11 8 91 9 90 10 9 11 8 12
REMARK SMILES IDX 6 15 7 16 5 17 3 18 4 19 2 20 1 21 18 22 19 23 20 24 21 25
REMARK SMILES IDX 22 26 23 27 24 28 25 29 26 30 27 31 28 32 89 33 29 34 88 35
REMARK SMILES IDX 30 36 31 37 32 38 82 39 33 40 87 41 81 42 83 43 34 44 86 45
REMARK SMILES IDX 80 46 79 47 35 49 67 50 47 51 66 52 48 53 51 54 65 55 84 56
REMARK SMILES IDX 49 57 50 58 64 60 85 61 52 62 36 63 37 64 45 65 38 66 39 67
REMARK SMILES IDX 43 68 46 69 40 70 41 71 44 72 42 73 68 74 69 75 77 76 70 77
REMARK SMILES IDX 71 78 75 79 78 80 72 81 73 82 76 83 74 84 53 85 54 86 62 87
REMARK SMILES IDX 55 88 56 89 60 90 63 91 57 92 58 93 61 94 59 95
REMARK H PARENT 8 13 8 14 83 48 51 59
REMARK Flexibility Score: inf
ROOT
ATOM      1  C   UNL A   1      36.743  33.766  34.047  1.00  0.00     0.202 C 
ENDROOT
BRANCH   1   2
ATOM      2  C   UNL A   1      38.231  33.666  34.400  1.00  0.00     0.261 C 
BRANCH   2   3
ATOM      3  O   UNL A   1      38.874  32.467  33.943  1.00  0.00    -0.460 OA
BRANCH   3   4
ATOM      4  C   UNL A   1      38.960  31.464  34.866  1.00  0.00     0.339 C 
ATOM      5  O   UNL A   1      38.554  31.547  36.020  1.00  0.00    -0.246 OA
BRANCH   4   6
ATOM      6  C   UNL A   1      39.533  30.227  34.330  1.00  0.00     0.071 A 
ATOM      7  C   UNL A   1      40.957  28.366  34.022  1.00  0.00     0.060 A 
ATOM      8  C   UNL A   1      40.689  29.496  34.780  1.00  0.00     0.037 A 
ATOM      9  S   UNL A   1      39.758  28.150  32.811  1.00  0.00    -0.142 S 
ATOM     10  C   UNL A   1      38.972  29.599  33.234  1.00  0.00     0.081 A 
BRANCH   7  11
ATOM     11  C   UNL A   1      42.075  27.365  34.209  1.00  0.00     0.308 C 
BRANCH  11  12
ATOM     12  N   UNL A   1      41.869  26.386  35.278  1.00  0.00    -0.340 N 
ATOM     13  H   UNL A   1      41.757  26.900  36.152  1.00  0.00     0.346 HD
ATOM     14  H   UNL A   1      41.050  25.847  34.995  1.00  0.00     0.346 HD
BRANCH  12  15
ATOM     15  C   UNL A   1      42.936  25.393  35.478  1.00  0.00     0.179 C 
ATOM     16  C   UNL A   1      42.508  23.977  35.082  1.00  0.00     0.075 C 
BRANCH  15  17
ATOM     17  C   UNL A   1      43.350  25.484  36.974  1.00  0.00     0.068 C 
BRANCH  17  18
ATOM     18  C   UNL A   1      44.672  24.786  37.374  1.00  0.00    -0.009 C 
ATOM     19  C   UNL A   1      45.868  25.269  36.551  1.00  0.00     0.008 C 
BRANCH  18  20
ATOM     20  C   UNL A   1      44.926  24.898  38.897  1.00  0.00    -0.000 C 
ATOM     21  C   UNL A   1      45.278  26.289  39.407  1.00  0.00     0.004 C 
ENDBRANCH  18  20
ENDBRANCH  17  18
ENDBRANCH  15  17
ENDBRANCH  12  15
ENDBRANCH  11  12
ENDBRANCH   7  11
ENDBRANCH   4   6
ENDBRANCH   3   4
ENDBRANCH   2   3
ENDBRANCH   1   2
BRANCH   1  22
ATOM     22  O   UNL A   1      36.030  32.561  33.819  1.00  0.00    -0.376 OA
BRANCH  22  23
ATOM     23  C   UNL A   1      35.337  32.353  32.593  1.00  0.00     0.188 C 
BRANCH  23  24
ATOM     24  C   UNL A   1      35.569  33.254  31.364  1.00  0.00     0.188 C 
BRANCH  24  25
ATOM     25  O   UNL A   1      34.409  33.906  30.872  1.00  0.00    -0.376 OA
BRANCH  25  26
ATOM     26  C   UNL A   1      34.130  33.726  29.490  1.00  0.00     0.202 C 
BRANCH  26  27
ATOM     27  C   UNL A   1      35.292  33.133  28.686  1.00  0.00     0.261 C 
BRANCH  27  28
ATOM     28  O   UNL A   1      34.906  32.252  27.618  1.00  0.00    -0.460 OA
BRANCH  28  29
ATOM     29  C   UNL A   1      34.704  30.955  27.938  1.00  0.00     0.338 C 
ATOM     30  O   UNL A   1      33.652  30.343  27.910  1.00  0.00    -0.246 OA
BRANCH  29  31
ATOM     31  C   UNL A   1      36.024  30.341  28.190  1.00  0.00     0.060 A 
ATOM     32  C   UNL A   1      36.284  29.781  29.446  1.00  0.00     0.016 A 
ATOM     33  C   UNL A   1      37.000  30.325  27.189  1.00  0.00     0.016 A 
ATOM     34  C   UNL A   1      37.536  29.221  29.710  1.00  0.00     0.010 A 
ATOM     35  C   UNL A   1      38.256  29.778  27.461  1.00  0.00     0.010 A 
ATOM     36  C   UNL A   1      38.540  29.246  28.730  1.00  0.00    -0.014 A 
BRANCH  36  37
ATOM     37  C   UNL A   1      39.932  28.861  29.074  1.00  0.00     0.031 A 
ATOM     38  C   UNL A   1      40.775  29.826  29.859  1.00  0.00     0.074 A 
ATOM     39  C   UNL A   1      40.444  27.679  28.689  1.00  0.00     0.049 A 
ATOM     40  N   UNL A   1      42.022  29.724  30.241  1.00  0.00    -0.248 NA
ATOM     41  C   UNL A   1      40.120  31.078  30.268  1.00  0.00     0.031 C 
ATOM     42  C   UNL A   1      39.727  26.649  27.942  1.00  0.00     0.029 A 
ATOM     43  N   UNL A   1      41.700  27.154  28.869  1.00  0.00    -0.354 N 
ATOM     44  C   UNL A   1      42.300  30.894  30.934  1.00  0.00     0.074 A 
ATOM     45  C   UNL A   1      41.102  31.705  30.896  1.00  0.00     0.031 C 
ATOM     46  C   UNL A   1      40.561  25.618  27.714  1.00  0.00     0.029 A 
ATOM     47  C   UNL A   1      41.875  25.928  28.277  1.00  0.00     0.049 A 
ATOM     48  H   UNL A   1      42.410  27.615  29.373  1.00  0.00     0.167 HD
ATOM     49  C   UNL A   1      43.448  31.257  31.553  1.00  0.00     0.037 A 
ATOM     50  C   UNL A   1      42.975  25.155  28.186  1.00  0.00     0.037 A 
ATOM     51  C   UNL A   1      44.645  30.460  31.582  1.00  0.00     0.049 A 
ATOM     52  C   UNL A   1      44.262  25.611  28.826  1.00  0.00     0.074 A 
ATOM     53  C   UNL A   1      45.851  30.735  32.202  1.00  0.00     0.029 A 
ATOM     54  N   UNL A   1      44.789  29.233  30.953  1.00  0.00    -0.354 N 
ATOM     55  N   UNL A   1      44.505  26.700  29.514  1.00  0.00    -0.248 NA
ATOM     56  C   UNL A   1      45.428  24.727  28.678  1.00  0.00     0.031 C 
ATOM     57  C   UNL A   1      46.740  29.695  31.910  1.00  0.00     0.029 A 
ATOM     58  C   UNL A   1      46.073  28.749  31.148  1.00  0.00     0.049 A 
ATOM     59  H   UNL A   1      44.083  28.772  30.443  1.00  0.00     0.167 HD
ATOM     60  C   UNL A   1      45.837  26.620  29.903  1.00  0.00     0.074 A 
ATOM     61  C   UNL A   1      46.349  25.370  29.380  1.00  0.00     0.031 C 
ATOM     62  C   UNL A   1      46.567  27.500  30.630  1.00  0.00     0.037 A 
BRANCH  49  63
ATOM     63  C   UNL A   1      43.467  32.593  32.233  1.00  0.00     0.064 A 
ATOM     64  C   UNL A   1      43.821  33.762  31.543  1.00  0.00     0.173 A 
ATOM     65  C   UNL A   1      43.110  32.708  33.584  1.00  0.00     0.173 A 
ATOM     66  F   UNL A   1      44.186  33.700  30.254  1.00  0.00    -0.203 F 
ATOM     67  C   UNL A   1      43.841  34.995  32.188  1.00  0.00     0.198 A 
ATOM     68  C   UNL A   1      43.106  33.948  34.220  1.00  0.00     0.198 A 
ATOM     69  F   UNL A   1      42.763  31.621  34.288  1.00  0.00    -0.203 F 
ATOM     70  F   UNL A   1      44.225  36.093  31.521  1.00  0.00    -0.200 F 
ATOM     71  C   UNL A   1      43.478  35.088  33.524  1.00  0.00     0.200 A 
ATOM     72  F   UNL A   1      42.749  34.037  35.507  1.00  0.00    -0.200 F 
ATOM     73  F   UNL A   1      43.496  36.276  34.143  1.00  0.00    -0.200 F 
ENDBRANCH  49  63
BRANCH  50  74
ATOM     74  C   UNL A   1      42.915  23.865  27.453  1.00  0.00     0.064 A 
ATOM     75  C   UNL A   1      43.250  23.789  26.095  1.00  0.00     0.173 A 
ATOM     76  C   UNL A   1      42.502  22.686  28.091  1.00  0.00     0.173 A 
ATOM     77  F   UNL A   1      43.620  24.897  25.434  1.00  0.00    -0.203 F 
ATOM     78  C   UNL A   1      43.162  22.585  25.398  1.00  0.00     0.198 A 
ATOM     79  C   UNL A   1      42.438  21.478  27.399  1.00  0.00     0.198 A 
ATOM     80  F   UNL A   1      42.162  22.708  29.388  1.00  0.00    -0.203 F 
ATOM     81  F   UNL A   1      43.447  22.549  24.089  1.00  0.00    -0.200 F 
ATOM     82  C   UNL A   1      42.762  21.430  26.052  1.00  0.00     0.200 A 
ATOM     83  F   UNL A   1      42.055  20.363  28.037  1.00  0.00    -0.200 F 
ATOM     84  F   UNL A   1      42.677  20.272  25.381  1.00  0.00    -0.200 F 
ENDBRANCH  50  74
BRANCH  62  85
ATOM     85  C   UNL A   1      47.990  27.133  30.937  1.00  0.00     0.064 A 
ATOM     86  C   UNL A   1      49.053  27.570  30.133  1.00  0.00     0.173 A 
ATOM     87  C   UNL A   1      48.297  26.379  32.080  1.00  0.00     0.173 A 
ATOM     88  F   UNL A   1      48.810  28.282  29.023  1.00  0.00    -0.203 F 
ATOM     89  C   UNL A   1      50.370  27.249  30.453  1.00  0.00     0.198 A 
ATOM     90  C   UNL A   1      49.616  26.081  32.410  1.00  0.00     0.198 A 
ATOM     91  F   UNL A   1      47.316  25.944  32.886  1.00  0.00    -0.203 F 
ATOM     92  F   UNL A   1      51.367  27.645  29.649  1.00  0.00    -0.200 F 
ATOM     93  C   UNL A   1      50.650  26.512  31.594  1.00  0.00     0.200 A 
ATOM     94  F   UNL A   1      49.886  25.380  33.520  1.00  0.00    -0.200 F 
ATOM     95  F   UNL A   1      51.919  26.211  31.903  1.00  0.00    -0.200 F 
ENDBRANCH  62  85
ENDBRANCH  36  37
ENDBRANCH  29  31
ENDBRANCH  28  29
ENDBRANCH  27  28
ENDBRANCH  26  27
ENDBRANCH  25  26
ENDBRANCH  24  25
ENDBRANCH  23  24
ENDBRANCH  22  23
ENDBRANCH   1  22
TORSDOF 23
ENDMDL
