MODEL 1
REMARK VINA RESULT:      -9.9      0.000      0.000
REMARK SMILES Cc1nn(-c2cccc(C(=O)OCCOCCOCCOC(=O)c3ccc(-c4c5nc(c(-c6c(F)c(F)c(F)c(F)c6F)c6ccc([nH]6)c(-c6c(F)c(F)c(F)c(F)c6F)c6nc(c(-c7c(F)c(F)c(F)c(F)c7F)c7ccc4[nH]7)C=C6)C=C5)cc3)c2)c(C)c1Cl
REMARK SMILES IDX 17 1 16 2 15 3 14 4 13 5 12 6 10 7 11 8 9 9 5 10 6 11 87 12
REMARK SMILES IDX 7 13 8 14 4 15 1 16 2 17 3 18 90 19 88 20 91 21 89 22 18 23
REMARK SMILES IDX 19 24 20 25 21 26 22 27 23 28 24 29 25 30 86 31 26 32 85 33
REMARK SMILES IDX 27 34 28 35 29 36 79 37 30 38 84 39 78 40 80 41 31 42 83 43
REMARK SMILES IDX 77 44 76 45 32 47 64 48 44 49 63 50 45 51 48 52 62 53 81 54
REMARK SMILES IDX 46 55 47 56 61 58 82 59 49 60 33 61 34 62 42 63 35 64 36 65
REMARK SMILES IDX 40 66 43 67 37 68 38 69 41 70 39 71 65 72 66 73 74 74 67 75
REMARK SMILES IDX 68 76 72 77 75 78 69 79 70 80 73 81 71 82 50 83 51 84 59 85
REMARK SMILES IDX 52 86 53 87 57 88 60 89 54 90 55 91 58 92 56 93
REMARK H PARENT 80 46 48 57
REMARK Flexibility Score: inf
ROOT
ATOM      1  C   UNL A   1      42.224  18.981  26.235  1.00  0.00     0.188 C 
ENDROOT
BRANCH   1   2
ATOM      2  C   UNL A   1      43.475  19.237  25.366  1.00  0.00     0.188 C 
BRANCH   2   3
ATOM      3  O   UNL A   1      43.858  20.554  25.032  1.00  0.00    -0.376 OA
BRANCH   3   4
ATOM      4  C   UNL A   1      45.206  20.834  24.685  1.00  0.00     0.202 C 
BRANCH   4   5
ATOM      5  C   UNL A   1      45.793  22.257  24.601  1.00  0.00     0.261 C 
BRANCH   5   6
ATOM      6  O   UNL A   1      45.730  23.035  25.806  1.00  0.00    -0.460 OA
BRANCH   6   7
ATOM      7  C   UNL A   1      44.696  23.912  25.890  1.00  0.00     0.338 C 
ATOM      8  O   UNL A   1      43.627  23.841  25.308  1.00  0.00    -0.246 OA
BRANCH   7   9
ATOM      9  C   UNL A   1      44.955  24.884  26.979  1.00  0.00     0.062 A 
ATOM     10  C   UNL A   1      45.073  25.486  29.321  1.00  0.00     0.066 A 
ATOM     11  C   UNL A   1      45.274  26.828  28.956  1.00  0.00     0.028 A 
ATOM     12  C   UNL A   1      44.862  24.522  28.326  1.00  0.00     0.044 A 
ATOM     13  C   UNL A   1      45.368  27.184  27.609  1.00  0.00     0.003 A 
ATOM     14  C   UNL A   1      45.235  26.209  26.621  1.00  0.00     0.016 A 
BRANCH  10  15
ATOM     15  N   UNL A   1      45.105  25.134  30.702  1.00  0.00    -0.236 N 
ATOM     16  C   UNL A   1      43.762  23.157  33.346  1.00  0.00     0.070 C 
ATOM     17  C   UNL A   1      44.528  24.086  32.478  1.00  0.00     0.079 A 
ATOM     18  N   UNL A   1      44.166  24.286  31.205  1.00  0.00    -0.171 NA
ATOM     19  C   UNL A   1      45.631  24.887  32.831  1.00  0.00     0.085 A 
ATOM     20  C   UNL A   1      45.950  25.605  31.698  1.00  0.00     0.060 A 
ATOM     21  Cl  UNL A   1      46.338  24.996  34.369  1.00  0.00    -0.080 Cl
ATOM     22  C   UNL A   1      46.901  26.737  31.546  1.00  0.00     0.068 C 
ENDBRANCH  10  15
ENDBRANCH   7   9
ENDBRANCH   6   7
ENDBRANCH   5   6
ENDBRANCH   4   5
ENDBRANCH   3   4
ENDBRANCH   2   3
ENDBRANCH   1   2
BRANCH   1  23
ATOM     23  O   UNL A   1      40.921  19.204  25.738  1.00  0.00    -0.376 OA
BRANCH  23  24
ATOM     24  C   UNL A   1      40.100  20.293  26.128  1.00  0.00     0.202 C 
BRANCH  24  25
ATOM     25  C   UNL A   1      40.543  21.751  26.247  1.00  0.00     0.261 C 
BRANCH  25  26
ATOM     26  O   UNL A   1      39.947  22.468  27.307  1.00  0.00    -0.460 OA
BRANCH  26  27
ATOM     27  C   UNL A   1      39.426  23.650  26.916  1.00  0.00     0.338 C 
ATOM     28  O   UNL A   1      38.284  23.870  26.553  1.00  0.00    -0.246 OA
BRANCH  27  29
ATOM     29  C   UNL A   1      40.465  24.683  26.978  1.00  0.00     0.060 A 
ATOM     30  C   UNL A   1      41.181  24.749  28.175  1.00  0.00     0.016 A 
ATOM     31  C   UNL A   1      40.473  25.720  26.036  1.00  0.00     0.016 A 
ATOM     32  C   UNL A   1      41.638  25.978  28.579  1.00  0.00     0.010 A 
ATOM     33  C   UNL A   1      40.922  26.952  26.443  1.00  0.00     0.010 A 
ATOM     34  C   UNL A   1      41.365  27.076  27.759  1.00  0.00    -0.014 A 
BRANCH  34  35
ATOM     35  C   UNL A   1      41.303  28.362  28.419  1.00  0.00     0.031 A 
ATOM     36  C   UNL A   1      42.416  29.289  28.158  1.00  0.00     0.074 A 
ATOM     37  C   UNL A   1      40.236  28.676  29.177  1.00  0.00     0.049 A 
ATOM     38  N   UNL A   1      43.210  29.845  29.013  1.00  0.00    -0.248 NA
ATOM     39  C   UNL A   1      42.715  29.588  26.754  1.00  0.00     0.031 C 
ATOM     40  C   UNL A   1      38.954  27.967  29.279  1.00  0.00     0.029 A 
ATOM     41  N   UNL A   1      40.043  29.780  29.946  1.00  0.00    -0.354 N 
ATOM     42  C   UNL A   1      44.028  30.682  28.266  1.00  0.00     0.074 A 
ATOM     43  C   UNL A   1      43.757  30.406  26.877  1.00  0.00     0.031 C 
ATOM     44  C   UNL A   1      38.053  28.771  29.884  1.00  0.00     0.029 A 
ATOM     45  C   UNL A   1      38.725  29.987  30.312  1.00  0.00     0.049 A 
ATOM     46  H   UNL A   1      40.775  30.378  30.218  1.00  0.00     0.167 HD
ATOM     47  C   UNL A   1      44.742  31.690  28.833  1.00  0.00     0.037 A 
ATOM     48  C   UNL A   1      38.216  31.129  30.828  1.00  0.00     0.037 A 
ATOM     49  C   UNL A   1      44.935  31.503  30.243  1.00  0.00     0.049 A 
ATOM     50  C   UNL A   1      39.348  31.919  31.378  1.00  0.00     0.074 A 
ATOM     51  C   UNL A   1      45.574  30.547  31.009  1.00  0.00     0.029 A 
ATOM     52  N   UNL A   1      44.155  32.215  31.118  1.00  0.00    -0.354 N 
ATOM     53  N   UNL A   1      40.047  31.577  32.426  1.00  0.00    -0.248 NA
ATOM     54  C   UNL A   1      39.976  32.904  30.508  1.00  0.00     0.031 C 
ATOM     55  C   UNL A   1      44.801  30.441  32.201  1.00  0.00     0.029 A 
ATOM     56  C   UNL A   1      43.740  31.340  32.090  1.00  0.00     0.049 A 
ATOM     57  H   UNL A   1      43.935  33.173  31.060  1.00  0.00     0.167 HD
ATOM     58  C   UNL A   1      41.341  31.992  32.145  1.00  0.00     0.074 A 
ATOM     59  C   UNL A   1      41.214  32.893  31.006  1.00  0.00     0.031 C 
ATOM     60  C   UNL A   1      42.422  31.353  32.681  1.00  0.00     0.037 A 
BRANCH  47  61
ATOM     61  C   UNL A   1      45.029  32.977  28.122  1.00  0.00     0.064 A 
ATOM     62  C   UNL A   1      46.346  33.313  27.772  1.00  0.00     0.173 A 
ATOM     63  C   UNL A   1      44.072  34.008  27.992  1.00  0.00     0.173 A 
ATOM     64  F   UNL A   1      47.338  32.420  27.911  1.00  0.00    -0.203 F 
ATOM     65  C   UNL A   1      46.683  34.598  27.337  1.00  0.00     0.198 A 
ATOM     66  C   UNL A   1      44.398  35.268  27.501  1.00  0.00     0.198 A 
ATOM     67  F   UNL A   1      42.813  33.859  28.428  1.00  0.00    -0.203 F 
ATOM     68  F   UNL A   1      47.966  34.905  27.103  1.00  0.00    -0.200 F 
ATOM     69  C   UNL A   1      45.709  35.571  27.195  1.00  0.00     0.200 A 
ATOM     70  F   UNL A   1      43.445  36.203  27.394  1.00  0.00    -0.200 F 
ATOM     71  F   UNL A   1      46.036  36.811  26.811  1.00  0.00    -0.200 F 
ENDBRANCH  47  61
BRANCH  48  72
ATOM     72  C   UNL A   1      36.881  31.704  30.552  1.00  0.00     0.064 A 
ATOM     73  C   UNL A   1      35.961  31.934  31.586  1.00  0.00     0.173 A 
ATOM     74  C   UNL A   1      36.565  32.267  29.297  1.00  0.00     0.173 A 
ATOM     75  F   UNL A   1      36.213  31.483  32.823  1.00  0.00    -0.203 F 
ATOM     76  C   UNL A   1      34.798  32.683  31.377  1.00  0.00     0.198 A 
ATOM     77  C   UNL A   1      35.398  32.998  29.085  1.00  0.00     0.198 A 
ATOM     78  F   UNL A   1      37.425  32.196  28.271  1.00  0.00    -0.203 F 
ATOM     79  F   UNL A   1      33.970  32.930  32.401  1.00  0.00    -0.200 F 
ATOM     80  C   UNL A   1      34.520  33.217  30.128  1.00  0.00     0.200 A 
ATOM     81  F   UNL A   1      35.162  33.539  27.881  1.00  0.00    -0.200 F 
ATOM     82  F   UNL A   1      33.430  33.974  29.940  1.00  0.00    -0.200 F 
ENDBRANCH  48  72
BRANCH  60  83
ATOM     83  C   UNL A   1      42.164  30.361  33.779  1.00  0.00     0.064 A 
ATOM     84  C   UNL A   1      41.782  29.030  33.536  1.00  0.00     0.173 A 
ATOM     85  C   UNL A   1      42.458  30.715  35.103  1.00  0.00     0.173 A 
ATOM     86  F   UNL A   1      41.595  28.589  32.286  1.00  0.00    -0.203 F 
ATOM     87  C   UNL A   1      41.650  28.112  34.575  1.00  0.00     0.198 A 
ATOM     88  C   UNL A   1      42.359  29.786  36.136  1.00  0.00     0.198 A 
ATOM     89  F   UNL A   1      42.893  31.952  35.386  1.00  0.00    -0.203 F 
ATOM     90  F   UNL A   1      41.273  26.851  34.315  1.00  0.00    -0.200 F 
ATOM     91  C   UNL A   1      41.945  28.489  35.874  1.00  0.00     0.200 A 
ATOM     92  F   UNL A   1      42.697  30.139  37.384  1.00  0.00    -0.200 F 
ATOM     93  F   UNL A   1      41.860  27.596  36.870  1.00  0.00    -0.200 F 
ENDBRANCH  60  83
ENDBRANCH  34  35
ENDBRANCH  27  29
ENDBRANCH  26  27
ENDBRANCH  25  26
ENDBRANCH  24  25
ENDBRANCH  23  24
ENDBRANCH   1  23
TORSDOF 18
ENDMDL
MODEL 2
REMARK VINA RESULT:      -9.9      2.924      5.092
REMARK SMILES Cc1nn(-c2cccc(C(=O)OCCOCCOCCOC(=O)c3ccc(-c4c5nc(c(-c6c(F)c(F)c(F)c(F)c6F)c6ccc([nH]6)c(-c6c(F)c(F)c(F)c(F)c6F)c6nc(c(-c7c(F)c(F)c(F)c(F)c7F)c7ccc4[nH]7)C=C6)C=C5)cc3)c2)c(C)c1Cl
REMARK SMILES IDX 17 1 16 2 15 3 14 4 13 5 12 6 10 7 11 8 9 9 5 10 6 11 87 12
REMARK SMILES IDX 7 13 8 14 4 15 1 16 2 17 3 18 90 19 88 20 91 21 89 22 18 23
REMARK SMILES IDX 19 24 20 25 21 26 22 27 23 28 24 29 25 30 86 31 26 32 85 33
REMARK SMILES IDX 27 34 28 35 29 36 79 37 30 38 84 39 78 40 80 41 31 42 83 43
REMARK SMILES IDX 77 44 76 45 32 47 64 48 44 49 63 50 45 51 48 52 62 53 81 54
REMARK SMILES IDX 46 55 47 56 61 58 82 59 49 60 33 61 34 62 42 63 35 64 36 65
REMARK SMILES IDX 40 66 43 67 37 68 38 69 41 70 39 71 65 72 66 73 74 74 67 75
REMARK SMILES IDX 68 76 72 77 75 78 69 79 70 80 73 81 71 82 50 83 51 84 59 85
REMARK SMILES IDX 52 86 53 87 57 88 60 89 54 90 55 91 58 92 56 93
REMARK H PARENT 80 46 48 57
REMARK Flexibility Score: inf
ROOT
ATOM      1  C   UNL A   1      45.032  19.839  24.720  1.00  0.00     0.188 C 
ENDROOT
BRANCH   1   2
ATOM      2  C   UNL A   1      44.752  18.460  25.357  1.00  0.00     0.188 C 
BRANCH   2   3
ATOM      3  O   UNL A   1      43.428  18.052  25.629  1.00  0.00    -0.376 OA
BRANCH   3   4
ATOM      4  C   UNL A   1      42.643  18.774  26.566  1.00  0.00     0.202 C 
BRANCH   4   5
ATOM      5  C   UNL A   1      41.179  19.189  26.318  1.00  0.00     0.261 C 
BRANCH   5   6
ATOM      6  O   UNL A   1      40.745  20.389  26.974  1.00  0.00    -0.460 OA
BRANCH   6   7
ATOM      7  C   UNL A   1      40.847  21.531  26.245  1.00  0.00     0.338 C 
ATOM      8  O   UNL A   1      41.781  21.868  25.539  1.00  0.00    -0.246 OA
BRANCH   7   9
ATOM      9  C   UNL A   1      39.544  22.239  26.245  1.00  0.00     0.062 A 
ATOM     10  C   UNL A   1      37.194  22.391  25.680  1.00  0.00     0.066 A 
ATOM     11  C   UNL A   1      37.184  23.724  26.122  1.00  0.00     0.028 A 
ATOM     12  C   UNL A   1      38.394  21.665  25.696  1.00  0.00     0.044 A 
ATOM     13  C   UNL A   1      38.335  24.292  26.672  1.00  0.00     0.003 A 
ATOM     14  C   UNL A   1      39.508  23.543  26.758  1.00  0.00     0.016 A 
BRANCH  10  15
ATOM     15  N   UNL A   1      35.975  21.800  25.239  1.00  0.00    -0.236 N 
ATOM     16  C   UNL A   1      34.150  18.826  24.515  1.00  0.00     0.070 C 
ATOM     17  C   UNL A   1      34.626  20.213  24.739  1.00  0.00     0.079 A 
ATOM     18  N   UNL A   1      35.906  20.453  25.050  1.00  0.00    -0.171 NA
ATOM     19  C   UNL A   1      33.894  21.409  24.616  1.00  0.00     0.085 A 
ATOM     20  C   UNL A   1      34.789  22.425  24.874  1.00  0.00     0.060 A 
ATOM     21  Cl  UNL A   1      32.269  21.544  24.148  1.00  0.00    -0.080 Cl
ATOM     22  C   UNL A   1      34.616  23.891  24.701  1.00  0.00     0.068 C 
ENDBRANCH  10  15
ENDBRANCH   7   9
ENDBRANCH   6   7
ENDBRANCH   5   6
ENDBRANCH   4   5
ENDBRANCH   3   4
ENDBRANCH   2   3
ENDBRANCH   1   2
BRANCH   1  23
ATOM     23  O   UNL A   1      46.059  20.680  25.202  1.00  0.00    -0.376 OA
BRANCH  23  24
ATOM     24  C   UNL A   1      46.115  22.078  24.966  1.00  0.00     0.202 C 
BRANCH  24  25
ATOM     25  C   UNL A   1      45.766  23.171  25.976  1.00  0.00     0.261 C 
BRANCH  25  26
ATOM     26  O   UNL A   1      44.384  23.424  26.123  1.00  0.00    -0.460 OA
BRANCH  26  27
ATOM     27  C   UNL A   1      44.009  24.614  25.609  1.00  0.00     0.338 C 
ATOM     28  O   UNL A   1      44.508  25.201  24.665  1.00  0.00    -0.246 OA
BRANCH  27  29
ATOM     29  C   UNL A   1      42.876  25.139  26.376  1.00  0.00     0.060 A 
ATOM     30  C   UNL A   1      42.060  26.051  25.703  1.00  0.00     0.016 A 
ATOM     31  C   UNL A   1      42.849  24.989  27.769  1.00  0.00     0.016 A 
ATOM     32  C   UNL A   1      41.457  27.037  26.442  1.00  0.00     0.010 A 
ATOM     33  C   UNL A   1      42.252  25.980  28.509  1.00  0.00     0.010 A 
ATOM     34  C   UNL A   1      41.692  27.054  27.819  1.00  0.00    -0.014 A 
BRANCH  34  35
ATOM     35  C   UNL A   1      41.576  28.342  28.468  1.00  0.00     0.031 A 
ATOM     36  C   UNL A   1      42.673  29.295  28.239  1.00  0.00     0.074 A 
ATOM     37  C   UNL A   1      40.476  28.632  29.189  1.00  0.00     0.049 A 
ATOM     38  N   UNL A   1      43.423  29.876  29.115  1.00  0.00    -0.248 NA
ATOM     39  C   UNL A   1      43.011  29.593  26.843  1.00  0.00     0.031 C 
ATOM     40  C   UNL A   1      39.210  27.891  29.252  1.00  0.00     0.029 A 
ATOM     41  N   UNL A   1      40.229  29.735  29.943  1.00  0.00    -0.354 N 
ATOM     42  C   UNL A   1      44.244  30.730  28.391  1.00  0.00     0.074 A 
ATOM     43  C   UNL A   1      44.027  30.439  26.996  1.00  0.00     0.031 C 
ATOM     44  C   UNL A   1      38.269  28.675  29.822  1.00  0.00     0.029 A 
ATOM     45  C   UNL A   1      38.895  29.910  30.264  1.00  0.00     0.049 A 
ATOM     46  H   UNL A   1      40.937  30.353  30.236  1.00  0.00     0.167 HD
ATOM     47  C   UNL A   1      44.913  31.758  28.974  1.00  0.00     0.037 A 
ATOM     48  C   UNL A   1      38.341  31.042  30.755  1.00  0.00     0.037 A 
ATOM     49  C   UNL A   1      45.063  31.584  30.391  1.00  0.00     0.049 A 
ATOM     50  C   UNL A   1      39.433  31.864  31.337  1.00  0.00     0.074 A 
ATOM     51  C   UNL A   1      45.700  30.650  31.184  1.00  0.00     0.029 A 
ATOM     52  N   UNL A   1      44.237  32.281  31.235  1.00  0.00    -0.354 N 
ATOM     53  N   UNL A   1      40.104  31.545  32.410  1.00  0.00    -0.248 NA
ATOM     54  C   UNL A   1      40.064  32.860  30.483  1.00  0.00     0.031 C 
ATOM     55  C   UNL A   1      44.891  30.531  32.351  1.00  0.00     0.029 A 
ATOM     56  C   UNL A   1      43.812  31.401  32.199  1.00  0.00     0.049 A 
ATOM     57  H   UNL A   1      43.995  33.234  31.164  1.00  0.00     0.167 HD
ATOM     58  C   UNL A   1      41.397  31.992  32.169  1.00  0.00     0.074 A 
ATOM     59  C   UNL A   1      41.285  32.884  31.021  1.00  0.00     0.031 C 
ATOM     60  C   UNL A   1      42.475  31.384  32.746  1.00  0.00     0.037 A 
BRANCH  47  61
ATOM     61  C   UNL A   1      45.191  33.049  28.265  1.00  0.00     0.064 A 
ATOM     62  C   UNL A   1      44.140  33.927  27.957  1.00  0.00     0.173 A 
ATOM     63  C   UNL A   1      46.434  33.334  27.658  1.00  0.00     0.173 A 
ATOM     64  F   UNL A   1      42.907  33.711  28.440  1.00  0.00    -0.203 F 
ATOM     65  C   UNL A   1      44.320  35.008  27.090  1.00  0.00     0.198 A 
ATOM     66  C   UNL A   1      46.626  34.445  26.843  1.00  0.00     0.198 A 
ATOM     67  F   UNL A   1      47.475  32.495  27.756  1.00  0.00    -0.203 F 
ATOM     68  F   UNL A   1      43.270  35.766  26.747  1.00  0.00    -0.200 F 
ATOM     69  C   UNL A   1      45.563  35.270  26.540  1.00  0.00     0.200 A 
ATOM     70  F   UNL A   1      47.832  34.668  26.302  1.00  0.00    -0.200 F 
ATOM     71  F   UNL A   1      45.728  36.284  25.682  1.00  0.00    -0.200 F 
ENDBRANCH  47  61
BRANCH  48  72
ATOM     72  C   UNL A   1      37.001  31.581  30.431  1.00  0.00     0.064 A 
ATOM     73  C   UNL A   1      36.042  31.793  31.432  1.00  0.00     0.173 A 
ATOM     74  C   UNL A   1      36.713  32.128  29.162  1.00  0.00     0.173 A 
ATOM     75  F   UNL A   1      36.263  31.357  32.680  1.00  0.00    -0.203 F 
ATOM     76  C   UNL A   1      34.868  32.512  31.180  1.00  0.00     0.198 A 
ATOM     77  C   UNL A   1      35.536  32.828  28.907  1.00  0.00     0.198 A 
ATOM     78  F   UNL A   1      37.608  32.073  28.166  1.00  0.00    -0.203 F 
ATOM     79  F   UNL A   1      34.000  32.743  32.174  1.00  0.00    -0.200 F 
ATOM     80  C   UNL A   1      34.618  33.031  29.919  1.00  0.00     0.200 A 
ATOM     81  F   UNL A   1      35.326  33.355  27.692  1.00  0.00    -0.200 F 
ATOM     82  F   UNL A   1      33.516  33.758  29.690  1.00  0.00    -0.200 F 
ENDBRANCH  48  72
BRANCH  60  83
ATOM     83  C   UNL A   1      42.206  30.392  33.841  1.00  0.00     0.064 A 
ATOM     84  C   UNL A   1      41.830  29.061  33.593  1.00  0.00     0.173 A 
ATOM     85  C   UNL A   1      42.482  30.748  35.168  1.00  0.00     0.173 A 
ATOM     86  F   UNL A   1      41.660  28.618  32.342  1.00  0.00    -0.203 F 
ATOM     87  C   UNL A   1      41.687  28.143  34.632  1.00  0.00     0.198 A 
ATOM     88  C   UNL A   1      42.372  29.819  36.201  1.00  0.00     0.198 A 
ATOM     89  F   UNL A   1      42.910  31.987  35.456  1.00  0.00    -0.203 F 
ATOM     90  F   UNL A   1      41.317  26.881  34.368  1.00  0.00    -0.200 F 
ATOM     91  C   UNL A   1      41.965  28.521  35.934  1.00  0.00     0.200 A 
ATOM     92  F   UNL A   1      42.694  30.174  37.452  1.00  0.00    -0.200 F 
ATOM     93  F   UNL A   1      41.870  27.628  36.929  1.00  0.00    -0.200 F 
ENDBRANCH  60  83
ENDBRANCH  34  35
ENDBRANCH  27  29
ENDBRANCH  26  27
ENDBRANCH  25  26
ENDBRANCH  24  25
ENDBRANCH  23  24
ENDBRANCH   1  23
TORSDOF 18
ENDMDL
MODEL 3
REMARK VINA RESULT:      -9.7      3.981      6.595
REMARK SMILES Cc1nn(-c2cccc(C(=O)OCCOCCOCCOC(=O)c3ccc(-c4c5nc(c(-c6c(F)c(F)c(F)c(F)c6F)c6ccc([nH]6)c(-c6c(F)c(F)c(F)c(F)c6F)c6nc(c(-c7c(F)c(F)c(F)c(F)c7F)c7ccc4[nH]7)C=C6)C=C5)cc3)c2)c(C)c1Cl
REMARK SMILES IDX 17 1 16 2 15 3 14 4 13 5 12 6 10 7 11 8 9 9 5 10 6 11 87 12
REMARK SMILES IDX 7 13 8 14 4 15 1 16 2 17 3 18 90 19 88 20 91 21 89 22 18 23
REMARK SMILES IDX 19 24 20 25 21 26 22 27 23 28 24 29 25 30 86 31 26 32 85 33
REMARK SMILES IDX 27 34 28 35 29 36 79 37 30 38 84 39 78 40 80 41 31 42 83 43
REMARK SMILES IDX 77 44 76 45 32 47 64 48 44 49 63 50 45 51 48 52 62 53 81 54
REMARK SMILES IDX 46 55 47 56 61 58 82 59 49 60 33 61 34 62 42 63 35 64 36 65
REMARK SMILES IDX 40 66 43 67 37 68 38 69 41 70 39 71 65 72 66 73 74 74 67 75
REMARK SMILES IDX 68 76 72 77 75 78 69 79 70 80 73 81 71 82 50 83 51 84 59 85
REMARK SMILES IDX 52 86 53 87 57 88 60 89 54 90 55 91 58 92 56 93
REMARK H PARENT 80 46 48 57
REMARK Flexibility Score: inf
ROOT
ATOM      1  C   UNL A   1      40.620  21.544  27.439  1.00  0.00     0.188 C 
ENDROOT
BRANCH   1   2
ATOM      2  C   UNL A   1      39.793  21.958  26.202  1.00  0.00     0.188 C 
BRANCH   2   3
ATOM      3  O   UNL A   1      38.387  21.833  26.205  1.00  0.00    -0.376 OA
BRANCH   3   4
ATOM      4  C   UNL A   1      37.707  21.456  25.016  1.00  0.00     0.202 C 
BRANCH   4   5
ATOM      5  C   UNL A   1      36.364  20.699  25.001  1.00  0.00     0.261 C 
BRANCH   5   6
ATOM      6  O   UNL A   1      35.285  21.345  24.310  1.00  0.00    -0.460 OA
BRANCH   6   7
ATOM      7  C   UNL A   1      34.038  20.893  24.607  1.00  0.00     0.338 C 
ATOM      8  O   UNL A   1      33.588  19.784  24.380  1.00  0.00    -0.246 OA
BRANCH   7   9
ATOM      9  C   UNL A   1      33.342  21.882  25.464  1.00  0.00     0.062 A 
ATOM     10  C   UNL A   1      32.235  24.009  25.806  1.00  0.00     0.066 A 
ATOM     11  C   UNL A   1      32.214  23.764  27.189  1.00  0.00     0.028 A 
ATOM     12  C   UNL A   1      32.848  23.084  24.948  1.00  0.00     0.044 A 
ATOM     13  C   UNL A   1      32.707  22.561  27.698  1.00  0.00     0.003 A 
ATOM     14  C   UNL A   1      33.246  21.609  26.834  1.00  0.00     0.016 A 
BRANCH  10  15
ATOM     15  N   UNL A   1      31.614  25.189  25.304  1.00  0.00    -0.236 N 
ATOM     16  C   UNL A   1      28.724  26.707  23.875  1.00  0.00     0.070 C 
ATOM     17  C   UNL A   1      30.047  26.382  24.462  1.00  0.00     0.079 A 
ATOM     18  N   UNL A   1      30.381  25.114  24.733  1.00  0.00    -0.171 NA
ATOM     19  C   UNL A   1      31.104  27.265  24.752  1.00  0.00     0.085 A 
ATOM     20  C   UNL A   1      32.130  26.477  25.231  1.00  0.00     0.060 A 
ATOM     21  Cl  UNL A   1      31.118  28.937  24.470  1.00  0.00    -0.080 Cl
ATOM     22  C   UNL A   1      33.541  26.848  25.511  1.00  0.00     0.068 C 
ENDBRANCH  10  15
ENDBRANCH   7   9
ENDBRANCH   6   7
ENDBRANCH   5   6
ENDBRANCH   4   5
ENDBRANCH   3   4
ENDBRANCH   2   3
ENDBRANCH   1   2
BRANCH   1  23
ATOM     23  O   UNL A   1      41.846  20.857  27.311  1.00  0.00    -0.376 OA
BRANCH  23  24
ATOM     24  C   UNL A   1      42.628  20.845  26.126  1.00  0.00     0.202 C 
BRANCH  24  25
ATOM     25  C   UNL A   1      43.467  22.007  25.596  1.00  0.00     0.261 C 
BRANCH  25  26
ATOM     26  O   UNL A   1      42.727  23.041  24.982  1.00  0.00    -0.460 OA
BRANCH  26  27
ATOM     27  C   UNL A   1      43.127  24.273  25.364  1.00  0.00     0.338 C 
ATOM     28  O   UNL A   1      44.134  24.863  25.016  1.00  0.00    -0.246 OA
BRANCH  27  29
ATOM     29  C   UNL A   1      42.149  24.831  26.303  1.00  0.00     0.060 A 
ATOM     30  C   UNL A   1      41.234  25.734  25.757  1.00  0.00     0.016 A 
ATOM     31  C   UNL A   1      42.365  24.717  27.682  1.00  0.00     0.016 A 
ATOM     32  C   UNL A   1      40.777  26.746  26.563  1.00  0.00     0.010 A 
ATOM     33  C   UNL A   1      41.914  25.734  28.488  1.00  0.00     0.010 A 
ATOM     34  C   UNL A   1      41.249  26.796  27.877  1.00  0.00    -0.014 A 
BRANCH  34  35
ATOM     35  C   UNL A   1      41.258  28.102  28.500  1.00  0.00     0.031 A 
ATOM     36  C   UNL A   1      42.410  28.967  28.199  1.00  0.00     0.074 A 
ATOM     37  C   UNL A   1      40.217  28.488  29.262  1.00  0.00     0.049 A 
ATOM     38  N   UNL A   1      43.241  29.508  29.027  1.00  0.00    -0.248 NA
ATOM     39  C   UNL A   1      42.704  29.211  26.783  1.00  0.00     0.031 C 
ATOM     40  C   UNL A   1      38.904  27.844  29.399  1.00  0.00     0.029 A 
ATOM     41  N   UNL A   1      40.086  29.621  30.000  1.00  0.00    -0.354 N 
ATOM     42  C   UNL A   1      44.087  30.284  28.248  1.00  0.00     0.074 A 
ATOM     43  C   UNL A   1      43.786  29.981  26.870  1.00  0.00     0.031 C 
ATOM     44  C   UNL A   1      38.050  28.707  29.991  1.00  0.00     0.029 A 
ATOM     45  C   UNL A   1      38.785  29.901  30.376  1.00  0.00     0.049 A 
ATOM     46  H   UNL A   1      40.850  30.190  30.246  1.00  0.00     0.167 HD
ATOM     47  C   UNL A   1      44.856  31.272  28.776  1.00  0.00     0.037 A 
ATOM     48  C   UNL A   1      38.338  31.080  30.865  1.00  0.00     0.037 A 
ATOM     49  C   UNL A   1      45.059  31.116  30.188  1.00  0.00     0.049 A 
ATOM     50  C   UNL A   1      39.513  31.830  31.378  1.00  0.00     0.074 A 
ATOM     51  C   UNL A   1      45.661  30.153  30.974  1.00  0.00     0.029 A 
ATOM     52  N   UNL A   1      44.325  31.889  31.052  1.00  0.00    -0.354 N 
ATOM     53  N   UNL A   1      40.209  31.485  32.427  1.00  0.00    -0.248 NA
ATOM     54  C   UNL A   1      40.175  32.760  30.473  1.00  0.00     0.031 C 
ATOM     55  C   UNL A   1      44.900  30.117  32.179  1.00  0.00     0.029 A 
ATOM     56  C   UNL A   1      43.882  31.062  32.054  1.00  0.00     0.049 A 
ATOM     57  H   UNL A   1      44.150  32.855  30.969  1.00  0.00     0.167 HD
ATOM     58  C   UNL A   1      41.518  31.829  32.118  1.00  0.00     0.074 A 
ATOM     59  C   UNL A   1      41.418  32.704  30.956  1.00  0.00     0.031 C 
ATOM     60  C   UNL A   1      42.574  31.155  32.660  1.00  0.00     0.037 A 
BRANCH  47  61
ATOM     61  C   UNL A   1      45.194  32.523  28.025  1.00  0.00     0.064 A 
ATOM     62  C   UNL A   1      44.213  33.503  27.805  1.00  0.00     0.173 A 
ATOM     63  C   UNL A   1      46.396  32.677  27.299  1.00  0.00     0.173 A 
ATOM     64  F   UNL A   1      43.016  33.417  28.405  1.00  0.00    -0.203 F 
ATOM     65  C   UNL A   1      44.418  34.555  26.909  1.00  0.00     0.198 A 
ATOM     66  C   UNL A   1      46.622  33.758  26.454  1.00  0.00     0.198 A 
ATOM     67  F   UNL A   1      47.351  31.736  27.310  1.00  0.00    -0.203 F 
ATOM     68  F   UNL A   1      43.424  35.416  26.655  1.00  0.00    -0.200 F 
ATOM     69  C   UNL A   1      45.624  34.686  26.240  1.00  0.00     0.200 A 
ATOM     70  F   UNL A   1      47.786  33.854  25.798  1.00  0.00    -0.200 F 
ATOM     71  F   UNL A   1      45.808  35.674  25.356  1.00  0.00    -0.200 F 
ENDBRANCH  47  61
BRANCH  48  72
ATOM     72  C   UNL A   1      37.028  31.711  30.588  1.00  0.00     0.064 A 
ATOM     73  C   UNL A   1      36.073  31.876  31.602  1.00  0.00     0.173 A 
ATOM     74  C   UNL A   1      36.775  32.385  29.374  1.00  0.00     0.173 A 
ATOM     75  F   UNL A   1      36.265  31.317  32.805  1.00  0.00    -0.203 F 
ATOM     76  C   UNL A   1      34.936  32.670  31.413  1.00  0.00     0.198 A 
ATOM     77  C   UNL A   1      35.634  33.161  29.181  1.00  0.00     0.198 A 
ATOM     78  F   UNL A   1      37.673  32.378  28.379  1.00  0.00    -0.203 F 
ATOM     79  F   UNL A   1      34.074  32.851  32.422  1.00  0.00    -0.200 F 
ATOM     80  C   UNL A   1      34.720  33.314  30.205  1.00  0.00     0.200 A 
ATOM     81  F   UNL A   1      35.459  33.807  28.019  1.00  0.00    -0.200 F 
ATOM     82  F   UNL A   1      33.656  34.111  30.041  1.00  0.00    -0.200 F 
ENDBRANCH  48  72
BRANCH  60  83
ATOM     83  C   UNL A   1      42.284  30.208  33.789  1.00  0.00     0.064 A 
ATOM     84  C   UNL A   1      41.851  28.886  33.588  1.00  0.00     0.173 A 
ATOM     85  C   UNL A   1      42.596  30.592  35.101  1.00  0.00     0.173 A 
ATOM     86  F   UNL A   1      41.642  28.413  32.354  1.00  0.00    -0.203 F 
ATOM     87  C   UNL A   1      41.689  28.006  34.657  1.00  0.00     0.198 A 
ATOM     88  C   UNL A   1      42.467  29.700  36.163  1.00  0.00     0.198 A 
ATOM     89  F   UNL A   1      43.078  31.821  35.344  1.00  0.00    -0.203 F 
ATOM     90  F   UNL A   1      41.265  26.753  34.438  1.00  0.00    -0.200 F 
ATOM     91  C   UNL A   1      42.004  28.412  35.942  1.00  0.00     0.200 A 
ATOM     92  F   UNL A   1      42.823  30.078  37.398  1.00  0.00    -0.200 F 
ATOM     93  F   UNL A   1      41.890  27.554  36.966  1.00  0.00    -0.200 F 
ENDBRANCH  60  83
ENDBRANCH  34  35
ENDBRANCH  27  29
ENDBRANCH  26  27
ENDBRANCH  25  26
ENDBRANCH  24  25
ENDBRANCH  23  24
ENDBRANCH   1  23
TORSDOF 18
ENDMDL
