MODEL 1
REMARK VINA RESULT:     -10.9      0.000      0.000
REMARK SMILES O=C(OCCOCCOCCOC(=O)c1ccc(COc2cccc(Cl)c2Cl)o1)c1ccc(-c2c3nc(c(-c4c(F)c(F)c(F)c(F)c4F)c4ccc([nH]4)c(-c4c(F)c(F)c(F)c(F)c4F)c4nc(c(-c5c(F)c(F)c(F)c(F)c5F)c5ccc2[nH]5)C=C4)C=C3)cc1
REMARK SMILES IDX 8 1 7 2 6 3 5 4 4 5 3 6 2 7 1 8 30 9 31 10 92 11 32 12 91 13
REMARK SMILES IDX 33 14 34 15 35 16 85 17 36 18 90 19 84 20 86 21 37 22 89 23
REMARK SMILES IDX 83 24 82 25 38 27 70 28 50 29 69 30 51 31 54 32 68 33 87 34
REMARK SMILES IDX 52 35 53 36 67 38 88 39 55 40 39 41 40 42 48 43 41 44 42 45
REMARK SMILES IDX 46 46 49 47 43 48 44 49 47 50 45 51 71 52 72 53 80 54 73 55
REMARK SMILES IDX 74 56 78 57 81 58 75 59 76 60 79 61 77 62 56 63 57 64 65 65
REMARK SMILES IDX 58 66 59 67 63 68 66 69 60 70 61 71 64 72 62 73 9 74 10 75
REMARK SMILES IDX 11 76 12 77 13 78 14 79 15 80 16 81 29 82 17 83 18 84 19 85
REMARK SMILES IDX 20 86 21 87 22 88 27 89 23 90 25 91 28 92 24 93 26 94
REMARK H PARENT 86 26 54 37
REMARK Flexibility Score: inf
ROOT
ATOM      1  C   UNL A   1      39.973  21.337  26.438  1.00  0.00     0.188 C 
ENDROOT
BRANCH   1   2
ATOM      2  C   UNL A   1      40.788  20.927  27.669  1.00  0.00     0.188 C 
BRANCH   2   3
ATOM      3  O   UNL A   1      42.194  20.978  27.371  1.00  0.00    -0.376 OA
BRANCH   3   4
ATOM      4  C   UNL A   1      42.528  20.443  26.089  1.00  0.00     0.202 C 
BRANCH   4   5
ATOM      5  C   UNL A   1      43.578  21.275  25.350  1.00  0.00     0.261 C 
BRANCH   5   6
ATOM      6  O   UNL A   1      43.020  22.529  24.925  1.00  0.00    -0.460 OA
BRANCH   6   7
ATOM      7  C   UNL A   1      43.575  23.762  25.014  1.00  0.00     0.338 C 
ATOM      8  O   UNL A   1      44.489  24.058  24.246  1.00  0.00    -0.246 OA
BRANCH   7   9
ATOM      9  C   UNL A   1      43.049  24.835  25.911  1.00  0.00     0.060 A 
ATOM     10  C   UNL A   1      43.311  26.203  25.792  1.00  0.00     0.016 A 
ATOM     11  C   UNL A   1      42.175  24.415  26.927  1.00  0.00     0.016 A 
ATOM     12  C   UNL A   1      42.845  27.110  26.749  1.00  0.00     0.010 A 
ATOM     13  C   UNL A   1      41.652  25.326  27.848  1.00  0.00     0.010 A 
ATOM     14  C   UNL A   1      42.029  26.673  27.796  1.00  0.00    -0.014 A 
BRANCH  14  15
ATOM     15  C   UNL A   1      41.643  27.584  28.897  1.00  0.00     0.031 A 
ATOM     16  C   UNL A   1      42.412  27.530  30.184  1.00  0.00     0.074 A 
ATOM     17  C   UNL A   1      40.621  28.447  28.761  1.00  0.00     0.049 A 
ATOM     18  N   UNL A   1      42.160  28.113  31.328  1.00  0.00    -0.248 NA
ATOM     19  C   UNL A   1      43.636  26.714  30.177  1.00  0.00     0.031 C 
ATOM     20  C   UNL A   1      39.858  28.658  27.536  1.00  0.00     0.029 A 
ATOM     21  N   UNL A   1      40.038  29.290  29.672  1.00  0.00    -0.354 N 
ATOM     22  C   UNL A   1      43.188  27.729  32.176  1.00  0.00     0.074 A 
ATOM     23  C   UNL A   1      44.052  26.841  31.427  1.00  0.00     0.031 C 
ATOM     24  C   UNL A   1      38.879  29.543  27.778  1.00  0.00     0.029 A 
ATOM     25  C   UNL A   1      38.922  29.923  29.187  1.00  0.00     0.049 A 
ATOM     26  H   UNL A   1      40.385  29.428  30.583  1.00  0.00     0.167 HD
ATOM     27  C   UNL A   1      43.400  28.094  33.461  1.00  0.00     0.037 A 
ATOM     28  C   UNL A   1      38.010  30.689  29.817  1.00  0.00     0.037 A 
ATOM     29  C   UNL A   1      42.541  28.974  34.204  1.00  0.00     0.049 A 
ATOM     30  C   UNL A   1      38.198  30.997  31.276  1.00  0.00     0.074 A 
ATOM     31  C   UNL A   1      42.652  29.390  35.518  1.00  0.00     0.029 A 
ATOM     32  N   UNL A   1      41.403  29.574  33.686  1.00  0.00    -0.354 N 
ATOM     33  N   UNL A   1      39.158  30.612  32.080  1.00  0.00    -0.248 NA
ATOM     34  C   UNL A   1      37.183  31.846  31.913  1.00  0.00     0.031 C 
ATOM     35  C   UNL A   1      41.566  30.228  35.802  1.00  0.00     0.029 A 
ATOM     36  C   UNL A   1      40.794  30.351  34.657  1.00  0.00     0.049 A 
ATOM     37  H   UNL A   1      41.077  29.465  32.764  1.00  0.00     0.167 HD
ATOM     38  C   UNL A   1      38.883  31.192  33.308  1.00  0.00     0.074 A 
ATOM     39  C   UNL A   1      37.660  31.952  33.147  1.00  0.00     0.031 C 
ATOM     40  C   UNL A   1      39.587  31.111  34.464  1.00  0.00     0.037 A 
BRANCH  27  41
ATOM     41  C   UNL A   1      44.603  27.509  34.134  1.00  0.00     0.064 A 
ATOM     42  C   UNL A   1      45.821  28.201  34.178  1.00  0.00     0.173 A 
ATOM     43  C   UNL A   1      44.548  26.227  34.698  1.00  0.00     0.173 A 
ATOM     44  F   UNL A   1      45.926  29.420  33.626  1.00  0.00    -0.203 F 
ATOM     45  C   UNL A   1      46.954  27.616  34.736  1.00  0.00     0.198 A 
ATOM     46  C   UNL A   1      45.679  25.653  35.273  1.00  0.00     0.198 A 
ATOM     47  F   UNL A   1      43.407  25.524  34.672  1.00  0.00    -0.203 F 
ATOM     48  F   UNL A   1      48.123  28.272  34.719  1.00  0.00    -0.200 F 
ATOM     49  C   UNL A   1      46.882  26.343  35.283  1.00  0.00     0.200 A 
ATOM     50  F   UNL A   1      45.610  24.421  35.797  1.00  0.00    -0.200 F 
ATOM     51  F   UNL A   1      47.978  25.774  35.805  1.00  0.00    -0.200 F 
ENDBRANCH  27  41
BRANCH  28  52
ATOM     52  C   UNL A   1      36.829  31.179  29.065  1.00  0.00     0.064 A 
ATOM     53  C   UNL A   1      35.757  30.331  28.760  1.00  0.00     0.173 A 
ATOM     54  C   UNL A   1      36.732  32.524  28.674  1.00  0.00     0.173 A 
ATOM     55  F   UNL A   1      35.810  29.037  29.101  1.00  0.00    -0.203 F 
ATOM     56  C   UNL A   1      34.631  30.810  28.093  1.00  0.00     0.198 A 
ATOM     57  C   UNL A   1      35.598  33.006  28.025  1.00  0.00     0.198 A 
ATOM     58  F   UNL A   1      37.729  33.377  28.952  1.00  0.00    -0.203 F 
ATOM     59  F   UNL A   1      33.623  29.977  27.799  1.00  0.00    -0.200 F 
ATOM     60  C   UNL A   1      34.549  32.149  27.732  1.00  0.00     0.200 A 
ATOM     61  F   UNL A   1      35.516  34.303  27.699  1.00  0.00    -0.200 F 
ATOM     62  F   UNL A   1      33.458  32.612  27.107  1.00  0.00    -0.200 F 
ENDBRANCH  28  52
BRANCH  40  63
ATOM     63  C   UNL A   1      39.077  31.897  35.630  1.00  0.00     0.064 A 
ATOM     64  C   UNL A   1      38.227  31.322  36.582  1.00  0.00     0.173 A 
ATOM     65  C   UNL A   1      39.493  33.222  35.824  1.00  0.00     0.173 A 
ATOM     66  F   UNL A   1      37.793  30.062  36.426  1.00  0.00    -0.203 F 
ATOM     67  C   UNL A   1      37.803  32.050  37.690  1.00  0.00     0.198 A 
ATOM     68  C   UNL A   1      39.080  33.943  36.940  1.00  0.00     0.198 A 
ATOM     69  F   UNL A   1      40.308  33.812  34.935  1.00  0.00    -0.203 F 
ATOM     70  F   UNL A   1      36.974  31.491  38.582  1.00  0.00    -0.200 F 
ATOM     71  C   UNL A   1      38.236  33.356  37.872  1.00  0.00     0.200 A 
ATOM     72  F   UNL A   1      39.500  35.203  37.116  1.00  0.00    -0.200 F 
ATOM     73  F   UNL A   1      37.834  34.054  38.943  1.00  0.00    -0.200 F 
ENDBRANCH  40  63
ENDBRANCH  14  15
ENDBRANCH   7   9
ENDBRANCH   6   7
ENDBRANCH   5   6
ENDBRANCH   4   5
ENDBRANCH   3   4
ENDBRANCH   2   3
ENDBRANCH   1   2
BRANCH   1  74
ATOM     74  O   UNL A   1      39.322  22.607  26.598  1.00  0.00    -0.376 OA
BRANCH  74  75
ATOM     75  C   UNL A   1      38.048  22.732  25.968  1.00  0.00     0.202 C 
BRANCH  75  76
ATOM     76  C   UNL A   1      37.778  21.656  24.920  1.00  0.00     0.261 C 
BRANCH  76  77
ATOM     77  O   UNL A   1      36.375  21.484  24.667  1.00  0.00    -0.457 OA
BRANCH  77  78
ATOM     78  C   UNL A   1      35.870  22.396  23.790  1.00  0.00     0.374 C 
ATOM     79  O   UNL A   1      36.547  23.017  22.973  1.00  0.00    -0.242 OA
BRANCH  78  80
ATOM     80  C   UNL A   1      34.443  22.567  23.947  1.00  0.00     0.211 A 
ATOM     81  C   UNL A   1      33.487  21.615  24.253  1.00  0.00     0.058 A 
ATOM     82  O   UNL A   1      33.844  23.801  23.866  1.00  0.00    -0.450 OA
ATOM     83  C   UNL A   1      32.256  22.288  24.383  1.00  0.00     0.050 A 
ATOM     84  C   UNL A   1      32.520  23.626  24.172  1.00  0.00     0.142 A 
BRANCH  84  85
ATOM     85  C   UNL A   1      31.656  24.835  24.281  1.00  0.00     0.304 C 
BRANCH  85  86
ATOM     86  O   UNL A   1      31.936  25.738  23.193  1.00  0.00    -0.484 OA
BRANCH  86  87
ATOM     87  C   UNL A   1      31.407  26.992  23.382  1.00  0.00     0.140 A 
ATOM     88  C   UNL A   1      30.299  27.327  22.595  1.00  0.00     0.048 A 
ATOM     89  C   UNL A   1      31.875  27.880  24.360  1.00  0.00     0.101 A 
ATOM     90  C   UNL A   1      29.699  28.576  22.719  1.00  0.00     0.005 A 
ATOM     91  C   UNL A   1      31.256  29.132  24.492  1.00  0.00     0.063 A 
ATOM     92  Cl  UNL A   1      33.185  27.413  25.394  1.00  0.00    -0.079 Cl
ATOM     93  C   UNL A   1      30.179  29.480  23.665  1.00  0.00     0.022 A 
ATOM     94  Cl  UNL A   1      31.762  30.304  25.659  1.00  0.00    -0.083 Cl
ENDBRANCH  86  87
ENDBRANCH  85  86
ENDBRANCH  84  85
ENDBRANCH  78  80
ENDBRANCH  77  78
ENDBRANCH  76  77
ENDBRANCH  75  76
ENDBRANCH  74  75
ENDBRANCH   1  74
TORSDOF 20
ENDMDL
MODEL 2
REMARK VINA RESULT:     -10.7      3.102      8.473
REMARK SMILES O=C(OCCOCCOCCOC(=O)c1ccc(COc2cccc(Cl)c2Cl)o1)c1ccc(-c2c3nc(c(-c4c(F)c(F)c(F)c(F)c4F)c4ccc([nH]4)c(-c4c(F)c(F)c(F)c(F)c4F)c4nc(c(-c5c(F)c(F)c(F)c(F)c5F)c5ccc2[nH]5)C=C4)C=C3)cc1
REMARK SMILES IDX 8 1 7 2 6 3 5 4 4 5 3 6 2 7 1 8 30 9 31 10 92 11 32 12 91 13
REMARK SMILES IDX 33 14 34 15 35 16 85 17 36 18 90 19 84 20 86 21 37 22 89 23
REMARK SMILES IDX 83 24 82 25 38 27 70 28 50 29 69 30 51 31 54 32 68 33 87 34
REMARK SMILES IDX 52 35 53 36 67 38 88 39 55 40 39 41 40 42 48 43 41 44 42 45
REMARK SMILES IDX 46 46 49 47 43 48 44 49 47 50 45 51 71 52 72 53 80 54 73 55
REMARK SMILES IDX 74 56 78 57 81 58 75 59 76 60 79 61 77 62 56 63 57 64 65 65
REMARK SMILES IDX 58 66 59 67 63 68 66 69 60 70 61 71 64 72 62 73 9 74 10 75
REMARK SMILES IDX 11 76 12 77 13 78 14 79 15 80 16 81 29 82 17 83 18 84 19 85
REMARK SMILES IDX 20 86 21 87 22 88 27 89 23 90 25 91 28 92 24 93 26 94
REMARK H PARENT 86 26 54 37
REMARK Flexibility Score: inf
ROOT
ATOM      1  C   UNL A   1      32.572  26.916  26.492  1.00  0.00     0.188 C 
ENDROOT
BRANCH   1   2
ATOM      2  C   UNL A   1      33.321  27.636  25.366  1.00  0.00     0.188 C 
BRANCH   2   3
ATOM      3  O   UNL A   1      32.978  29.032  25.356  1.00  0.00    -0.376 OA
BRANCH   3   4
ATOM      4  C   UNL A   1      31.665  29.302  25.851  1.00  0.00     0.202 C 
BRANCH   4   5
ATOM      5  C   UNL A   1      31.618  30.511  26.788  1.00  0.00     0.261 C 
BRANCH   5   6
ATOM      6  O   UNL A   1      32.634  31.464  26.433  1.00  0.00    -0.460 OA
BRANCH   6   7
ATOM      7  C   UNL A   1      33.437  32.175  27.261  1.00  0.00     0.338 C 
ATOM      8  O   UNL A   1      33.056  33.277  27.654  1.00  0.00    -0.246 OA
BRANCH   7   9
ATOM      9  C   UNL A   1      34.708  31.638  27.831  1.00  0.00     0.060 A 
ATOM     10  C   UNL A   1      35.028  30.286  27.987  1.00  0.00     0.016 A 
ATOM     11  C   UNL A   1      35.675  32.591  28.191  1.00  0.00     0.016 A 
ATOM     12  C   UNL A   1      36.210  29.895  28.625  1.00  0.00     0.010 A 
ATOM     13  C   UNL A   1      36.886  32.205  28.768  1.00  0.00     0.010 A 
ATOM     14  C   UNL A   1      37.137  30.855  29.040  1.00  0.00    -0.014 A 
BRANCH  14  15
ATOM     15  C   UNL A   1      38.322  30.478  29.843  1.00  0.00     0.031 A 
ATOM     16  C   UNL A   1      39.287  29.475  29.283  1.00  0.00     0.074 A 
ATOM     17  C   UNL A   1      38.540  31.015  31.055  1.00  0.00     0.049 A 
ATOM     18  N   UNL A   1      40.299  28.880  29.862  1.00  0.00    -0.248 NA
ATOM     19  C   UNL A   1      39.088  29.097  27.875  1.00  0.00     0.031 C 
ATOM     20  C   UNL A   1      37.730  32.061  31.668  1.00  0.00     0.029 A 
ATOM     21  N   UNL A   1      39.499  30.734  31.996  1.00  0.00    -0.354 N 
ATOM     22  C   UNL A   1      40.851  28.056  28.893  1.00  0.00     0.074 A 
ATOM     23  C   UNL A   1      40.047  28.202  27.698  1.00  0.00     0.031 C 
ATOM     24  C   UNL A   1      38.199  32.311  32.901  1.00  0.00     0.029 A 
ATOM     25  C   UNL A   1      39.312  31.408  33.177  1.00  0.00     0.049 A 
ATOM     26  H   UNL A   1      40.245  30.112  31.840  1.00  0.00     0.167 HD
ATOM     27  C   UNL A   1      41.938  27.257  28.988  1.00  0.00     0.037 A 
ATOM     28  C   UNL A   1      39.939  31.281  34.362  1.00  0.00     0.037 A 
ATOM     29  C   UNL A   1      42.734  27.111  30.175  1.00  0.00     0.049 A 
ATOM     30  C   UNL A   1      41.077  30.307  34.486  1.00  0.00     0.074 A 
ATOM     31  C   UNL A   1      43.841  26.310  30.385  1.00  0.00     0.029 A 
ATOM     32  N   UNL A   1      42.496  27.790  31.361  1.00  0.00    -0.354 N 
ATOM     33  N   UNL A   1      41.580  29.511  33.574  1.00  0.00    -0.248 NA
ATOM     34  C   UNL A   1      41.736  30.215  35.795  1.00  0.00     0.031 C 
ATOM     35  C   UNL A   1      44.263  26.491  31.709  1.00  0.00     0.029 A 
ATOM     36  C   UNL A   1      43.431  27.420  32.314  1.00  0.00     0.049 A 
ATOM     37  H   UNL A   1      41.770  28.439  31.505  1.00  0.00     0.167 HD
ATOM     38  C   UNL A   1      42.631  28.846  34.186  1.00  0.00     0.074 A 
ATOM     39  C   UNL A   1      42.691  29.325  35.552  1.00  0.00     0.031 C 
ATOM     40  C   UNL A   1      43.477  27.927  33.660  1.00  0.00     0.037 A 
BRANCH  27  41
ATOM     41  C   UNL A   1      42.298  26.467  27.768  1.00  0.00     0.064 A 
ATOM     42  C   UNL A   1      41.717  25.217  27.512  1.00  0.00     0.173 A 
ATOM     43  C   UNL A   1      43.266  26.944  26.874  1.00  0.00     0.173 A 
ATOM     44  F   UNL A   1      40.806  24.709  28.357  1.00  0.00    -0.203 F 
ATOM     45  C   UNL A   1      42.116  24.456  26.416  1.00  0.00     0.198 A 
ATOM     46  C   UNL A   1      43.648  26.188  25.768  1.00  0.00     0.198 A 
ATOM     47  F   UNL A   1      43.854  28.130  27.083  1.00  0.00    -0.203 F 
ATOM     48  F   UNL A   1      41.589  23.240  26.219  1.00  0.00    -0.200 F 
ATOM     49  C   UNL A   1      43.081  24.943  25.546  1.00  0.00     0.200 A 
ATOM     50  F   UNL A   1      44.584  26.656  24.930  1.00  0.00    -0.200 F 
ATOM     51  F   UNL A   1      43.476  24.201  24.502  1.00  0.00    -0.200 F 
ENDBRANCH  27  41
BRANCH  28  52
ATOM     52  C   UNL A   1      39.470  32.079  35.521  1.00  0.00     0.064 A 
ATOM     53  C   UNL A   1      38.563  31.552  36.448  1.00  0.00     0.173 A 
ATOM     54  C   UNL A   1      39.959  33.376  35.747  1.00  0.00     0.173 A 
ATOM     55  F   UNL A   1      38.058  30.325  36.266  1.00  0.00    -0.203 F 
ATOM     56  C   UNL A   1      38.161  32.292  37.559  1.00  0.00     0.198 A 
ATOM     57  C   UNL A   1      39.573  34.106  36.868  1.00  0.00     0.198 A 
ATOM     58  F   UNL A   1      40.838  33.920  34.893  1.00  0.00    -0.203 F 
ATOM     59  F   UNL A   1      37.280  31.773  38.425  1.00  0.00    -0.200 F 
ATOM     60  C   UNL A   1      38.672  33.565  37.773  1.00  0.00     0.200 A 
ATOM     61  F   UNL A   1      40.086  35.325  37.080  1.00  0.00    -0.200 F 
ATOM     62  F   UNL A   1      38.300  34.268  38.850  1.00  0.00    -0.200 F 
ENDBRANCH  28  52
BRANCH  40  63
ATOM     63  C   UNL A   1      44.566  27.414  34.549  1.00  0.00     0.064 A 
ATOM     64  C   UNL A   1      45.809  28.053  34.625  1.00  0.00     0.173 A 
ATOM     65  C   UNL A   1      44.336  26.305  35.377  1.00  0.00     0.173 A 
ATOM     66  F   UNL A   1      46.075  29.108  33.840  1.00  0.00    -0.203 F 
ATOM     67  C   UNL A   1      46.792  27.595  35.497  1.00  0.00     0.198 A 
ATOM     68  C   UNL A   1      45.316  25.858  36.257  1.00  0.00     0.198 A 
ATOM     69  F   UNL A   1      43.159  25.663  35.336  1.00  0.00    -0.203 F 
ATOM     70  F   UNL A   1      47.984  28.207  35.542  1.00  0.00    -0.200 F 
ATOM     71  C   UNL A   1      46.543  26.504  36.317  1.00  0.00     0.200 A 
ATOM     72  F   UNL A   1      45.073  24.806  37.050  1.00  0.00    -0.200 F 
ATOM     73  F   UNL A   1      47.488  26.068  37.161  1.00  0.00    -0.200 F 
ENDBRANCH  40  63
ENDBRANCH  14  15
ENDBRANCH   7   9
ENDBRANCH   6   7
ENDBRANCH   5   6
ENDBRANCH   4   5
ENDBRANCH   3   4
ENDBRANCH   2   3
ENDBRANCH   1   2
BRANCH   1  74
ATOM     74  O   UNL A   1      31.842  25.768  26.032  1.00  0.00    -0.376 OA
BRANCH  74  75
ATOM     75  C   UNL A   1      30.420  25.865  26.115  1.00  0.00     0.202 C 
BRANCH  75  76
ATOM     76  C   UNL A   1      29.755  26.199  24.783  1.00  0.00     0.261 C 
BRANCH  76  77
ATOM     77  O   UNL A   1      30.019  25.207  23.779  1.00  0.00    -0.457 OA
BRANCH  77  78
ATOM     78  C   UNL A   1      31.065  25.526  22.967  1.00  0.00     0.374 C 
ATOM     79  O   UNL A   1      31.190  26.608  22.396  1.00  0.00    -0.242 OA
BRANCH  78  80
ATOM     80  C   UNL A   1      32.002  24.434  22.833  1.00  0.00     0.211 A 
ATOM     81  C   UNL A   1      33.144  24.367  22.056  1.00  0.00     0.058 A 
ATOM     82  O   UNL A   1      31.886  23.280  23.569  1.00  0.00    -0.450 OA
ATOM     83  C   UNL A   1      33.766  23.134  22.335  1.00  0.00     0.050 A 
ATOM     84  C   UNL A   1      32.985  22.512  23.288  1.00  0.00     0.142 A 
BRANCH  84  85
ATOM     85  C   UNL A   1      33.176  21.247  24.053  1.00  0.00     0.304 C 
BRANCH  85  86
ATOM     86  O   UNL A   1      33.723  21.539  25.355  1.00  0.00    -0.484 OA
BRANCH  86  87
ATOM     87  C   UNL A   1      35.096  21.586  25.364  1.00  0.00     0.140 A 
ATOM     88  C   UNL A   1      35.764  20.414  24.990  1.00  0.00     0.048 A 
ATOM     89  C   UNL A   1      35.820  22.752  25.649  1.00  0.00     0.101 A 
ATOM     90  C   UNL A   1      37.154  20.370  24.972  1.00  0.00     0.005 A 
ATOM     91  C   UNL A   1      37.222  22.706  25.614  1.00  0.00     0.063 A 
ATOM     92  Cl  UNL A   1      34.978  24.222  26.016  1.00  0.00    -0.079 Cl
ATOM     93  C   UNL A   1      37.884  21.515  25.288  1.00  0.00     0.022 A 
ATOM     94  Cl  UNL A   1      38.208  24.085  25.959  1.00  0.00    -0.083 Cl
ENDBRANCH  86  87
ENDBRANCH  85  86
ENDBRANCH  84  85
ENDBRANCH  78  80
ENDBRANCH  77  78
ENDBRANCH  76  77
ENDBRANCH  75  76
ENDBRANCH  74  75
ENDBRANCH   1  74
TORSDOF 20
ENDMDL
MODEL 3
REMARK VINA RESULT:     -10.5      3.777      9.613
REMARK SMILES O=C(OCCOCCOCCOC(=O)c1ccc(COc2cccc(Cl)c2Cl)o1)c1ccc(-c2c3nc(c(-c4c(F)c(F)c(F)c(F)c4F)c4ccc([nH]4)c(-c4c(F)c(F)c(F)c(F)c4F)c4nc(c(-c5c(F)c(F)c(F)c(F)c5F)c5ccc2[nH]5)C=C4)C=C3)cc1
REMARK SMILES IDX 8 1 7 2 6 3 5 4 4 5 3 6 2 7 1 8 30 9 31 10 92 11 32 12 91 13
REMARK SMILES IDX 33 14 34 15 35 16 85 17 36 18 90 19 84 20 86 21 37 22 89 23
REMARK SMILES IDX 83 24 82 25 38 27 70 28 50 29 69 30 51 31 54 32 68 33 87 34
REMARK SMILES IDX 52 35 53 36 67 38 88 39 55 40 39 41 40 42 48 43 41 44 42 45
REMARK SMILES IDX 46 46 49 47 43 48 44 49 47 50 45 51 71 52 72 53 80 54 73 55
REMARK SMILES IDX 74 56 78 57 81 58 75 59 76 60 79 61 77 62 56 63 57 64 65 65
REMARK SMILES IDX 58 66 59 67 63 68 66 69 60 70 61 71 64 72 62 73 9 74 10 75
REMARK SMILES IDX 11 76 12 77 13 78 14 79 15 80 16 81 29 82 17 83 18 84 19 85
REMARK SMILES IDX 20 86 21 87 22 88 27 89 23 90 25 91 28 92 24 93 26 94
REMARK H PARENT 86 26 54 37
REMARK Flexibility Score: inf
ROOT
ATOM      1  C   UNL A   1      34.702  33.261  28.794  1.00  0.00     0.188 C 
ENDROOT
BRANCH   1   2
ATOM      2  C   UNL A   1      33.575  34.044  28.113  1.00  0.00     0.188 C 
BRANCH   2   3
ATOM      3  O   UNL A   1      32.987  34.972  29.040  1.00  0.00    -0.376 OA
BRANCH   3   4
ATOM      4  C   UNL A   1      33.348  36.333  28.795  1.00  0.00     0.202 C 
BRANCH   4   5
ATOM      5  C   UNL A   1      32.908  37.277  29.915  1.00  0.00     0.261 C 
BRANCH   5   6
ATOM      6  O   UNL A   1      32.226  36.550  30.951  1.00  0.00    -0.460 OA
BRANCH   6   7
ATOM      7  C   UNL A   1      32.683  36.233  32.187  1.00  0.00     0.338 C 
ATOM      8  O   UNL A   1      32.135  36.737  33.167  1.00  0.00    -0.246 OA
BRANCH   7   9
ATOM      9  C   UNL A   1      33.734  35.202  32.434  1.00  0.00     0.060 A 
ATOM     10  C   UNL A   1      33.522  33.930  32.974  1.00  0.00     0.016 A 
ATOM     11  C   UNL A   1      35.037  35.541  32.035  1.00  0.00     0.016 A 
ATOM     12  C   UNL A   1      34.597  33.080  33.254  1.00  0.00     0.010 A 
ATOM     13  C   UNL A   1      36.106  34.670  32.251  1.00  0.00     0.010 A 
ATOM     14  C   UNL A   1      35.899  33.454  32.914  1.00  0.00    -0.014 A 
BRANCH  14  15
ATOM     15  C   UNL A   1      37.063  32.639  33.328  1.00  0.00     0.031 A 
ATOM     16  C   UNL A   1      37.741  32.954  34.629  1.00  0.00     0.074 A 
ATOM     17  C   UNL A   1      37.517  31.633  32.561  1.00  0.00     0.049 A 
ATOM     18  N   UNL A   1      38.860  32.485  35.118  1.00  0.00    -0.248 NA
ATOM     19  C   UNL A   1      37.059  33.924  35.500  1.00  0.00     0.031 C 
ATOM     20  C   UNL A   1      36.894  31.172  31.326  1.00  0.00     0.029 A 
ATOM     21  N   UNL A   1      38.624  30.834  32.700  1.00  0.00    -0.354 N 
ATOM     22  C   UNL A   1      39.019  33.107  36.348  1.00  0.00     0.074 A 
ATOM     23  C   UNL A   1      37.899  34.008  36.519  1.00  0.00     0.031 C 
ATOM     24  C   UNL A   1      37.646  30.196  30.794  1.00  0.00     0.029 A 
ATOM     25  C   UNL A   1      38.826  29.999  31.630  1.00  0.00     0.049 A 
ATOM     26  H   UNL A   1      39.214  30.857  33.487  1.00  0.00     0.167 HD
ATOM     27  C   UNL A   1      40.004  32.933  37.258  1.00  0.00     0.037 A 
ATOM     28  C   UNL A   1      39.867  29.197  31.335  1.00  0.00     0.037 A 
ATOM     29  C   UNL A   1      41.116  32.039  37.087  1.00  0.00     0.049 A 
ATOM     30  C   UNL A   1      41.011  29.097  32.304  1.00  0.00     0.074 A 
ATOM     31  C   UNL A   1      42.181  31.805  37.937  1.00  0.00     0.029 A 
ATOM     32  N   UNL A   1      41.301  31.229  35.976  1.00  0.00    -0.354 N 
ATOM     33  N   UNL A   1      41.169  29.706  33.455  1.00  0.00    -0.248 NA
ATOM     34  C   UNL A   1      42.115  28.199  31.942  1.00  0.00     0.031 C 
ATOM     35  C   UNL A   1      43.024  30.865  37.329  1.00  0.00     0.029 A 
ATOM     36  C   UNL A   1      42.470  30.500  36.112  1.00  0.00     0.049 A 
ATOM     37  H   UNL A   1      40.692  31.181  35.204  1.00  0.00     0.167 HD
ATOM     38  C   UNL A   1      42.371  29.246  33.968  1.00  0.00     0.074 A 
ATOM     39  C   UNL A   1      42.908  28.311  33.001  1.00  0.00     0.031 C 
ATOM     40  C   UNL A   1      42.971  29.562  35.141  1.00  0.00     0.037 A 
BRANCH  27  41
ATOM     41  C   UNL A   1      39.916  33.756  38.506  1.00  0.00     0.064 A 
ATOM     42  C   UNL A   1      39.104  33.364  39.581  1.00  0.00     0.173 A 
ATOM     43  C   UNL A   1      40.611  34.968  38.608  1.00  0.00     0.173 A 
ATOM     44  F   UNL A   1      38.399  32.224  39.514  1.00  0.00    -0.203 F 
ATOM     45  C   UNL A   1      38.968  34.174  40.704  1.00  0.00     0.198 A 
ATOM     46  C   UNL A   1      40.486  35.767  39.742  1.00  0.00     0.198 A 
ATOM     47  F   UNL A   1      41.391  35.387  37.603  1.00  0.00    -0.203 F 
ATOM     48  F   UNL A   1      38.145  33.808  41.696  1.00  0.00    -0.200 F 
ATOM     49  C   UNL A   1      39.659  35.375  40.784  1.00  0.00     0.200 A 
ATOM     50  F   UNL A   1      41.150  36.929  39.817  1.00  0.00    -0.200 F 
ATOM     51  F   UNL A   1      39.513  36.162  41.858  1.00  0.00    -0.200 F 
ENDBRANCH  27  41
BRANCH  28  52
ATOM     52  C   UNL A   1      39.874  28.461  30.046  1.00  0.00     0.064 A 
ATOM     53  C   UNL A   1      40.481  28.998  28.905  1.00  0.00     0.173 A 
ATOM     54  C   UNL A   1      39.309  27.180  29.947  1.00  0.00     0.173 A 
ATOM     55  F   UNL A   1      41.022  30.223  28.948  1.00  0.00    -0.203 F 
ATOM     56  C   UNL A   1      40.523  28.281  27.710  1.00  0.00     0.198 A 
ATOM     57  C   UNL A   1      39.369  26.456  28.758  1.00  0.00     0.198 A 
ATOM     58  F   UNL A   1      38.724  26.619  31.016  1.00  0.00    -0.203 F 
ATOM     59  F   UNL A   1      41.097  28.822  26.626  1.00  0.00    -0.200 F 
ATOM     60  C   UNL A   1      39.974  27.008  27.639  1.00  0.00     0.200 A 
ATOM     61  F   UNL A   1      38.856  25.220  28.703  1.00  0.00    -0.200 F 
ATOM     62  F   UNL A   1      40.031  26.313  26.496  1.00  0.00    -0.200 F 
ENDBRANCH  28  52
BRANCH  40  63
ATOM     63  C   UNL A   1      44.253  28.861  35.463  1.00  0.00     0.064 A 
ATOM     64  C   UNL A   1      44.265  27.644  36.156  1.00  0.00     0.173 A 
ATOM     65  C   UNL A   1      45.475  29.386  35.020  1.00  0.00     0.173 A 
ATOM     66  F   UNL A   1      43.119  27.114  36.611  1.00  0.00    -0.203 F 
ATOM     67  C   UNL A   1      45.462  26.977  36.401  1.00  0.00     0.198 A 
ATOM     68  C   UNL A   1      46.668  28.710  35.254  1.00  0.00     0.198 A 
ATOM     69  F   UNL A   1      45.508  30.550  34.352  1.00  0.00    -0.203 F 
ATOM     70  F   UNL A   1      45.458  25.823  37.083  1.00  0.00    -0.200 F 
ATOM     71  C   UNL A   1      46.660  27.507  35.943  1.00  0.00     0.200 A 
ATOM     72  F   UNL A   1      47.825  29.221  34.810  1.00  0.00    -0.200 F 
ATOM     73  F   UNL A   1      47.811  26.860  36.173  1.00  0.00    -0.200 F 
ENDBRANCH  40  63
ENDBRANCH  14  15
ENDBRANCH   7   9
ENDBRANCH   6   7
ENDBRANCH   5   6
ENDBRANCH   4   5
ENDBRANCH   3   4
ENDBRANCH   2   3
ENDBRANCH   1   2
BRANCH   1  74
ATOM     74  O   UNL A   1      34.357  31.890  29.043  1.00  0.00    -0.376 OA
BRANCH  74  75
ATOM     75  C   UNL A   1      34.496  31.005  27.932  1.00  0.00     0.202 C 
BRANCH  75  76
ATOM     76  C   UNL A   1      33.187  30.745  27.193  1.00  0.00     0.261 C 
BRANCH  76  77
ATOM     77  O   UNL A   1      32.875  29.345  27.116  1.00  0.00    -0.457 OA
BRANCH  77  78
ATOM     78  C   UNL A   1      32.676  28.906  25.843  1.00  0.00     0.374 C 
ATOM     79  O   UNL A   1      32.940  29.563  24.837  1.00  0.00    -0.242 OA
BRANCH  78  80
ATOM     80  C   UNL A   1      32.093  27.584  25.809  1.00  0.00     0.211 A 
ATOM     81  C   UNL A   1      30.954  27.159  25.149  1.00  0.00     0.058 A 
ATOM     82  O   UNL A   1      32.688  26.509  26.424  1.00  0.00    -0.450 OA
ATOM     83  C   UNL A   1      30.852  25.767  25.348  1.00  0.00     0.050 A 
ATOM     84  C   UNL A   1      31.947  25.402  26.104  1.00  0.00     0.142 A 
BRANCH  84  85
ATOM     85  C   UNL A   1      32.446  24.068  26.543  1.00  0.00     0.304 C 
BRANCH  85  86
ATOM     86  O   UNL A   1      33.879  24.006  26.392  1.00  0.00    -0.484 OA
BRANCH  86  87
ATOM     87  C   UNL A   1      34.322  22.783  25.951  1.00  0.00     0.140 A 
ATOM     88  C   UNL A   1      33.338  21.843  25.625  1.00  0.00     0.048 A 
ATOM     89  C   UNL A   1      35.677  22.488  25.749  1.00  0.00     0.101 A 
ATOM     90  C   UNL A   1      33.696  20.577  25.171  1.00  0.00     0.005 A 
ATOM     91  C   UNL A   1      36.031  21.215  25.276  1.00  0.00     0.063 A 
ATOM     92  Cl  UNL A   1      36.880  23.695  26.064  1.00  0.00    -0.079 Cl
ATOM     93  C   UNL A   1      35.042  20.262  25.000  1.00  0.00     0.022 A 
ATOM     94  Cl  UNL A   1      37.674  20.746  25.003  1.00  0.00    -0.083 Cl
ENDBRANCH  86  87
ENDBRANCH  85  86
ENDBRANCH  84  85
ENDBRANCH  78  80
ENDBRANCH  77  78
ENDBRANCH  76  77
ENDBRANCH  75  76
ENDBRANCH  74  75
ENDBRANCH   1  74
TORSDOF 20
ENDMDL
