MODEL 1
REMARK VINA RESULT:      -9.6      0.000      0.000
REMARK SMILES CC(=O)N1CCC[C@H]1COCC(=O)OCCOCCOCCOC(=O)c1ccc(-c2c3nc(c(-c4c(F)c(F)c(F)c(F)c4F)c4ccc([nH]4)c(-c4c(F)c(F)c(F)c(F)c4F)c4nc(c(-c5c(F)c(F)c(F)c(F)c5F)c5ccc2[nH]5)C=C4)C=C3)cc1
REMARK SMILES IDX 18 1 17 2 16 3 15 4 14 5 12 6 13 7 11 8 10 9 9 10 8 11 4 12
REMARK SMILES IDX 5 13 6 14 7 15 2 16 1 17 3 18 19 19 20 20 21 21 22 22 23 23
REMARK SMILES IDX 24 24 25 25 26 26 27 27 88 28 28 29 87 30 29 31 30 32 31 33
REMARK SMILES IDX 81 34 32 35 86 36 80 37 82 38 33 39 85 40 79 41 78 42 34 44
REMARK SMILES IDX 66 45 46 46 65 47 47 48 50 49 64 50 83 51 48 52 49 53 63 55
REMARK SMILES IDX 84 56 51 57 35 58 36 59 44 60 37 61 38 62 42 63 45 64 39 65
REMARK SMILES IDX 40 66 43 67 41 68 67 69 68 70 76 71 69 72 70 73 74 74 77 75
REMARK SMILES IDX 71 76 72 77 75 78 73 79 52 80 53 81 61 82 54 83 55 84 59 85
REMARK SMILES IDX 62 86 56 87 57 88 60 89 58 90
REMARK H PARENT 82 43 50 54
REMARK Flexibility Score: inf
ROOT
ATOM      1  C   UNL A   1      31.777  29.141  24.916  1.00  0.00     0.188 C 
ENDROOT
BRANCH   1   2
ATOM      2  O   UNL A   1      32.970  28.444  24.604  1.00  0.00    -0.376 OA
BRANCH   2   3
ATOM      3  C   UNL A   1      33.554  28.766  23.340  1.00  0.00     0.202 C 
BRANCH   3   4
ATOM      4  C   UNL A   1      33.728  27.598  22.340  1.00  0.00     0.261 C 
BRANCH   4   5
ATOM      5  O   UNL A   1      32.633  26.636  22.315  1.00  0.00    -0.462 OA
BRANCH   5   6
ATOM      6  C   UNL A   1      32.784  25.558  21.487  1.00  0.00     0.332 C 
ATOM      7  O   UNL A   1      33.078  25.645  20.298  1.00  0.00    -0.250 OA
BRANCH   6   8
ATOM      8  C   UNL A   1      32.785  24.185  22.231  1.00  0.00     0.282 C 
BRANCH   8   9
ATOM      9  O   UNL A   1      33.911  23.332  22.316  1.00  0.00    -0.368 OA
BRANCH   9  10
ATOM     10  C   UNL A   1      34.749  23.415  23.491  1.00  0.00     0.186 C 
BRANCH  10  11
ATOM     11  C   UNL A   1      34.086  23.126  24.865  1.00  0.00     0.111 C 
ATOM     12  N   UNL A   1      33.992  21.725  25.344  1.00  0.00    -0.338 N 
ATOM     13  C   UNL A   1      34.428  21.601  26.717  1.00  0.00     0.120 C 
ATOM     14  C   UNL A   1      34.281  22.999  27.261  1.00  0.00     0.024 C 
ATOM     15  C   UNL A   1      34.703  23.859  26.066  1.00  0.00     0.029 C 
BRANCH  12  16
ATOM     16  C   UNL A   1      33.866  20.567  24.612  1.00  0.00     0.219 C 
ATOM     17  C   UNL A   1      32.525  20.443  23.904  1.00  0.00     0.114 C 
ATOM     18  O   UNL A   1      34.711  19.681  24.612  1.00  0.00    -0.275 OA
ENDBRANCH  12  16
ENDBRANCH  10  11
ENDBRANCH   9  10
ENDBRANCH   8   9
ENDBRANCH   6   8
ENDBRANCH   5   6
ENDBRANCH   4   5
ENDBRANCH   3   4
ENDBRANCH   2   3
ENDBRANCH   1   2
BRANCH   1  19
ATOM     19  C   UNL A   1      31.909  30.302  25.906  1.00  0.00     0.188 C 
BRANCH  19  20
ATOM     20  O   UNL A   1      32.769  30.122  27.015  1.00  0.00    -0.376 OA
BRANCH  20  21
ATOM     21  C   UNL A   1      33.428  31.282  27.519  1.00  0.00     0.202 C 
BRANCH  21  22
ATOM     22  C   UNL A   1      32.587  32.577  27.697  1.00  0.00     0.261 C 
BRANCH  22  23
ATOM     23  O   UNL A   1      33.237  33.849  27.433  1.00  0.00    -0.460 OA
BRANCH  23  24
ATOM     24  C   UNL A   1      33.275  34.666  28.507  1.00  0.00     0.338 C 
ATOM     25  O   UNL A   1      32.374  35.403  28.833  1.00  0.00    -0.246 OA
BRANCH  24  26
ATOM     26  C   UNL A   1      34.405  34.406  29.436  1.00  0.00     0.060 A 
ATOM     27  C   UNL A   1      35.686  34.490  28.874  1.00  0.00     0.016 A 
ATOM     28  C   UNL A   1      34.262  33.920  30.729  1.00  0.00     0.016 A 
ATOM     29  C   UNL A   1      36.805  33.995  29.529  1.00  0.00     0.010 A 
ATOM     30  C   UNL A   1      35.400  33.442  31.410  1.00  0.00     0.010 A 
ATOM     31  C   UNL A   1      36.671  33.433  30.798  1.00  0.00    -0.014 A 
BRANCH  31  32
ATOM     32  C   UNL A   1      37.855  32.770  31.408  1.00  0.00     0.031 A 
ATOM     33  C   UNL A   1      38.471  31.561  30.752  1.00  0.00     0.074 A 
ATOM     34  C   UNL A   1      38.458  33.312  32.484  1.00  0.00     0.049 A 
ATOM     35  N   UNL A   1      39.453  30.800  31.166  1.00  0.00    -0.248 NA
ATOM     36  C   UNL A   1      37.932  31.175  29.438  1.00  0.00     0.031 C 
ATOM     37  C   UNL A   1      38.064  34.563  33.133  1.00  0.00     0.029 A 
ATOM     38  N   UNL A   1      39.531  32.877  33.224  1.00  0.00    -0.354 N 
ATOM     39  C   UNL A   1      39.640  29.842  30.177  1.00  0.00     0.074 A 
ATOM     40  C   UNL A   1      38.673  30.117  29.136  1.00  0.00     0.031 C 
ATOM     41  C   UNL A   1      38.871  34.786  34.182  1.00  0.00     0.029 A 
ATOM     42  C   UNL A   1      39.773  33.650  34.335  1.00  0.00     0.049 A 
ATOM     43  H   UNL A   1      40.073  32.092  32.983  1.00  0.00     0.167 HD
ATOM     44  C   UNL A   1      40.526  28.817  30.153  1.00  0.00     0.037 A 
ATOM     45  C   UNL A   1      40.570  33.431  35.398  1.00  0.00     0.037 A 
ATOM     46  C   UNL A   1      41.462  28.527  31.211  1.00  0.00     0.049 A 
ATOM     47  C   UNL A   1      41.405  32.181  35.441  1.00  0.00     0.074 A 
ATOM     48  C   UNL A   1      42.366  27.483  31.302  1.00  0.00     0.029 A 
ATOM     49  N   UNL A   1      41.594  29.271  32.373  1.00  0.00    -0.354 N 
ATOM     50  N   UNL A   1      41.541  31.246  34.531  1.00  0.00    -0.248 NA
ATOM     51  C   UNL A   1      42.185  31.947  36.663  1.00  0.00     0.031 C 
ATOM     52  C   UNL A   1      42.985  27.548  32.555  1.00  0.00     0.029 A 
ATOM     53  C   UNL A   1      42.528  28.679  33.210  1.00  0.00     0.049 A 
ATOM     54  H   UNL A   1      41.100  30.099  32.575  1.00  0.00     0.167 HD
ATOM     55  C   UNL A   1      42.441  30.329  35.059  1.00  0.00     0.074 A 
ATOM     56  C   UNL A   1      42.827  30.827  36.362  1.00  0.00     0.031 C 
ATOM     57  C   UNL A   1      42.907  29.181  34.508  1.00  0.00     0.037 A 
BRANCH  44  58
ATOM     58  C   UNL A   1      40.476  27.872  28.986  1.00  0.00     0.064 A 
ATOM     59  C   UNL A   1      41.262  28.055  27.839  1.00  0.00     0.173 A 
ATOM     60  C   UNL A   1      39.666  26.726  29.049  1.00  0.00     0.173 A 
ATOM     61  F   UNL A   1      42.042  29.139  27.720  1.00  0.00    -0.203 F 
ATOM     62  C   UNL A   1      41.231  27.130  26.796  1.00  0.00     0.198 A 
ATOM     63  C   UNL A   1      39.659  25.792  28.018  1.00  0.00     0.198 A 
ATOM     64  F   UNL A   1      38.896  26.503  30.125  1.00  0.00    -0.203 F 
ATOM     65  F   UNL A   1      41.967  27.338  25.695  1.00  0.00    -0.200 F 
ATOM     66  C   UNL A   1      40.437  25.996  26.890  1.00  0.00     0.200 A 
ATOM     67  F   UNL A   1      38.900  24.691  28.119  1.00  0.00    -0.200 F 
ATOM     68  F   UNL A   1      40.420  25.102  25.892  1.00  0.00    -0.200 F 
ENDBRANCH  44  58
BRANCH  45  69
ATOM     69  C   UNL A   1      40.541  34.374  36.547  1.00  0.00     0.064 A 
ATOM     70  C   UNL A   1      39.611  34.235  37.586  1.00  0.00     0.173 A 
ATOM     71  C   UNL A   1      41.449  35.443  36.625  1.00  0.00     0.173 A 
ATOM     72  F   UNL A   1      38.703  33.250  37.543  1.00  0.00    -0.203 F 
ATOM     73  C   UNL A   1      39.586  35.133  38.652  1.00  0.00     0.198 A 
ATOM     74  C   UNL A   1      41.447  36.316  37.709  1.00  0.00     0.198 A 
ATOM     75  F   UNL A   1      42.355  35.629  35.652  1.00  0.00    -0.203 F 
ATOM     76  F   UNL A   1      38.658  35.005  39.609  1.00  0.00    -0.200 F 
ATOM     77  C   UNL A   1      40.511  36.165  38.718  1.00  0.00     0.200 A 
ATOM     78  F   UNL A   1      42.354  37.300  37.774  1.00  0.00    -0.200 F 
ATOM     79  F   UNL A   1      40.494  37.019  39.751  1.00  0.00    -0.200 F 
ENDBRANCH  45  69
BRANCH  57  80
ATOM     80  C   UNL A   1      43.924  28.404  35.294  1.00  0.00     0.064 A 
ATOM     81  C   UNL A   1      43.551  27.429  36.230  1.00  0.00     0.173 A 
ATOM     82  C   UNL A   1      45.294  28.627  35.091  1.00  0.00     0.173 A 
ATOM     83  F   UNL A   1      42.253  27.188  36.474  1.00  0.00    -0.203 F 
ATOM     84  C   UNL A   1      44.511  26.730  36.957  1.00  0.00     0.198 A 
ATOM     85  C   UNL A   1      46.252  27.901  35.793  1.00  0.00     0.198 A 
ATOM     86  F   UNL A   1      45.707  29.543  34.201  1.00  0.00    -0.203 F 
ATOM     87  F   UNL A   1      44.130  25.845  37.889  1.00  0.00    -0.200 F 
ATOM     88  C   UNL A   1      45.860  26.961  36.732  1.00  0.00     0.200 A 
ATOM     89  F   UNL A   1      47.555  28.116  35.562  1.00  0.00    -0.200 F 
ATOM     90  F   UNL A   1      46.783  26.285  37.430  1.00  0.00    -0.200 F 
ENDBRANCH  57  80
ENDBRANCH  31  32
ENDBRANCH  24  26
ENDBRANCH  23  24
ENDBRANCH  22  23
ENDBRANCH  21  22
ENDBRANCH  20  21
ENDBRANCH  19  20
ENDBRANCH   1  19
TORSDOF 21
ENDMDL
MODEL 2
REMARK VINA RESULT:      -9.6      5.420     10.761
REMARK SMILES CC(=O)N1CCC[C@H]1COCC(=O)OCCOCCOCCOC(=O)c1ccc(-c2c3nc(c(-c4c(F)c(F)c(F)c(F)c4F)c4ccc([nH]4)c(-c4c(F)c(F)c(F)c(F)c4F)c4nc(c(-c5c(F)c(F)c(F)c(F)c5F)c5ccc2[nH]5)C=C4)C=C3)cc1
REMARK SMILES IDX 18 1 17 2 16 3 15 4 14 5 12 6 13 7 11 8 10 9 9 10 8 11 4 12
REMARK SMILES IDX 5 13 6 14 7 15 2 16 1 17 3 18 19 19 20 20 21 21 22 22 23 23
REMARK SMILES IDX 24 24 25 25 26 26 27 27 88 28 28 29 87 30 29 31 30 32 31 33
REMARK SMILES IDX 81 34 32 35 86 36 80 37 82 38 33 39 85 40 79 41 78 42 34 44
REMARK SMILES IDX 66 45 46 46 65 47 47 48 50 49 64 50 83 51 48 52 49 53 63 55
REMARK SMILES IDX 84 56 51 57 35 58 36 59 44 60 37 61 38 62 42 63 45 64 39 65
REMARK SMILES IDX 40 66 43 67 41 68 67 69 68 70 76 71 69 72 70 73 74 74 77 75
REMARK SMILES IDX 71 76 72 77 75 78 73 79 52 80 53 81 61 82 54 83 55 84 59 85
REMARK SMILES IDX 62 86 56 87 57 88 60 89 58 90
REMARK H PARENT 82 43 50 54
REMARK Flexibility Score: inf
ROOT
ATOM      1  C   UNL A   1      35.993  23.567  25.189  1.00  0.00     0.188 C 
ENDROOT
BRANCH   1   2
ATOM      2  O   UNL A   1      34.624  23.546  25.554  1.00  0.00    -0.376 OA
BRANCH   2   3
ATOM      3  C   UNL A   1      34.346  23.024  26.855  1.00  0.00     0.202 C 
BRANCH   3   4
ATOM      4  C   UNL A   1      33.039  22.211  27.011  1.00  0.00     0.261 C 
BRANCH   4   5
ATOM      5  O   UNL A   1      31.946  22.915  27.670  1.00  0.00    -0.462 OA
BRANCH   5   6
ATOM      6  C   UNL A   1      30.848  23.197  26.906  1.00  0.00     0.332 C 
ATOM      7  O   UNL A   1      29.805  22.548  26.940  1.00  0.00    -0.250 OA
BRANCH   6   8
ATOM      8  C   UNL A   1      30.937  24.562  26.152  1.00  0.00     0.282 C 
BRANCH   8   9
ATOM      9  O   UNL A   1      31.607  25.702  26.656  1.00  0.00    -0.368 OA
BRANCH   9  10
ATOM     10  C   UNL A   1      32.518  26.406  25.782  1.00  0.00     0.186 C 
BRANCH  10  11
ATOM     11  C   UNL A   1      32.787  27.906  26.086  1.00  0.00     0.111 C 
ATOM     12  N   UNL A   1      32.489  28.920  25.045  1.00  0.00    -0.338 N 
ATOM     13  C   UNL A   1      31.742  30.034  25.585  1.00  0.00     0.120 C 
ATOM     14  C   UNL A   1      32.041  29.976  27.062  1.00  0.00     0.024 C 
ATOM     15  C   UNL A   1      32.078  28.468  27.327  1.00  0.00     0.029 C 
BRANCH  12  16
ATOM     16  C   UNL A   1      32.541  28.796  23.676  1.00  0.00     0.219 C 
ATOM     17  C   UNL A   1      33.956  28.667  23.133  1.00  0.00     0.114 C 
ATOM     18  O   UNL A   1      31.552  28.880  22.959  1.00  0.00    -0.275 OA
ENDBRANCH  12  16
ENDBRANCH  10  11
ENDBRANCH   9  10
ENDBRANCH   8   9
ENDBRANCH   6   8
ENDBRANCH   5   6
ENDBRANCH   4   5
ENDBRANCH   3   4
ENDBRANCH   2   3
ENDBRANCH   1   2
BRANCH   1  19
ATOM     19  C   UNL A   1      36.841  22.389  25.677  1.00  0.00     0.188 C 
BRANCH  19  20
ATOM     20  O   UNL A   1      36.817  21.202  24.908  1.00  0.00    -0.376 OA
BRANCH  20  21
ATOM     21  C   UNL A   1      37.970  20.364  24.972  1.00  0.00     0.202 C 
BRANCH  21  22
ATOM     22  C   UNL A   1      39.191  20.868  25.790  1.00  0.00     0.261 C 
BRANCH  22  23
ATOM     23  O   UNL A   1      39.883  19.911  26.635  1.00  0.00    -0.460 OA
BRANCH  23  24
ATOM     24  C   UNL A   1      41.171  19.713  26.279  1.00  0.00     0.338 C 
ATOM     25  O   UNL A   1      41.558  18.782  25.612  1.00  0.00    -0.246 OA
BRANCH  24  26
ATOM     26  C   UNL A   1      42.062  20.874  26.535  1.00  0.00     0.060 A 
ATOM     27  C   UNL A   1      42.199  21.252  27.878  1.00  0.00     0.016 A 
ATOM     28  C   UNL A   1      42.596  21.687  25.545  1.00  0.00     0.016 A 
ATOM     29  C   UNL A   1      42.750  22.472  28.241  1.00  0.00     0.010 A 
ATOM     30  C   UNL A   1      43.183  22.915  25.910  1.00  0.00     0.010 A 
ATOM     31  C   UNL A   1      43.223  23.338  27.256  1.00  0.00    -0.014 A 
BRANCH  31  32
ATOM     32  C   UNL A   1      43.663  24.701  27.660  1.00  0.00     0.031 A 
ATOM     33  C   UNL A   1      42.652  25.721  28.116  1.00  0.00     0.074 A 
ATOM     34  C   UNL A   1      44.975  24.997  27.735  1.00  0.00     0.049 A 
ATOM     35  N   UNL A   1      42.826  26.979  28.435  1.00  0.00    -0.248 NA
ATOM     36  C   UNL A   1      41.264  25.256  28.266  1.00  0.00     0.031 C 
ATOM     37  C   UNL A   1      46.070  24.061  27.471  1.00  0.00     0.029 A 
ATOM     38  N   UNL A   1      45.612  26.171  28.055  1.00  0.00    -0.354 N 
ATOM     39  C   UNL A   1      41.577  27.458  28.807  1.00  0.00     0.074 A 
ATOM     40  C   UNL A   1      40.648  26.355  28.680  1.00  0.00     0.031 C 
ATOM     41  C   UNL A   1      47.239  24.701  27.622  1.00  0.00     0.029 A 
ATOM     42  C   UNL A   1      46.976  26.109  27.899  1.00  0.00     0.049 A 
ATOM     43  H   UNL A   1      45.139  26.977  28.365  1.00  0.00     0.167 HD
ATOM     44  C   UNL A   1      41.235  28.710  29.199  1.00  0.00     0.037 A 
ATOM     45  C   UNL A   1      47.903  27.086  27.897  1.00  0.00     0.037 A 
ATOM     46  C   UNL A   1      42.158  29.813  29.287  1.00  0.00     0.049 A 
ATOM     47  C   UNL A   1      47.471  28.504  28.143  1.00  0.00     0.074 A 
ATOM     48  C   UNL A   1      41.901  31.130  29.627  1.00  0.00     0.029 A 
ATOM     49  N   UNL A   1      43.515  29.732  29.009  1.00  0.00    -0.354 N 
ATOM     50  N   UNL A   1      46.281  28.967  28.441  1.00  0.00    -0.248 NA
ATOM     51  C   UNL A   1      48.508  29.540  28.039  1.00  0.00     0.031 C 
ATOM     52  C   UNL A   1      43.083  31.861  29.473  1.00  0.00     0.029 A 
ATOM     53  C   UNL A   1      44.096  30.986  29.119  1.00  0.00     0.049 A 
ATOM     54  H   UNL A   1      43.995  28.906  28.770  1.00  0.00     0.167 HD
ATOM     55  C   UNL A   1      46.430  30.340  28.586  1.00  0.00     0.074 A 
ATOM     56  C   UNL A   1      47.829  30.633  28.356  1.00  0.00     0.031 C 
ATOM     57  C   UNL A   1      45.490  31.270  28.887  1.00  0.00     0.037 A 
BRANCH  44  58
ATOM     58  C   UNL A   1      39.786  28.987  29.483  1.00  0.00     0.064 A 
ATOM     59  C   UNL A   1      38.889  29.385  28.481  1.00  0.00     0.173 A 
ATOM     60  C   UNL A   1      39.276  28.787  30.776  1.00  0.00     0.173 A 
ATOM     61  F   UNL A   1      39.325  29.606  27.232  1.00  0.00    -0.203 F 
ATOM     62  C   UNL A   1      37.539  29.583  28.768  1.00  0.00     0.198 A 
ATOM     63  C   UNL A   1      37.923  28.958  31.052  1.00  0.00     0.198 A 
ATOM     64  F   UNL A   1      40.092  28.403  31.771  1.00  0.00    -0.203 F 
ATOM     65  F   UNL A   1      36.703  29.993  27.803  1.00  0.00    -0.200 F 
ATOM     66  C   UNL A   1      37.056  29.361  30.049  1.00  0.00     0.200 A 
ATOM     67  F   UNL A   1      37.459  28.730  32.289  1.00  0.00    -0.200 F 
ATOM     68  F   UNL A   1      35.755  29.537  30.319  1.00  0.00    -0.200 F 
ENDBRANCH  44  58
BRANCH  45  69
ATOM     69  C   UNL A   1      49.315  26.761  27.560  1.00  0.00     0.064 A 
ATOM     70  C   UNL A   1      49.765  26.737  26.234  1.00  0.00     0.173 A 
ATOM     71  C   UNL A   1      50.246  26.462  28.569  1.00  0.00     0.173 A 
ATOM     72  F   UNL A   1      48.908  26.984  25.233  1.00  0.00    -0.203 F 
ATOM     73  C   UNL A   1      51.087  26.419  25.930  1.00  0.00     0.198 A 
ATOM     74  C   UNL A   1      51.575  26.182  28.266  1.00  0.00     0.198 A 
ATOM     75  F   UNL A   1      49.866  26.461  29.856  1.00  0.00    -0.203 F 
ATOM     76  F   UNL A   1      51.481  26.358  24.651  1.00  0.00    -0.200 F 
ATOM     77  C   UNL A   1      51.994  26.153  26.946  1.00  0.00     0.200 A 
ATOM     78  F   UNL A   1      52.448  25.942  29.254  1.00  0.00    -0.200 F 
ATOM     79  F   UNL A   1      53.268  25.861  26.653  1.00  0.00    -0.200 F 
ENDBRANCH  45  69
BRANCH  57  80
ATOM     80  C   UNL A   1      45.953  32.692  29.031  1.00  0.00     0.064 A 
ATOM     81  C   UNL A   1      46.402  33.205  30.256  1.00  0.00     0.173 A 
ATOM     82  C   UNL A   1      45.966  33.547  27.918  1.00  0.00     0.173 A 
ATOM     83  F   UNL A   1      46.396  32.434  31.354  1.00  0.00    -0.203 F 
ATOM     84  C   UNL A   1      46.816  34.530  30.369  1.00  0.00     0.198 A 
ATOM     85  C   UNL A   1      46.413  34.860  28.026  1.00  0.00     0.198 A 
ATOM     86  F   UNL A   1      45.554  33.105  26.720  1.00  0.00    -0.203 F 
ATOM     87  F   UNL A   1      47.185  35.016  31.562  1.00  0.00    -0.200 F 
ATOM     88  C   UNL A   1      46.828  35.354  29.253  1.00  0.00     0.200 A 
ATOM     89  F   UNL A   1      46.439  35.649  26.942  1.00  0.00    -0.200 F 
ATOM     90  F   UNL A   1      47.229  36.628  29.362  1.00  0.00    -0.200 F 
ENDBRANCH  57  80
ENDBRANCH  31  32
ENDBRANCH  24  26
ENDBRANCH  23  24
ENDBRANCH  22  23
ENDBRANCH  21  22
ENDBRANCH  20  21
ENDBRANCH  19  20
ENDBRANCH   1  19
TORSDOF 21
ENDMDL
MODEL 3
REMARK VINA RESULT:      -9.5      0.973      2.051
REMARK SMILES CC(=O)N1CCC[C@H]1COCC(=O)OCCOCCOCCOC(=O)c1ccc(-c2c3nc(c(-c4c(F)c(F)c(F)c(F)c4F)c4ccc([nH]4)c(-c4c(F)c(F)c(F)c(F)c4F)c4nc(c(-c5c(F)c(F)c(F)c(F)c5F)c5ccc2[nH]5)C=C4)C=C3)cc1
REMARK SMILES IDX 18 1 17 2 16 3 15 4 14 5 12 6 13 7 11 8 10 9 9 10 8 11 4 12
REMARK SMILES IDX 5 13 6 14 7 15 2 16 1 17 3 18 19 19 20 20 21 21 22 22 23 23
REMARK SMILES IDX 24 24 25 25 26 26 27 27 88 28 28 29 87 30 29 31 30 32 31 33
REMARK SMILES IDX 81 34 32 35 86 36 80 37 82 38 33 39 85 40 79 41 78 42 34 44
REMARK SMILES IDX 66 45 46 46 65 47 47 48 50 49 64 50 83 51 48 52 49 53 63 55
REMARK SMILES IDX 84 56 51 57 35 58 36 59 44 60 37 61 38 62 42 63 45 64 39 65
REMARK SMILES IDX 40 66 43 67 41 68 67 69 68 70 76 71 69 72 70 73 74 74 77 75
REMARK SMILES IDX 71 76 72 77 75 78 73 79 52 80 53 81 61 82 54 83 55 84 59 85
REMARK SMILES IDX 62 86 56 87 57 88 60 89 58 90
REMARK H PARENT 82 43 50 54
REMARK Flexibility Score: inf
ROOT
ATOM      1  C   UNL A   1      32.887  29.233  25.011  1.00  0.00     0.188 C 
ENDROOT
BRANCH   1   2
ATOM      2  O   UNL A   1      32.042  29.212  23.875  1.00  0.00    -0.376 OA
BRANCH   2   3
ATOM      3  C   UNL A   1      30.799  28.526  24.049  1.00  0.00     0.202 C 
BRANCH   3   4
ATOM      4  C   UNL A   1      30.124  27.981  22.769  1.00  0.00     0.261 C 
BRANCH   4   5
ATOM      5  O   UNL A   1      31.008  27.259  21.860  1.00  0.00    -0.462 OA
BRANCH   5   6
ATOM      6  C   UNL A   1      31.420  26.019  22.263  1.00  0.00     0.332 C 
ATOM      7  O   UNL A   1      30.735  25.258  22.942  1.00  0.00    -0.250 OA
BRANCH   6   8
ATOM      8  C   UNL A   1      32.746  25.544  21.588  1.00  0.00     0.282 C 
BRANCH   8   9
ATOM      9  O   UNL A   1      33.983  25.434  22.267  1.00  0.00    -0.368 OA
BRANCH   9  10
ATOM     10  C   UNL A   1      34.013  24.743  23.535  1.00  0.00     0.186 C 
BRANCH  10  11
ATOM     11  C   UNL A   1      33.858  23.198  23.513  1.00  0.00     0.111 C 
ATOM     12  N   UNL A   1      35.031  22.348  23.835  1.00  0.00    -0.338 N 
ATOM     13  C   UNL A   1      34.693  21.311  24.783  1.00  0.00     0.120 C 
ATOM     14  C   UNL A   1      33.198  21.176  24.641  1.00  0.00     0.024 C 
ATOM     15  C   UNL A   1      32.761  22.628  24.423  1.00  0.00     0.029 C 
BRANCH  12  16
ATOM     16  C   UNL A   1      36.366  22.598  23.618  1.00  0.00     0.219 C 
ATOM     17  C   UNL A   1      37.259  22.156  24.767  1.00  0.00     0.114 C 
ATOM     18  O   UNL A   1      36.782  23.204  22.639  1.00  0.00    -0.275 OA
ENDBRANCH  12  16
ENDBRANCH  10  11
ENDBRANCH   9  10
ENDBRANCH   8   9
ENDBRANCH   6   8
ENDBRANCH   5   6
ENDBRANCH   4   5
ENDBRANCH   3   4
ENDBRANCH   2   3
ENDBRANCH   1   2
BRANCH   1  19
ATOM     19  C   UNL A   1      32.387  30.041  26.212  1.00  0.00     0.188 C 
BRANCH  19  20
ATOM     20  O   UNL A   1      33.239  30.136  27.338  1.00  0.00    -0.376 OA
BRANCH  20  21
ATOM     21  C   UNL A   1      33.758  31.427  27.651  1.00  0.00     0.202 C 
BRANCH  21  22
ATOM     22  C   UNL A   1      32.761  32.617  27.712  1.00  0.00     0.261 C 
BRANCH  22  23
ATOM     23  O   UNL A   1      33.288  33.954  27.504  1.00  0.00    -0.460 OA
BRANCH  23  24
ATOM     24  C   UNL A   1      33.294  34.710  28.623  1.00  0.00     0.338 C 
ATOM     25  O   UNL A   1      32.373  35.410  28.976  1.00  0.00    -0.246 OA
BRANCH  24  26
ATOM     26  C   UNL A   1      34.415  34.420  29.553  1.00  0.00     0.060 A 
ATOM     27  C   UNL A   1      35.702  34.561  29.017  1.00  0.00     0.016 A 
ATOM     28  C   UNL A   1      34.263  33.859  30.814  1.00  0.00     0.016 A 
ATOM     29  C   UNL A   1      36.821  34.051  29.661  1.00  0.00     0.010 A 
ATOM     30  C   UNL A   1      35.400  33.365  31.485  1.00  0.00     0.010 A 
ATOM     31  C   UNL A   1      36.681  33.415  30.894  1.00  0.00    -0.014 A 
BRANCH  31  32
ATOM     32  C   UNL A   1      37.869  32.742  31.485  1.00  0.00     0.031 A 
ATOM     33  C   UNL A   1      38.514  31.580  30.774  1.00  0.00     0.074 A 
ATOM     34  C   UNL A   1      38.447  33.237  32.596  1.00  0.00     0.049 A 
ATOM     35  N   UNL A   1      39.505  30.816  31.161  1.00  0.00    -0.248 NA
ATOM     36  C   UNL A   1      37.999  31.255  29.435  1.00  0.00     0.031 C 
ATOM     37  C   UNL A   1      38.022  34.445  33.304  1.00  0.00     0.029 A 
ATOM     38  N   UNL A   1      39.519  32.783  33.326  1.00  0.00    -0.354 N 
ATOM     39  C   UNL A   1      39.722  29.915  30.126  1.00  0.00     0.074 A 
ATOM     40  C   UNL A   1      38.763  30.227  29.088  1.00  0.00     0.031 C 
ATOM     41  C   UNL A   1      38.812  34.627  34.374  1.00  0.00     0.029 A 
ATOM     42  C   UNL A   1      39.732  33.500  34.479  1.00  0.00     0.049 A 
ATOM     43  H   UNL A   1      40.078  32.021  33.052  1.00  0.00     0.167 HD
ATOM     44  C   UNL A   1      40.627  28.908  30.060  1.00  0.00     0.037 A 
ATOM     45  C   UNL A   1      40.520  33.239  35.540  1.00  0.00     0.037 A 
ATOM     46  C   UNL A   1      41.554  28.579  31.114  1.00  0.00     0.049 A 
ATOM     47  C   UNL A   1      41.377  32.004  35.529  1.00  0.00     0.074 A 
ATOM     48  C   UNL A   1      42.476  27.548  31.163  1.00  0.00     0.029 A 
ATOM     49  N   UNL A   1      41.658  29.263  32.316  1.00  0.00    -0.354 N 
ATOM     50  N   UNL A   1      41.542  31.121  34.573  1.00  0.00    -0.248 NA
ATOM     51  C   UNL A   1      42.145  31.719  36.747  1.00  0.00     0.031 C 
ATOM     52  C   UNL A   1      43.077  27.558  32.425  1.00  0.00     0.029 A 
ATOM     53  C   UNL A   1      42.592  28.645  33.133  1.00  0.00     0.049 A 
ATOM     54  H   UNL A   1      41.146  30.070  32.554  1.00  0.00     0.167 HD
ATOM     55  C   UNL A   1      42.451  30.193  35.064  1.00  0.00     0.074 A 
ATOM     56  C   UNL A   1      42.812  30.629  36.397  1.00  0.00     0.031 C 
ATOM     57  C   UNL A   1      42.945  29.084  34.460  1.00  0.00     0.037 A 
BRANCH  44  58
ATOM     58  C   UNL A   1      40.609  28.025  28.845  1.00  0.00     0.064 A 
ATOM     59  C   UNL A   1      41.422  28.270  27.728  1.00  0.00     0.173 A 
ATOM     60  C   UNL A   1      39.802  26.875  28.828  1.00  0.00     0.173 A 
ATOM     61  F   UNL A   1      42.199  29.361  27.685  1.00  0.00    -0.203 F 
ATOM     62  C   UNL A   1      41.419  27.401  26.638  1.00  0.00     0.198 A 
ATOM     63  C   UNL A   1      39.823  25.996  27.750  1.00  0.00     0.198 A 
ATOM     64  F   UNL A   1      39.007  26.594  29.872  1.00  0.00    -0.203 F 
ATOM     65  F   UNL A   1      42.181  27.668  25.568  1.00  0.00    -0.200 F 
ATOM     66  C   UNL A   1      40.628  26.261  26.654  1.00  0.00     0.200 A 
ATOM     67  F   UNL A   1      39.066  24.890  27.775  1.00  0.00    -0.200 F 
ATOM     68  F   UNL A   1      40.638  25.420  25.610  1.00  0.00    -0.200 F 
ENDBRANCH  44  58
BRANCH  45  69
ATOM     69  C   UNL A   1      40.459  34.120  36.737  1.00  0.00     0.064 A 
ATOM     70  C   UNL A   1      41.313  35.221  36.880  1.00  0.00     0.173 A 
ATOM     71  C   UNL A   1      39.541  33.870  37.771  1.00  0.00     0.173 A 
ATOM     72  F   UNL A   1      42.228  35.485  35.936  1.00  0.00    -0.203 F 
ATOM     73  C   UNL A   1      41.255  36.033  38.011  1.00  0.00     0.198 A 
ATOM     74  C   UNL A   1      39.460  34.702  38.883  1.00  0.00     0.198 A 
ATOM     75  F   UNL A   1      38.707  32.821  37.691  1.00  0.00    -0.203 F 
ATOM     76  F   UNL A   1      42.113  37.053  38.145  1.00  0.00    -0.200 F 
ATOM     77  C   UNL A   1      40.322  35.779  39.006  1.00  0.00     0.200 A 
ATOM     78  F   UNL A   1      38.545  34.461  39.831  1.00  0.00    -0.200 F 
ATOM     79  F   UNL A   1      40.259  36.568  40.088  1.00  0.00    -0.200 F 
ENDBRANCH  45  69
BRANCH  57  80
ATOM     80  C   UNL A   1      43.966  28.285  35.218  1.00  0.00     0.064 A 
ATOM     81  C   UNL A   1      45.339  28.549  35.116  1.00  0.00     0.173 A 
ATOM     82  C   UNL A   1      43.558  27.253  36.078  1.00  0.00     0.173 A 
ATOM     83  F   UNL A   1      45.782  29.515  34.297  1.00  0.00    -0.203 F 
ATOM     84  C   UNL A   1      46.269  27.788  35.821  1.00  0.00     0.198 A 
ATOM     85  C   UNL A   1      44.488  26.517  36.807  1.00  0.00     0.198 A 
ATOM     86  F   UNL A   1      42.256  26.963  36.219  1.00  0.00    -0.203 F 
ATOM     87  F   UNL A   1      47.579  28.018  35.662  1.00  0.00    -0.200 F 
ATOM     88  C   UNL A   1      45.842  26.777  36.670  1.00  0.00     0.200 A 
ATOM     89  F   UNL A   1      44.071  25.553  37.640  1.00  0.00    -0.200 F 
ATOM     90  F   UNL A   1      46.737  26.048  37.350  1.00  0.00    -0.200 F 
ENDBRANCH  57  80
ENDBRANCH  31  32
ENDBRANCH  24  26
ENDBRANCH  23  24
ENDBRANCH  22  23
ENDBRANCH  21  22
ENDBRANCH  20  21
ENDBRANCH  19  20
ENDBRANCH   1  19
TORSDOF 21
ENDMDL
