MODEL 1
REMARK VINA RESULT:      -9.9      0.000      0.000
REMARK SMILES C[C@@H](C[N@@H+](C)Cc1cc(F)cc(Br)c1)C(=O)OCCOCCOCCOC(=O)c1ccc(-c2c3nc(c(-c4c(F)c(F)c(F)c(F)c4F)c4ccc([nH]4)c(-c4c(F)c(F)c(F)c(F)c4F)c4nc(c(-c5c(F)c(F)c(F)c(F)c5F)c5ccc2[nH]5)C=C4)C=C3)cc1
REMARK SMILES IDX 21 1 20 2 19 3 18 4 17 5 15 6 16 7 2 8 1 9 3 10 4 11 5 12
REMARK SMILES IDX 6 14 7 15 8 16 14 17 9 18 12 19 10 20 11 21 13 22 22 23
REMARK SMILES IDX 23 24 24 25 25 26 26 27 27 28 28 29 29 30 30 31 91 32 31 33
REMARK SMILES IDX 90 34 32 35 33 36 34 37 84 38 35 39 89 40 83 41 85 42 36 43
REMARK SMILES IDX 88 44 82 45 81 46 37 48 69 49 49 50 68 51 50 52 53 53 67 54
REMARK SMILES IDX 86 55 51 56 52 57 66 59 87 60 54 61 38 62 39 63 47 64 40 65
REMARK SMILES IDX 41 66 45 67 48 68 42 69 43 70 46 71 44 72 70 73 71 74 79 75
REMARK SMILES IDX 72 76 73 77 77 78 80 79 74 80 75 81 78 82 76 83 55 84 56 85
REMARK SMILES IDX 64 86 57 87 58 88 62 89 65 90 59 91 60 92 63 93 61 94
REMARK H PARENT 4 13 85 47 53 58
REMARK Flexibility Score: inf
ROOT
ATOM      1  C   UNL A   1      34.848  32.366  28.006  1.00  0.00     0.188 C 
ENDROOT
BRANCH   1   2
ATOM      2  O   UNL A   1      35.801  31.328  27.798  1.00  0.00    -0.376 OA
BRANCH   2   3
ATOM      3  C   UNL A   1      35.461  29.984  28.097  1.00  0.00     0.202 C 
BRANCH   3   4
ATOM      4  C   UNL A   1      34.840  29.144  26.973  1.00  0.00     0.261 C 
BRANCH   4   5
ATOM      5  O   UNL A   1      33.664  29.689  26.342  1.00  0.00    -0.463 OA
BRANCH   5   6
ATOM      6  C   UNL A   1      33.107  28.922  25.371  1.00  0.00     0.314 C 
ATOM      7  O   UNL A   1      32.885  29.306  24.226  1.00  0.00    -0.252 OA
BRANCH   6   8
ATOM      8  C   UNL A   1      32.701  27.527  25.825  1.00  0.00     0.151 C 
ATOM      9  C   UNL A   1      31.422  27.353  26.633  1.00  0.00     0.026 C 
BRANCH   8  10
ATOM     10  C   UNL A   1      32.870  26.552  24.654  1.00  0.00     0.277 C 
BRANCH  10  11
ATOM     11  N   UNL A   1      31.992  26.674  23.487  1.00  0.00    -0.333 N 
ATOM     12  C   UNL A   1      32.651  26.262  22.251  1.00  0.00     0.333 C 
ATOM     13  H   UNL A   1      31.837  27.682  23.490  1.00  0.00     0.348 HD
BRANCH  11  14
ATOM     14  C   UNL A   1      30.603  26.200  23.556  1.00  0.00     0.298 C 
BRANCH  14  15
ATOM     15  C   UNL A   1      29.429  27.151  23.387  1.00  0.00     0.010 A 
ATOM     16  C   UNL A   1      28.120  26.907  23.818  1.00  0.00     0.048 A 
ATOM     17  C   UNL A   1      29.671  28.371  22.721  1.00  0.00     0.025 A 
ATOM     18  C   UNL A   1      27.128  27.875  23.674  1.00  0.00     0.124 A 
ATOM     19  C   UNL A   1      28.655  29.317  22.546  1.00  0.00     0.021 A 
ATOM     20  F   UNL A   1      25.904  27.630  24.160  1.00  0.00    -0.207 F 
ATOM     21  C   UNL A   1      27.380  29.083  23.044  1.00  0.00     0.055 A 
ATOM     22  Br  UNL A   1      29.015  30.924  21.619  1.00  0.00    -0.051 Br
ENDBRANCH  14  15
ENDBRANCH  11  14
ENDBRANCH  10  11
ENDBRANCH   8  10
ENDBRANCH   6   8
ENDBRANCH   5   6
ENDBRANCH   4   5
ENDBRANCH   3   4
ENDBRANCH   2   3
ENDBRANCH   1   2
BRANCH   1  23
ATOM     23  C   UNL A   1      35.314  33.799  28.314  1.00  0.00     0.188 C 
BRANCH  23  24
ATOM     24  O   UNL A   1      34.507  34.460  29.266  1.00  0.00    -0.376 OA
BRANCH  24  25
ATOM     25  C   UNL A   1      33.866  35.644  28.840  1.00  0.00     0.202 C 
BRANCH  25  26
ATOM     26  C   UNL A   1      32.685  36.055  29.724  1.00  0.00     0.261 C 
BRANCH  26  27
ATOM     27  O   UNL A   1      33.031  36.676  30.978  1.00  0.00    -0.460 OA
BRANCH  27  28
ATOM     28  C   UNL A   1      32.668  36.044  32.118  1.00  0.00     0.338 C 
ATOM     29  O   UNL A   1      31.557  36.013  32.618  1.00  0.00    -0.246 OA
BRANCH  28  30
ATOM     30  C   UNL A   1      33.815  35.209  32.551  1.00  0.00     0.060 A 
ATOM     31  C   UNL A   1      35.116  35.728  32.478  1.00  0.00     0.016 A 
ATOM     32  C   UNL A   1      33.603  33.930  33.071  1.00  0.00     0.016 A 
ATOM     33  C   UNL A   1      36.204  34.974  32.932  1.00  0.00     0.010 A 
ATOM     34  C   UNL A   1      34.695  33.168  33.502  1.00  0.00     0.010 A 
ATOM     35  C   UNL A   1      36.004  33.679  33.429  1.00  0.00    -0.014 A 
BRANCH  35  36
ATOM     36  C   UNL A   1      37.148  32.796  33.784  1.00  0.00     0.031 A 
ATOM     37  C   UNL A   1      37.914  33.073  35.048  1.00  0.00     0.074 A 
ATOM     38  C   UNL A   1      37.545  31.803  32.967  1.00  0.00     0.049 A 
ATOM     39  N   UNL A   1      39.046  32.565  35.464  1.00  0.00    -0.248 NA
ATOM     40  C   UNL A   1      37.325  34.062  35.964  1.00  0.00     0.031 C 
ATOM     41  C   UNL A   1      36.872  31.398  31.736  1.00  0.00     0.029 A 
ATOM     42  N   UNL A   1      38.643  30.975  33.037  1.00  0.00    -0.354 N 
ATOM     43  C   UNL A   1      39.317  33.187  36.675  1.00  0.00     0.074 A 
ATOM     44  C   UNL A   1      38.233  34.113  36.928  1.00  0.00     0.031 C 
ATOM     45  C   UNL A   1      37.590  30.427  31.144  1.00  0.00     0.029 A 
ATOM     46  C   UNL A   1      38.799  30.177  31.929  1.00  0.00     0.049 A 
ATOM     47  H   UNL A   1      39.258  30.958  33.805  1.00  0.00     0.167 HD
ATOM     48  C   UNL A   1      40.377  33.006  37.496  1.00  0.00     0.037 A 
ATOM     49  C   UNL A   1      39.823  29.377  31.565  1.00  0.00     0.037 A 
ATOM     50  C   UNL A   1      41.449  32.076  37.253  1.00  0.00     0.049 A 
ATOM     51  C   UNL A   1      41.035  29.260  32.460  1.00  0.00     0.074 A 
ATOM     52  C   UNL A   1      42.535  31.785  38.060  1.00  0.00     0.029 A 
ATOM     53  N   UNL A   1      41.579  31.299  36.113  1.00  0.00    -0.354 N 
ATOM     54  N   UNL A   1      41.264  29.816  33.624  1.00  0.00    -0.248 NA
ATOM     55  C   UNL A   1      42.137  28.409  31.983  1.00  0.00     0.031 C 
ATOM     56  C   UNL A   1      43.358  30.884  37.380  1.00  0.00     0.029 A 
ATOM     57  C   UNL A   1      42.753  30.565  36.175  1.00  0.00     0.049 A 
ATOM     58  H   UNL A   1      40.935  31.273  35.370  1.00  0.00     0.167 HD
ATOM     59  C   UNL A   1      42.518  29.367  34.025  1.00  0.00     0.074 A 
ATOM     60  C   UNL A   1      42.993  28.474  32.992  1.00  0.00     0.031 C 
ATOM     61  C   UNL A   1      43.216  29.672  35.146  1.00  0.00     0.037 A 
BRANCH  48  62
ATOM     62  C   UNL A   1      40.466  33.850  38.732  1.00  0.00     0.064 A 
ATOM     63  C   UNL A   1      41.143  35.077  38.743  1.00  0.00     0.173 A 
ATOM     64  C   UNL A   1      39.778  33.466  39.895  1.00  0.00     0.173 A 
ATOM     65  F   UNL A   1      41.823  35.482  37.661  1.00  0.00    -0.203 F 
ATOM     66  C   UNL A   1      41.135  35.887  39.876  1.00  0.00     0.198 A 
ATOM     67  C   UNL A   1      39.750  34.289  41.015  1.00  0.00     0.198 A 
ATOM     68  F   UNL A   1      39.110  32.304  39.931  1.00  0.00    -0.203 F 
ATOM     69  F   UNL A   1      41.807  37.045  39.874  1.00  0.00    -0.200 F 
ATOM     70  C   UNL A   1      40.429  35.498  41.006  1.00  0.00     0.200 A 
ATOM     71  F   UNL A   1      39.055  33.920  42.100  1.00  0.00    -0.200 F 
ATOM     72  F   UNL A   1      40.403  36.291  42.086  1.00  0.00    -0.200 F 
ENDBRANCH  48  62
BRANCH  49  73
ATOM     73  C   UNL A   1      39.798  28.667  30.255  1.00  0.00     0.064 A 
ATOM     74  C   UNL A   1      39.270  27.373  30.140  1.00  0.00     0.173 A 
ATOM     75  C   UNL A   1      40.371  29.238  29.109  1.00  0.00     0.173 A 
ATOM     76  F   UNL A   1      38.745  26.766  31.215  1.00  0.00    -0.203 F 
ATOM     77  C   UNL A   1      39.346  26.667  28.940  1.00  0.00     0.198 A 
ATOM     78  C   UNL A   1      40.414  28.546  27.900  1.00  0.00     0.198 A 
ATOM     79  F   UNL A   1      40.903  30.469  29.164  1.00  0.00    -0.203 F 
ATOM     80  F   UNL A   1      38.903  25.403  28.880  1.00  0.00    -0.200 F 
ATOM     81  C   UNL A   1      39.914  27.255  27.820  1.00  0.00     0.200 A 
ATOM     82  F   UNL A   1      40.960  29.120  26.820  1.00  0.00    -0.200 F 
ATOM     83  F   UNL A   1      39.999  26.571  26.670  1.00  0.00    -0.200 F 
ENDBRANCH  49  73
BRANCH  61  84
ATOM     84  C   UNL A   1      44.557  29.021  35.335  1.00  0.00     0.064 A 
ATOM     85  C   UNL A   1      45.741  29.643  34.911  1.00  0.00     0.173 A 
ATOM     86  C   UNL A   1      44.665  27.792  36.002  1.00  0.00     0.173 A 
ATOM     87  F   UNL A   1      45.692  30.814  34.257  1.00  0.00    -0.203 F 
ATOM     88  C   UNL A   1      46.981  29.047  35.130  1.00  0.00     0.198 A 
ATOM     89  C   UNL A   1      45.908  27.214  36.247  1.00  0.00     0.198 A 
ATOM     90  F   UNL A   1      43.565  27.158  36.436  1.00  0.00    -0.203 F 
ATOM     91  F   UNL A   1      48.096  29.639  34.679  1.00  0.00    -0.200 F 
ATOM     92  C   UNL A   1      47.064  27.839  35.807  1.00  0.00     0.200 A 
ATOM     93  F   UNL A   1      45.987  26.056  36.916  1.00  0.00    -0.200 F 
ATOM     94  F   UNL A   1      48.259  27.275  36.029  1.00  0.00    -0.200 F 
ENDBRANCH  61  84
ENDBRANCH  35  36
ENDBRANCH  28  30
ENDBRANCH  27  28
ENDBRANCH  26  27
ENDBRANCH  25  26
ENDBRANCH  24  25
ENDBRANCH  23  24
ENDBRANCH   1  23
TORSDOF 21
ENDMDL
MODEL 2
REMARK VINA RESULT:      -9.7      4.988      7.424
REMARK SMILES C[C@@H](C[N@@H+](C)Cc1cc(F)cc(Br)c1)C(=O)OCCOCCOCCOC(=O)c1ccc(-c2c3nc(c(-c4c(F)c(F)c(F)c(F)c4F)c4ccc([nH]4)c(-c4c(F)c(F)c(F)c(F)c4F)c4nc(c(-c5c(F)c(F)c(F)c(F)c5F)c5ccc2[nH]5)C=C4)C=C3)cc1
REMARK SMILES IDX 21 1 20 2 19 3 18 4 17 5 15 6 16 7 2 8 1 9 3 10 4 11 5 12
REMARK SMILES IDX 6 14 7 15 8 16 14 17 9 18 12 19 10 20 11 21 13 22 22 23
REMARK SMILES IDX 23 24 24 25 25 26 26 27 27 28 28 29 29 30 30 31 91 32 31 33
REMARK SMILES IDX 90 34 32 35 33 36 34 37 84 38 35 39 89 40 83 41 85 42 36 43
REMARK SMILES IDX 88 44 82 45 81 46 37 48 69 49 49 50 68 51 50 52 53 53 67 54
REMARK SMILES IDX 86 55 51 56 52 57 66 59 87 60 54 61 38 62 39 63 47 64 40 65
REMARK SMILES IDX 41 66 45 67 48 68 42 69 43 70 46 71 44 72 70 73 71 74 79 75
REMARK SMILES IDX 72 76 73 77 77 78 80 79 74 80 75 81 78 82 76 83 55 84 56 85
REMARK SMILES IDX 64 86 57 87 58 88 62 89 65 90 59 91 60 92 63 93 61 94
REMARK H PARENT 4 13 85 47 53 58
REMARK Flexibility Score: inf
ROOT
ATOM      1  C   UNL A   1      30.654  27.121  25.211  1.00  0.00     0.188 C 
ENDROOT
BRANCH   1   2
ATOM      2  O   UNL A   1      30.375  26.626  23.905  1.00  0.00    -0.376 OA
BRANCH   2   3
ATOM      3  C   UNL A   1      30.998  27.219  22.776  1.00  0.00     0.202 C 
BRANCH   3   4
ATOM      4  C   UNL A   1      31.750  26.290  21.813  1.00  0.00     0.261 C 
BRANCH   4   5
ATOM      5  O   UNL A   1      33.167  26.153  22.033  1.00  0.00    -0.463 OA
BRANCH   5   6
ATOM      6  C   UNL A   1      33.530  25.305  23.028  1.00  0.00     0.314 C 
ATOM      7  O   UNL A   1      34.405  25.543  23.857  1.00  0.00    -0.252 OA
BRANCH   6   8
ATOM      8  C   UNL A   1      32.804  23.968  23.013  1.00  0.00     0.151 C 
ATOM      9  C   UNL A   1      33.247  22.894  22.030  1.00  0.00     0.026 C 
BRANCH   8  10
ATOM     10  C   UNL A   1      32.609  23.490  24.457  1.00  0.00     0.277 C 
BRANCH  10  11
ATOM     11  N   UNL A   1      33.230  22.233  24.886  1.00  0.00    -0.333 N 
ATOM     12  C   UNL A   1      34.199  22.431  25.960  1.00  0.00     0.333 C 
ATOM     13  H   UNL A   1      33.702  21.969  24.022  1.00  0.00     0.348 HD
BRANCH  11  14
ATOM     14  C   UNL A   1      32.402  21.039  25.103  1.00  0.00     0.298 C 
BRANCH  14  15
ATOM     15  C   UNL A   1      32.630  19.759  24.315  1.00  0.00     0.010 A 
ATOM     16  C   UNL A   1      32.178  19.518  23.013  1.00  0.00     0.048 A 
ATOM     17  C   UNL A   1      33.336  18.718  24.955  1.00  0.00     0.025 A 
ATOM     18  C   UNL A   1      32.499  18.333  22.352  1.00  0.00     0.124 A 
ATOM     19  C   UNL A   1      33.615  17.517  24.295  1.00  0.00     0.021 A 
ATOM     20  F   UNL A   1      32.106  18.168  21.082  1.00  0.00    -0.207 F 
ATOM     21  C   UNL A   1      33.217  17.327  22.978  1.00  0.00     0.055 A 
ATOM     22  Br  UNL A   1      34.534  16.136  25.201  1.00  0.00    -0.051 Br
ENDBRANCH  14  15
ENDBRANCH  11  14
ENDBRANCH  10  11
ENDBRANCH   8  10
ENDBRANCH   6   8
ENDBRANCH   5   6
ENDBRANCH   4   5
ENDBRANCH   3   4
ENDBRANCH   2   3
ENDBRANCH   1   2
BRANCH   1  23
ATOM     23  C   UNL A   1      32.050  26.937  25.831  1.00  0.00     0.188 C 
BRANCH  23  24
ATOM     24  O   UNL A   1      32.906  28.041  25.625  1.00  0.00    -0.376 OA
BRANCH  24  25
ATOM     25  C   UNL A   1      32.298  29.315  25.591  1.00  0.00     0.202 C 
BRANCH  25  26
ATOM     26  C   UNL A   1      32.874  30.297  26.616  1.00  0.00     0.261 C 
BRANCH  26  27
ATOM     27  O   UNL A   1      34.138  29.920  27.199  1.00  0.00    -0.460 OA
BRANCH  27  28
ATOM     28  C   UNL A   1      34.723  30.788  28.055  1.00  0.00     0.338 C 
ATOM     29  O   UNL A   1      34.207  31.757  28.585  1.00  0.00    -0.246 OA
BRANCH  28  30
ATOM     30  C   UNL A   1      36.055  30.238  28.409  1.00  0.00     0.060 A 
ATOM     31  C   UNL A   1      36.250  29.657  29.670  1.00  0.00     0.016 A 
ATOM     32  C   UNL A   1      37.098  30.255  27.480  1.00  0.00     0.016 A 
ATOM     33  C   UNL A   1      37.484  29.085  30.002  1.00  0.00     0.010 A 
ATOM     34  C   UNL A   1      38.338  29.705  27.822  1.00  0.00     0.010 A 
ATOM     35  C   UNL A   1      38.545  29.123  29.086  1.00  0.00    -0.014 A 
BRANCH  35  36
ATOM     36  C   UNL A   1      39.908  28.657  29.456  1.00  0.00     0.031 A 
ATOM     37  C   UNL A   1      40.811  29.586  30.220  1.00  0.00     0.074 A 
ATOM     38  C   UNL A   1      40.367  27.453  29.064  1.00  0.00     0.049 A 
ATOM     39  N   UNL A   1      42.088  29.475  30.487  1.00  0.00    -0.248 NA
ATOM     40  C   UNL A   1      40.189  30.809  30.751  1.00  0.00     0.031 C 
ATOM     41  C   UNL A   1      39.589  26.440  28.358  1.00  0.00     0.029 A 
ATOM     42  N   UNL A   1      41.621  26.897  29.178  1.00  0.00    -0.354 N 
ATOM     43  C   UNL A   1      42.426  30.620  31.193  1.00  0.00     0.074 A 
ATOM     44  C   UNL A   1      41.224  31.417  31.314  1.00  0.00     0.031 C 
ATOM     45  C   UNL A   1      40.391  25.400  28.064  1.00  0.00     0.029 A 
ATOM     46  C   UNL A   1      41.750  25.697  28.519  1.00  0.00     0.049 A 
ATOM     47  H   UNL A   1      42.355  27.317  29.681  1.00  0.00     0.167 HD
ATOM     48  C   UNL A   1      43.634  30.978  31.690  1.00  0.00     0.037 A 
ATOM     49  C   UNL A   1      42.846  24.952  28.265  1.00  0.00     0.037 A 
ATOM     50  C   UNL A   1      44.829  30.181  31.583  1.00  0.00     0.049 A 
ATOM     51  C   UNL A   1      44.196  25.418  28.757  1.00  0.00     0.074 A 
ATOM     52  C   UNL A   1      46.084  30.439  32.108  1.00  0.00     0.029 A 
ATOM     53  N   UNL A   1      44.921  28.983  30.894  1.00  0.00    -0.354 N 
ATOM     54  N   UNL A   1      44.503  26.479  29.463  1.00  0.00    -0.248 NA
ATOM     55  C   UNL A   1      45.358  24.584  28.406  1.00  0.00     0.031 C 
ATOM     56  C   UNL A   1      46.952  29.432  31.680  1.00  0.00     0.029 A 
ATOM     57  C   UNL A   1      46.225  28.513  30.940  1.00  0.00     0.049 A 
ATOM     58  H   UNL A   1      44.174  28.532  30.440  1.00  0.00     0.167 HD
ATOM     59  C   UNL A   1      45.879  26.427  29.658  1.00  0.00     0.074 A 
ATOM     60  C   UNL A   1      46.348  25.219  29.016  1.00  0.00     0.031 C 
ATOM     61  C   UNL A   1      46.683  27.306  30.306  1.00  0.00     0.037 A 
BRANCH  48  62
ATOM     62  C   UNL A   1      43.752  32.307  32.373  1.00  0.00     0.064 A 
ATOM     63  C   UNL A   1      44.001  33.486  31.659  1.00  0.00     0.173 A 
ATOM     64  C   UNL A   1      43.515  32.409  33.754  1.00  0.00     0.173 A 
ATOM     65  F   UNL A   1      44.243  33.439  30.341  1.00  0.00    -0.203 F 
ATOM     66  C   UNL A   1      44.015  34.721  32.303  1.00  0.00     0.198 A 
ATOM     67  C   UNL A   1      43.505  33.646  34.389  1.00  0.00     0.198 A 
ATOM     68  F   UNL A   1      43.267  31.309  34.480  1.00  0.00    -0.203 F 
ATOM     69  F   UNL A   1      44.278  35.835  31.607  1.00  0.00    -0.200 F 
ATOM     70  C   UNL A   1      43.756  34.801  33.664  1.00  0.00     0.200 A 
ATOM     71  F   UNL A   1      43.238  33.723  35.700  1.00  0.00    -0.200 F 
ATOM     72  F   UNL A   1      43.747  35.993  34.277  1.00  0.00    -0.200 F 
ENDBRANCH  48  62
BRANCH  49  73
ATOM     73  C   UNL A   1      42.743  23.713  27.443  1.00  0.00     0.064 A 
ATOM     74  C   UNL A   1      42.338  22.496  28.010  1.00  0.00     0.173 A 
ATOM     75  C   UNL A   1      43.123  23.705  26.093  1.00  0.00     0.173 A 
ATOM     76  F   UNL A   1      42.002  22.442  29.308  1.00  0.00    -0.203 F 
ATOM     77  C   UNL A   1      42.347  21.316  27.268  1.00  0.00     0.198 A 
ATOM     78  C   UNL A   1      43.097  22.531  25.341  1.00  0.00     0.198 A 
ATOM     79  F   UNL A   1      43.532  24.838  25.501  1.00  0.00    -0.203 F 
ATOM     80  F   UNL A   1      42.029  20.155  27.857  1.00  0.00    -0.200 F 
ATOM     81  C   UNL A   1      42.723  21.335  25.934  1.00  0.00     0.200 A 
ATOM     82  F   UNL A   1      43.457  22.556  24.051  1.00  0.00    -0.200 F 
ATOM     83  F   UNL A   1      42.744  20.198  25.225  1.00  0.00    -0.200 F 
ENDBRANCH  49  73
BRANCH  61  84
ATOM     84  C   UNL A   1      48.150  26.989  30.380  1.00  0.00     0.064 A 
ATOM     85  C   UNL A   1      48.668  26.140  31.368  1.00  0.00     0.173 A 
ATOM     86  C   UNL A   1      49.037  27.493  29.417  1.00  0.00     0.173 A 
ATOM     87  F   UNL A   1      47.865  25.642  32.321  1.00  0.00    -0.203 F 
ATOM     88  C   UNL A   1      50.024  25.821  31.400  1.00  0.00     0.198 A 
ATOM     89  C   UNL A   1      50.386  27.148  29.433  1.00  0.00     0.198 A 
ATOM     90  F   UNL A   1      48.593  28.303  28.445  1.00  0.00    -0.203 F 
ATOM     91  F   UNL A   1      50.505  25.041  32.378  1.00  0.00    -0.200 F 
ATOM     92  C   UNL A   1      50.880  26.318  30.427  1.00  0.00     0.200 A 
ATOM     93  F   UNL A   1      51.207  27.615  28.482  1.00  0.00    -0.200 F 
ATOM     94  F   UNL A   1      52.181  25.999  30.451  1.00  0.00    -0.200 F 
ENDBRANCH  61  84
ENDBRANCH  35  36
ENDBRANCH  28  30
ENDBRANCH  27  28
ENDBRANCH  26  27
ENDBRANCH  25  26
ENDBRANCH  24  25
ENDBRANCH  23  24
ENDBRANCH   1  23
TORSDOF 21
ENDMDL
MODEL 3
REMARK VINA RESULT:      -9.6      4.740      7.363
REMARK SMILES C[C@@H](C[N@@H+](C)Cc1cc(F)cc(Br)c1)C(=O)OCCOCCOCCOC(=O)c1ccc(-c2c3nc(c(-c4c(F)c(F)c(F)c(F)c4F)c4ccc([nH]4)c(-c4c(F)c(F)c(F)c(F)c4F)c4nc(c(-c5c(F)c(F)c(F)c(F)c5F)c5ccc2[nH]5)C=C4)C=C3)cc1
REMARK SMILES IDX 21 1 20 2 19 3 18 4 17 5 15 6 16 7 2 8 1 9 3 10 4 11 5 12
REMARK SMILES IDX 6 14 7 15 8 16 14 17 9 18 12 19 10 20 11 21 13 22 22 23
REMARK SMILES IDX 23 24 24 25 25 26 26 27 27 28 28 29 29 30 30 31 91 32 31 33
REMARK SMILES IDX 90 34 32 35 33 36 34 37 84 38 35 39 89 40 83 41 85 42 36 43
REMARK SMILES IDX 88 44 82 45 81 46 37 48 69 49 49 50 68 51 50 52 53 53 67 54
REMARK SMILES IDX 86 55 51 56 52 57 66 59 87 60 54 61 38 62 39 63 47 64 40 65
REMARK SMILES IDX 41 66 45 67 48 68 42 69 43 70 46 71 44 72 70 73 71 74 79 75
REMARK SMILES IDX 72 76 73 77 77 78 80 79 74 80 75 81 78 82 76 83 55 84 56 85
REMARK SMILES IDX 64 86 57 87 58 88 62 89 65 90 59 91 60 92 63 93 61 94
REMARK H PARENT 4 13 85 47 53 58
REMARK Flexibility Score: inf
ROOT
ATOM      1  C   UNL A   1      31.084  27.080  26.012  1.00  0.00     0.188 C 
ENDROOT
BRANCH   1   2
ATOM      2  O   UNL A   1      30.544  26.356  24.910  1.00  0.00    -0.376 OA
BRANCH   2   3
ATOM      3  C   UNL A   1      29.845  27.045  23.885  1.00  0.00     0.202 C 
BRANCH   3   4
ATOM      4  C   UNL A   1      30.529  27.159  22.516  1.00  0.00     0.261 C 
BRANCH   4   5
ATOM      5  O   UNL A   1      31.841  27.753  22.503  1.00  0.00    -0.463 OA
BRANCH   5   6
ATOM      6  C   UNL A   1      32.873  26.900  22.285  1.00  0.00     0.314 C 
ATOM      7  O   UNL A   1      34.048  27.153  22.540  1.00  0.00    -0.252 OA
BRANCH   6   8
ATOM      8  C   UNL A   1      32.477  25.589  21.622  1.00  0.00     0.151 C 
ATOM      9  C   UNL A   1      32.555  25.471  20.106  1.00  0.00     0.026 C 
BRANCH   8  10
ATOM     10  C   UNL A   1      33.106  24.427  22.399  1.00  0.00     0.277 C 
BRANCH  10  11
ATOM     11  N   UNL A   1      32.988  24.393  23.859  1.00  0.00    -0.333 N 
ATOM     12  C   UNL A   1      32.001  23.417  24.314  1.00  0.00     0.333 C 
ATOM     13  H   UNL A   1      32.657  25.342  24.029  1.00  0.00     0.348 HD
BRANCH  11  14
ATOM     14  C   UNL A   1      34.195  24.387  24.697  1.00  0.00     0.298 C 
BRANCH  14  15
ATOM     15  C   UNL A   1      35.019  23.126  24.896  1.00  0.00     0.010 A 
ATOM     16  C   UNL A   1      34.560  21.819  24.705  1.00  0.00     0.048 A 
ATOM     17  C   UNL A   1      36.353  23.283  25.330  1.00  0.00     0.025 A 
ATOM     18  C   UNL A   1      35.419  20.730  24.850  1.00  0.00     0.124 A 
ATOM     19  C   UNL A   1      37.192  22.179  25.513  1.00  0.00     0.021 A 
ATOM     20  F   UNL A   1      34.958  19.498  24.593  1.00  0.00    -0.207 F 
ATOM     21  C   UNL A   1      36.735  20.894  25.251  1.00  0.00     0.055 A 
ATOM     22  Br  UNL A   1      38.961  22.432  26.129  1.00  0.00    -0.051 Br
ENDBRANCH  14  15
ENDBRANCH  11  14
ENDBRANCH  10  11
ENDBRANCH   8  10
ENDBRANCH   6   8
ENDBRANCH   5   6
ENDBRANCH   4   5
ENDBRANCH   3   4
ENDBRANCH   2   3
ENDBRANCH   1   2
BRANCH   1  23
ATOM     23  C   UNL A   1      32.586  27.004  26.331  1.00  0.00     0.188 C 
BRANCH  23  24
ATOM     24  O   UNL A   1      33.350  27.995  25.675  1.00  0.00    -0.376 OA
BRANCH  24  25
ATOM     25  C   UNL A   1      32.741  29.259  25.513  1.00  0.00     0.202 C 
BRANCH  25  26
ATOM     26  C   UNL A   1      33.038  30.234  26.656  1.00  0.00     0.261 C 
BRANCH  26  27
ATOM     27  O   UNL A   1      34.115  29.853  27.536  1.00  0.00    -0.460 OA
BRANCH  27  28
ATOM     28  C   UNL A   1      34.841  30.840  28.111  1.00  0.00     0.338 C 
ATOM     29  O   UNL A   1      34.444  31.941  28.449  1.00  0.00    -0.246 OA
BRANCH  28  30
ATOM     30  C   UNL A   1      36.168  30.274  28.458  1.00  0.00     0.060 A 
ATOM     31  C   UNL A   1      36.361  29.688  29.717  1.00  0.00     0.016 A 
ATOM     32  C   UNL A   1      37.207  30.282  27.525  1.00  0.00     0.016 A 
ATOM     33  C   UNL A   1      37.591  29.102  30.042  1.00  0.00     0.010 A 
ATOM     34  C   UNL A   1      38.443  29.719  27.860  1.00  0.00     0.010 A 
ATOM     35  C   UNL A   1      38.649  29.131  29.122  1.00  0.00    -0.014 A 
BRANCH  35  36
ATOM     36  C   UNL A   1      40.008  28.650  29.485  1.00  0.00     0.031 A 
ATOM     37  C   UNL A   1      40.925  29.569  30.244  1.00  0.00     0.074 A 
ATOM     38  C   UNL A   1      40.452  27.441  29.092  1.00  0.00     0.049 A 
ATOM     39  N   UNL A   1      42.202  29.443  30.505  1.00  0.00    -0.248 NA
ATOM     40  C   UNL A   1      40.320  30.799  30.778  1.00  0.00     0.031 C 
ATOM     41  C   UNL A   1      39.659  26.436  28.389  1.00  0.00     0.029 A 
ATOM     42  N   UNL A   1      41.700  26.870  29.199  1.00  0.00    -0.354 N 
ATOM     43  C   UNL A   1      42.557  30.585  31.210  1.00  0.00     0.074 A 
ATOM     44  C   UNL A   1      41.364  31.395  31.336  1.00  0.00     0.031 C 
ATOM     45  C   UNL A   1      40.447  25.388  28.092  1.00  0.00     0.029 A 
ATOM     46  C   UNL A   1      41.811  25.669  28.540  1.00  0.00     0.049 A 
ATOM     47  H   UNL A   1      42.441  27.282  29.698  1.00  0.00     0.167 HD
ATOM     48  C   UNL A   1      43.771  30.928  31.700  1.00  0.00     0.037 A 
ATOM     49  C   UNL A   1      42.897  24.911  28.280  1.00  0.00     0.037 A 
ATOM     50  C   UNL A   1      44.956  30.118  31.587  1.00  0.00     0.049 A 
ATOM     51  C   UNL A   1      44.256  25.362  28.766  1.00  0.00     0.074 A 
ATOM     52  C   UNL A   1      46.217  30.361  32.105  1.00  0.00     0.029 A 
ATOM     53  N   UNL A   1      45.031  28.918  30.898  1.00  0.00    -0.354 N 
ATOM     54  N   UNL A   1      44.578  26.419  29.469  1.00  0.00    -0.248 NA
ATOM     55  C   UNL A   1      45.406  24.515  28.409  1.00  0.00     0.031 C 
ATOM     56  C   UNL A   1      47.071  29.345  31.673  1.00  0.00     0.029 A 
ATOM     57  C   UNL A   1      46.330  28.434  30.938  1.00  0.00     0.049 A 
ATOM     58  H   UNL A   1      44.277  28.476  30.447  1.00  0.00     0.167 HD
ATOM     59  C   UNL A   1      45.954  26.352  29.657  1.00  0.00     0.074 A 
ATOM     60  C   UNL A   1      46.406  25.139  29.014  1.00  0.00     0.031 C 
ATOM     61  C   UNL A   1      46.771  27.222  30.301  1.00  0.00     0.037 A 
BRANCH  48  62
ATOM     62  C   UNL A   1      43.908  32.256  32.382  1.00  0.00     0.064 A 
ATOM     63  C   UNL A   1      43.748  32.396  33.767  1.00  0.00     0.173 A 
ATOM     64  C   UNL A   1      44.299  33.386  31.645  1.00  0.00     0.173 A 
ATOM     65  F   UNL A   1      43.365  31.349  34.512  1.00  0.00    -0.203 F 
ATOM     66  C   UNL A   1      43.970  33.622  34.391  1.00  0.00     0.198 A 
ATOM     67  C   UNL A   1      44.545  34.601  32.275  1.00  0.00     0.198 A 
ATOM     68  F   UNL A   1      44.471  33.301  30.318  1.00  0.00    -0.203 F 
ATOM     69  F   UNL A   1      43.790  33.741  35.713  1.00  0.00    -0.200 F 
ATOM     70  C   UNL A   1      44.379  34.719  33.646  1.00  0.00     0.200 A 
ATOM     71  F   UNL A   1      44.955  35.656  31.557  1.00  0.00    -0.200 F 
ATOM     72  F   UNL A   1      44.614  35.891  34.252  1.00  0.00    -0.200 F 
ENDBRANCH  48  62
BRANCH  49  73
ATOM     73  C   UNL A   1      42.776  23.674  27.459  1.00  0.00     0.064 A 
ATOM     74  C   UNL A   1      42.399  22.453  28.036  1.00  0.00     0.173 A 
ATOM     75  C   UNL A   1      43.111  23.671  26.097  1.00  0.00     0.173 A 
ATOM     76  F   UNL A   1      42.106  22.392  29.344  1.00  0.00    -0.203 F 
ATOM     77  C   UNL A   1      42.392  21.274  27.292  1.00  0.00     0.198 A 
ATOM     78  C   UNL A   1      43.069  22.499  25.344  1.00  0.00     0.198 A 
ATOM     79  F   UNL A   1      43.493  24.808  25.495  1.00  0.00    -0.203 F 
ATOM     80  F   UNL A   1      42.102  20.109  27.888  1.00  0.00    -0.200 F 
ATOM     81  C   UNL A   1      42.723  21.299  25.946  1.00  0.00     0.200 A 
ATOM     82  F   UNL A   1      43.385  22.529  24.042  1.00  0.00    -0.200 F 
ATOM     83  F   UNL A   1      42.729  20.163  25.233  1.00  0.00    -0.200 F 
ENDBRANCH  49  73
BRANCH  61  84
ATOM     84  C   UNL A   1      48.235  26.888  30.368  1.00  0.00     0.064 A 
ATOM     85  C   UNL A   1      48.744  26.007  31.333  1.00  0.00     0.173 A 
ATOM     86  C   UNL A   1      49.128  27.409  29.419  1.00  0.00     0.173 A 
ATOM     87  F   UNL A   1      47.934  25.491  32.271  1.00  0.00    -0.203 F 
ATOM     88  C   UNL A   1      50.096  25.674  31.357  1.00  0.00     0.198 A 
ATOM     89  C   UNL A   1      50.473  27.050  29.428  1.00  0.00     0.198 A 
ATOM     90  F   UNL A   1      48.693  28.251  28.470  1.00  0.00    -0.203 F 
ATOM     91  F   UNL A   1      50.568  24.862  32.314  1.00  0.00    -0.200 F 
ATOM     92  C   UNL A   1      50.958  26.188  30.399  1.00  0.00     0.200 A 
ATOM     93  F   UNL A   1      51.300  27.535  28.490  1.00  0.00    -0.200 F 
ATOM     94  F   UNL A   1      52.256  25.856  30.416  1.00  0.00    -0.200 F 
ENDBRANCH  61  84
ENDBRANCH  35  36
ENDBRANCH  28  30
ENDBRANCH  27  28
ENDBRANCH  26  27
ENDBRANCH  25  26
ENDBRANCH  24  25
ENDBRANCH  23  24
ENDBRANCH   1  23
TORSDOF 21
ENDMDL
