MODEL 1
REMARK VINA RESULT:     -10.9      0.000      0.000
REMARK SMILES C[C@H]1CN(c2ccc([N+](=O)[O-])c(C(=O)OCCOCCOCCOC(=O)c3ccc(-c4c5nc(c(-c6c(F)c(F)c(F)c(F)c6F)c6ccc([nH]6)c(-c6c(F)c(F)c(F)c(F)c6F)c6nc(c(-c7c(F)c(F)c(F)c(F)c7F)c7ccc4[nH]7)C=C6)C=C5)cc3)c2)C[C@H](C)O1
REMARK SMILES IDX 20 1 19 2 18 3 17 4 16 5 15 6 13 7 14 8 12 9 5 10 6 11 90 12
REMARK SMILES IDX 7 13 8 14 4 15 1 16 2 17 3 18 94 19 92 20 91 21 93 22 9 23
REMARK SMILES IDX 10 24 11 25 21 26 22 27 23 28 24 29 25 30 26 31 27 32 28 33
REMARK SMILES IDX 89 34 29 35 88 36 30 37 31 38 32 39 82 40 33 41 87 42 81 43
REMARK SMILES IDX 83 44 34 45 86 46 80 47 79 48 35 50 67 51 47 52 66 53 48 54
REMARK SMILES IDX 51 55 65 56 84 57 49 58 50 59 64 61 85 62 52 63 36 64 37 65
REMARK SMILES IDX 45 66 38 67 39 68 43 69 46 70 40 71 41 72 44 73 42 74 68 75
REMARK SMILES IDX 69 76 77 77 70 78 71 79 75 80 78 81 72 82 73 83 76 84 74 85
REMARK SMILES IDX 53 86 54 87 62 88 55 89 56 90 60 91 63 92 57 93 58 94 61 95
REMARK SMILES IDX 59 96
REMARK H PARENT 83 49 51 60
REMARK Flexibility Score: inf
ROOT
ATOM      1  C   UNL A   1      34.547  32.445  29.067  1.00  0.00     0.188 C 
ENDROOT
BRANCH   1   2
ATOM      2  C   UNL A   1      35.321  31.512  28.115  1.00  0.00     0.188 C 
BRANCH   2   3
ATOM      3  O   UNL A   1      34.502  30.855  27.157  1.00  0.00    -0.376 OA
BRANCH   3   4
ATOM      4  C   UNL A   1      33.099  30.965  27.365  1.00  0.00     0.202 C 
BRANCH   4   5
ATOM      5  C   UNL A   1      32.325  29.747  26.862  1.00  0.00     0.261 C 
BRANCH   5   6
ATOM      6  O   UNL A   1      31.764  29.971  25.559  1.00  0.00    -0.459 OA
BRANCH   6   7
ATOM      7  C   UNL A   1      32.223  29.256  24.511  1.00  0.00     0.345 C 
ATOM      8  O   UNL A   1      33.221  29.447  23.846  1.00  0.00    -0.246 OA
BRANCH   7   9
ATOM      9  C   UNL A   1      31.256  28.158  24.316  1.00  0.00     0.139 A 
ATOM     10  C   UNL A   1      30.789  25.770  24.721  1.00  0.00     0.038 A 
ATOM     11  C   UNL A   1      29.648  25.911  23.922  1.00  0.00     0.033 A 
ATOM     12  C   UNL A   1      31.583  26.914  24.894  1.00  0.00     0.048 A 
ATOM     13  C   UNL A   1      29.287  27.142  23.358  1.00  0.00     0.089 A 
ATOM     14  C   UNL A   1      30.089  28.273  23.561  1.00  0.00     0.284 A 
BRANCH  10  15
ATOM     15  N   UNL A   1      31.131  24.575  25.311  1.00  0.00    -0.366 N 
ATOM     16  C   UNL A   1      32.307  21.341  23.685  1.00  0.00     0.040 C 
ATOM     17  C   UNL A   1      32.396  22.701  24.363  1.00  0.00     0.135 C 
ATOM     18  C   UNL A   1      30.991  23.296  24.596  1.00  0.00     0.148 C 
ATOM     19  O   UNL A   1      33.099  22.522  25.608  1.00  0.00    -0.372 OA
ATOM     20  C   UNL A   1      33.233  23.745  26.362  1.00  0.00     0.135 C 
ATOM     21  C   UNL A   1      31.878  24.459  26.574  1.00  0.00     0.148 C 
ATOM     22  C   UNL A   1      34.304  24.647  25.755  1.00  0.00     0.040 C 
ENDBRANCH  10  15
BRANCH  14  23
ATOM     23  N   UNL A   1      29.691  29.516  22.901  1.00  0.00     0.063 N 
ATOM     24  O   UNL A   1      29.165  30.388  23.608  1.00  0.00    -0.258 OA
ATOM     25  O   UNL A   1      29.821  29.603  21.676  1.00  0.00    -0.258 OA
ENDBRANCH  14  23
ENDBRANCH   7   9
ENDBRANCH   6   7
ENDBRANCH   5   6
ENDBRANCH   4   5
ENDBRANCH   3   4
ENDBRANCH   2   3
ENDBRANCH   1   2
BRANCH   1  26
ATOM     26  O   UNL A   1      34.868  33.827  29.148  1.00  0.00    -0.376 OA
BRANCH  26  27
ATOM     27  C   UNL A   1      34.073  34.768  28.444  1.00  0.00     0.202 C 
BRANCH  27  28
ATOM     28  C   UNL A   1      33.117  35.636  29.268  1.00  0.00     0.261 C 
BRANCH  28  29
ATOM     29  O   UNL A   1      32.573  34.981  30.425  1.00  0.00    -0.460 OA
BRANCH  29  30
ATOM     30  C   UNL A   1      32.820  35.595  31.608  1.00  0.00     0.338 C 
ATOM     31  O   UNL A   1      32.165  36.474  32.139  1.00  0.00    -0.246 OA
BRANCH  30  32
ATOM     32  C   UNL A   1      33.956  34.941  32.289  1.00  0.00     0.060 A 
ATOM     33  C   UNL A   1      35.219  35.538  32.183  1.00  0.00     0.016 A 
ATOM     34  C   UNL A   1      33.806  33.716  32.942  1.00  0.00     0.016 A 
ATOM     35  C   UNL A   1      36.344  34.898  32.701  1.00  0.00     0.010 A 
ATOM     36  C   UNL A   1      34.939  33.063  33.441  1.00  0.00     0.010 A 
ATOM     37  C   UNL A   1      36.216  33.636  33.293  1.00  0.00    -0.014 A 
BRANCH  37  38
ATOM     38  C   UNL A   1      37.429  32.839  33.596  1.00  0.00     0.031 A 
ATOM     39  C   UNL A   1      38.170  33.109  34.878  1.00  0.00     0.074 A 
ATOM     40  C   UNL A   1      37.862  31.881  32.760  1.00  0.00     0.049 A 
ATOM     41  N   UNL A   1      39.283  32.584  35.325  1.00  0.00    -0.248 NA
ATOM     42  C   UNL A   1      37.571  34.108  35.778  1.00  0.00     0.031 C 
ATOM     43  C   UNL A   1      37.206  31.484  31.516  1.00  0.00     0.029 A 
ATOM     44  N   UNL A   1      38.971  31.073  32.831  1.00  0.00    -0.354 N 
ATOM     45  C   UNL A   1      39.518  33.189  36.552  1.00  0.00     0.074 A 
ATOM     46  C   UNL A   1      38.447  34.138  36.771  1.00  0.00     0.031 C 
ATOM     47  C   UNL A   1      37.938  30.522  30.927  1.00  0.00     0.029 A 
ATOM     48  C   UNL A   1      39.127  30.259  31.737  1.00  0.00     0.049 A 
ATOM     49  H   UNL A   1      39.595  31.079  33.594  1.00  0.00     0.167 HD
ATOM     50  C   UNL A   1      40.532  32.970  37.422  1.00  0.00     0.037 A 
ATOM     51  C   UNL A   1      40.131  29.418  31.418  1.00  0.00     0.037 A 
ATOM     52  C   UNL A   1      41.603  32.033  37.204  1.00  0.00     0.049 A 
ATOM     53  C   UNL A   1      41.295  29.255  32.362  1.00  0.00     0.074 A 
ATOM     54  C   UNL A   1      42.669  31.732  38.032  1.00  0.00     0.029 A 
ATOM     55  N   UNL A   1      41.745  31.250  36.068  1.00  0.00    -0.354 N 
ATOM     56  N   UNL A   1      41.502  29.814  33.530  1.00  0.00    -0.248 NA
ATOM     57  C   UNL A   1      42.367  28.339  31.942  1.00  0.00     0.031 C 
ATOM     58  C   UNL A   1      43.484  30.802  37.376  1.00  0.00     0.029 A 
ATOM     59  C   UNL A   1      42.896  30.485  36.162  1.00  0.00     0.049 A 
ATOM     60  H   UNL A   1      41.119  31.238  35.308  1.00  0.00     0.167 HD
ATOM     61  C   UNL A   1      42.703  29.295  33.996  1.00  0.00     0.074 A 
ATOM     62  C   UNL A   1      43.179  28.372  32.989  1.00  0.00     0.031 C 
ATOM     63  C   UNL A   1      43.351  29.559  35.158  1.00  0.00     0.037 A 
BRANCH  50  64
ATOM     64  C   UNL A   1      40.549  33.783  38.683  1.00  0.00     0.064 A 
ATOM     65  C   UNL A   1      41.310  34.955  38.791  1.00  0.00     0.173 A 
ATOM     66  C   UNL A   1      39.770  33.398  39.784  1.00  0.00     0.173 A 
ATOM     67  F   UNL A   1      42.082  35.357  37.770  1.00  0.00    -0.203 F 
ATOM     68  C   UNL A   1      41.309  35.702  39.967  1.00  0.00     0.198 A 
ATOM     69  C   UNL A   1      39.751  34.161  40.949  1.00  0.00     0.198 A 
ATOM     70  F   UNL A   1      39.023  32.285  39.729  1.00  0.00    -0.203 F 
ATOM     71  F   UNL A   1      42.076  36.796  40.065  1.00  0.00    -0.200 F 
ATOM     72  C   UNL A   1      40.524  35.308  41.042  1.00  0.00     0.200 A 
ATOM     73  F   UNL A   1      38.986  33.784  41.982  1.00  0.00    -0.200 F 
ATOM     74  F   UNL A   1      40.521  36.030  42.170  1.00  0.00    -0.200 F 
ENDBRANCH  50  64
BRANCH  51  75
ATOM     75  C   UNL A   1      40.093  28.674  30.132  1.00  0.00     0.064 A 
ATOM     76  C   UNL A   1      39.483  27.417  30.042  1.00  0.00     0.173 A 
ATOM     77  C   UNL A   1      40.694  29.193  28.976  1.00  0.00     0.173 A 
ATOM     78  F   UNL A   1      38.925  26.863  31.129  1.00  0.00    -0.203 F 
ATOM     79  C   UNL A   1      39.488  26.699  28.848  1.00  0.00     0.198 A 
ATOM     80  C   UNL A   1      40.676  28.486  27.776  1.00  0.00     0.198 A 
ATOM     81  F   UNL A   1      41.302  30.389  29.013  1.00  0.00    -0.203 F 
ATOM     82  F   UNL A   1      38.942  25.476  28.802  1.00  0.00    -0.200 F 
ATOM     83  C   UNL A   1      40.079  27.236  27.714  1.00  0.00     0.200 A 
ATOM     84  F   UNL A   1      41.247  29.011  26.683  1.00  0.00    -0.200 F 
ATOM     85  F   UNL A   1      40.089  26.543  26.567  1.00  0.00    -0.200 F 
ENDBRANCH  51  75
BRANCH  63  86
ATOM     86  C   UNL A   1      44.624  28.810  35.428  1.00  0.00     0.064 A 
ATOM     87  C   UNL A   1      45.875  29.324  35.060  1.00  0.00     0.173 A 
ATOM     88  C   UNL A   1      44.592  27.584  36.111  1.00  0.00     0.173 A 
ATOM     89  F   UNL A   1      45.959  30.485  34.394  1.00  0.00    -0.203 F 
ATOM     90  C   UNL A   1      47.047  28.630  35.349  1.00  0.00     0.198 A 
ATOM     91  C   UNL A   1      45.767  26.906  36.423  1.00  0.00     0.198 A 
ATOM     92  F   UNL A   1      43.421  27.053  36.492  1.00  0.00    -0.203 F 
ATOM     93  F   UNL A   1      48.230  29.120  34.953  1.00  0.00    -0.200 F 
ATOM     94  C   UNL A   1      46.993  27.425  36.037  1.00  0.00     0.200 A 
ATOM     95  F   UNL A   1      45.713  25.750  37.099  1.00  0.00    -0.200 F 
ATOM     96  F   UNL A   1      48.123  26.763  36.322  1.00  0.00    -0.200 F 
ENDBRANCH  63  86
ENDBRANCH  37  38
ENDBRANCH  30  32
ENDBRANCH  29  30
ENDBRANCH  28  29
ENDBRANCH  27  28
ENDBRANCH  26  27
ENDBRANCH   1  26
TORSDOF 19
ENDMDL
MODEL 2
REMARK VINA RESULT:     -10.9      5.087      7.299
REMARK SMILES C[C@H]1CN(c2ccc([N+](=O)[O-])c(C(=O)OCCOCCOCCOC(=O)c3ccc(-c4c5nc(c(-c6c(F)c(F)c(F)c(F)c6F)c6ccc([nH]6)c(-c6c(F)c(F)c(F)c(F)c6F)c6nc(c(-c7c(F)c(F)c(F)c(F)c7F)c7ccc4[nH]7)C=C6)C=C5)cc3)c2)C[C@H](C)O1
REMARK SMILES IDX 20 1 19 2 18 3 17 4 16 5 15 6 13 7 14 8 12 9 5 10 6 11 90 12
REMARK SMILES IDX 7 13 8 14 4 15 1 16 2 17 3 18 94 19 92 20 91 21 93 22 9 23
REMARK SMILES IDX 10 24 11 25 21 26 22 27 23 28 24 29 25 30 26 31 27 32 28 33
REMARK SMILES IDX 89 34 29 35 88 36 30 37 31 38 32 39 82 40 33 41 87 42 81 43
REMARK SMILES IDX 83 44 34 45 86 46 80 47 79 48 35 50 67 51 47 52 66 53 48 54
REMARK SMILES IDX 51 55 65 56 84 57 49 58 50 59 64 61 85 62 52 63 36 64 37 65
REMARK SMILES IDX 45 66 38 67 39 68 43 69 46 70 40 71 41 72 44 73 42 74 68 75
REMARK SMILES IDX 69 76 77 77 70 78 71 79 75 80 78 81 72 82 73 83 76 84 74 85
REMARK SMILES IDX 53 86 54 87 62 88 55 89 56 90 60 91 63 92 57 93 58 94 61 95
REMARK SMILES IDX 59 96
REMARK H PARENT 83 49 51 60
REMARK Flexibility Score: inf
ROOT
ATOM      1  C   UNL A   1      34.156  32.931  27.994  1.00  0.00     0.188 C 
ENDROOT
BRANCH   1   2
ATOM      2  C   UNL A   1      33.673  31.495  27.712  1.00  0.00     0.188 C 
BRANCH   2   3
ATOM      3  O   UNL A   1      34.724  30.554  27.541  1.00  0.00    -0.376 OA
BRANCH   3   4
ATOM      4  C   UNL A   1      34.341  29.288  27.016  1.00  0.00     0.202 C 
BRANCH   4   5
ATOM      5  C   UNL A   1      33.335  29.398  25.871  1.00  0.00     0.261 C 
BRANCH   5   6
ATOM      6  O   UNL A   1      32.835  28.112  25.472  1.00  0.00    -0.459 OA
BRANCH   6   7
ATOM      7  C   UNL A   1      31.762  27.595  26.104  1.00  0.00     0.345 C 
ATOM      8  O   UNL A   1      31.170  28.035  27.069  1.00  0.00    -0.246 OA
BRANCH   7   9
ATOM      9  C   UNL A   1      31.425  26.355  25.379  1.00  0.00     0.139 A 
ATOM     10  C   UNL A   1      31.596  23.894  25.382  1.00  0.00     0.038 A 
ATOM     11  C   UNL A   1      31.032  23.906  24.100  1.00  0.00     0.033 A 
ATOM     12  C   UNL A   1      31.790  25.140  25.996  1.00  0.00     0.048 A 
ATOM     13  C   UNL A   1      30.637  25.096  23.476  1.00  0.00     0.089 A 
ATOM     14  C   UNL A   1      30.827  26.326  24.120  1.00  0.00     0.284 A 
BRANCH  10  15
ATOM     15  N   UNL A   1      31.952  22.728  26.019  1.00  0.00    -0.366 N 
ATOM     16  C   UNL A   1      33.171  19.446  24.524  1.00  0.00     0.040 C 
ATOM     17  C   UNL A   1      33.242  20.833  25.148  1.00  0.00     0.135 C 
ATOM     18  C   UNL A   1      31.830  21.419  25.354  1.00  0.00     0.148 C 
ATOM     19  O   UNL A   1      33.944  20.713  26.401  1.00  0.00    -0.372 OA
ATOM     20  C   UNL A   1      34.062  21.965  27.106  1.00  0.00     0.135 C 
ATOM     21  C   UNL A   1      32.697  22.671  27.286  1.00  0.00     0.148 C 
ATOM     22  C   UNL A   1      35.122  22.857  26.466  1.00  0.00     0.040 C 
ENDBRANCH  10  15
BRANCH  14  23
ATOM     23  N   UNL A   1      30.446  27.538  23.396  1.00  0.00     0.063 N 
ATOM     24  O   UNL A   1      31.331  28.105  22.737  1.00  0.00    -0.258 OA
ATOM     25  O   UNL A   1      29.300  27.977  23.539  1.00  0.00    -0.258 OA
ENDBRANCH  14  23
ENDBRANCH   7   9
ENDBRANCH   6   7
ENDBRANCH   5   6
ENDBRANCH   4   5
ENDBRANCH   3   4
ENDBRANCH   2   3
ENDBRANCH   1   2
BRANCH   1  26
ATOM     26  O   UNL A   1      33.515  33.731  28.979  1.00  0.00    -0.376 OA
BRANCH  26  27
ATOM     27  C   UNL A   1      34.306  34.464  29.901  1.00  0.00     0.202 C 
BRANCH  27  28
ATOM     28  C   UNL A   1      34.324  33.979  31.353  1.00  0.00     0.261 C 
BRANCH  28  29
ATOM     29  O   UNL A   1      34.526  32.564  31.502  1.00  0.00    -0.460 OA
BRANCH  29  30
ATOM     30  C   UNL A   1      35.491  32.207  32.384  1.00  0.00     0.338 C 
ATOM     31  O   UNL A   1      35.499  32.386  33.589  1.00  0.00    -0.246 OA
BRANCH  30  32
ATOM     32  C   UNL A   1      36.524  31.400  31.703  1.00  0.00     0.060 A 
ATOM     33  C   UNL A   1      37.480  30.750  32.495  1.00  0.00     0.016 A 
ATOM     34  C   UNL A   1      36.612  31.355  30.310  1.00  0.00     0.016 A 
ATOM     35  C   UNL A   1      38.548  30.079  31.899  1.00  0.00     0.010 A 
ATOM     36  C   UNL A   1      37.697  30.701  29.713  1.00  0.00     0.010 A 
ATOM     37  C   UNL A   1      38.686  30.090  30.506  1.00  0.00    -0.014 A 
BRANCH  37  38
ATOM     38  C   UNL A   1      39.949  29.619  29.888  1.00  0.00     0.031 A 
ATOM     39  C   UNL A   1      41.095  30.585  29.760  1.00  0.00     0.074 A 
ATOM     40  C   UNL A   1      40.087  28.353  29.460  1.00  0.00     0.049 A 
ATOM     41  N   UNL A   1      42.268  30.419  29.202  1.00  0.00    -0.248 NA
ATOM     42  C   UNL A   1      40.888  31.921  30.342  1.00  0.00     0.031 C 
ATOM     43  C   UNL A   1      39.075  27.305  29.576  1.00  0.00     0.029 A 
ATOM     44  N   UNL A   1      41.140  27.738  28.828  1.00  0.00    -0.354 N 
ATOM     45  C   UNL A   1      42.935  31.626  29.363  1.00  0.00     0.074 A 
ATOM     46  C   UNL A   1      42.031  32.524  30.048  1.00  0.00     0.031 C 
ATOM     47  C   UNL A   1      39.548  26.181  29.011  1.00  0.00     0.029 A 
ATOM     48  C   UNL A   1      40.881  26.439  28.469  1.00  0.00     0.049 A 
ATOM     49  H   UNL A   1      41.998  28.188  28.649  1.00  0.00     0.167 HD
ATOM     50  C   UNL A   1      44.191  31.955  28.979  1.00  0.00     0.037 A 
ATOM     51  C   UNL A   1      41.628  25.570  27.760  1.00  0.00     0.037 A 
ATOM     52  C   UNL A   1      45.090  31.066  28.291  1.00  0.00     0.049 A 
ATOM     53  C   UNL A   1      42.991  25.987  27.267  1.00  0.00     0.074 A 
ATOM     54  C   UNL A   1      46.386  31.304  27.871  1.00  0.00     0.029 A 
ATOM     55  N   UNL A   1      44.780  29.768  27.915  1.00  0.00    -0.354 N 
ATOM     56  N   UNL A   1      43.624  27.122  27.439  1.00  0.00    -0.248 NA
ATOM     57  C   UNL A   1      43.743  24.999  26.479  1.00  0.00     0.031 C 
ATOM     58  C   UNL A   1      46.844  30.167  27.197  1.00  0.00     0.029 A 
ATOM     59  C   UNL A   1      45.851  29.202  27.243  1.00  0.00     0.049 A 
ATOM     60  H   UNL A   1      43.925  29.316  28.097  1.00  0.00     0.167 HD
ATOM     61  C   UNL A   1      44.856  26.973  26.814  1.00  0.00     0.074 A 
ATOM     62  C   UNL A   1      44.885  25.635  26.263  1.00  0.00     0.031 C 
ATOM     63  C   UNL A   1      45.872  27.864  26.711  1.00  0.00     0.037 A 
BRANCH  50  64
ATOM     64  C   UNL A   1      44.659  33.350  29.270  1.00  0.00     0.064 A 
ATOM     65  C   UNL A   1      45.332  33.666  30.459  1.00  0.00     0.173 A 
ATOM     66  C   UNL A   1      44.456  34.375  28.334  1.00  0.00     0.173 A 
ATOM     67  F   UNL A   1      45.537  32.724  31.391  1.00  0.00    -0.203 F 
ATOM     68  C   UNL A   1      45.767  34.966  30.710  1.00  0.00     0.198 A 
ATOM     69  C   UNL A   1      44.915  35.667  28.578  1.00  0.00     0.198 A 
ATOM     70  F   UNL A   1      43.820  34.123  27.181  1.00  0.00    -0.203 F 
ATOM     71  F   UNL A   1      46.370  35.256  31.871  1.00  0.00    -0.200 F 
ATOM     72  C   UNL A   1      45.563  35.963  29.767  1.00  0.00     0.200 A 
ATOM     73  F   UNL A   1      44.726  36.627  27.661  1.00  0.00    -0.200 F 
ATOM     74  F   UNL A   1      45.986  37.211  30.008  1.00  0.00    -0.200 F 
ENDBRANCH  50  64
BRANCH  51  75
ATOM     75  C   UNL A   1      41.097  24.216  27.453  1.00  0.00     0.064 A 
ATOM     76  C   UNL A   1      40.052  24.039  26.538  1.00  0.00     0.173 A 
ATOM     77  C   UNL A   1      41.604  23.077  28.095  1.00  0.00     0.173 A 
ATOM     78  F   UNL A   1      39.512  25.102  25.925  1.00  0.00    -0.203 F 
ATOM     79  C   UNL A   1      39.524  22.775  26.286  1.00  0.00     0.198 A 
ATOM     80  C   UNL A   1      41.092  21.809  27.823  1.00  0.00     0.198 A 
ATOM     81  F   UNL A   1      42.597  23.194  28.990  1.00  0.00    -0.203 F 
ATOM     82  F   UNL A   1      38.490  22.639  25.443  1.00  0.00    -0.200 F 
ATOM     83  C   UNL A   1      40.047  21.660  26.924  1.00  0.00     0.200 A 
ATOM     84  F   UNL A   1      41.603  20.736  28.441  1.00  0.00    -0.200 F 
ATOM     85  F   UNL A   1      39.534  20.445  26.686  1.00  0.00    -0.200 F 
ENDBRANCH  51  75
BRANCH  63  86
ATOM     86  C   UNL A   1      47.122  27.413  26.013  1.00  0.00     0.064 A 
ATOM     87  C   UNL A   1      47.310  27.605  24.637  1.00  0.00     0.173 A 
ATOM     88  C   UNL A   1      48.169  26.826  26.744  1.00  0.00     0.173 A 
ATOM     89  F   UNL A   1      46.336  28.149  23.893  1.00  0.00    -0.203 F 
ATOM     90  C   UNL A   1      48.491  27.209  24.014  1.00  0.00     0.198 A 
ATOM     91  C   UNL A   1      49.358  26.457  26.123  1.00  0.00     0.198 A 
ATOM     92  F   UNL A   1      48.042  26.627  28.064  1.00  0.00    -0.203 F 
ATOM     93  F   UNL A   1      48.634  27.366  22.690  1.00  0.00    -0.200 F 
ATOM     94  C   UNL A   1      49.517  26.643  24.758  1.00  0.00     0.200 A 
ATOM     95  F   UNL A   1      50.352  25.923  26.845  1.00  0.00    -0.200 F 
ATOM     96  F   UNL A   1      50.656  26.272  24.158  1.00  0.00    -0.200 F 
ENDBRANCH  63  86
ENDBRANCH  37  38
ENDBRANCH  30  32
ENDBRANCH  29  30
ENDBRANCH  28  29
ENDBRANCH  27  28
ENDBRANCH  26  27
ENDBRANCH   1  26
TORSDOF 19
ENDMDL
MODEL 3
REMARK VINA RESULT:     -10.8      4.976      7.580
REMARK SMILES C[C@H]1CN(c2ccc([N+](=O)[O-])c(C(=O)OCCOCCOCCOC(=O)c3ccc(-c4c5nc(c(-c6c(F)c(F)c(F)c(F)c6F)c6ccc([nH]6)c(-c6c(F)c(F)c(F)c(F)c6F)c6nc(c(-c7c(F)c(F)c(F)c(F)c7F)c7ccc4[nH]7)C=C6)C=C5)cc3)c2)C[C@H](C)O1
REMARK SMILES IDX 20 1 19 2 18 3 17 4 16 5 15 6 13 7 14 8 12 9 5 10 6 11 90 12
REMARK SMILES IDX 7 13 8 14 4 15 1 16 2 17 3 18 94 19 92 20 91 21 93 22 9 23
REMARK SMILES IDX 10 24 11 25 21 26 22 27 23 28 24 29 25 30 26 31 27 32 28 33
REMARK SMILES IDX 89 34 29 35 88 36 30 37 31 38 32 39 82 40 33 41 87 42 81 43
REMARK SMILES IDX 83 44 34 45 86 46 80 47 79 48 35 50 67 51 47 52 66 53 48 54
REMARK SMILES IDX 51 55 65 56 84 57 49 58 50 59 64 61 85 62 52 63 36 64 37 65
REMARK SMILES IDX 45 66 38 67 39 68 43 69 46 70 40 71 41 72 44 73 42 74 68 75
REMARK SMILES IDX 69 76 77 77 70 78 71 79 75 80 78 81 72 82 73 83 76 84 74 85
REMARK SMILES IDX 53 86 54 87 62 88 55 89 56 90 60 91 63 92 57 93 58 94 61 95
REMARK SMILES IDX 59 96
REMARK H PARENT 83 49 51 60
REMARK Flexibility Score: inf
ROOT
ATOM      1  C   UNL A   1      34.324  33.237  28.641  1.00  0.00     0.188 C 
ENDROOT
BRANCH   1   2
ATOM      2  C   UNL A   1      34.834  32.159  27.664  1.00  0.00     0.188 C 
BRANCH   2   3
ATOM      3  O   UNL A   1      34.213  30.891  27.826  1.00  0.00    -0.376 OA
BRANCH   3   4
ATOM      4  C   UNL A   1      32.926  30.754  27.235  1.00  0.00     0.202 C 
BRANCH   4   5
ATOM      5  C   UNL A   1      32.810  29.521  26.340  1.00  0.00     0.261 C 
BRANCH   5   6
ATOM      6  O   UNL A   1      32.371  29.860  25.016  1.00  0.00    -0.459 OA
BRANCH   6   7
ATOM      7  C   UNL A   1      32.614  29.006  24.001  1.00  0.00     0.345 C 
ATOM      8  O   UNL A   1      33.525  29.026  23.198  1.00  0.00    -0.246 OA
BRANCH   7   9
ATOM      9  C   UNL A   1      31.530  28.004  24.048  1.00  0.00     0.139 A 
ATOM     10  C   UNL A   1      30.929  25.694  24.669  1.00  0.00     0.038 A 
ATOM     11  C   UNL A   1      29.678  25.918  24.083  1.00  0.00     0.033 A 
ATOM     12  C   UNL A   1      31.843  26.758  24.629  1.00  0.00     0.048 A 
ATOM     13  C   UNL A   1      29.333  27.154  23.523  1.00  0.00     0.089 A 
ATOM     14  C   UNL A   1      30.260  28.206  23.511  1.00  0.00     0.284 A 
BRANCH  10  15
ATOM     15  N   UNL A   1      31.264  24.495  25.256  1.00  0.00    -0.366 N 
ATOM     16  C   UNL A   1      32.262  21.210  23.612  1.00  0.00     0.040 C 
ATOM     17  C   UNL A   1      32.425  22.573  24.269  1.00  0.00     0.135 C 
ATOM     18  C   UNL A   1      31.052  23.214  24.563  1.00  0.00     0.148 C 
ATOM     19  O   UNL A   1      33.182  22.386  25.481  1.00  0.00    -0.372 OA
ATOM     20  C   UNL A   1      33.389  23.611  26.213  1.00  0.00     0.135 C 
ATOM     21  C   UNL A   1      32.068  24.369  26.482  1.00  0.00     0.148 C 
ATOM     22  C   UNL A   1      34.455  24.475  25.545  1.00  0.00     0.040 C 
ENDBRANCH  10  15
BRANCH  14  23
ATOM     23  N   UNL A   1      29.861  29.455  22.864  1.00  0.00     0.063 N 
ATOM     24  O   UNL A   1      29.448  30.365  23.597  1.00  0.00    -0.258 OA
ATOM     25  O   UNL A   1      29.879  29.513  21.630  1.00  0.00    -0.258 OA
ENDBRANCH  14  23
ENDBRANCH   7   9
ENDBRANCH   6   7
ENDBRANCH   5   6
ENDBRANCH   4   5
ENDBRANCH   3   4
ENDBRANCH   2   3
ENDBRANCH   1   2
BRANCH   1  26
ATOM     26  O   UNL A   1      34.273  32.983  30.039  1.00  0.00    -0.376 OA
BRANCH  26  27
ATOM     27  C   UNL A   1      34.412  34.064  30.947  1.00  0.00     0.202 C 
BRANCH  27  28
ATOM     28  C   UNL A   1      34.764  33.721  32.398  1.00  0.00     0.261 C 
BRANCH  28  29
ATOM     29  O   UNL A   1      35.167  32.357  32.602  1.00  0.00    -0.460 OA
BRANCH  29  30
ATOM     30  C   UNL A   1      36.358  32.193  33.228  1.00  0.00     0.338 C 
ATOM     31  O   UNL A   1      36.643  32.493  34.374  1.00  0.00    -0.246 OA
BRANCH  30  32
ATOM     32  C   UNL A   1      37.283  31.433  32.362  1.00  0.00     0.060 A 
ATOM     33  C   UNL A   1      38.238  30.613  32.979  1.00  0.00     0.016 A 
ATOM     34  C   UNL A   1      37.277  31.590  30.975  1.00  0.00     0.016 A 
ATOM     35  C   UNL A   1      39.213  29.973  32.214  1.00  0.00     0.010 A 
ATOM     36  C   UNL A   1      38.270  30.966  30.211  1.00  0.00     0.010 A 
ATOM     37  C   UNL A   1      39.261  30.183  30.831  1.00  0.00    -0.014 A 
BRANCH  37  38
ATOM     38  C   UNL A   1      40.443  29.730  30.059  1.00  0.00     0.031 A 
ATOM     39  C   UNL A   1      41.543  30.718  29.776  1.00  0.00     0.074 A 
ATOM     40  C   UNL A   1      40.551  28.463  29.625  1.00  0.00     0.049 A 
ATOM     41  N   UNL A   1      42.638  30.569  29.074  1.00  0.00    -0.248 NA
ATOM     42  C   UNL A   1      41.386  32.055  30.371  1.00  0.00     0.031 C 
ATOM     43  C   UNL A   1      39.584  27.397  29.878  1.00  0.00     0.029 A 
ATOM     44  N   UNL A   1      41.526  27.863  28.867  1.00  0.00    -0.354 N 
ATOM     45  C   UNL A   1      43.295  31.790  29.139  1.00  0.00     0.074 A 
ATOM     46  C   UNL A   1      42.468  32.677  29.928  1.00  0.00     0.031 C 
ATOM     47  C   UNL A   1      40.003  26.277  29.264  1.00  0.00     0.029 A 
ATOM     48  C   UNL A   1      41.250  26.556  28.553  1.00  0.00     0.049 A 
ATOM     49  H   UNL A   1      42.345  28.327  28.576  1.00  0.00     0.167 HD
ATOM     50  C   UNL A   1      44.484  32.139  28.594  1.00  0.00     0.037 A 
ATOM     51  C   UNL A   1      41.918  25.695  27.760  1.00  0.00     0.037 A 
ATOM     52  C   UNL A   1      45.305  31.262  27.802  1.00  0.00     0.049 A 
ATOM     53  C   UNL A   1      43.196  26.134  27.093  1.00  0.00     0.074 A 
ATOM     54  C   UNL A   1      46.532  31.521  27.216  1.00  0.00     0.029 A 
ATOM     55  N   UNL A   1      44.976  29.954  27.478  1.00  0.00    -0.354 N 
ATOM     56  N   UNL A   1      43.823  27.282  27.174  1.00  0.00    -0.248 NA
ATOM     57  C   UNL A   1      43.861  25.152  26.222  1.00  0.00     0.031 C 
ATOM     58  C   UNL A   1      46.922  30.387  26.497  1.00  0.00     0.029 A 
ATOM     59  C   UNL A   1      45.963  29.403  26.678  1.00  0.00     0.049 A 
ATOM     60  H   UNL A   1      44.161  29.487  27.772  1.00  0.00     0.167 HD
ATOM     61  C   UNL A   1      44.967  27.151  26.396  1.00  0.00     0.074 A 
ATOM     62  C   UNL A   1      44.953  25.809  25.855  1.00  0.00     0.031 C 
ATOM     63  C   UNL A   1      45.943  28.061  26.157  1.00  0.00     0.037 A 
BRANCH  50  64
ATOM     64  C   UNL A   1      44.957  33.546  28.812  1.00  0.00     0.064 A 
ATOM     65  C   UNL A   1      44.525  34.602  27.996  1.00  0.00     0.173 A 
ATOM     66  C   UNL A   1      45.831  33.844  29.868  1.00  0.00     0.173 A 
ATOM     67  F   UNL A   1      43.701  34.365  26.964  1.00  0.00    -0.203 F 
ATOM     68  C   UNL A   1      44.968  35.904  28.217  1.00  0.00     0.198 A 
ATOM     69  C   UNL A   1      46.251  35.151  30.102  1.00  0.00     0.198 A 
ATOM     70  F   UNL A   1      46.271  32.870  30.678  1.00  0.00    -0.203 F 
ATOM     71  F   UNL A   1      44.577  36.891  27.400  1.00  0.00    -0.200 F 
ATOM     72  C   UNL A   1      45.826  36.178  29.273  1.00  0.00     0.200 A 
ATOM     73  F   UNL A   1      47.071  35.415  31.128  1.00  0.00    -0.200 F 
ATOM     74  F   UNL A   1      46.247  37.432  29.487  1.00  0.00    -0.200 F 
ENDBRANCH  50  64
BRANCH  51  75
ATOM     75  C   UNL A   1      41.380  24.327  27.534  1.00  0.00     0.064 A 
ATOM     76  C   UNL A   1      41.991  23.206  28.108  1.00  0.00     0.173 A 
ATOM     77  C   UNL A   1      40.263  24.115  26.713  1.00  0.00     0.173 A 
ATOM     78  F   UNL A   1      43.083  23.356  28.873  1.00  0.00    -0.203 F 
ATOM     79  C   UNL A   1      41.515  21.921  27.859  1.00  0.00     0.198 A 
ATOM     80  C   UNL A   1      39.771  22.831  26.485  1.00  0.00     0.198 A 
ATOM     81  F   UNL A   1      39.648  25.155  26.130  1.00  0.00    -0.203 F 
ATOM     82  F   UNL A   1      42.149  20.861  28.379  1.00  0.00    -0.200 F 
ATOM     83  C   UNL A   1      40.402  21.734  27.052  1.00  0.00     0.200 A 
ATOM     84  F   UNL A   1      38.694  22.656  25.707  1.00  0.00    -0.200 F 
ATOM     85  F   UNL A   1      39.947  20.497  26.808  1.00  0.00    -0.200 F 
ENDBRANCH  51  75
BRANCH  63  86
ATOM     86  C   UNL A   1      47.102  27.627  25.307  1.00  0.00     0.064 A 
ATOM     87  C   UNL A   1      48.181  26.908  25.840  1.00  0.00     0.173 A 
ATOM     88  C   UNL A   1      47.106  27.890  23.927  1.00  0.00     0.173 A 
ATOM     89  F   UNL A   1      48.231  26.642  27.155  1.00  0.00    -0.203 F 
ATOM     90  C   UNL A   1      49.231  26.485  25.029  1.00  0.00     0.198 A 
ATOM     91  C   UNL A   1      48.144  27.442  23.115  1.00  0.00     0.198 A 
ATOM     92  F   UNL A   1      46.094  28.567  23.366  1.00  0.00    -0.203 F 
ATOM     93  F   UNL A   1      50.272  25.834  25.568  1.00  0.00    -0.200 F 
ATOM     94  C   UNL A   1      49.208  26.745  23.666  1.00  0.00     0.200 A 
ATOM     95  F   UNL A   1      48.113  27.683  21.796  1.00  0.00    -0.200 F 
ATOM     96  F   UNL A   1      50.215  26.329  22.886  1.00  0.00    -0.200 F 
ENDBRANCH  63  86
ENDBRANCH  37  38
ENDBRANCH  30  32
ENDBRANCH  29  30
ENDBRANCH  28  29
ENDBRANCH  27  28
ENDBRANCH  26  27
ENDBRANCH   1  26
TORSDOF 19
ENDMDL
