MODEL 1
REMARK VINA RESULT:     -10.3      0.000      0.000
REMARK SMILES CC(C)c1ccc(C(=O)OCCOCCOCCOC(=O)c2ccc(-c3c4nc(c(-c5c(F)c(F)c(F)c(F)c5F)c5ccc([nH]5)c(-c5c(F)c(F)c(F)c(F)c5F)c5nc(c(-c6c(F)c(F)c(F)c(F)c6F)c6ccc3[nH]6)C=C5)C=C4)cc2)cc1S(=O)(=O)Nc1cccc(Cl)c1
REMARK SMILES IDX 14 1 13 2 12 3 11 4 10 5 8 6 9 7 7 8 4 9 5 10 86 11 6 12
REMARK SMILES IDX 85 13 2 14 1 15 3 16 87 17 88 18 89 19 90 20 91 22 92 23
REMARK SMILES IDX 97 24 93 25 95 26 94 27 96 28 15 29 16 30 17 31 18 32 19 33
REMARK SMILES IDX 20 34 21 35 22 36 23 37 84 38 24 39 83 40 25 41 26 42 27 43
REMARK SMILES IDX 77 44 28 45 82 46 76 47 78 48 29 49 81 50 75 51 74 52 30 54
REMARK SMILES IDX 62 55 42 56 61 57 43 58 46 59 60 60 79 61 44 62 45 63 59 65
REMARK SMILES IDX 80 66 47 67 31 68 32 69 40 70 33 71 34 72 38 73 41 74 35 75
REMARK SMILES IDX 36 76 39 77 37 78 63 79 64 80 72 81 65 82 66 83 70 84 73 85
REMARK SMILES IDX 67 86 68 87 71 88 69 89 48 90 49 91 57 92 50 93 51 94 55 95
REMARK SMILES IDX 58 96 52 97 53 98 56 99 54 100
REMARK H PARENT 90 21 78 53 46 64
REMARK Flexibility Score: inf
ROOT
ATOM      1  C   UNL A   1      41.814  21.739  27.153  1.00  0.00     0.188 C 
ENDROOT
BRANCH   1   2
ATOM      2  O   UNL A   1      40.896  22.529  27.876  1.00  0.00    -0.376 OA
BRANCH   2   3
ATOM      3  C   UNL A   1      39.655  22.892  27.279  1.00  0.00     0.202 C 
BRANCH   3   4
ATOM      4  C   UNL A   1      39.189  22.396  25.896  1.00  0.00     0.261 C 
BRANCH   4   5
ATOM      5  O   UNL A   1      37.862  21.854  25.852  1.00  0.00    -0.460 OA
BRANCH   5   6
ATOM      6  C   UNL A   1      36.885  22.782  25.671  1.00  0.00     0.338 C 
ATOM      7  O   UNL A   1      37.032  23.955  25.369  1.00  0.00    -0.246 OA
BRANCH   6   8
ATOM      8  C   UNL A   1      35.609  22.072  25.461  1.00  0.00     0.061 A 
ATOM      9  C   UNL A   1      33.403  20.498  24.961  1.00  0.00    -0.025 A 
ATOM     10  C   UNL A   1      34.705  19.972  24.822  1.00  0.00     0.006 A 
ATOM     11  C   UNL A   1      33.161  21.838  25.329  1.00  0.00     0.092 A 
ATOM     12  C   UNL A   1      35.797  20.769  25.010  1.00  0.00     0.016 A 
ATOM     13  C   UNL A   1      34.314  22.617  25.628  1.00  0.00     0.038 A 
BRANCH   9  14
ATOM     14  C   UNL A   1      32.372  19.509  24.552  1.00  0.00     0.014 C 
ATOM     15  C   UNL A   1      32.250  19.697  23.042  1.00  0.00     0.012 C 
ATOM     16  C   UNL A   1      32.709  18.324  25.454  1.00  0.00     0.012 C 
ENDBRANCH   9  14
BRANCH  11  17
ATOM     17  S   UNL A   1      31.543  22.757  25.289  1.00  0.00     0.262 S 
ATOM     18  O   UNL A   1      31.365  23.023  23.869  1.00  0.00    -0.201 OA
ATOM     19  O   UNL A   1      30.589  21.907  25.970  1.00  0.00    -0.201 OA
BRANCH  17  20
ATOM     20  N   UNL A   1      31.362  24.342  25.960  1.00  0.00    -0.280 N 
ATOM     21  H   UNL A   1      30.606  24.452  26.581  1.00  0.00     0.180 HD
BRANCH  20  22
ATOM     22  C   UNL A   1      32.162  25.531  25.742  1.00  0.00     0.050 A 
ATOM     23  C   UNL A   1      33.143  25.679  24.761  1.00  0.00     0.027 A 
ATOM     24  C   UNL A   1      31.965  26.602  26.628  1.00  0.00     0.047 A 
ATOM     25  C   UNL A   1      33.675  26.961  24.493  1.00  0.00     0.004 A 
ATOM     26  C   UNL A   1      32.419  27.886  26.310  1.00  0.00     0.043 A 
ATOM     27  C   UNL A   1      33.254  28.078  25.221  1.00  0.00     0.020 A 
ATOM     28  Cl  UNL A   1      31.812  29.251  27.175  1.00  0.00    -0.084 Cl
ENDBRANCH  20  22
ENDBRANCH  17  20
ENDBRANCH  11  17
ENDBRANCH   6   8
ENDBRANCH   5   6
ENDBRANCH   4   5
ENDBRANCH   3   4
ENDBRANCH   2   3
ENDBRANCH   1   2
BRANCH   1  29
ATOM     29  C   UNL A   1      41.785  20.208  27.341  1.00  0.00     0.188 C 
BRANCH  29  30
ATOM     30  O   UNL A   1      42.104  19.343  26.273  1.00  0.00    -0.376 OA
BRANCH  30  31
ATOM     31  C   UNL A   1      43.105  18.353  26.426  1.00  0.00     0.202 C 
BRANCH  31  32
ATOM     32  C   UNL A   1      44.135  17.993  25.341  1.00  0.00     0.261 C 
BRANCH  32  33
ATOM     33  O   UNL A   1      45.199  18.924  25.116  1.00  0.00    -0.460 OA
BRANCH  33  34
ATOM     34  C   UNL A   1      44.970  19.829  24.137  1.00  0.00     0.338 C 
ATOM     35  O   UNL A   1      44.781  19.614  22.947  1.00  0.00    -0.246 OA
BRANCH  34  36
ATOM     36  C   UNL A   1      44.821  21.164  24.734  1.00  0.00     0.060 A 
ATOM     37  C   UNL A   1      44.300  22.199  23.947  1.00  0.00     0.016 A 
ATOM     38  C   UNL A   1      45.268  21.412  26.032  1.00  0.00     0.016 A 
ATOM     39  C   UNL A   1      44.238  23.496  24.452  1.00  0.00     0.010 A 
ATOM     40  C   UNL A   1      45.224  22.717  26.530  1.00  0.00     0.010 A 
ATOM     41  C   UNL A   1      44.735  23.768  25.733  1.00  0.00    -0.014 A 
BRANCH  41  42
ATOM     42  C   UNL A   1      44.891  25.172  26.180  1.00  0.00     0.031 A 
ATOM     43  C   UNL A   1      46.252  25.807  26.115  1.00  0.00     0.074 A 
ATOM     44  C   UNL A   1      43.837  25.876  26.628  1.00  0.00     0.049 A 
ATOM     45  N   UNL A   1      46.637  26.994  26.510  1.00  0.00    -0.248 NA
ATOM     46  C   UNL A   1      47.324  24.988  25.529  1.00  0.00     0.031 C 
ATOM     47  C   UNL A   1      42.463  25.387  26.700  1.00  0.00     0.029 A 
ATOM     48  N   UNL A   1      43.767  27.156  27.120  1.00  0.00    -0.354 N 
ATOM     49  C   UNL A   1      47.994  27.061  26.228  1.00  0.00     0.074 A 
ATOM     50  C   UNL A   1      48.373  25.787  25.656  1.00  0.00     0.031 C 
ATOM     51  C   UNL A   1      41.686  26.350  27.223  1.00  0.00     0.029 A 
ATOM     52  C   UNL A   1      42.514  27.509  27.556  1.00  0.00     0.049 A 
ATOM     53  H   UNL A   1      44.541  27.763  27.158  1.00  0.00     0.167 HD
ATOM     54  C   UNL A   1      48.847  28.097  26.422  1.00  0.00     0.037 A 
ATOM     55  C   UNL A   1      42.094  28.628  28.177  1.00  0.00     0.037 A 
ATOM     56  C   UNL A   1      48.467  29.362  26.995  1.00  0.00     0.049 A 
ATOM     57  C   UNL A   1      43.080  29.735  28.457  1.00  0.00     0.074 A 
ATOM     58  C   UNL A   1      49.253  30.479  27.214  1.00  0.00     0.029 A 
ATOM     59  N   UNL A   1      47.196  29.671  27.454  1.00  0.00    -0.354 N 
ATOM     60  N   UNL A   1      44.354  29.806  28.160  1.00  0.00    -0.248 NA
ATOM     61  C   UNL A   1      42.563  30.920  29.159  1.00  0.00     0.031 C 
ATOM     62  C   UNL A   1      48.471  31.443  27.858  1.00  0.00     0.029 A 
ATOM     63  C   UNL A   1      47.182  30.951  27.983  1.00  0.00     0.049 A 
ATOM     64  H   UNL A   1      46.417  29.069  27.409  1.00  0.00     0.167 HD
ATOM     65  C   UNL A   1      44.785  31.048  28.610  1.00  0.00     0.074 A 
ATOM     66  C   UNL A   1      43.631  31.704  29.187  1.00  0.00     0.031 C 
ATOM     67  C   UNL A   1      46.024  31.597  28.550  1.00  0.00     0.037 A 
BRANCH  54  68
ATOM     68  C   UNL A   1      50.283  27.892  26.038  1.00  0.00     0.064 A 
ATOM     69  C   UNL A   1      51.271  27.610  26.993  1.00  0.00     0.173 A 
ATOM     70  C   UNL A   1      50.671  27.951  24.691  1.00  0.00     0.173 A 
ATOM     71  F   UNL A   1      50.955  27.555  28.295  1.00  0.00    -0.203 F 
ATOM     72  C   UNL A   1      52.599  27.423  26.617  1.00  0.00     0.198 A 
ATOM     73  C   UNL A   1      51.994  27.732  24.315  1.00  0.00     0.198 A 
ATOM     74  F   UNL A   1      49.766  28.214  23.736  1.00  0.00    -0.203 F 
ATOM     75  F   UNL A   1      53.534  27.203  27.552  1.00  0.00    -0.200 F 
ATOM     76  C   UNL A   1      52.958  27.476  25.277  1.00  0.00     0.200 A 
ATOM     77  F   UNL A   1      52.335  27.771  23.020  1.00  0.00    -0.200 F 
ATOM     78  F   UNL A   1      54.234  27.290  24.916  1.00  0.00    -0.200 F 
ENDBRANCH  54  68
BRANCH  55  79
ATOM     79  C   UNL A   1      40.674  28.758  28.595  1.00  0.00     0.064 A 
ATOM     80  C   UNL A   1      39.688  29.175  27.689  1.00  0.00     0.173 A 
ATOM     81  C   UNL A   1      40.276  28.493  29.915  1.00  0.00     0.173 A 
ATOM     82  F   UNL A   1      40.023  29.465  26.423  1.00  0.00    -0.203 F 
ATOM     83  C   UNL A   1      38.364  29.341  28.091  1.00  0.00     0.198 A 
ATOM     84  C   UNL A   1      38.946  28.631  30.308  1.00  0.00     0.198 A 
ATOM     85  F   UNL A   1      41.180  28.095  30.821  1.00  0.00    -0.203 F 
ATOM     86  F   UNL A   1      37.453  29.789  27.216  1.00  0.00    -0.200 F 
ATOM     87  C   UNL A   1      37.993  29.063  29.398  1.00  0.00     0.200 A 
ATOM     88  F   UNL A   1      38.590  28.350  31.568  1.00  0.00    -0.200 F 
ATOM     89  F   UNL A   1      36.720  29.221  29.783  1.00  0.00    -0.200 F 
ENDBRANCH  55  79
BRANCH  67  90
ATOM     90  C   UNL A   1      46.193  32.991  29.085  1.00  0.00     0.064 A 
ATOM     91  C   UNL A   1      46.576  33.233  30.413  1.00  0.00     0.173 A 
ATOM     92  C   UNL A   1      46.011  34.100  28.243  1.00  0.00     0.173 A 
ATOM     93  F   UNL A   1      46.749  32.209  31.262  1.00  0.00    -0.203 F 
ATOM     94  C   UNL A   1      46.744  34.533  30.884  1.00  0.00     0.198 A 
ATOM     95  C   UNL A   1      46.212  35.396  28.709  1.00  0.00     0.198 A 
ATOM     96  F   UNL A   1      45.652  33.927  26.962  1.00  0.00    -0.203 F 
ATOM     97  F   UNL A   1      47.061  34.741  32.170  1.00  0.00    -0.200 F 
ATOM     98  C   UNL A   1      46.570  35.612  30.032  1.00  0.00     0.200 A 
ATOM     99  F   UNL A   1      46.060  36.437  27.879  1.00  0.00    -0.200 F 
ATOM    100  F   UNL A   1      46.742  36.862  30.485  1.00  0.00    -0.200 F 
ENDBRANCH  67  90
ENDBRANCH  41  42
ENDBRANCH  34  36
ENDBRANCH  33  34
ENDBRANCH  32  33
ENDBRANCH  31  32
ENDBRANCH  30  31
ENDBRANCH  29  30
ENDBRANCH   1  29
TORSDOF 21
ENDMDL
MODEL 2
REMARK VINA RESULT:     -10.2      0.725      7.195
REMARK SMILES CC(C)c1ccc(C(=O)OCCOCCOCCOC(=O)c2ccc(-c3c4nc(c(-c5c(F)c(F)c(F)c(F)c5F)c5ccc([nH]5)c(-c5c(F)c(F)c(F)c(F)c5F)c5nc(c(-c6c(F)c(F)c(F)c(F)c6F)c6ccc3[nH]6)C=C5)C=C4)cc2)cc1S(=O)(=O)Nc1cccc(Cl)c1
REMARK SMILES IDX 14 1 13 2 12 3 11 4 10 5 8 6 9 7 7 8 4 9 5 10 86 11 6 12
REMARK SMILES IDX 85 13 2 14 1 15 3 16 87 17 88 18 89 19 90 20 91 22 92 23
REMARK SMILES IDX 97 24 93 25 95 26 94 27 96 28 15 29 16 30 17 31 18 32 19 33
REMARK SMILES IDX 20 34 21 35 22 36 23 37 84 38 24 39 83 40 25 41 26 42 27 43
REMARK SMILES IDX 77 44 28 45 82 46 76 47 78 48 29 49 81 50 75 51 74 52 30 54
REMARK SMILES IDX 62 55 42 56 61 57 43 58 46 59 60 60 79 61 44 62 45 63 59 65
REMARK SMILES IDX 80 66 47 67 31 68 32 69 40 70 33 71 34 72 38 73 41 74 35 75
REMARK SMILES IDX 36 76 39 77 37 78 63 79 64 80 72 81 65 82 66 83 70 84 73 85
REMARK SMILES IDX 67 86 68 87 71 88 69 89 48 90 49 91 57 92 50 93 51 94 55 95
REMARK SMILES IDX 58 96 52 97 53 98 56 99 54 100
REMARK H PARENT 90 21 78 53 46 64
REMARK Flexibility Score: inf
ROOT
ATOM      1  C   UNL A   1      41.789  21.709  27.081  1.00  0.00     0.188 C 
ENDROOT
BRANCH   1   2
ATOM      2  O   UNL A   1      40.995  22.640  27.783  1.00  0.00    -0.376 OA
BRANCH   2   3
ATOM      3  C   UNL A   1      39.695  22.964  27.299  1.00  0.00     0.202 C 
BRANCH   3   4
ATOM      4  C   UNL A   1      39.170  22.558  25.909  1.00  0.00     0.261 C 
BRANCH   4   5
ATOM      5  O   UNL A   1      37.854  21.987  25.892  1.00  0.00    -0.460 OA
BRANCH   5   6
ATOM      6  C   UNL A   1      36.848  22.902  25.874  1.00  0.00     0.338 C 
ATOM      7  O   UNL A   1      36.955  24.109  25.730  1.00  0.00    -0.246 OA
BRANCH   6   8
ATOM      8  C   UNL A   1      35.583  22.191  25.617  1.00  0.00     0.061 A 
ATOM      9  C   UNL A   1      33.400  20.618  25.018  1.00  0.00    -0.025 A 
ATOM     10  C   UNL A   1      34.708  20.112  24.873  1.00  0.00     0.006 A 
ATOM     11  C   UNL A   1      33.139  21.938  25.442  1.00  0.00     0.092 A 
ATOM     12  C   UNL A   1      35.790  20.910  25.110  1.00  0.00     0.016 A 
ATOM     13  C   UNL A   1      34.280  22.714  25.790  1.00  0.00     0.038 A 
BRANCH   9  14
ATOM     14  C   UNL A   1      32.384  19.639  24.551  1.00  0.00     0.014 C 
ATOM     15  C   UNL A   1      32.283  19.890  23.049  1.00  0.00     0.012 C 
ATOM     16  C   UNL A   1      32.718  18.420  25.408  1.00  0.00     0.012 C 
ENDBRANCH   9  14
BRANCH  11  17
ATOM     17  S   UNL A   1      31.512  22.842  25.420  1.00  0.00     0.262 S 
ATOM     18  O   UNL A   1      31.364  23.196  24.016  1.00  0.00    -0.201 OA
ATOM     19  O   UNL A   1      30.552  21.943  26.023  1.00  0.00    -0.201 OA
BRANCH  17  20
ATOM     20  N   UNL A   1      31.298  24.380  26.185  1.00  0.00    -0.280 N 
ATOM     21  H   UNL A   1      30.779  24.365  27.021  1.00  0.00     0.180 HD
BRANCH  20  22
ATOM     22  C   UNL A   1      31.772  25.687  25.774  1.00  0.00     0.050 A 
ATOM     23  C   UNL A   1      33.077  26.159  25.921  1.00  0.00     0.027 A 
ATOM     24  C   UNL A   1      30.823  26.566  25.227  1.00  0.00     0.047 A 
ATOM     25  C   UNL A   1      33.470  27.345  25.261  1.00  0.00     0.004 A 
ATOM     26  C   UNL A   1      31.225  27.691  24.499  1.00  0.00     0.043 A 
ATOM     27  C   UNL A   1      32.558  28.070  24.487  1.00  0.00     0.020 A 
ATOM     28  Cl  UNL A   1      30.092  28.509  23.488  1.00  0.00    -0.084 Cl
ENDBRANCH  20  22
ENDBRANCH  17  20
ENDBRANCH  11  17
ENDBRANCH   6   8
ENDBRANCH   5   6
ENDBRANCH   4   5
ENDBRANCH   3   4
ENDBRANCH   2   3
ENDBRANCH   1   2
BRANCH   1  29
ATOM     29  C   UNL A   1      41.677  20.213  27.443  1.00  0.00     0.188 C 
BRANCH  29  30
ATOM     30  O   UNL A   1      41.835  19.217  26.458  1.00  0.00    -0.376 OA
BRANCH  30  31
ATOM     31  C   UNL A   1      42.950  18.344  26.492  1.00  0.00     0.202 C 
BRANCH  31  32
ATOM     32  C   UNL A   1      43.938  18.162  25.325  1.00  0.00     0.261 C 
BRANCH  32  33
ATOM     33  O   UNL A   1      45.014  19.102  25.228  1.00  0.00    -0.460 OA
BRANCH  33  34
ATOM     34  C   UNL A   1      44.873  20.033  24.257  1.00  0.00     0.338 C 
ATOM     35  O   UNL A   1      44.657  19.847  23.066  1.00  0.00    -0.246 OA
BRANCH  34  36
ATOM     36  C   UNL A   1      44.865  21.371  24.864  1.00  0.00     0.060 A 
ATOM     37  C   UNL A   1      44.579  22.477  24.052  1.00  0.00     0.016 A 
ATOM     38  C   UNL A   1      45.219  21.543  26.203  1.00  0.00     0.016 A 
ATOM     39  C   UNL A   1      44.661  23.765  24.575  1.00  0.00     0.010 A 
ATOM     40  C   UNL A   1      45.320  22.837  26.719  1.00  0.00     0.010 A 
ATOM     41  C   UNL A   1      45.069  23.954  25.902  1.00  0.00    -0.014 A 
BRANCH  41  42
ATOM     42  C   UNL A   1      45.386  25.317  26.389  1.00  0.00     0.031 A 
ATOM     43  C   UNL A   1      44.283  26.152  26.975  1.00  0.00     0.074 A 
ATOM     44  C   UNL A   1      46.637  25.802  26.320  1.00  0.00     0.049 A 
ATOM     45  N   UNL A   1      44.312  27.389  27.403  1.00  0.00    -0.248 NA
ATOM     46  C   UNL A   1      42.966  25.504  27.090  1.00  0.00     0.031 C 
ATOM     47  C   UNL A   1      47.798  25.076  25.812  1.00  0.00     0.029 A 
ATOM     48  N   UNL A   1      47.135  27.032  26.670  1.00  0.00    -0.354 N 
ATOM     49  C   UNL A   1      43.021  27.668  27.830  1.00  0.00     0.074 A 
ATOM     50  C   UNL A   1      42.225  26.485  27.583  1.00  0.00     0.031 C 
ATOM     51  C   UNL A   1      48.873  25.881  25.867  1.00  0.00     0.029 A 
ATOM     52  C   UNL A   1      48.468  27.189  26.380  1.00  0.00     0.049 A 
ATOM     53  H   UNL A   1      46.588  27.736  27.089  1.00  0.00     0.167 HD
ATOM     54  C   UNL A   1      42.543  28.809  28.384  1.00  0.00     0.037 A 
ATOM     55  C   UNL A   1      49.258  28.274  26.493  1.00  0.00     0.037 A 
ATOM     56  C   UNL A   1      43.336  29.986  28.624  1.00  0.00     0.049 A 
ATOM     57  C   UNL A   1      48.683  29.558  27.036  1.00  0.00     0.074 A 
ATOM     58  C   UNL A   1      42.949  31.184  29.200  1.00  0.00     0.029 A 
ATOM     59  N   UNL A   1      44.675  30.119  28.288  1.00  0.00    -0.354 N 
ATOM     60  N   UNL A   1      47.471  29.808  27.466  1.00  0.00    -0.248 NA
ATOM     61  C   UNL A   1      49.593  30.712  27.110  1.00  0.00     0.031 C 
ATOM     62  C   UNL A   1      44.038  32.060  29.159  1.00  0.00     0.029 A 
ATOM     63  C   UNL A   1      45.122  31.388  28.617  1.00  0.00     0.049 A 
ATOM     64  H   UNL A   1      45.227  29.413  27.878  1.00  0.00     0.167 HD
ATOM     65  C   UNL A   1      47.478  31.132  27.888  1.00  0.00     0.074 A 
ATOM     66  C   UNL A   1      48.821  31.628  27.676  1.00  0.00     0.031 C 
ATOM     67  C   UNL A   1      46.464  31.870  28.405  1.00  0.00     0.037 A 
BRANCH  54  68
ATOM     68  C   UNL A   1      41.086  28.848  28.741  1.00  0.00     0.064 A 
ATOM     69  C   UNL A   1      40.100  29.150  27.790  1.00  0.00     0.173 A 
ATOM     70  C   UNL A   1      40.669  28.551  30.047  1.00  0.00     0.173 A 
ATOM     71  F   UNL A   1      40.446  29.454  26.531  1.00  0.00    -0.203 F 
ATOM     72  C   UNL A   1      38.751  29.181  28.141  1.00  0.00     0.198 A 
ATOM     73  C   UNL A   1      39.318  28.552  30.387  1.00  0.00     0.198 A 
ATOM     74  F   UNL A   1      41.571  28.252  30.995  1.00  0.00    -0.203 F 
ATOM     75  F   UNL A   1      37.831  29.520  27.228  1.00  0.00    -0.200 F 
ATOM     76  C   UNL A   1      38.362  28.874  29.437  1.00  0.00     0.200 A 
ATOM     77  F   UNL A   1      38.944  28.242  31.636  1.00  0.00    -0.200 F 
ATOM     78  F   UNL A   1      37.065  28.897  29.771  1.00  0.00    -0.200 F 
ENDBRANCH  54  68
BRANCH  55  79
ATOM     79  C   UNL A   1      50.681  28.204  26.066  1.00  0.00     0.064 A 
ATOM     80  C   UNL A   1      51.716  28.130  27.009  1.00  0.00     0.173 A 
ATOM     81  C   UNL A   1      51.036  28.235  24.709  1.00  0.00     0.173 A 
ATOM     82  F   UNL A   1      51.428  28.125  28.319  1.00  0.00    -0.203 F 
ATOM     83  C   UNL A   1      53.052  28.111  26.613  1.00  0.00     0.198 A 
ATOM     84  C   UNL A   1      52.371  28.185  24.312  1.00  0.00     0.198 A 
ATOM     85  F   UNL A   1      50.085  28.308  23.767  1.00  0.00    -0.203 F 
ATOM     86  F   UNL A   1      54.022  28.091  27.536  1.00  0.00    -0.200 F 
ATOM     87  C   UNL A   1      53.378  28.132  25.264  1.00  0.00     0.200 A 
ATOM     88  F   UNL A   1      52.681  28.193  23.010  1.00  0.00    -0.200 F 
ATOM     89  F   UNL A   1      54.662  28.110  24.884  1.00  0.00    -0.200 F 
ENDBRANCH  55  79
BRANCH  67  90
ATOM     90  C   UNL A   1      46.774  33.281  28.817  1.00  0.00     0.064 A 
ATOM     91  C   UNL A   1      46.597  34.364  27.942  1.00  0.00     0.173 A 
ATOM     92  C   UNL A   1      47.211  33.560  30.122  1.00  0.00     0.173 A 
ATOM     93  F   UNL A   1      46.195  34.151  26.680  1.00  0.00    -0.203 F 
ATOM     94  C   UNL A   1      46.873  35.667  28.349  1.00  0.00     0.198 A 
ATOM     95  C   UNL A   1      47.454  34.867  30.536  1.00  0.00     0.198 A 
ATOM     96  F   UNL A   1      47.390  32.564  31.004  1.00  0.00    -0.203 F 
ATOM     97  F   UNL A   1      46.745  36.679  27.479  1.00  0.00    -0.200 F 
ATOM     98  C   UNL A   1      47.292  35.919  29.646  1.00  0.00     0.200 A 
ATOM     99  F   UNL A   1      47.843  35.109  31.795  1.00  0.00    -0.200 F 
ATOM    100  F   UNL A   1      47.548  37.174  30.038  1.00  0.00    -0.200 F 
ENDBRANCH  67  90
ENDBRANCH  41  42
ENDBRANCH  34  36
ENDBRANCH  33  34
ENDBRANCH  32  33
ENDBRANCH  31  32
ENDBRANCH  30  31
ENDBRANCH  29  30
ENDBRANCH   1  29
TORSDOF 21
ENDMDL
MODEL 3
REMARK VINA RESULT:     -10.2      1.302      2.583
REMARK SMILES CC(C)c1ccc(C(=O)OCCOCCOCCOC(=O)c2ccc(-c3c4nc(c(-c5c(F)c(F)c(F)c(F)c5F)c5ccc([nH]5)c(-c5c(F)c(F)c(F)c(F)c5F)c5nc(c(-c6c(F)c(F)c(F)c(F)c6F)c6ccc3[nH]6)C=C5)C=C4)cc2)cc1S(=O)(=O)Nc1cccc(Cl)c1
REMARK SMILES IDX 14 1 13 2 12 3 11 4 10 5 8 6 9 7 7 8 4 9 5 10 86 11 6 12
REMARK SMILES IDX 85 13 2 14 1 15 3 16 87 17 88 18 89 19 90 20 91 22 92 23
REMARK SMILES IDX 97 24 93 25 95 26 94 27 96 28 15 29 16 30 17 31 18 32 19 33
REMARK SMILES IDX 20 34 21 35 22 36 23 37 84 38 24 39 83 40 25 41 26 42 27 43
REMARK SMILES IDX 77 44 28 45 82 46 76 47 78 48 29 49 81 50 75 51 74 52 30 54
REMARK SMILES IDX 62 55 42 56 61 57 43 58 46 59 60 60 79 61 44 62 45 63 59 65
REMARK SMILES IDX 80 66 47 67 31 68 32 69 40 70 33 71 34 72 38 73 41 74 35 75
REMARK SMILES IDX 36 76 39 77 37 78 63 79 64 80 72 81 65 82 66 83 70 84 73 85
REMARK SMILES IDX 67 86 68 87 71 88 69 89 48 90 49 91 57 92 50 93 51 94 55 95
REMARK SMILES IDX 58 96 52 97 53 98 56 99 54 100
REMARK H PARENT 90 21 78 53 46 64
REMARK Flexibility Score: inf
ROOT
ATOM      1  C   UNL A   1      41.361  21.696  27.222  1.00  0.00     0.188 C 
ENDROOT
BRANCH   1   2
ATOM      2  O   UNL A   1      40.158  22.423  27.089  1.00  0.00    -0.376 OA
BRANCH   2   3
ATOM      3  C   UNL A   1      39.147  21.956  26.201  1.00  0.00     0.202 C 
BRANCH   3   4
ATOM      4  C   UNL A   1      37.953  22.810  25.732  1.00  0.00     0.261 C 
BRANCH   4   5
ATOM      5  O   UNL A   1      36.663  22.343  26.150  1.00  0.00    -0.460 OA
BRANCH   5   6
ATOM      6  C   UNL A   1      36.022  21.574  25.229  1.00  0.00     0.338 C 
ATOM      7  O   UNL A   1      36.191  20.383  25.022  1.00  0.00    -0.246 OA
BRANCH   6   8
ATOM      8  C   UNL A   1      34.792  22.275  24.819  1.00  0.00     0.061 A 
ATOM      9  C   UNL A   1      32.652  23.669  23.781  1.00  0.00    -0.025 A 
ATOM     10  C   UNL A   1      33.816  23.466  23.011  1.00  0.00     0.006 A 
ATOM     11  C   UNL A   1      32.529  23.205  25.108  1.00  0.00     0.092 A 
ATOM     12  C   UNL A   1      34.899  22.829  23.546  1.00  0.00     0.016 A 
ATOM     13  C   UNL A   1      33.628  22.447  25.604  1.00  0.00     0.038 A 
BRANCH   9  14
ATOM     14  C   UNL A   1      31.669  24.521  23.064  1.00  0.00     0.014 C 
ATOM     15  C   UNL A   1      32.522  25.370  22.126  1.00  0.00     0.012 C 
ATOM     16  C   UNL A   1      30.509  23.549  22.863  1.00  0.00     0.012 C 
ENDBRANCH   9  14
BRANCH  11  17
ATOM     17  S   UNL A   1      31.200  23.619  26.342  1.00  0.00     0.262 S 
ATOM     18  O   UNL A   1      30.217  22.571  26.113  1.00  0.00    -0.201 OA
ATOM     19  O   UNL A   1      31.863  23.693  27.627  1.00  0.00    -0.201 OA
BRANCH  17  20
ATOM     20  N   UNL A   1      30.222  25.041  26.207  1.00  0.00    -0.280 N 
ATOM     21  H   UNL A   1      29.269  24.917  26.419  1.00  0.00     0.180 HD
BRANCH  20  22
ATOM     22  C   UNL A   1      30.603  26.388  25.830  1.00  0.00     0.050 A 
ATOM     23  C   UNL A   1      31.439  27.229  26.564  1.00  0.00     0.027 A 
ATOM     24  C   UNL A   1      30.041  26.901  24.650  1.00  0.00     0.047 A 
ATOM     25  C   UNL A   1      31.930  28.416  25.972  1.00  0.00     0.004 A 
ATOM     26  C   UNL A   1      30.590  28.025  24.025  1.00  0.00     0.043 A 
ATOM     27  C   UNL A   1      31.562  28.774  24.672  1.00  0.00     0.020 A 
ATOM     28  Cl  UNL A   1      30.178  28.387  22.389  1.00  0.00    -0.084 Cl
ENDBRANCH  20  22
ENDBRANCH  17  20
ENDBRANCH  11  17
ENDBRANCH   6   8
ENDBRANCH   5   6
ENDBRANCH   4   5
ENDBRANCH   3   4
ENDBRANCH   2   3
ENDBRANCH   1   2
BRANCH   1  29
ATOM     29  C   UNL A   1      41.287  20.197  27.579  1.00  0.00     0.188 C 
BRANCH  29  30
ATOM     30  O   UNL A   1      41.508  19.209  26.597  1.00  0.00    -0.376 OA
BRANCH  30  31
ATOM     31  C   UNL A   1      42.660  18.386  26.654  1.00  0.00     0.202 C 
BRANCH  31  32
ATOM     32  C   UNL A   1      43.616  18.159  25.470  1.00  0.00     0.261 C 
BRANCH  32  33
ATOM     33  O   UNL A   1      44.781  18.990  25.404  1.00  0.00    -0.460 OA
BRANCH  33  34
ATOM     34  C   UNL A   1      44.852  19.790  24.316  1.00  0.00     0.338 C 
ATOM     35  O   UNL A   1      44.520  19.526  23.168  1.00  0.00    -0.246 OA
BRANCH  34  36
ATOM     36  C   UNL A   1      45.260  21.140  24.731  1.00  0.00     0.060 A 
ATOM     37  C   UNL A   1      45.322  21.432  26.100  1.00  0.00     0.016 A 
ATOM     38  C   UNL A   1      45.500  22.131  23.779  1.00  0.00     0.016 A 
ATOM     39  C   UNL A   1      45.609  22.728  26.524  1.00  0.00     0.010 A 
ATOM     40  C   UNL A   1      45.768  23.434  24.206  1.00  0.00     0.010 A 
ATOM     41  C   UNL A   1      45.796  23.744  25.578  1.00  0.00    -0.014 A 
BRANCH  41  42
ATOM     42  C   UNL A   1      45.864  25.157  26.018  1.00  0.00     0.031 A 
ATOM     43  C   UNL A   1      47.190  25.864  25.986  1.00  0.00     0.074 A 
ATOM     44  C   UNL A   1      44.762  25.806  26.432  1.00  0.00     0.049 A 
ATOM     45  N   UNL A   1      47.500  27.072  26.383  1.00  0.00    -0.248 NA
ATOM     46  C   UNL A   1      48.321  25.100  25.435  1.00  0.00     0.031 C 
ATOM     47  C   UNL A   1      43.415  25.244  26.470  1.00  0.00     0.029 A 
ATOM     48  N   UNL A   1      44.610  27.083  26.913  1.00  0.00    -0.354 N 
ATOM     49  C   UNL A   1      48.859  27.211  26.137  1.00  0.00     0.074 A 
ATOM     50  C   UNL A   1      49.321  25.956  25.584  1.00  0.00     0.031 C 
ATOM     51  C   UNL A   1      42.573  26.167  26.966  1.00  0.00     0.029 A 
ATOM     52  C   UNL A   1      43.328  27.370  27.312  1.00  0.00     0.049 A 
ATOM     53  H   UNL A   1      45.349  27.731  26.967  1.00  0.00     0.167 HD
ATOM     54  C   UNL A   1      49.649  28.292  26.346  1.00  0.00     0.037 A 
ATOM     55  C   UNL A   1      42.832  28.469  27.913  1.00  0.00     0.037 A 
ATOM     56  C   UNL A   1      49.187  29.538  26.900  1.00  0.00     0.049 A 
ATOM     57  C   UNL A   1      43.749  29.628  28.212  1.00  0.00     0.074 A 
ATOM     58  C   UNL A   1      49.905  30.697  27.132  1.00  0.00     0.029 A 
ATOM     59  N   UNL A   1      47.888  29.780  27.322  1.00  0.00    -0.354 N 
ATOM     60  N   UNL A   1      45.025  29.766  27.949  1.00  0.00    -0.248 NA
ATOM     61  C   UNL A   1      43.150  30.788  28.891  1.00  0.00     0.031 C 
ATOM     62  C   UNL A   1      49.055  31.622  27.748  1.00  0.00     0.029 A 
ATOM     63  C   UNL A   1      47.791  31.062  27.841  1.00  0.00     0.049 A 
ATOM     64  H   UNL A   1      47.144  29.138  27.261  1.00  0.00     0.167 HD
ATOM     65  C   UNL A   1      45.376  31.033  28.402  1.00  0.00     0.074 A 
ATOM     66  C   UNL A   1      44.173  31.629  28.942  1.00  0.00     0.031 C 
ATOM     67  C   UNL A   1      46.585  31.647  28.372  1.00  0.00     0.037 A 
BRANCH  54  68
ATOM     68  C   UNL A   1      51.104  28.162  26.003  1.00  0.00     0.064 A 
ATOM     69  C   UNL A   1      51.591  28.463  24.722  1.00  0.00     0.173 A 
ATOM     70  C   UNL A   1      52.028  27.757  26.978  1.00  0.00     0.173 A 
ATOM     71  F   UNL A   1      50.748  28.842  23.751  1.00  0.00    -0.203 F 
ATOM     72  C   UNL A   1      52.946  28.337  24.423  1.00  0.00     0.198 A 
ATOM     73  C   UNL A   1      53.386  27.662  26.684  1.00  0.00     0.198 A 
ATOM     74  F   UNL A   1      51.616  27.461  28.220  1.00  0.00    -0.203 F 
ATOM     75  F   UNL A   1      53.382  28.582  23.179  1.00  0.00    -0.200 F 
ATOM     76  C   UNL A   1      53.843  27.944  25.406  1.00  0.00     0.200 A 
ATOM     77  F   UNL A   1      54.252  27.296  27.639  1.00  0.00    -0.200 F 
ATOM     78  F   UNL A   1      55.146  27.829  25.119  1.00  0.00    -0.200 F 
ENDBRANCH  54  68
BRANCH  55  79
ATOM     79  C   UNL A   1      41.395  28.525  28.292  1.00  0.00     0.064 A 
ATOM     80  C   UNL A   1      40.966  28.120  29.564  1.00  0.00     0.173 A 
ATOM     81  C   UNL A   1      40.419  28.959  27.382  1.00  0.00     0.173 A 
ATOM     82  F   UNL A   1      41.858  27.673  30.460  1.00  0.00    -0.203 F 
ATOM     83  C   UNL A   1      39.615  28.129  29.905  1.00  0.00     0.198 A 
ATOM     84  C   UNL A   1      39.071  28.996  27.734  1.00  0.00     0.198 A 
ATOM     85  F   UNL A   1      40.776  29.353  26.151  1.00  0.00    -0.203 F 
ATOM     86  F   UNL A   1      39.228  27.690  31.110  1.00  0.00    -0.200 F 
ATOM     87  C   UNL A   1      38.669  28.572  28.991  1.00  0.00     0.200 A 
ATOM     88  F   UNL A   1      38.163  29.436  26.854  1.00  0.00    -0.200 F 
ATOM     89  F   UNL A   1      37.371  28.582  29.321  1.00  0.00    -0.200 F 
ENDBRANCH  55  79
BRANCH  67  90
ATOM     90  C   UNL A   1      46.664  33.051  28.901  1.00  0.00     0.064 A 
ATOM     91  C   UNL A   1      46.405  34.164  28.087  1.00  0.00     0.173 A 
ATOM     92  C   UNL A   1      46.957  33.284  30.254  1.00  0.00     0.173 A 
ATOM     93  F   UNL A   1      46.134  33.998  26.784  1.00  0.00    -0.203 F 
ATOM     94  C   UNL A   1      46.466  35.458  28.601  1.00  0.00     0.198 A 
ATOM     95  C   UNL A   1      46.984  34.576  30.772  1.00  0.00     0.198 A 
ATOM     96  F   UNL A   1      47.205  32.256  31.080  1.00  0.00    -0.203 F 
ATOM     97  F   UNL A   1      46.265  36.508  27.792  1.00  0.00    -0.200 F 
ATOM     98  C   UNL A   1      46.746  35.662  29.943  1.00  0.00     0.200 A 
ATOM     99  F   UNL A   1      47.239  34.770  32.073  1.00  0.00    -0.200 F 
ATOM    100  F   UNL A   1      46.795  36.907  30.437  1.00  0.00    -0.200 F 
ENDBRANCH  67  90
ENDBRANCH  41  42
ENDBRANCH  34  36
ENDBRANCH  33  34
ENDBRANCH  32  33
ENDBRANCH  31  32
ENDBRANCH  30  31
ENDBRANCH  29  30
ENDBRANCH   1  29
TORSDOF 21
ENDMDL
