MODEL 1
REMARK VINA RESULT:      -9.5      0.000      0.000
REMARK SMILES CC(C)(Br)[C@H](Br)C(=O)OCCOCCOCCOC(=O)c1ccc(-c2c3nc(c(-c4c(F)c(F)c(F)c(F)c4F)c4ccc([nH]4)c(-c4c(F)c(F)c(F)c(F)c4F)c4nc(c(-c5c(F)c(F)c(F)c(F)c5F)c5ccc2[nH]5)C=C4)C=C3)cc1
REMARK SMILES IDX 14 1 13 2 12 3 11 4 10 5 9 6 7 7 8 8 5 9 6 10 2 11 1 12 3 13
REMARK SMILES IDX 4 14 15 15 16 16 17 17 18 18 19 19 20 20 21 21 22 22 83 23
REMARK SMILES IDX 23 24 82 25 24 26 25 27 26 28 76 29 27 30 81 31 75 32 77 33
REMARK SMILES IDX 28 34 80 35 74 36 73 37 29 39 61 40 41 41 60 42 42 43 45 44
REMARK SMILES IDX 59 45 78 46 43 47 44 48 58 50 79 51 46 52 30 53 31 54 39 55
REMARK SMILES IDX 32 56 33 57 37 58 40 59 34 60 35 61 38 62 36 63 62 64 63 65
REMARK SMILES IDX 71 66 64 67 65 68 69 69 72 70 66 71 67 72 70 73 68 74 47 75
REMARK SMILES IDX 48 76 56 77 49 78 50 79 54 80 57 81 51 82 52 83 55 84 53 85
REMARK H PARENT 77 38 45 49
REMARK Flexibility Score: inf
ROOT
ATOM      1  C   UNL A   1      32.338  30.530  26.816  1.00  0.00     0.188 C 
ENDROOT
BRANCH   1   2
ATOM      2  C   UNL A   1      32.894  29.523  25.798  1.00  0.00     0.188 C 
BRANCH   2   3
ATOM      3  O   UNL A   1      32.038  28.556  25.210  1.00  0.00    -0.376 OA
BRANCH   3   4
ATOM      4  C   UNL A   1      31.538  28.756  23.892  1.00  0.00     0.202 C 
BRANCH   4   5
ATOM      5  C   UNL A   1      32.041  27.852  22.757  1.00  0.00     0.261 C 
BRANCH   5   6
ATOM      6  O   UNL A   1      33.305  27.202  23.001  1.00  0.00    -0.462 OA
BRANCH   6   7
ATOM      7  C   UNL A   1      33.385  25.891  22.655  1.00  0.00     0.321 C 
ATOM      8  O   UNL A   1      33.603  25.525  21.503  1.00  0.00    -0.251 OA
BRANCH   7   9
ATOM      9  C   UNL A   1      33.371  24.897  23.815  1.00  0.00     0.183 C 
ATOM     10  Br  UNL A   1      34.253  25.605  25.436  1.00  0.00    -0.075 Br
BRANCH   9  11
ATOM     11  C   UNL A   1      32.014  24.219  24.131  1.00  0.00     0.043 C 
ATOM     12  C   UNL A   1      32.182  22.688  24.179  1.00  0.00     0.025 C 
ATOM     13  C   UNL A   1      30.893  24.530  23.126  1.00  0.00     0.025 C 
ATOM     14  Br  UNL A   1      31.283  24.798  25.886  1.00  0.00    -0.084 Br
ENDBRANCH   9  11
ENDBRANCH   7   9
ENDBRANCH   6   7
ENDBRANCH   5   6
ENDBRANCH   4   5
ENDBRANCH   3   4
ENDBRANCH   2   3
ENDBRANCH   1   2
BRANCH   1  15
ATOM     15  O   UNL A   1      31.279  31.333  26.342  1.00  0.00    -0.376 OA
BRANCH  15  16
ATOM     16  C   UNL A   1      31.405  32.734  26.547  1.00  0.00     0.202 C 
BRANCH  16  17
ATOM     17  C   UNL A   1      32.698  33.183  27.250  1.00  0.00     0.261 C 
BRANCH  17  18
ATOM     18  O   UNL A   1      32.506  34.041  28.391  1.00  0.00    -0.460 OA
BRANCH  18  19
ATOM     19  C   UNL A   1      33.556  34.819  28.744  1.00  0.00     0.338 C 
ATOM     20  O   UNL A   1      33.550  36.022  28.927  1.00  0.00    -0.246 OA
BRANCH  19  21
ATOM     21  C   UNL A   1      34.686  33.931  29.103  1.00  0.00     0.060 A 
ATOM     22  C   UNL A   1      34.430  32.827  29.927  1.00  0.00     0.016 A 
ATOM     23  C   UNL A   1      35.978  34.177  28.637  1.00  0.00     0.016 A 
ATOM     24  C   UNL A   1      35.474  31.985  30.315  1.00  0.00     0.010 A 
ATOM     25  C   UNL A   1      37.028  33.343  29.042  1.00  0.00     0.010 A 
ATOM     26  C   UNL A   1      36.786  32.260  29.907  1.00  0.00    -0.014 A 
BRANCH  26  27
ATOM     27  C   UNL A   1      37.911  31.510  30.523  1.00  0.00     0.031 A 
ATOM     28  C   UNL A   1      38.267  31.791  31.959  1.00  0.00     0.074 A 
ATOM     29  C   UNL A   1      38.575  30.560  29.842  1.00  0.00     0.049 A 
ATOM     30  N   UNL A   1      39.197  31.253  32.708  1.00  0.00    -0.248 NA
ATOM     31  C   UNL A   1      37.460  32.813  32.643  1.00  0.00     0.031 C 
ATOM     32  C   UNL A   1      38.315  30.172  28.458  1.00  0.00     0.029 A 
ATOM     33  N   UNL A   1      39.613  29.746  30.230  1.00  0.00    -0.354 N 
ATOM     34  C   UNL A   1      39.080  31.863  33.951  1.00  0.00     0.074 A 
ATOM     35  C   UNL A   1      38.019  32.841  33.845  1.00  0.00     0.031 C 
ATOM     36  C   UNL A   1      39.179  29.203  28.107  1.00  0.00     0.029 A 
ATOM     37  C   UNL A   1      40.067  28.918  29.234  1.00  0.00     0.049 A 
ATOM     38  H   UNL A   1      39.995  29.756  31.137  1.00  0.00     0.167 HD
ATOM     39  C   UNL A   1      39.780  31.619  35.083  1.00  0.00     0.037 A 
ATOM     40  C   UNL A   1      41.093  28.043  29.227  1.00  0.00     0.037 A 
ATOM     41  C   UNL A   1      40.846  30.658  35.191  1.00  0.00     0.049 A 
ATOM     42  C   UNL A   1      41.903  27.841  30.485  1.00  0.00     0.074 A 
ATOM     43  C   UNL A   1      41.619  30.345  36.297  1.00  0.00     0.029 A 
ATOM     44  N   UNL A   1      41.296  29.857  34.152  1.00  0.00    -0.354 N 
ATOM     45  N   UNL A   1      41.767  28.402  31.661  1.00  0.00    -0.248 NA
ATOM     46  C   UNL A   1      43.005  26.869  30.412  1.00  0.00     0.031 C 
ATOM     47  C   UNL A   1      42.567  29.389  35.915  1.00  0.00     0.029 A 
ATOM     48  C   UNL A   1      42.347  29.064  34.586  1.00  0.00     0.049 A 
ATOM     49  H   UNL A   1      40.923  29.852  33.241  1.00  0.00     0.167 HD
ATOM     50  C   UNL A   1      42.745  27.839  32.471  1.00  0.00     0.074 A 
ATOM     51  C   UNL A   1      43.449  26.868  31.660  1.00  0.00     0.031 C 
ATOM     52  C   UNL A   1      43.041  28.102  33.768  1.00  0.00     0.037 A 
BRANCH  39  53
ATOM     53  C   UNL A   1      39.423  32.417  36.304  1.00  0.00     0.064 A 
ATOM     54  C   UNL A   1      40.049  33.640  36.588  1.00  0.00     0.173 A 
ATOM     55  C   UNL A   1      38.411  31.981  37.171  1.00  0.00     0.173 A 
ATOM     56  F   UNL A   1      41.035  34.094  35.798  1.00  0.00    -0.203 F 
ATOM     57  C   UNL A   1      39.689  34.388  37.707  1.00  0.00     0.198 A 
ATOM     58  C   UNL A   1      38.033  32.745  38.272  1.00  0.00     0.198 A 
ATOM     59  F   UNL A   1      37.779  30.820  36.943  1.00  0.00    -0.203 F 
ATOM     60  F   UNL A   1      40.328  35.533  37.980  1.00  0.00    -0.200 F 
ATOM     61  C   UNL A   1      38.674  33.944  38.542  1.00  0.00     0.200 A 
ATOM     62  F   UNL A   1      37.044  32.321  39.072  1.00  0.00    -0.200 F 
ATOM     63  F   UNL A   1      38.319  34.671  39.610  1.00  0.00    -0.200 F 
ENDBRANCH  39  53
BRANCH  40  64
ATOM     64  C   UNL A   1      41.437  27.299  27.985  1.00  0.00     0.064 A 
ATOM     65  C   UNL A   1      40.933  26.015  27.740  1.00  0.00     0.173 A 
ATOM     66  C   UNL A   1      42.322  27.842  27.041  1.00  0.00     0.173 A 
ATOM     67  F   UNL A   1      40.107  25.440  28.626  1.00  0.00    -0.203 F 
ATOM     68  C   UNL A   1      41.324  25.289  26.616  1.00  0.00     0.198 A 
ATOM     69  C   UNL A   1      42.685  27.130  25.900  1.00  0.00     0.198 A 
ATOM     70  F   UNL A   1      42.837  29.066  27.228  1.00  0.00    -0.203 F 
ATOM     71  F   UNL A   1      40.877  24.038  26.440  1.00  0.00    -0.200 F 
ATOM     72  C   UNL A   1      42.196  25.849  25.694  1.00  0.00     0.200 A 
ATOM     73  F   UNL A   1      43.520  27.679  25.007  1.00  0.00    -0.200 F 
ATOM     74  F   UNL A   1      42.575  25.149  24.616  1.00  0.00    -0.200 F 
ENDBRANCH  40  64
BRANCH  52  75
ATOM     75  C   UNL A   1      44.153  27.308  34.397  1.00  0.00     0.064 A 
ATOM     76  C   UNL A   1      43.915  26.078  35.027  1.00  0.00     0.173 A 
ATOM     77  C   UNL A   1      45.474  27.780  34.359  1.00  0.00     0.173 A 
ATOM     78  F   UNL A   1      42.669  25.586  35.102  1.00  0.00    -0.203 F 
ATOM     79  C   UNL A   1      44.951  25.371  35.635  1.00  0.00     0.198 A 
ATOM     80  C   UNL A   1      46.513  27.053  34.937  1.00  0.00     0.198 A 
ATOM     81  F   UNL A   1      45.761  28.945  33.759  1.00  0.00    -0.203 F 
ATOM     82  F   UNL A   1      44.688  24.232  36.289  1.00  0.00    -0.200 F 
ATOM     83  C   UNL A   1      46.249  25.857  35.586  1.00  0.00     0.200 A 
ATOM     84  F   UNL A   1      47.769  27.517  34.873  1.00  0.00    -0.200 F 
ATOM     85  F   UNL A   1      47.243  25.178  36.173  1.00  0.00    -0.200 F 
ENDBRANCH  52  75
ENDBRANCH  26  27
ENDBRANCH  19  21
ENDBRANCH  18  19
ENDBRANCH  17  18
ENDBRANCH  16  17
ENDBRANCH  15  16
ENDBRANCH   1  15
TORSDOF 18
ENDMDL
MODEL 2
REMARK VINA RESULT:      -9.3      1.511      2.317
REMARK SMILES CC(C)(Br)[C@H](Br)C(=O)OCCOCCOCCOC(=O)c1ccc(-c2c3nc(c(-c4c(F)c(F)c(F)c(F)c4F)c4ccc([nH]4)c(-c4c(F)c(F)c(F)c(F)c4F)c4nc(c(-c5c(F)c(F)c(F)c(F)c5F)c5ccc2[nH]5)C=C4)C=C3)cc1
REMARK SMILES IDX 14 1 13 2 12 3 11 4 10 5 9 6 7 7 8 8 5 9 6 10 2 11 1 12 3 13
REMARK SMILES IDX 4 14 15 15 16 16 17 17 18 18 19 19 20 20 21 21 22 22 83 23
REMARK SMILES IDX 23 24 82 25 24 26 25 27 26 28 76 29 27 30 81 31 75 32 77 33
REMARK SMILES IDX 28 34 80 35 74 36 73 37 29 39 61 40 41 41 60 42 42 43 45 44
REMARK SMILES IDX 59 45 78 46 43 47 44 48 58 50 79 51 46 52 30 53 31 54 39 55
REMARK SMILES IDX 32 56 33 57 37 58 40 59 34 60 35 61 38 62 36 63 62 64 63 65
REMARK SMILES IDX 71 66 64 67 65 68 69 69 72 70 66 71 67 72 70 73 68 74 47 75
REMARK SMILES IDX 48 76 56 77 49 78 50 79 54 80 57 81 51 82 52 83 55 84 53 85
REMARK H PARENT 77 38 45 49
REMARK Flexibility Score: inf
ROOT
ATOM      1  C   UNL A   1      30.896  28.847  23.894  1.00  0.00     0.188 C 
ENDROOT
BRANCH   1   2
ATOM      2  C   UNL A   1      31.839  28.737  22.686  1.00  0.00     0.188 C 
BRANCH   2   3
ATOM      3  O   UNL A   1      33.222  28.481  22.881  1.00  0.00    -0.376 OA
BRANCH   3   4
ATOM      4  C   UNL A   1      33.678  27.146  23.072  1.00  0.00     0.202 C 
BRANCH   4   5
ATOM      5  C   UNL A   1      32.945  25.997  22.364  1.00  0.00     0.261 C 
BRANCH   5   6
ATOM      6  O   UNL A   1      32.530  24.912  23.219  1.00  0.00    -0.462 OA
BRANCH   6   7
ATOM      7  C   UNL A   1      33.173  23.728  23.045  1.00  0.00     0.321 C 
ATOM      8  O   UNL A   1      33.798  23.462  22.021  1.00  0.00    -0.251 OA
BRANCH   7   9
ATOM      9  C   UNL A   1      33.227  22.816  24.268  1.00  0.00     0.183 C 
ATOM     10  Br  UNL A   1      32.636  20.972  23.872  1.00  0.00    -0.075 Br
BRANCH   9  11
ATOM     11  C   UNL A   1      34.533  22.850  25.101  1.00  0.00     0.043 C 
ATOM     12  C   UNL A   1      34.966  24.307  25.352  1.00  0.00     0.025 C 
ATOM     13  C   UNL A   1      35.722  22.118  24.458  1.00  0.00     0.025 C 
ATOM     14  Br  UNL A   1      34.311  21.976  26.872  1.00  0.00    -0.084 Br
ENDBRANCH   9  11
ENDBRANCH   7   9
ENDBRANCH   6   7
ENDBRANCH   5   6
ENDBRANCH   4   5
ENDBRANCH   3   4
ENDBRANCH   2   3
ENDBRANCH   1   2
BRANCH   1  15
ATOM     15  O   UNL A   1      30.985  30.060  24.610  1.00  0.00    -0.376 OA
BRANCH  15  16
ATOM     16  C   UNL A   1      31.637  30.004  25.872  1.00  0.00     0.202 C 
BRANCH  16  17
ATOM     17  C   UNL A   1      31.923  31.367  26.527  1.00  0.00     0.261 C 
BRANCH  17  18
ATOM     18  O   UNL A   1      32.849  31.332  27.630  1.00  0.00    -0.460 OA
BRANCH  18  19
ATOM     19  C   UNL A   1      33.724  32.361  27.717  1.00  0.00     0.338 C 
ATOM     20  O   UNL A   1      33.473  33.548  27.636  1.00  0.00    -0.246 OA
BRANCH  19  21
ATOM     21  C   UNL A   1      35.028  31.817  28.163  1.00  0.00     0.060 A 
ATOM     22  C   UNL A   1      35.114  30.452  28.464  1.00  0.00     0.016 A 
ATOM     23  C   UNL A   1      36.153  32.636  28.282  1.00  0.00     0.016 A 
ATOM     24  C   UNL A   1      36.317  29.909  28.919  1.00  0.00     0.010 A 
ATOM     25  C   UNL A   1      37.354  32.094  28.757  1.00  0.00     0.010 A 
ATOM     26  C   UNL A   1      37.434  30.734  29.105  1.00  0.00    -0.014 A 
BRANCH  26  27
ATOM     27  C   UNL A   1      38.623  30.199  29.819  1.00  0.00     0.031 A 
ATOM     28  C   UNL A   1      38.893  30.666  31.225  1.00  0.00     0.074 A 
ATOM     29  C   UNL A   1      39.422  29.277  29.254  1.00  0.00     0.049 A 
ATOM     30  N   UNL A   1      39.857  30.328  32.045  1.00  0.00    -0.248 NA
ATOM     31  C   UNL A   1      37.943  31.641  31.782  1.00  0.00     0.031 C 
ATOM     32  C   UNL A   1      39.258  28.722  27.913  1.00  0.00     0.029 A 
ATOM     33  N   UNL A   1      40.539  28.645  29.746  1.00  0.00    -0.354 N 
ATOM     34  C   UNL A   1      39.624  31.041  33.214  1.00  0.00     0.074 A 
ATOM     35  C   UNL A   1      38.453  31.861  32.985  1.00  0.00     0.031 C 
ATOM     36  C   UNL A   1      40.247  27.840  27.682  1.00  0.00     0.029 A 
ATOM     37  C   UNL A   1      41.125  27.785  28.850  1.00  0.00     0.049 A 
ATOM     38  H   UNL A   1      40.887  28.795  30.655  1.00  0.00     0.167 HD
ATOM     39  C   UNL A   1      40.311  31.003  34.380  1.00  0.00     0.037 A 
ATOM     40  C   UNL A   1      42.252  27.051  28.956  1.00  0.00     0.037 A 
ATOM     41  C   UNL A   1      41.484  30.201  34.609  1.00  0.00     0.049 A 
ATOM     42  C   UNL A   1      43.038  27.081  30.244  1.00  0.00     0.074 A 
ATOM     43  C   UNL A   1      42.252  30.102  35.757  1.00  0.00     0.029 A 
ATOM     44  N   UNL A   1      42.063  29.363  33.669  1.00  0.00    -0.354 N 
ATOM     45  N   UNL A   1      42.795  27.736  31.352  1.00  0.00    -0.248 NA
ATOM     46  C   UNL A   1      44.255  26.255  30.296  1.00  0.00     0.031 C 
ATOM     47  C   UNL A   1      43.323  29.241  35.496  1.00  0.00     0.029 A 
ATOM     48  C   UNL A   1      43.190  28.757  34.204  1.00  0.00     0.049 A 
ATOM     49  H   UNL A   1      41.725  29.219  32.756  1.00  0.00     0.167 HD
ATOM     50  C   UNL A   1      43.808  27.386  32.237  1.00  0.00     0.074 A 
ATOM     51  C   UNL A   1      44.653  26.436  31.545  1.00  0.00     0.031 C 
ATOM     52  C   UNL A   1      44.025  27.815  33.505  1.00  0.00     0.037 A 
BRANCH  39  53
ATOM     53  C   UNL A   1      39.816  31.869  35.504  1.00  0.00     0.064 A 
ATOM     54  C   UNL A   1      40.316  33.164  35.704  1.00  0.00     0.173 A 
ATOM     55  C   UNL A   1      38.800  31.418  36.358  1.00  0.00     0.173 A 
ATOM     56  F   UNL A   1      41.301  33.637  34.923  1.00  0.00    -0.203 F 
ATOM     57  C   UNL A   1      39.829  33.970  36.730  1.00  0.00     0.198 A 
ATOM     58  C   UNL A   1      38.294  32.236  37.364  1.00  0.00     0.198 A 
ATOM     59  F   UNL A   1      38.286  30.188  36.207  1.00  0.00    -0.203 F 
ATOM     60  F   UNL A   1      40.349  35.188  36.927  1.00  0.00    -0.200 F 
ATOM     61  C   UNL A   1      38.812  33.509  37.552  1.00  0.00     0.200 A 
ATOM     62  F   UNL A   1      37.303  31.794  38.151  1.00  0.00    -0.200 F 
ATOM     63  F   UNL A   1      38.335  34.291  38.531  1.00  0.00    -0.200 F 
ENDBRANCH  39  53
BRANCH  40  64
ATOM     64  C   UNL A   1      42.727  26.236  27.806  1.00  0.00     0.064 A 
ATOM     65  C   UNL A   1      43.641  26.748  26.875  1.00  0.00     0.173 A 
ATOM     66  C   UNL A   1      42.232  24.941  27.587  1.00  0.00     0.173 A 
ATOM     67  F   UNL A   1      44.120  27.992  27.023  1.00  0.00    -0.203 F 
ATOM     68  C   UNL A   1      44.017  26.011  25.753  1.00  0.00     0.198 A 
ATOM     69  C   UNL A   1      42.635  24.192  26.483  1.00  0.00     0.198 A 
ATOM     70  F   UNL A   1      41.352  24.403  28.443  1.00  0.00    -0.203 F 
ATOM     71  F   UNL A   1      44.842  26.551  24.845  1.00  0.00    -0.200 F 
ATOM     72  C   UNL A   1      43.518  24.732  25.561  1.00  0.00     0.200 A 
ATOM     73  F   UNL A   1      42.158  22.952  26.307  1.00  0.00    -0.200 F 
ATOM     74  F   UNL A   1      43.878  24.025  24.480  1.00  0.00    -0.200 F 
ENDBRANCH  40  64
BRANCH  52  75
ATOM     75  C   UNL A   1      45.206  27.236  34.235  1.00  0.00     0.064 A 
ATOM     76  C   UNL A   1      45.121  26.016  34.924  1.00  0.00     0.173 A 
ATOM     77  C   UNL A   1      46.440  27.904  34.237  1.00  0.00     0.173 A 
ATOM     78  F   UNL A   1      43.962  25.342  34.963  1.00  0.00    -0.203 F 
ATOM     79  C   UNL A   1      46.214  25.510  35.625  1.00  0.00     0.198 A 
ATOM     80  C   UNL A   1      47.540  27.377  34.910  1.00  0.00     0.198 A 
ATOM     81  F   UNL A   1      46.581  29.068  33.585  1.00  0.00    -0.203 F 
ATOM     82  F   UNL A   1      46.089  24.379  36.331  1.00  0.00    -0.200 F 
ATOM     83  C   UNL A   1      47.424  26.189  35.613  1.00  0.00     0.200 A 
ATOM     84  F   UNL A   1      48.713  28.028  34.883  1.00  0.00    -0.200 F 
ATOM     85  F   UNL A   1      48.473  25.703  36.290  1.00  0.00    -0.200 F 
ENDBRANCH  52  75
ENDBRANCH  26  27
ENDBRANCH  19  21
ENDBRANCH  18  19
ENDBRANCH  17  18
ENDBRANCH  16  17
ENDBRANCH  15  16
ENDBRANCH   1  15
TORSDOF 18
ENDMDL
MODEL 3
REMARK VINA RESULT:      -9.3      1.300      2.241
REMARK SMILES CC(C)(Br)[C@H](Br)C(=O)OCCOCCOCCOC(=O)c1ccc(-c2c3nc(c(-c4c(F)c(F)c(F)c(F)c4F)c4ccc([nH]4)c(-c4c(F)c(F)c(F)c(F)c4F)c4nc(c(-c5c(F)c(F)c(F)c(F)c5F)c5ccc2[nH]5)C=C4)C=C3)cc1
REMARK SMILES IDX 14 1 13 2 12 3 11 4 10 5 9 6 7 7 8 8 5 9 6 10 2 11 1 12 3 13
REMARK SMILES IDX 4 14 15 15 16 16 17 17 18 18 19 19 20 20 21 21 22 22 83 23
REMARK SMILES IDX 23 24 82 25 24 26 25 27 26 28 76 29 27 30 81 31 75 32 77 33
REMARK SMILES IDX 28 34 80 35 74 36 73 37 29 39 61 40 41 41 60 42 42 43 45 44
REMARK SMILES IDX 59 45 78 46 43 47 44 48 58 50 79 51 46 52 30 53 31 54 39 55
REMARK SMILES IDX 32 56 33 57 37 58 40 59 34 60 35 61 38 62 36 63 62 64 63 65
REMARK SMILES IDX 71 66 64 67 65 68 69 69 72 70 66 71 67 72 70 73 68 74 47 75
REMARK SMILES IDX 48 76 56 77 49 78 50 79 54 80 57 81 51 82 52 83 55 84 53 85
REMARK H PARENT 77 38 45 49
REMARK Flexibility Score: inf
ROOT
ATOM      1  C   UNL A   1      32.913  30.366  27.378  1.00  0.00     0.188 C 
ENDROOT
BRANCH   1   2
ATOM      2  C   UNL A   1      33.852  29.479  26.547  1.00  0.00     0.188 C 
BRANCH   2   3
ATOM      3  O   UNL A   1      33.651  28.074  26.499  1.00  0.00    -0.376 OA
BRANCH   3   4
ATOM      4  C   UNL A   1      33.578  27.409  25.243  1.00  0.00     0.202 C 
BRANCH   4   5
ATOM      5  C   UNL A   1      32.966  26.001  25.177  1.00  0.00     0.261 C 
BRANCH   5   6
ATOM      6  O   UNL A   1      33.572  25.025  26.050  1.00  0.00    -0.462 OA
BRANCH   6   7
ATOM      7  C   UNL A   1      34.352  24.086  25.454  1.00  0.00     0.321 C 
ATOM      8  O   UNL A   1      35.571  24.206  25.360  1.00  0.00    -0.251 OA
BRANCH   7   9
ATOM      9  C   UNL A   1      33.649  22.786  25.069  1.00  0.00     0.183 C 
ATOM     10  Br  UNL A   1      33.351  22.629  23.121  1.00  0.00    -0.075 Br
BRANCH   9  11
ATOM     11  C   UNL A   1      34.216  21.483  25.685  1.00  0.00     0.043 C 
ATOM     12  C   UNL A   1      34.022  21.488  27.214  1.00  0.00     0.025 C 
ATOM     13  C   UNL A   1      35.708  21.239  25.409  1.00  0.00     0.025 C 
ATOM     14  Br  UNL A   1      33.309  19.865  24.972  1.00  0.00    -0.084 Br
ENDBRANCH   9  11
ENDBRANCH   7   9
ENDBRANCH   6   7
ENDBRANCH   5   6
ENDBRANCH   4   5
ENDBRANCH   3   4
ENDBRANCH   2   3
ENDBRANCH   1   2
BRANCH   1  15
ATOM     15  O   UNL A   1      31.754  30.803  26.701  1.00  0.00    -0.376 OA
BRANCH  15  16
ATOM     16  C   UNL A   1      31.413  32.175  26.850  1.00  0.00     0.202 C 
BRANCH  16  17
ATOM     17  C   UNL A   1      32.596  33.122  27.120  1.00  0.00     0.261 C 
BRANCH  17  18
ATOM     18  O   UNL A   1      32.457  33.955  28.287  1.00  0.00    -0.460 OA
BRANCH  18  19
ATOM     19  C   UNL A   1      33.513  34.745  28.593  1.00  0.00     0.338 C 
ATOM     20  O   UNL A   1      33.510  35.954  28.729  1.00  0.00    -0.246 OA
BRANCH  19  21
ATOM     21  C   UNL A   1      34.647  33.870  28.970  1.00  0.00     0.060 A 
ATOM     22  C   UNL A   1      34.392  32.766  29.795  1.00  0.00     0.016 A 
ATOM     23  C   UNL A   1      35.943  34.127  28.518  1.00  0.00     0.016 A 
ATOM     24  C   UNL A   1      35.439  31.937  30.198  1.00  0.00     0.010 A 
ATOM     25  C   UNL A   1      36.995  33.305  28.939  1.00  0.00     0.010 A 
ATOM     26  C   UNL A   1      36.754  32.223  29.805  1.00  0.00    -0.014 A 
BRANCH  26  27
ATOM     27  C   UNL A   1      37.879  31.487  30.438  1.00  0.00     0.031 A 
ATOM     28  C   UNL A   1      38.218  31.781  31.875  1.00  0.00     0.074 A 
ATOM     29  C   UNL A   1      38.557  30.537  29.770  1.00  0.00     0.049 A 
ATOM     30  N   UNL A   1      39.145  31.256  32.637  1.00  0.00    -0.248 NA
ATOM     31  C   UNL A   1      37.397  32.802  32.544  1.00  0.00     0.031 C 
ATOM     32  C   UNL A   1      38.314  30.137  28.386  1.00  0.00     0.029 A 
ATOM     33  N   UNL A   1      39.597  29.734  30.174  1.00  0.00    -0.354 N 
ATOM     34  C   UNL A   1      39.011  31.875  33.874  1.00  0.00     0.074 A 
ATOM     35  C   UNL A   1      37.944  32.844  33.750  1.00  0.00     0.031 C 
ATOM     36  C   UNL A   1      39.188  29.172  28.051  1.00  0.00     0.029 A 
ATOM     37  C   UNL A   1      40.067  28.902  29.189  1.00  0.00     0.049 A 
ATOM     38  H   UNL A   1      39.971  29.754  31.085  1.00  0.00     0.167 HD
ATOM     39  C   UNL A   1      39.703  31.645  35.015  1.00  0.00     0.037 A 
ATOM     40  C   UNL A   1      41.101  28.036  29.199  1.00  0.00     0.037 A 
ATOM     41  C   UNL A   1      40.775  30.694  35.140  1.00  0.00     0.049 A 
ATOM     42  C   UNL A   1      41.900  27.849  30.466  1.00  0.00     0.074 A 
ATOM     43  C   UNL A   1      41.540  30.395  36.256  1.00  0.00     0.029 A 
ATOM     44  N   UNL A   1      41.241  29.889  34.112  1.00  0.00    -0.354 N 
ATOM     45  N   UNL A   1      41.748  28.418  31.636  1.00  0.00    -0.248 NA
ATOM     46  C   UNL A   1      43.011  26.886  30.411  1.00  0.00     0.031 C 
ATOM     47  C   UNL A   1      42.499  29.444  35.890  1.00  0.00     0.029 A 
ATOM     48  C   UNL A   1      42.295  29.107  34.562  1.00  0.00     0.049 A 
ATOM     49  H   UNL A   1      40.878  29.873  33.197  1.00  0.00     0.167 HD
ATOM     50  C   UNL A   1      42.723  27.869  32.460  1.00  0.00     0.074 A 
ATOM     51  C   UNL A   1      43.442  26.898  31.663  1.00  0.00     0.031 C 
ATOM     52  C   UNL A   1      43.004  28.145  33.758  1.00  0.00     0.037 A 
BRANCH  39  53
ATOM     53  C   UNL A   1      39.327  32.450  36.226  1.00  0.00     0.064 A 
ATOM     54  C   UNL A   1      38.398  31.972  37.162  1.00  0.00     0.173 A 
ATOM     55  C   UNL A   1      39.936  33.687  36.478  1.00  0.00     0.173 A 
ATOM     56  F   UNL A   1      37.774  30.800  36.959  1.00  0.00    -0.203 F 
ATOM     57  C   UNL A   1      38.079  32.713  38.298  1.00  0.00     0.198 A 
ATOM     58  C   UNL A   1      39.637  34.412  37.629  1.00  0.00     0.198 A 
ATOM     59  F   UNL A   1      40.834  34.187  35.615  1.00  0.00    -0.203 F 
ATOM     60  F   UNL A   1      37.159  32.255  39.158  1.00  0.00    -0.200 F 
ATOM     61  C   UNL A   1      38.707  33.927  38.534  1.00  0.00     0.200 A 
ATOM     62  F   UNL A   1      40.253  35.579  37.863  1.00  0.00    -0.200 F 
ATOM     63  F   UNL A   1      38.408  34.632  39.635  1.00  0.00    -0.200 F 
ENDBRANCH  39  53
BRANCH  40  64
ATOM     64  C   UNL A   1      41.462  27.285  27.966  1.00  0.00     0.064 A 
ATOM     65  C   UNL A   1      40.969  25.996  27.724  1.00  0.00     0.173 A 
ATOM     66  C   UNL A   1      42.353  27.828  27.027  1.00  0.00     0.173 A 
ATOM     67  F   UNL A   1      40.138  25.421  28.606  1.00  0.00    -0.203 F 
ATOM     68  C   UNL A   1      41.377  25.265  26.610  1.00  0.00     0.198 A 
ATOM     69  C   UNL A   1      42.733  27.109  25.895  1.00  0.00     0.198 A 
ATOM     70  F   UNL A   1      42.859  29.056  27.210  1.00  0.00    -0.203 F 
ATOM     71  F   UNL A   1      40.941  24.009  26.438  1.00  0.00    -0.200 F 
ATOM     72  C   UNL A   1      42.255  25.824  25.694  1.00  0.00     0.200 A 
ATOM     73  F   UNL A   1      43.574  27.658  25.007  1.00  0.00    -0.200 F 
ATOM     74  F   UNL A   1      42.650  25.119  24.624  1.00  0.00    -0.200 F 
ENDBRANCH  40  64
BRANCH  52  75
ATOM     75  C   UNL A   1      44.116  27.365  34.403  1.00  0.00     0.064 A 
ATOM     76  C   UNL A   1      45.435  27.844  34.427  1.00  0.00     0.173 A 
ATOM     77  C   UNL A   1      43.858  26.128  35.013  1.00  0.00     0.173 A 
ATOM     78  F   UNL A   1      45.739  29.016  33.848  1.00  0.00    -0.203 F 
ATOM     79  C   UNL A   1      46.461  27.093  34.998  1.00  0.00     0.198 A 
ATOM     80  C   UNL A   1      44.881  25.397  35.614  1.00  0.00     0.198 A 
ATOM     81  F   UNL A   1      42.614  25.627  35.031  1.00  0.00    -0.203 F 
ATOM     82  F   UNL A   1      47.723  27.541  34.948  1.00  0.00    -0.200 F 
ATOM     83  C   UNL A   1      46.182  25.873  35.595  1.00  0.00     0.200 A 
ATOM     84  F   UNL A   1      44.605  24.225  36.205  1.00  0.00    -0.200 F 
ATOM     85  F   UNL A   1      47.170  25.151  36.140  1.00  0.00    -0.200 F 
ENDBRANCH  52  75
ENDBRANCH  26  27
ENDBRANCH  19  21
ENDBRANCH  18  19
ENDBRANCH  17  18
ENDBRANCH  16  17
ENDBRANCH  15  16
ENDBRANCH   1  15
TORSDOF 18
ENDMDL
