MODEL 1
REMARK VINA RESULT:     -11.5      0.000      0.000
REMARK SMILES Cc1ccc(F)c(C(=O)N[C@@H]2C=C[C@@H](C(=O)OCCOCCOCCOC(=O)c3ccc(-c4c5nc(c(-c6c(F)c(F)c(F)c(F)c6F)c6ccc([nH]6)c(-c6c(F)c(F)c(F)c(F)c6F)c6nc(c(-c7c(F)c(F)c(F)c(F)c7F)c7ccc4[nH]7)C=C6)C=C5)cc3)C2)c1
REMARK SMILES IDX 21 1 20 2 19 3 18 4 17 5 15 6 16 7 14 8 11 9 12 10 92 11
REMARK SMILES IDX 13 12 10 13 8 14 9 15 7 17 1 18 2 19 3 20 93 21 4 22 5 23
REMARK SMILES IDX 6 24 22 25 23 26 24 27 25 28 26 29 27 30 28 31 29 32 30 33
REMARK SMILES IDX 91 34 31 35 90 36 32 37 33 38 34 39 84 40 35 41 89 42 83 43
REMARK SMILES IDX 85 44 36 45 88 46 82 47 81 48 37 50 69 51 49 52 68 53 50 54
REMARK SMILES IDX 53 55 67 56 86 57 51 58 52 59 66 61 87 62 54 63 38 64 39 65
REMARK SMILES IDX 47 66 40 67 41 68 45 69 48 70 42 71 43 72 46 73 44 74 70 75
REMARK SMILES IDX 71 76 79 77 72 78 73 79 77 80 80 81 74 82 75 83 78 84 76 85
REMARK SMILES IDX 55 86 56 87 64 88 57 89 58 90 62 91 65 92 59 93 60 94 63 95
REMARK SMILES IDX 61 96
REMARK H PARENT 10 16 85 49 53 60
REMARK Flexibility Score: inf
ROOT
ATOM      1  C   UNL A   1      42.449  19.310  25.745  1.00  0.00     0.188 C 
ENDROOT
BRANCH   1   2
ATOM      2  O   UNL A   1      41.789  20.134  26.694  1.00  0.00    -0.376 OA
BRANCH   2   3
ATOM      3  C   UNL A   1      40.408  20.398  26.489  1.00  0.00     0.202 C 
BRANCH   3   4
ATOM      4  C   UNL A   1      39.960  21.860  26.301  1.00  0.00     0.261 C 
BRANCH   4   5
ATOM      5  O   UNL A   1      38.645  22.055  25.723  1.00  0.00    -0.463 OA
BRANCH   5   6
ATOM      6  C   UNL A   1      38.109  23.297  25.868  1.00  0.00     0.312 C 
ATOM      7  O   UNL A   1      38.682  24.218  26.444  1.00  0.00    -0.252 OA
BRANCH   6   8
ATOM      8  C   UNL A   1      36.733  23.504  25.212  1.00  0.00     0.124 C 
ATOM      9  C   UNL A   1      34.862  22.119  24.303  1.00  0.00     0.106 C 
ATOM     10  C   UNL A   1      34.708  22.410  25.757  1.00  0.00    -0.006 C 
ATOM     11  C   UNL A   1      36.284  22.655  24.014  1.00  0.00     0.048 C 
ATOM     12  C   UNL A   1      35.685  23.185  26.235  1.00  0.00    -0.014 C 
BRANCH   9  13
ATOM     13  N   UNL A   1      33.715  22.731  23.639  1.00  0.00    -0.346 N 
ATOM     14  C   UNL A   1      32.428  22.282  23.456  1.00  0.00     0.254 C 
ATOM     15  O   UNL A   1      31.521  23.054  23.166  1.00  0.00    -0.269 OA
ATOM     16  H   UNL A   1      33.894  23.621  23.256  1.00  0.00     0.164 HD
BRANCH  14  17
ATOM     17  C   UNL A   1      32.189  20.844  23.496  1.00  0.00     0.075 A 
ATOM     18  C   UNL A   1      32.791  18.001  25.908  1.00  0.00     0.044 C 
ATOM     19  C   UNL A   1      32.553  18.775  24.651  1.00  0.00    -0.050 A 
ATOM     20  C   UNL A   1      32.644  18.148  23.406  1.00  0.00     0.006 A 
ATOM     21  C   UNL A   1      32.293  20.139  24.696  1.00  0.00     0.020 A 
ATOM     22  C   UNL A   1      32.363  18.829  22.221  1.00  0.00     0.040 A 
ATOM     23  C   UNL A   1      32.128  20.187  22.269  1.00  0.00     0.135 A 
ATOM     24  F   UNL A   1      31.951  20.851  21.120  1.00  0.00    -0.206 F 
ENDBRANCH  14  17
ENDBRANCH   9  13
ENDBRANCH   6   8
ENDBRANCH   5   6
ENDBRANCH   4   5
ENDBRANCH   3   4
ENDBRANCH   2   3
ENDBRANCH   1   2
BRANCH   1  25
ATOM     25  C   UNL A   1      43.658  18.452  26.190  1.00  0.00     0.188 C 
BRANCH  25  26
ATOM     26  O   UNL A   1      44.621  18.165  25.188  1.00  0.00    -0.376 OA
BRANCH  26  27
ATOM     27  C   UNL A   1      44.945  19.205  24.273  1.00  0.00     0.202 C 
BRANCH  27  28
ATOM     28  C   UNL A   1      45.724  20.407  24.824  1.00  0.00     0.261 C 
BRANCH  28  29
ATOM     29  O   UNL A   1      45.082  21.664  24.620  1.00  0.00    -0.460 OA
BRANCH  29  30
ATOM     30  C   UNL A   1      45.095  22.436  25.716  1.00  0.00     0.338 C 
ATOM     31  O   UNL A   1      46.029  22.639  26.477  1.00  0.00    -0.246 OA
BRANCH  30  32
ATOM     32  C   UNL A   1      43.782  23.073  25.888  1.00  0.00     0.060 A 
ATOM     33  C   UNL A   1      43.551  24.136  24.994  1.00  0.00     0.016 A 
ATOM     34  C   UNL A   1      43.485  23.169  27.239  1.00  0.00     0.016 A 
ATOM     35  C   UNL A   1      43.452  25.411  25.500  1.00  0.00     0.010 A 
ATOM     36  C   UNL A   1      43.420  24.440  27.746  1.00  0.00     0.010 A 
ATOM     37  C   UNL A   1      43.525  25.544  26.875  1.00  0.00    -0.014 A 
BRANCH  37  38
ATOM     38  C   UNL A   1      43.600  26.822  27.534  1.00  0.00     0.031 A 
ATOM     39  C   UNL A   1      42.337  27.559  27.682  1.00  0.00     0.074 A 
ATOM     40  C   UNL A   1      44.717  27.136  28.226  1.00  0.00     0.049 A 
ATOM     41  N   UNL A   1      42.240  28.754  28.148  1.00  0.00    -0.248 NA
ATOM     42  C   UNL A   1      41.059  27.016  27.223  1.00  0.00     0.031 C 
ATOM     43  C   UNL A   1      44.746  27.911  29.456  1.00  0.00     0.029 A 
ATOM     44  N   UNL A   1      46.066  26.863  27.958  1.00  0.00    -0.354 N 
ATOM     45  C   UNL A   1      40.906  28.971  28.407  1.00  0.00     0.074 A 
ATOM     46  C   UNL A   1      40.219  27.962  27.645  1.00  0.00     0.031 C 
ATOM     47  C   UNL A   1      46.016  28.225  29.754  1.00  0.00     0.029 A 
ATOM     48  C   UNL A   1      46.840  27.850  28.621  1.00  0.00     0.049 A 
ATOM     49  H   UNL A   1      46.413  26.121  27.409  1.00  0.00     0.167 HD
ATOM     50  C   UNL A   1      40.585  29.851  29.399  1.00  0.00     0.037 A 
ATOM     51  C   UNL A   1      47.625  28.758  27.951  1.00  0.00     0.037 A 
ATOM     52  C   UNL A   1      41.789  30.555  29.858  1.00  0.00     0.049 A 
ATOM     53  C   UNL A   1      47.160  30.188  28.040  1.00  0.00     0.074 A 
ATOM     54  C   UNL A   1      42.599  30.406  30.972  1.00  0.00     0.029 A 
ATOM     55  N   UNL A   1      42.497  31.354  28.964  1.00  0.00    -0.354 N 
ATOM     56  N   UNL A   1      45.998  30.542  28.502  1.00  0.00    -0.248 NA
ATOM     57  C   UNL A   1      47.939  31.321  27.552  1.00  0.00     0.031 C 
ATOM     58  C   UNL A   1      43.820  31.085  30.723  1.00  0.00     0.029 A 
ATOM     59  C   UNL A   1      43.744  31.666  29.469  1.00  0.00     0.049 A 
ATOM     60  H   UNL A   1      42.154  31.655  28.090  1.00  0.00     0.167 HD
ATOM     61  C   UNL A   1      45.838  31.891  28.359  1.00  0.00     0.074 A 
ATOM     62  C   UNL A   1      47.096  32.340  27.791  1.00  0.00     0.031 C 
ATOM     63  C   UNL A   1      44.666  32.499  28.708  1.00  0.00     0.037 A 
BRANCH  50  64
ATOM     64  C   UNL A   1      39.277  29.865  30.178  1.00  0.00     0.064 A 
ATOM     65  C   UNL A   1      38.363  30.931  29.998  1.00  0.00     0.173 A 
ATOM     66  C   UNL A   1      38.885  28.940  31.167  1.00  0.00     0.173 A 
ATOM     67  F   UNL A   1      38.541  31.851  29.042  1.00  0.00    -0.203 F 
ATOM     68  C   UNL A   1      37.226  31.100  30.795  1.00  0.00     0.198 A 
ATOM     69  C   UNL A   1      37.754  29.114  31.972  1.00  0.00     0.198 A 
ATOM     70  F   UNL A   1      39.545  27.804  31.392  1.00  0.00    -0.203 F 
ATOM     71  F   UNL A   1      36.423  32.153  30.590  1.00  0.00    -0.200 F 
ATOM     72  C   UNL A   1      36.930  30.201  31.796  1.00  0.00     0.200 A 
ATOM     73  F   UNL A   1      37.475  28.209  32.922  1.00  0.00    -0.200 F 
ATOM     74  F   UNL A   1      35.852  30.369  32.572  1.00  0.00    -0.200 F 
ENDBRANCH  50  64
BRANCH  51  75
ATOM     75  C   UNL A   1      48.282  28.225  26.735  1.00  0.00     0.064 A 
ATOM     76  C   UNL A   1      49.262  27.237  26.899  1.00  0.00     0.173 A 
ATOM     77  C   UNL A   1      47.495  28.209  25.589  1.00  0.00     0.173 A 
ATOM     78  F   UNL A   1      50.098  27.288  27.946  1.00  0.00    -0.203 F 
ATOM     79  C   UNL A   1      49.268  26.116  26.080  1.00  0.00     0.198 A 
ATOM     80  C   UNL A   1      47.406  27.031  24.881  1.00  0.00     0.198 A 
ATOM     81  F   UNL A   1      46.583  29.167  25.364  1.00  0.00    -0.203 F 
ATOM     82  F   UNL A   1      50.124  25.111  26.312  1.00  0.00    -0.200 F 
ATOM     83  C   UNL A   1      48.273  25.974  25.130  1.00  0.00     0.200 A 
ATOM     84  F   UNL A   1      46.324  26.879  24.122  1.00  0.00    -0.200 F 
ATOM     85  F   UNL A   1      48.106  24.793  24.526  1.00  0.00    -0.200 F 
ENDBRANCH  51  75
BRANCH  63  86
ATOM     86  C   UNL A   1      44.302  33.941  28.462  1.00  0.00     0.064 A 
ATOM     87  C   UNL A   1      43.803  34.443  27.250  1.00  0.00     0.173 A 
ATOM     88  C   UNL A   1      44.344  34.869  29.533  1.00  0.00     0.173 A 
ATOM     89  F   UNL A   1      43.580  33.643  26.200  1.00  0.00    -0.203 F 
ATOM     90  C   UNL A   1      43.456  35.788  27.096  1.00  0.00     0.198 A 
ATOM     91  C   UNL A   1      43.931  36.191  29.395  1.00  0.00     0.198 A 
ATOM     92  F   UNL A   1      44.769  34.517  30.755  1.00  0.00    -0.203 F 
ATOM     93  F   UNL A   1      43.044  36.233  25.900  1.00  0.00    -0.200 F 
ATOM     94  C   UNL A   1      43.510  36.657  28.169  1.00  0.00     0.200 A 
ATOM     95  F   UNL A   1      43.932  37.002  30.461  1.00  0.00    -0.200 F 
ATOM     96  F   UNL A   1      43.137  37.936  28.026  1.00  0.00    -0.200 F 
ENDBRANCH  63  86
ENDBRANCH  37  38
ENDBRANCH  30  32
ENDBRANCH  29  30
ENDBRANCH  28  29
ENDBRANCH  27  28
ENDBRANCH  26  27
ENDBRANCH  25  26
ENDBRANCH   1  25
TORSDOF 19
ENDMDL
MODEL 2
REMARK VINA RESULT:     -11.5      5.208     11.077
REMARK SMILES Cc1ccc(F)c(C(=O)N[C@@H]2C=C[C@@H](C(=O)OCCOCCOCCOC(=O)c3ccc(-c4c5nc(c(-c6c(F)c(F)c(F)c(F)c6F)c6ccc([nH]6)c(-c6c(F)c(F)c(F)c(F)c6F)c6nc(c(-c7c(F)c(F)c(F)c(F)c7F)c7ccc4[nH]7)C=C6)C=C5)cc3)C2)c1
REMARK SMILES IDX 21 1 20 2 19 3 18 4 17 5 15 6 16 7 14 8 11 9 12 10 92 11
REMARK SMILES IDX 13 12 10 13 8 14 9 15 7 17 1 18 2 19 3 20 93 21 4 22 5 23
REMARK SMILES IDX 6 24 22 25 23 26 24 27 25 28 26 29 27 30 28 31 29 32 30 33
REMARK SMILES IDX 91 34 31 35 90 36 32 37 33 38 34 39 84 40 35 41 89 42 83 43
REMARK SMILES IDX 85 44 36 45 88 46 82 47 81 48 37 50 69 51 49 52 68 53 50 54
REMARK SMILES IDX 53 55 67 56 86 57 51 58 52 59 66 61 87 62 54 63 38 64 39 65
REMARK SMILES IDX 47 66 40 67 41 68 45 69 48 70 42 71 43 72 46 73 44 74 70 75
REMARK SMILES IDX 71 76 79 77 72 78 73 79 77 80 80 81 74 82 75 83 78 84 76 85
REMARK SMILES IDX 55 86 56 87 64 88 57 89 58 90 62 91 65 92 59 93 60 94 63 95
REMARK SMILES IDX 61 96
REMARK H PARENT 10 16 85 49 53 60
REMARK Flexibility Score: inf
ROOT
ATOM      1  C   UNL A   1      33.144  33.449  27.694  1.00  0.00     0.188 C 
ENDROOT
BRANCH   1   2
ATOM      2  O   UNL A   1      33.451  32.189  28.273  1.00  0.00    -0.376 OA
BRANCH   2   3
ATOM      3  C   UNL A   1      33.925  31.166  27.410  1.00  0.00     0.202 C 
BRANCH   3   4
ATOM      4  C   UNL A   1      32.915  30.458  26.486  1.00  0.00     0.261 C 
BRANCH   4   5
ATOM      5  O   UNL A   1      31.775  29.844  27.139  1.00  0.00    -0.463 OA
BRANCH   5   6
ATOM      6  C   UNL A   1      31.793  28.487  27.216  1.00  0.00     0.312 C 
ATOM      7  O   UNL A   1      31.406  27.858  28.198  1.00  0.00    -0.252 OA
BRANCH   6   8
ATOM      8  C   UNL A   1      32.290  27.760  25.954  1.00  0.00     0.124 C 
ATOM      9  C   UNL A   1      33.146  25.502  25.307  1.00  0.00     0.106 C 
ATOM     10  C   UNL A   1      31.662  25.607  25.202  1.00  0.00    -0.006 C 
ATOM     11  C   UNL A   1      33.517  26.836  25.996  1.00  0.00     0.048 C 
ATOM     12  C   UNL A   1      31.207  26.825  25.508  1.00  0.00    -0.014 C 
BRANCH   9  13
ATOM     13  N   UNL A   1      33.633  25.232  23.957  1.00  0.00    -0.346 N 
ATOM     14  C   UNL A   1      33.864  24.047  23.298  1.00  0.00     0.254 C 
ATOM     15  O   UNL A   1      33.960  24.008  22.076  1.00  0.00    -0.269 OA
ATOM     16  H   UNL A   1      33.830  26.038  23.427  1.00  0.00     0.164 HD
BRANCH  14  17
ATOM     17  C   UNL A   1      34.113  22.853  24.096  1.00  0.00     0.075 A 
ATOM     18  C   UNL A   1      37.078  20.694  25.000  1.00  0.00     0.044 C 
ATOM     19  C   UNL A   1      35.680  21.156  24.743  1.00  0.00    -0.050 A 
ATOM     20  C   UNL A   1      34.621  20.245  24.750  1.00  0.00     0.006 A 
ATOM     21  C   UNL A   1      35.417  22.486  24.439  1.00  0.00     0.020 A 
ATOM     22  C   UNL A   1      33.299  20.657  24.579  1.00  0.00     0.040 A 
ATOM     23  C   UNL A   1      33.045  21.973  24.255  1.00  0.00     0.135 A 
ATOM     24  F   UNL A   1      31.783  22.342  24.001  1.00  0.00    -0.206 F 
ENDBRANCH  14  17
ENDBRANCH   9  13
ENDBRANCH   6   8
ENDBRANCH   5   6
ENDBRANCH   4   5
ENDBRANCH   3   4
ENDBRANCH   2   3
ENDBRANCH   1   2
BRANCH   1  25
ATOM     25  C   UNL A   1      34.230  34.551  27.645  1.00  0.00     0.188 C 
BRANCH  25  26
ATOM     26  O   UNL A   1      33.885  35.793  28.240  1.00  0.00    -0.376 OA
BRANCH  26  27
ATOM     27  C   UNL A   1      32.886  35.780  29.254  1.00  0.00     0.202 C 
BRANCH  27  28
ATOM     28  C   UNL A   1      33.319  36.184  30.669  1.00  0.00     0.261 C 
BRANCH  28  29
ATOM     29  O   UNL A   1      33.431  35.092  31.580  1.00  0.00    -0.460 OA
BRANCH  29  30
ATOM     30  C   UNL A   1      34.699  34.684  31.744  1.00  0.00     0.338 C 
ATOM     31  O   UNL A   1      35.539  35.139  32.504  1.00  0.00    -0.246 OA
BRANCH  30  32
ATOM     32  C   UNL A   1      34.964  33.534  30.868  1.00  0.00     0.060 A 
ATOM     33  C   UNL A   1      34.794  32.290  31.505  1.00  0.00     0.016 A 
ATOM     34  C   UNL A   1      36.061  33.806  30.064  1.00  0.00     0.016 A 
ATOM     35  C   UNL A   1      35.900  31.498  31.707  1.00  0.00     0.010 A 
ATOM     36  C   UNL A   1      37.171  33.036  30.290  1.00  0.00     0.010 A 
ATOM     37  C   UNL A   1      37.101  31.963  31.202  1.00  0.00    -0.014 A 
BRANCH  37  38
ATOM     38  C   UNL A   1      38.363  31.326  31.476  1.00  0.00     0.031 A 
ATOM     39  C   UNL A   1      38.629  30.066  30.767  1.00  0.00     0.074 A 
ATOM     40  C   UNL A   1      39.329  32.031  32.103  1.00  0.00     0.049 A 
ATOM     41  N   UNL A   1      39.653  29.315  30.973  1.00  0.00    -0.248 NA
ATOM     42  C   UNL A   1      37.685  29.499  29.804  1.00  0.00     0.031 C 
ATOM     43  C   UNL A   1      40.754  31.911  31.841  1.00  0.00     0.029 A 
ATOM     44  N   UNL A   1      39.247  32.978  33.135  1.00  0.00    -0.354 N 
ATOM     45  C   UNL A   1      39.699  28.416  29.933  1.00  0.00     0.074 A 
ATOM     46  C   UNL A   1      38.377  28.446  29.366  1.00  0.00     0.031 C 
ATOM     47  C   UNL A   1      41.439  32.581  32.780  1.00  0.00     0.029 A 
ATOM     48  C   UNL A   1      40.497  32.984  33.807  1.00  0.00     0.049 A 
ATOM     49  H   UNL A   1      38.465  33.536  33.353  1.00  0.00     0.167 HD
ATOM     50  C   UNL A   1      40.919  27.923  29.570  1.00  0.00     0.037 A 
ATOM     51  C   UNL A   1      40.639  32.609  35.122  1.00  0.00     0.037 A 
ATOM     52  C   UNL A   1      41.937  28.329  30.548  1.00  0.00     0.049 A 
ATOM     53  C   UNL A   1      41.417  31.338  35.340  1.00  0.00     0.074 A 
ATOM     54  C   UNL A   1      42.915  29.311  30.534  1.00  0.00     0.029 A 
ATOM     55  N   UNL A   1      41.823  27.910  31.870  1.00  0.00    -0.354 N 
ATOM     56  N   UNL A   1      41.738  30.515  34.387  1.00  0.00    -0.248 NA
ATOM     57  C   UNL A   1      41.830  30.860  36.656  1.00  0.00     0.031 C 
ATOM     58  C   UNL A   1      43.357  29.510  31.868  1.00  0.00     0.029 A 
ATOM     59  C   UNL A   1      42.666  28.635  32.688  1.00  0.00     0.049 A 
ATOM     60  H   UNL A   1      41.222  27.192  32.179  1.00  0.00     0.167 HD
ATOM     61  C   UNL A   1      42.350  29.414  34.916  1.00  0.00     0.074 A 
ATOM     62  C   UNL A   1      42.416  29.693  36.339  1.00  0.00     0.031 C 
ATOM     63  C   UNL A   1      42.723  28.369  34.120  1.00  0.00     0.037 A 
BRANCH  50  64
ATOM     64  C   UNL A   1      41.272  27.356  28.203  1.00  0.00     0.064 A 
ATOM     65  C   UNL A   1      41.666  26.001  28.084  1.00  0.00     0.173 A 
ATOM     66  C   UNL A   1      41.335  28.075  26.992  1.00  0.00     0.173 A 
ATOM     67  F   UNL A   1      41.585  25.156  29.119  1.00  0.00    -0.203 F 
ATOM     68  C   UNL A   1      42.163  25.456  26.895  1.00  0.00     0.198 A 
ATOM     69  C   UNL A   1      41.843  27.534  25.806  1.00  0.00     0.198 A 
ATOM     70  F   UNL A   1      40.885  29.324  26.873  1.00  0.00    -0.203 F 
ATOM     71  F   UNL A   1      42.549  24.173  26.866  1.00  0.00    -0.200 F 
ATOM     72  C   UNL A   1      42.270  26.227  25.760  1.00  0.00     0.200 A 
ATOM     73  F   UNL A   1      41.912  28.300  24.707  1.00  0.00    -0.200 F 
ATOM     74  F   UNL A   1      42.761  25.713  24.626  1.00  0.00    -0.200 F 
ENDBRANCH  50  64
BRANCH  51  75
ATOM     75  C   UNL A   1      39.507  32.991  35.997  1.00  0.00     0.064 A 
ATOM     76  C   UNL A   1      38.575  31.998  36.334  1.00  0.00     0.173 A 
ATOM     77  C   UNL A   1      39.774  34.002  36.912  1.00  0.00     0.173 A 
ATOM     78  F   UNL A   1      38.228  31.070  35.432  1.00  0.00    -0.203 F 
ATOM     79  C   UNL A   1      38.135  31.870  37.644  1.00  0.00     0.198 A 
ATOM     80  C   UNL A   1      39.457  33.779  38.234  1.00  0.00     0.198 A 
ATOM     81  F   UNL A   1      40.616  35.003  36.611  1.00  0.00    -0.203 F 
ATOM     82  F   UNL A   1      37.342  30.848  37.996  1.00  0.00    -0.200 F 
ATOM     83  C   UNL A   1      38.656  32.709  38.612  1.00  0.00     0.200 A 
ATOM     84  F   UNL A   1      40.133  34.493  39.132  1.00  0.00    -0.200 F 
ATOM     85  F   UNL A   1      38.452  32.427  39.903  1.00  0.00    -0.200 F 
ENDBRANCH  51  75
BRANCH  63  86
ATOM     86  C   UNL A   1      43.261  27.040  34.586  1.00  0.00     0.064 A 
ATOM     87  C   UNL A   1      42.468  25.938  34.938  1.00  0.00     0.173 A 
ATOM     88  C   UNL A   1      44.660  26.807  34.580  1.00  0.00     0.173 A 
ATOM     89  F   UNL A   1      41.133  25.979  34.852  1.00  0.00    -0.203 F 
ATOM     90  C   UNL A   1      43.031  24.722  35.336  1.00  0.00     0.198 A 
ATOM     91  C   UNL A   1      45.214  25.574  34.908  1.00  0.00     0.198 A 
ATOM     92  F   UNL A   1      45.532  27.764  34.233  1.00  0.00    -0.203 F 
ATOM     93  F   UNL A   1      42.233  23.717  35.723  1.00  0.00    -0.200 F 
ATOM     94  C   UNL A   1      44.401  24.537  35.311  1.00  0.00     0.200 A 
ATOM     95  F   UNL A   1      46.539  25.396  34.818  1.00  0.00    -0.200 F 
ATOM     96  F   UNL A   1      44.934  23.357  35.653  1.00  0.00    -0.200 F 
ENDBRANCH  63  86
ENDBRANCH  37  38
ENDBRANCH  30  32
ENDBRANCH  29  30
ENDBRANCH  28  29
ENDBRANCH  27  28
ENDBRANCH  26  27
ENDBRANCH  25  26
ENDBRANCH   1  25
TORSDOF 19
ENDMDL
MODEL 3
REMARK VINA RESULT:     -11.4      5.485     11.166
REMARK SMILES Cc1ccc(F)c(C(=O)N[C@@H]2C=C[C@@H](C(=O)OCCOCCOCCOC(=O)c3ccc(-c4c5nc(c(-c6c(F)c(F)c(F)c(F)c6F)c6ccc([nH]6)c(-c6c(F)c(F)c(F)c(F)c6F)c6nc(c(-c7c(F)c(F)c(F)c(F)c7F)c7ccc4[nH]7)C=C6)C=C5)cc3)C2)c1
REMARK SMILES IDX 21 1 20 2 19 3 18 4 17 5 15 6 16 7 14 8 11 9 12 10 92 11
REMARK SMILES IDX 13 12 10 13 8 14 9 15 7 17 1 18 2 19 3 20 93 21 4 22 5 23
REMARK SMILES IDX 6 24 22 25 23 26 24 27 25 28 26 29 27 30 28 31 29 32 30 33
REMARK SMILES IDX 91 34 31 35 90 36 32 37 33 38 34 39 84 40 35 41 89 42 83 43
REMARK SMILES IDX 85 44 36 45 88 46 82 47 81 48 37 50 69 51 49 52 68 53 50 54
REMARK SMILES IDX 53 55 67 56 86 57 51 58 52 59 66 61 87 62 54 63 38 64 39 65
REMARK SMILES IDX 47 66 40 67 41 68 45 69 48 70 42 71 43 72 46 73 44 74 70 75
REMARK SMILES IDX 71 76 79 77 72 78 73 79 77 80 80 81 74 82 75 83 78 84 76 85
REMARK SMILES IDX 55 86 56 87 64 88 57 89 58 90 62 91 65 92 59 93 60 94 63 95
REMARK SMILES IDX 61 96
REMARK H PARENT 10 16 85 49 53 60
REMARK Flexibility Score: inf
ROOT
ATOM      1  C   UNL A   1      33.270  33.559  27.949  1.00  0.00     0.188 C 
ENDROOT
BRANCH   1   2
ATOM      2  O   UNL A   1      32.023  33.449  27.279  1.00  0.00    -0.376 OA
BRANCH   2   3
ATOM      3  C   UNL A   1      31.597  32.151  26.889  1.00  0.00     0.202 C 
BRANCH   3   4
ATOM      4  C   UNL A   1      32.587  30.979  27.036  1.00  0.00     0.261 C 
BRANCH   4   5
ATOM      5  O   UNL A   1      32.607  30.020  25.949  1.00  0.00    -0.463 OA
BRANCH   5   6
ATOM      6  C   UNL A   1      33.316  28.882  26.172  1.00  0.00     0.312 C 
ATOM      7  O   UNL A   1      33.785  28.580  27.267  1.00  0.00    -0.252 OA
BRANCH   6   8
ATOM      8  C   UNL A   1      33.460  27.944  24.960  1.00  0.00     0.124 C 
ATOM      9  C   UNL A   1      33.094  25.536  24.401  1.00  0.00     0.106 C 
ATOM     10  C   UNL A   1      31.880  26.371  24.173  1.00  0.00    -0.006 C 
ATOM     11  C   UNL A   1      34.043  26.531  25.110  1.00  0.00     0.048 C 
ATOM     12  C   UNL A   1      32.086  27.665  24.432  1.00  0.00    -0.014 C 
BRANCH   9  13
ATOM     13  N   UNL A   1      33.468  24.993  23.097  1.00  0.00    -0.346 N 
ATOM     14  C   UNL A   1      33.695  23.700  22.687  1.00  0.00     0.254 C 
ATOM     15  O   UNL A   1      33.680  23.399  21.498  1.00  0.00    -0.269 OA
ATOM     16  H   UNL A   1      33.575  25.670  22.390  1.00  0.00     0.164 HD
BRANCH  14  17
ATOM     17  C   UNL A   1      34.075  22.715  23.692  1.00  0.00     0.075 A 
ATOM     18  C   UNL A   1      37.272  21.197  25.013  1.00  0.00     0.044 C 
ATOM     19  C   UNL A   1      35.834  21.402  24.658  1.00  0.00    -0.050 A 
ATOM     20  C   UNL A   1      34.912  20.365  24.816  1.00  0.00     0.006 A 
ATOM     21  C   UNL A   1      35.402  22.605  24.113  1.00  0.00     0.020 A 
ATOM     22  C   UNL A   1      33.552  20.548  24.556  1.00  0.00     0.040 A 
ATOM     23  C   UNL A   1      33.133  21.735  23.994  1.00  0.00     0.135 A 
ATOM     24  F   UNL A   1      31.843  21.869  23.660  1.00  0.00    -0.206 F 
ENDBRANCH  14  17
ENDBRANCH   9  13
ENDBRANCH   6   8
ENDBRANCH   5   6
ENDBRANCH   4   5
ENDBRANCH   3   4
ENDBRANCH   2   3
ENDBRANCH   1   2
BRANCH   1  25
ATOM     25  C   UNL A   1      33.514  34.741  28.918  1.00  0.00     0.188 C 
BRANCH  25  26
ATOM     26  O   UNL A   1      32.491  34.987  29.870  1.00  0.00    -0.376 OA
BRANCH  26  27
ATOM     27  C   UNL A   1      32.697  36.050  30.794  1.00  0.00     0.202 C 
BRANCH  27  28
ATOM     28  C   UNL A   1      33.518  35.735  32.052  1.00  0.00     0.261 C 
BRANCH  28  29
ATOM     29  O   UNL A   1      33.349  34.407  32.542  1.00  0.00    -0.460 OA
BRANCH  29  30
ATOM     30  C   UNL A   1      34.422  33.633  32.319  1.00  0.00     0.338 C 
ATOM     31  O   UNL A   1      34.495  32.640  31.611  1.00  0.00    -0.246 OA
BRANCH  30  32
ATOM     32  C   UNL A   1      35.580  34.171  33.047  1.00  0.00     0.060 A 
ATOM     33  C   UNL A   1      36.596  34.662  32.204  1.00  0.00     0.016 A 
ATOM     34  C   UNL A   1      35.855  33.366  34.142  1.00  0.00     0.016 A 
ATOM     35  C   UNL A   1      37.804  34.005  32.180  1.00  0.00     0.010 A 
ATOM     36  C   UNL A   1      37.045  32.690  34.100  1.00  0.00     0.010 A 
ATOM     37  C   UNL A   1      37.951  32.937  33.048  1.00  0.00    -0.014 A 
BRANCH  37  38
ATOM     38  C   UNL A   1      39.092  32.058  33.020  1.00  0.00     0.031 A 
ATOM     39  C   UNL A   1      38.946  30.819  32.243  1.00  0.00     0.074 A 
ATOM     40  C   UNL A   1      40.289  32.529  33.432  1.00  0.00     0.049 A 
ATOM     41  N   UNL A   1      39.823  29.879  32.200  1.00  0.00    -0.248 NA
ATOM     42  C   UNL A   1      37.726  30.502  31.502  1.00  0.00     0.031 C 
ATOM     43  C   UNL A   1      41.572  32.161  32.856  1.00  0.00     0.029 A 
ATOM     44  N   UNL A   1      40.617  33.406  34.476  1.00  0.00    -0.354 N 
ATOM     45  C   UNL A   1      39.468  29.055  31.156  1.00  0.00     0.074 A 
ATOM     46  C   UNL A   1      38.087  29.368  30.899  1.00  0.00     0.031 C 
ATOM     47  C   UNL A   1      42.560  32.629  33.634  1.00  0.00     0.029 A 
ATOM     48  C   UNL A   1      41.959  33.135  34.853  1.00  0.00     0.049 A 
ATOM     49  H   UNL A   1      40.025  34.085  34.874  1.00  0.00     0.167 HD
ATOM     50  C   UNL A   1      40.461  28.367  30.521  1.00  0.00     0.037 A 
ATOM     51  C   UNL A   1      42.302  32.656  36.095  1.00  0.00     0.037 A 
ATOM     52  C   UNL A   1      41.724  28.512  31.256  1.00  0.00     0.049 A 
ATOM     53  C   UNL A   1      42.843  31.251  36.107  1.00  0.00     0.074 A 
ATOM     54  C   UNL A   1      42.850  29.293  31.046  1.00  0.00     0.029 A 
ATOM     55  N   UNL A   1      41.815  28.037  32.561  1.00  0.00    -0.354 N 
ATOM     56  N   UNL A   1      42.785  30.445  35.089  1.00  0.00    -0.248 NA
ATOM     57  C   UNL A   1      43.426  30.621  37.287  1.00  0.00     0.031 C 
ATOM     58  C   UNL A   1      43.597  29.320  32.252  1.00  0.00     0.029 A 
ATOM     59  C   UNL A   1      42.940  28.538  33.187  1.00  0.00     0.049 A 
ATOM     60  H   UNL A   1      41.165  27.427  32.981  1.00  0.00     0.167 HD
ATOM     61  C   UNL A   1      43.267  29.218  35.445  1.00  0.00     0.074 A 
ATOM     62  C   UNL A   1      43.690  29.388  36.823  1.00  0.00     0.031 C 
ATOM     63  C   UNL A   1      43.249  28.175  34.563  1.00  0.00     0.037 A 
BRANCH  50  64
ATOM     64  C   UNL A   1      40.394  27.833  29.098  1.00  0.00     0.064 A 
ATOM     65  C   UNL A   1      39.696  26.631  28.830  1.00  0.00     0.173 A 
ATOM     66  C   UNL A   1      41.045  28.375  27.971  1.00  0.00     0.173 A 
ATOM     67  F   UNL A   1      38.954  26.029  29.768  1.00  0.00    -0.203 F 
ATOM     68  C   UNL A   1      39.731  25.992  27.585  1.00  0.00     0.198 A 
ATOM     69  C   UNL A   1      41.090  27.732  26.730  1.00  0.00     0.198 A 
ATOM     70  F   UNL A   1      41.646  29.565  27.991  1.00  0.00    -0.203 F 
ATOM     71  F   UNL A   1      39.072  24.838  27.414  1.00  0.00    -0.200 F 
ATOM     72  C   UNL A   1      40.444  26.533  26.539  1.00  0.00     0.200 A 
ATOM     73  F   UNL A   1      41.771  28.293  25.720  1.00  0.00    -0.200 F 
ATOM     74  F   UNL A   1      40.494  25.916  25.352  1.00  0.00    -0.200 F 
ENDBRANCH  50  64
BRANCH  51  75
ATOM     75  C   UNL A   1      41.481  33.186  37.208  1.00  0.00     0.064 A 
ATOM     76  C   UNL A   1      41.836  34.430  37.749  1.00  0.00     0.173 A 
ATOM     77  C   UNL A   1      40.142  32.816  37.192  1.00  0.00     0.173 A 
ATOM     78  F   UNL A   1      43.128  34.767  37.867  1.00  0.00    -0.203 F 
ATOM     79  C   UNL A   1      40.859  35.382  38.011  1.00  0.00     0.198 A 
ATOM     80  C   UNL A   1      39.195  33.809  37.305  1.00  0.00     0.198 A 
ATOM     81  F   UNL A   1      39.763  31.613  36.735  1.00  0.00    -0.203 F 
ATOM     82  F   UNL A   1      41.204  36.614  38.410  1.00  0.00    -0.200 F 
ATOM     83  C   UNL A   1      39.544  35.097  37.695  1.00  0.00     0.200 A 
ATOM     84  F   UNL A   1      37.989  33.535  36.811  1.00  0.00    -0.200 F 
ATOM     85  F   UNL A   1      38.642  36.084  37.687  1.00  0.00    -0.200 F 
ENDBRANCH  51  75
BRANCH  63  86
ATOM     86  C   UNL A   1      43.602  26.742  34.870  1.00  0.00     0.064 A 
ATOM     87  C   UNL A   1      44.909  26.256  35.020  1.00  0.00     0.173 A 
ATOM     88  C   UNL A   1      42.571  25.807  35.144  1.00  0.00     0.173 A 
ATOM     89  F   UNL A   1      45.972  27.066  34.928  1.00  0.00    -0.203 F 
ATOM     90  C   UNL A   1      45.168  24.919  35.333  1.00  0.00     0.198 A 
ATOM     91  C   UNL A   1      42.833  24.495  35.525  1.00  0.00     0.198 A 
ATOM     92  F   UNL A   1      41.275  26.145  35.070  1.00  0.00    -0.203 F 
ATOM     93  F   UNL A   1      46.436  24.488  35.404  1.00  0.00    -0.200 F 
ATOM     94  C   UNL A   1      44.132  24.043  35.595  1.00  0.00     0.200 A 
ATOM     95  F   UNL A   1      41.817  23.678  35.835  1.00  0.00    -0.200 F 
ATOM     96  F   UNL A   1      44.386  22.773  35.936  1.00  0.00    -0.200 F 
ENDBRANCH  63  86
ENDBRANCH  37  38
ENDBRANCH  30  32
ENDBRANCH  29  30
ENDBRANCH  28  29
ENDBRANCH  27  28
ENDBRANCH  26  27
ENDBRANCH  25  26
ENDBRANCH   1  25
TORSDOF 19
ENDMDL
