MODEL 1
REMARK VINA RESULT:     -11.8      0.000      0.000
REMARK SMILES O=C(OCCOCCOCCOC(=O)c1sccc1S(=O)(=O)Nc1ccccc1N1CCCCC1)c1ccc(-c2c3nc(c(-c4c(F)c(F)c(F)c(F)c4F)c4ccc([nH]4)c(-c4c(F)c(F)c(F)c(F)c4F)c4nc(c(-c5c(F)c(F)c(F)c(F)c5F)c5ccc2[nH]5)C=C4)C=C3)cc1
REMARK SMILES IDX 8 1 7 2 6 3 5 4 4 5 3 6 2 7 1 8 36 9 37 10 98 11 38 12 97 13
REMARK SMILES IDX 39 14 40 15 41 16 91 17 42 18 96 19 90 20 92 21 43 22 95 23
REMARK SMILES IDX 89 24 88 25 44 27 76 28 56 29 75 30 57 31 60 32 74 33 93 34
REMARK SMILES IDX 58 35 59 36 73 38 94 39 61 40 45 41 46 42 54 43 47 44 48 45
REMARK SMILES IDX 52 46 55 47 49 48 50 49 53 50 51 51 77 52 78 53 86 54 79 55
REMARK SMILES IDX 80 56 84 57 87 58 81 59 82 60 85 61 83 62 62 63 63 64 71 65
REMARK SMILES IDX 64 66 65 67 69 68 72 69 66 70 67 71 70 72 68 73 9 74 10 75
REMARK SMILES IDX 11 76 12 77 13 78 14 79 15 80 16 81 19 82 17 83 18 84 20 85
REMARK SMILES IDX 21 86 22 87 23 88 24 90 25 91 29 92 26 93 28 94 27 95 30 96
REMARK SMILES IDX 31 97 35 98 32 99 34 100 33 101
REMARK H PARENT 92 26 60 37 23 89
REMARK Flexibility Score: inf
ROOT
ATOM      1  C   UNL A   1      32.611  29.076  25.562  1.00  0.00     0.188 C 
ENDROOT
BRANCH   1   2
ATOM      2  C   UNL A   1      31.496  30.118  25.441  1.00  0.00     0.188 C 
BRANCH   2   3
ATOM      3  O   UNL A   1      31.418  30.840  26.669  1.00  0.00    -0.376 OA
BRANCH   3   4
ATOM      4  C   UNL A   1      31.242  32.239  26.541  1.00  0.00     0.202 C 
BRANCH   4   5
ATOM      5  C   UNL A   1      32.493  33.008  26.975  1.00  0.00     0.261 C 
BRANCH   5   6
ATOM      6  O   UNL A   1      32.170  34.199  27.717  1.00  0.00    -0.460 OA
BRANCH   6   7
ATOM      7  C   UNL A   1      32.913  34.800  28.682  1.00  0.00     0.338 C 
ATOM      8  O   UNL A   1      32.551  35.900  29.100  1.00  0.00    -0.246 OA
BRANCH   7   9
ATOM      9  C   UNL A   1      34.111  34.172  29.331  1.00  0.00     0.060 A 
ATOM     10  C   UNL A   1      34.068  33.253  30.383  1.00  0.00     0.016 A 
ATOM     11  C   UNL A   1      35.369  34.459  28.777  1.00  0.00     0.016 A 
ATOM     12  C   UNL A   1      35.223  32.674  30.911  1.00  0.00     0.010 A 
ATOM     13  C   UNL A   1      36.532  33.853  29.275  1.00  0.00     0.010 A 
ATOM     14  C   UNL A   1      36.464  32.963  30.359  1.00  0.00    -0.014 A 
BRANCH  14  15
ATOM     15  C   UNL A   1      37.702  32.425  30.968  1.00  0.00     0.031 A 
ATOM     16  C   UNL A   1      38.349  31.238  30.336  1.00  0.00     0.074 A 
ATOM     17  C   UNL A   1      38.296  33.012  32.024  1.00  0.00     0.049 A 
ATOM     18  N   UNL A   1      39.353  30.523  30.763  1.00  0.00    -0.248 NA
ATOM     19  C   UNL A   1      37.845  30.850  29.008  1.00  0.00     0.031 C 
ATOM     20  C   UNL A   1      37.957  34.317  32.569  1.00  0.00     0.029 A 
ATOM     21  N   UNL A   1      39.292  32.564  32.859  1.00  0.00    -0.354 N 
ATOM     22  C   UNL A   1      39.640  29.640  29.737  1.00  0.00     0.074 A 
ATOM     23  C   UNL A   1      38.664  29.860  28.691  1.00  0.00     0.031 C 
ATOM     24  C   UNL A   1      38.605  34.502  33.729  1.00  0.00     0.029 A 
ATOM     25  C   UNL A   1      39.394  33.318  34.007  1.00  0.00     0.049 A 
ATOM     26  H   UNL A   1      39.868  31.792  32.659  1.00  0.00     0.167 HD
ATOM     27  C   UNL A   1      40.659  28.756  29.668  1.00  0.00     0.037 A 
ATOM     28  C   UNL A   1      40.001  33.048  35.175  1.00  0.00     0.037 A 
ATOM     29  C   UNL A   1      41.601  28.540  30.731  1.00  0.00     0.049 A 
ATOM     30  C   UNL A   1      40.899  31.852  35.225  1.00  0.00     0.074 A 
ATOM     31  C   UNL A   1      42.665  27.660  30.783  1.00  0.00     0.029 A 
ATOM     32  N   UNL A   1      41.571  29.208  31.950  1.00  0.00    -0.354 N 
ATOM     33  N   UNL A   1      41.163  30.997  34.269  1.00  0.00    -0.248 NA
ATOM     34  C   UNL A   1      41.625  31.609  36.476  1.00  0.00     0.031 C 
ATOM     35  C   UNL A   1      43.241  27.752  32.056  1.00  0.00     0.029 A 
ATOM     36  C   UNL A   1      42.562  28.719  32.783  1.00  0.00     0.049 A 
ATOM     37  H   UNL A   1      40.938  29.924  32.185  1.00  0.00     0.167 HD
ATOM     38  C   UNL A   1      42.140  30.157  34.770  1.00  0.00     0.074 A 
ATOM     39  C   UNL A   1      42.395  30.585  36.133  1.00  0.00     0.031 C 
ATOM     40  C   UNL A   1      42.793  29.152  34.139  1.00  0.00     0.037 A 
BRANCH  27  41
ATOM     41  C   UNL A   1      40.761  27.945  28.416  1.00  0.00     0.064 A 
ATOM     42  C   UNL A   1      40.136  26.694  28.296  1.00  0.00     0.173 A 
ATOM     43  C   UNL A   1      41.521  28.412  27.336  1.00  0.00     0.173 A 
ATOM     44  F   UNL A   1      39.426  26.192  29.317  1.00  0.00    -0.203 F 
ATOM     45  C   UNL A   1      40.287  25.930  27.142  1.00  0.00     0.198 A 
ATOM     46  C   UNL A   1      41.653  27.653  26.177  1.00  0.00     0.198 A 
ATOM     47  F   UNL A   1      42.149  29.594  27.413  1.00  0.00    -0.203 F 
ATOM     48  F   UNL A   1      39.722  24.717  27.064  1.00  0.00    -0.200 F 
ATOM     49  C   UNL A   1      41.042  26.411  26.083  1.00  0.00     0.200 A 
ATOM     50  F   UNL A   1      42.388  28.116  25.156  1.00  0.00    -0.200 F 
ATOM     51  F   UNL A   1      41.194  25.670  24.977  1.00  0.00    -0.200 F 
ENDBRANCH  27  41
BRANCH  28  52
ATOM     52  C   UNL A   1      39.731  33.879  36.377  1.00  0.00     0.064 A 
ATOM     53  C   UNL A   1      40.371  35.103  36.599  1.00  0.00     0.173 A 
ATOM     54  C   UNL A   1      38.832  33.428  37.359  1.00  0.00     0.173 A 
ATOM     55  F   UNL A   1      41.257  35.565  35.705  1.00  0.00    -0.203 F 
ATOM     56  C   UNL A   1      40.143  35.834  37.767  1.00  0.00     0.198 A 
ATOM     57  C   UNL A   1      38.592  34.167  38.516  1.00  0.00     0.198 A 
ATOM     58  F   UNL A   1      38.192  32.259  37.201  1.00  0.00    -0.203 F 
ATOM     59  F   UNL A   1      40.809  36.977  37.978  1.00  0.00    -0.200 F 
ATOM     60  C   UNL A   1      39.254  35.366  38.724  1.00  0.00     0.200 A 
ATOM     61  F   UNL A   1      37.731  33.707  39.435  1.00  0.00    -0.200 F 
ATOM     62  F   UNL A   1      39.054  36.057  39.854  1.00  0.00    -0.200 F 
ENDBRANCH  28  52
BRANCH  40  63
ATOM     63  C   UNL A   1      43.878  28.474  34.912  1.00  0.00     0.064 A 
ATOM     64  C   UNL A   1      45.193  28.955  34.902  1.00  0.00     0.173 A 
ATOM     65  C   UNL A   1      43.590  27.340  35.685  1.00  0.00     0.173 A 
ATOM     66  F   UNL A   1      45.517  30.021  34.154  1.00  0.00    -0.203 F 
ATOM     67  C   UNL A   1      46.190  28.310  35.627  1.00  0.00     0.198 A 
ATOM     68  C   UNL A   1      44.582  26.715  36.430  1.00  0.00     0.198 A 
ATOM     69  F   UNL A   1      42.344  26.843  35.720  1.00  0.00    -0.203 F 
ATOM     70  F   UNL A   1      47.452  28.757  35.567  1.00  0.00    -0.200 F 
ATOM     71  C   UNL A   1      45.882  27.198  36.396  1.00  0.00     0.200 A 
ATOM     72  F   UNL A   1      44.282  25.646  37.179  1.00  0.00    -0.200 F 
ATOM     73  F   UNL A   1      46.844  26.583  37.098  1.00  0.00    -0.200 F 
ENDBRANCH  40  63
ENDBRANCH  14  15
ENDBRANCH   7   9
ENDBRANCH   6   7
ENDBRANCH   5   6
ENDBRANCH   4   5
ENDBRANCH   3   4
ENDBRANCH   2   3
ENDBRANCH   1   2
BRANCH   1  74
ATOM     74  O   UNL A   1      33.563  29.282  24.517  1.00  0.00    -0.376 OA
BRANCH  74  75
ATOM     75  C   UNL A   1      34.037  28.096  23.873  1.00  0.00     0.202 C 
BRANCH  75  76
ATOM     76  C   UNL A   1      33.728  27.884  22.380  1.00  0.00     0.261 C 
BRANCH  76  77
ATOM     77  O   UNL A   1      34.022  26.557  21.875  1.00  0.00    -0.459 OA
BRANCH  77  78
ATOM     78  C   UNL A   1      32.982  25.849  21.360  1.00  0.00     0.349 C 
ATOM     79  O   UNL A   1      32.881  25.564  20.180  1.00  0.00    -0.245 OA
BRANCH  78  80
ATOM     80  C   UNL A   1      32.044  25.390  22.371  1.00  0.00     0.133 A 
ATOM     81  S   UNL A   1      30.740  26.501  22.712  1.00  0.00    -0.136 S 
ATOM     82  C   UNL A   1      31.911  24.241  23.135  1.00  0.00     0.113 A 
ATOM     83  C   UNL A   1      30.019  25.452  23.837  1.00  0.00     0.067 A 
ATOM     84  C   UNL A   1      30.756  24.304  24.002  1.00  0.00     0.035 A 
BRANCH  82  85
ATOM     85  S   UNL A   1      32.893  22.815  23.057  1.00  0.00     0.263 S 
ATOM     86  O   UNL A   1      32.303  22.070  21.957  1.00  0.00    -0.201 OA
ATOM     87  O   UNL A   1      34.245  23.304  22.894  1.00  0.00    -0.201 OA
BRANCH  85  88
ATOM     88  N   UNL A   1      32.852  21.763  24.364  1.00  0.00    -0.277 N 
ATOM     89  H   UNL A   1      32.442  22.073  25.203  1.00  0.00     0.180 HD
BRANCH  88  90
ATOM     90  C   UNL A   1      33.390  20.433  24.312  1.00  0.00     0.072 A 
ATOM     91  C   UNL A   1      32.537  19.413  23.864  1.00  0.00     0.029 A 
ATOM     92  C   UNL A   1      34.690  20.123  24.783  1.00  0.00     0.061 A 
ATOM     93  C   UNL A   1      32.957  18.081  23.865  1.00  0.00     0.002 A 
ATOM     94  C   UNL A   1      35.096  18.776  24.722  1.00  0.00     0.028 A 
ATOM     95  C   UNL A   1      34.243  17.765  24.278  1.00  0.00     0.002 A 
BRANCH  92  96
ATOM     96  N   UNL A   1      35.536  21.051  25.376  1.00  0.00    -0.370 N 
ATOM     97  C   UNL A   1      35.098  21.862  26.513  1.00  0.00     0.116 C 
ATOM     98  C   UNL A   1      36.847  21.322  24.784  1.00  0.00     0.116 C 
ATOM     99  C   UNL A   1      35.293  23.347  26.274  1.00  0.00     0.021 C 
ATOM    100  C   UNL A   1      37.022  22.823  24.556  1.00  0.00     0.021 C 
ATOM    101  C   UNL A   1      36.725  23.616  25.824  1.00  0.00     0.004 C 
ENDBRANCH  92  96
ENDBRANCH  88  90
ENDBRANCH  85  88
ENDBRANCH  82  85
ENDBRANCH  78  80
ENDBRANCH  77  78
ENDBRANCH  76  77
ENDBRANCH  75  76
ENDBRANCH  74  75
ENDBRANCH   1  74
TORSDOF 21
ENDMDL
MODEL 2
REMARK VINA RESULT:     -10.4      1.085      7.101
REMARK SMILES O=C(OCCOCCOCCOC(=O)c1sccc1S(=O)(=O)Nc1ccccc1N1CCCCC1)c1ccc(-c2c3nc(c(-c4c(F)c(F)c(F)c(F)c4F)c4ccc([nH]4)c(-c4c(F)c(F)c(F)c(F)c4F)c4nc(c(-c5c(F)c(F)c(F)c(F)c5F)c5ccc2[nH]5)C=C4)C=C3)cc1
REMARK SMILES IDX 8 1 7 2 6 3 5 4 4 5 3 6 2 7 1 8 36 9 37 10 98 11 38 12 97 13
REMARK SMILES IDX 39 14 40 15 41 16 91 17 42 18 96 19 90 20 92 21 43 22 95 23
REMARK SMILES IDX 89 24 88 25 44 27 76 28 56 29 75 30 57 31 60 32 74 33 93 34
REMARK SMILES IDX 58 35 59 36 73 38 94 39 61 40 45 41 46 42 54 43 47 44 48 45
REMARK SMILES IDX 52 46 55 47 49 48 50 49 53 50 51 51 77 52 78 53 86 54 79 55
REMARK SMILES IDX 80 56 84 57 87 58 81 59 82 60 85 61 83 62 62 63 63 64 71 65
REMARK SMILES IDX 64 66 65 67 69 68 72 69 66 70 67 71 70 72 68 73 9 74 10 75
REMARK SMILES IDX 11 76 12 77 13 78 14 79 15 80 16 81 19 82 17 83 18 84 20 85
REMARK SMILES IDX 21 86 22 87 23 88 24 90 25 91 29 92 26 93 28 94 27 95 30 96
REMARK SMILES IDX 31 97 35 98 32 99 34 100 33 101
REMARK H PARENT 92 26 60 37 23 89
REMARK Flexibility Score: inf
ROOT
ATOM      1  C   UNL A   1      32.506  28.956  25.090  1.00  0.00     0.188 C 
ENDROOT
BRANCH   1   2
ATOM      2  C   UNL A   1      31.395  29.994  25.273  1.00  0.00     0.188 C 
BRANCH   2   3
ATOM      3  O   UNL A   1      31.538  30.586  26.563  1.00  0.00    -0.376 OA
BRANCH   3   4
ATOM      4  C   UNL A   1      31.255  31.972  26.630  1.00  0.00     0.202 C 
BRANCH   4   5
ATOM      5  C   UNL A   1      32.514  32.793  26.920  1.00  0.00     0.261 C 
BRANCH   5   6
ATOM      6  O   UNL A   1      32.225  33.985  27.675  1.00  0.00    -0.460 OA
BRANCH   6   7
ATOM      7  C   UNL A   1      33.023  34.603  28.584  1.00  0.00     0.338 C 
ATOM      8  O   UNL A   1      32.704  35.727  28.975  1.00  0.00    -0.246 OA
BRANCH   7   9
ATOM      9  C   UNL A   1      34.233  33.971  29.204  1.00  0.00     0.060 A 
ATOM     10  C   UNL A   1      35.556  34.237  28.841  1.00  0.00     0.016 A 
ATOM     11  C   UNL A   1      34.025  33.114  30.297  1.00  0.00     0.016 A 
ATOM     12  C   UNL A   1      36.639  33.644  29.492  1.00  0.00     0.010 A 
ATOM     13  C   UNL A   1      35.107  32.543  30.983  1.00  0.00     0.010 A 
ATOM     14  C   UNL A   1      36.425  32.796  30.572  1.00  0.00    -0.014 A 
BRANCH  14  15
ATOM     15  C   UNL A   1      37.560  32.091  31.210  1.00  0.00     0.031 A 
ATOM     16  C   UNL A   1      38.107  32.635  32.488  1.00  0.00     0.074 A 
ATOM     17  C   UNL A   1      38.063  30.945  30.716  1.00  0.00     0.049 A 
ATOM     18  N   UNL A   1      39.168  32.266  33.152  1.00  0.00    -0.248 NA
ATOM     19  C   UNL A   1      37.311  33.684  33.145  1.00  0.00     0.031 C 
ATOM     20  C   UNL A   1      37.466  30.145  29.658  1.00  0.00     0.029 A 
ATOM     21  N   UNL A   1      39.223  30.269  31.014  1.00  0.00    -0.354 N 
ATOM     22  C   UNL A   1      39.137  32.994  34.329  1.00  0.00     0.074 A 
ATOM     23  C   UNL A   1      37.991  33.875  34.264  1.00  0.00     0.031 C 
ATOM     24  C   UNL A   1      38.325  29.186  29.281  1.00  0.00     0.029 A 
ATOM     25  C   UNL A   1      39.536  29.319  30.068  1.00  0.00     0.049 A 
ATOM     26  H   UNL A   1      39.769  30.445  31.814  1.00  0.00     0.167 HD
ATOM     27  C   UNL A   1      39.976  32.895  35.384  1.00  0.00     0.037 A 
ATOM     28  C   UNL A   1      40.692  28.679  29.826  1.00  0.00     0.037 A 
ATOM     29  C   UNL A   1      41.121  32.027  35.414  1.00  0.00     0.049 A 
ATOM     30  C   UNL A   1      41.785  28.823  30.836  1.00  0.00     0.074 A 
ATOM     31  C   UNL A   1      42.051  31.854  36.420  1.00  0.00     0.029 A 
ATOM     32  N   UNL A   1      41.501  31.198  34.365  1.00  0.00    -0.354 N 
ATOM     33  N   UNL A   1      41.777  29.524  31.944  1.00  0.00    -0.248 NA
ATOM     34  C   UNL A   1      43.015  28.057  30.611  1.00  0.00     0.031 C 
ATOM     35  C   UNL A   1      43.030  30.965  35.955  1.00  0.00     0.029 A 
ATOM     36  C   UNL A   1      42.685  30.552  34.677  1.00  0.00     0.049 A 
ATOM     37  H   UNL A   1      41.001  31.085  33.525  1.00  0.00     0.167 HD
ATOM     38  C   UNL A   1      42.964  29.229  32.588  1.00  0.00     0.074 A 
ATOM     39  C   UNL A   1      43.686  28.311  31.726  1.00  0.00     0.031 C 
ATOM     40  C   UNL A   1      43.393  29.651  33.801  1.00  0.00     0.037 A 
BRANCH  27  41
ATOM     41  C   UNL A   1      39.688  33.778  36.555  1.00  0.00     0.064 A 
ATOM     42  C   UNL A   1      40.268  35.051  36.676  1.00  0.00     0.173 A 
ATOM     43  C   UNL A   1      38.850  33.332  37.584  1.00  0.00     0.173 A 
ATOM     44  F   UNL A   1      41.104  35.506  35.731  1.00  0.00    -0.203 F 
ATOM     45  C   UNL A   1      40.031  35.838  37.800  1.00  0.00     0.198 A 
ATOM     46  C   UNL A   1      38.600  34.130  38.697  1.00  0.00     0.198 A 
ATOM     47  F   UNL A   1      38.288  32.116  37.519  1.00  0.00    -0.203 F 
ATOM     48  F   UNL A   1      40.630  37.031  37.920  1.00  0.00    -0.200 F 
ATOM     49  C   UNL A   1      39.195  35.378  38.807  1.00  0.00     0.200 A 
ATOM     50  F   UNL A   1      37.798  33.683  39.673  1.00  0.00    -0.200 F 
ATOM     51  F   UNL A   1      38.975  36.133  39.893  1.00  0.00    -0.200 F 
ENDBRANCH  27  41
BRANCH  28  52
ATOM     52  C   UNL A   1      40.883  27.914  28.566  1.00  0.00     0.064 A 
ATOM     53  C   UNL A   1      41.570  28.443  27.468  1.00  0.00     0.173 A 
ATOM     54  C   UNL A   1      40.335  26.626  28.431  1.00  0.00     0.173 A 
ATOM     55  F   UNL A   1      42.089  29.677  27.536  1.00  0.00    -0.203 F 
ATOM     56  C   UNL A   1      41.683  27.725  26.275  1.00  0.00     0.198 A 
ATOM     57  C   UNL A   1      40.463  25.904  27.246  1.00  0.00     0.198 A 
ATOM     58  F   UNL A   1      39.662  26.071  29.450  1.00  0.00    -0.203 F 
ATOM     59  F   UNL A   1      42.301  28.277  25.222  1.00  0.00    -0.200 F 
ATOM     60  C   UNL A   1      41.130  26.458  26.165  1.00  0.00     0.200 A 
ATOM     61  F   UNL A   1      39.926  24.680  27.148  1.00  0.00    -0.200 F 
ATOM     62  F   UNL A   1      41.219  25.781  25.012  1.00  0.00    -0.200 F 
ENDBRANCH  28  52
BRANCH  40  63
ATOM     63  C   UNL A   1      44.689  29.084  34.284  1.00  0.00     0.064 A 
ATOM     64  C   UNL A   1      45.907  29.727  34.034  1.00  0.00     0.173 A 
ATOM     65  C   UNL A   1      44.704  27.890  35.020  1.00  0.00     0.173 A 
ATOM     66  F   UNL A   1      45.939  30.856  33.309  1.00  0.00    -0.203 F 
ATOM     67  C   UNL A   1      47.103  29.183  34.490  1.00  0.00     0.198 A 
ATOM     68  C   UNL A   1      45.898  27.365  35.499  1.00  0.00     0.198 A 
ATOM     69  F   UNL A   1      43.560  27.239  35.279  1.00  0.00    -0.203 F 
ATOM     70  F   UNL A   1      48.264  29.787  34.201  1.00  0.00    -0.200 F 
ATOM     71  C   UNL A   1      47.096  28.008  35.229  1.00  0.00     0.200 A 
ATOM     72  F   UNL A   1      45.890  26.236  36.220  1.00  0.00    -0.200 F 
ATOM     73  F   UNL A   1      48.250  27.491  35.673  1.00  0.00    -0.200 F 
ENDBRANCH  40  63
ENDBRANCH  14  15
ENDBRANCH   7   9
ENDBRANCH   6   7
ENDBRANCH   5   6
ENDBRANCH   4   5
ENDBRANCH   3   4
ENDBRANCH   2   3
ENDBRANCH   1   2
BRANCH   1  74
ATOM     74  O   UNL A   1      33.637  29.580  24.482  1.00  0.00    -0.376 OA
BRANCH  74  75
ATOM     75  C   UNL A   1      34.105  28.968  23.276  1.00  0.00     0.202 C 
BRANCH  75  76
ATOM     76  C   UNL A   1      33.125  28.123  22.441  1.00  0.00     0.261 C 
BRANCH  76  77
ATOM     77  O   UNL A   1      33.310  26.689  22.544  1.00  0.00    -0.459 OA
BRANCH  77  78
ATOM     78  C   UNL A   1      32.194  25.916  22.482  1.00  0.00     0.349 C 
ATOM     79  O   UNL A   1      31.837  25.328  21.476  1.00  0.00    -0.245 OA
BRANCH  78  80
ATOM     80  C   UNL A   1      31.513  25.789  23.760  1.00  0.00     0.133 A 
ATOM     81  S   UNL A   1      29.839  26.291  23.745  1.00  0.00    -0.136 S 
ATOM     82  C   UNL A   1      31.867  25.330  25.019  1.00  0.00     0.113 A 
ATOM     83  C   UNL A   1      29.607  25.881  25.378  1.00  0.00     0.067 A 
ATOM     84  C   UNL A   1      30.767  25.420  25.952  1.00  0.00     0.035 A 
BRANCH  82  85
ATOM     85  S   UNL A   1      33.379  24.623  25.484  1.00  0.00     0.263 S 
ATOM     86  O   UNL A   1      34.267  25.772  25.567  1.00  0.00    -0.201 OA
ATOM     87  O   UNL A   1      33.093  23.902  26.705  1.00  0.00    -0.201 OA
BRANCH  85  88
ATOM     88  N   UNL A   1      34.123  23.579  24.401  1.00  0.00    -0.277 N 
ATOM     89  H   UNL A   1      34.867  23.921  23.854  1.00  0.00     0.180 HD
BRANCH  88  90
ATOM     90  C   UNL A   1      33.721  22.211  24.234  1.00  0.00     0.072 A 
ATOM     91  C   UNL A   1      32.452  21.979  23.680  1.00  0.00     0.029 A 
ATOM     92  C   UNL A   1      34.510  21.128  24.692  1.00  0.00     0.061 A 
ATOM     93  C   UNL A   1      31.954  20.679  23.564  1.00  0.00     0.002 A 
ATOM     94  C   UNL A   1      33.995  19.830  24.512  1.00  0.00     0.028 A 
ATOM     95  C   UNL A   1      32.732  19.604  23.964  1.00  0.00     0.002 A 
BRANCH  92  96
ATOM     96  N   UNL A   1      35.705  21.284  25.382  1.00  0.00    -0.370 N 
ATOM     97  C   UNL A   1      35.954  22.459  26.218  1.00  0.00     0.116 C 
ATOM     98  C   UNL A   1      36.793  20.326  25.178  1.00  0.00     0.116 C 
ATOM     99  C   UNL A   1      37.244  23.168  25.853  1.00  0.00     0.021 C 
ATOM    100  C   UNL A   1      38.082  21.062  24.814  1.00  0.00     0.021 C 
ATOM    101  C   UNL A   1      38.393  22.167  25.819  1.00  0.00     0.004 C 
ENDBRANCH  92  96
ENDBRANCH  88  90
ENDBRANCH  85  88
ENDBRANCH  82  85
ENDBRANCH  78  80
ENDBRANCH  77  78
ENDBRANCH  76  77
ENDBRANCH  75  76
ENDBRANCH  74  75
ENDBRANCH   1  74
TORSDOF 21
ENDMDL
MODEL 3
REMARK VINA RESULT:     -10.1      4.598      9.218
REMARK SMILES O=C(OCCOCCOCCOC(=O)c1sccc1S(=O)(=O)Nc1ccccc1N1CCCCC1)c1ccc(-c2c3nc(c(-c4c(F)c(F)c(F)c(F)c4F)c4ccc([nH]4)c(-c4c(F)c(F)c(F)c(F)c4F)c4nc(c(-c5c(F)c(F)c(F)c(F)c5F)c5ccc2[nH]5)C=C4)C=C3)cc1
REMARK SMILES IDX 8 1 7 2 6 3 5 4 4 5 3 6 2 7 1 8 36 9 37 10 98 11 38 12 97 13
REMARK SMILES IDX 39 14 40 15 41 16 91 17 42 18 96 19 90 20 92 21 43 22 95 23
REMARK SMILES IDX 89 24 88 25 44 27 76 28 56 29 75 30 57 31 60 32 74 33 93 34
REMARK SMILES IDX 58 35 59 36 73 38 94 39 61 40 45 41 46 42 54 43 47 44 48 45
REMARK SMILES IDX 52 46 55 47 49 48 50 49 53 50 51 51 77 52 78 53 86 54 79 55
REMARK SMILES IDX 80 56 84 57 87 58 81 59 82 60 85 61 83 62 62 63 63 64 71 65
REMARK SMILES IDX 64 66 65 67 69 68 72 69 66 70 67 71 70 72 68 73 9 74 10 75
REMARK SMILES IDX 11 76 12 77 13 78 14 79 15 80 16 81 19 82 17 83 18 84 20 85
REMARK SMILES IDX 21 86 22 87 23 88 24 90 25 91 29 92 26 93 28 94 27 95 30 96
REMARK SMILES IDX 31 97 35 98 32 99 34 100 33 101
REMARK H PARENT 92 26 60 37 23 89
REMARK Flexibility Score: inf
ROOT
ATOM      1  C   UNL A   1      34.304  33.637  29.066  1.00  0.00     0.188 C 
ENDROOT
BRANCH   1   2
ATOM      2  C   UNL A   1      34.887  34.270  30.332  1.00  0.00     0.188 C 
BRANCH   2   3
ATOM      3  O   UNL A   1      33.969  34.062  31.404  1.00  0.00    -0.376 OA
BRANCH   3   4
ATOM      4  C   UNL A   1      34.392  34.542  32.668  1.00  0.00     0.202 C 
BRANCH   4   5
ATOM      5  C   UNL A   1      35.873  34.927  32.660  1.00  0.00     0.261 C 
BRANCH   5   6
ATOM      6  O   UNL A   1      36.694  33.949  33.325  1.00  0.00    -0.460 OA
BRANCH   6   7
ATOM      7  C   UNL A   1      36.850  32.640  33.000  1.00  0.00     0.338 C 
ATOM      8  O   UNL A   1      35.952  31.851  33.296  1.00  0.00    -0.246 OA
BRANCH   7   9
ATOM      9  C   UNL A   1      38.020  32.102  32.229  1.00  0.00     0.060 A 
ATOM     10  C   UNL A   1      38.188  32.203  30.847  1.00  0.00     0.016 A 
ATOM     11  C   UNL A   1      39.071  31.533  32.967  1.00  0.00     0.016 A 
ATOM     12  C   UNL A   1      39.324  31.717  30.198  1.00  0.00     0.010 A 
ATOM     13  C   UNL A   1      40.234  31.076  32.330  1.00  0.00     0.010 A 
ATOM     14  C   UNL A   1      40.360  31.154  30.934  1.00  0.00    -0.014 A 
BRANCH  14  15
ATOM     15  C   UNL A   1      41.528  30.553  30.250  1.00  0.00     0.031 A 
ATOM     16  C   UNL A   1      42.706  31.423  29.958  1.00  0.00     0.074 A 
ATOM     17  C   UNL A   1      41.589  29.243  29.950  1.00  0.00     0.049 A 
ATOM     18  N   UNL A   1      43.775  31.153  29.260  1.00  0.00    -0.248 NA
ATOM     19  C   UNL A   1      42.714  32.748  30.599  1.00  0.00     0.031 C 
ATOM     20  C   UNL A   1      40.663  28.223  30.417  1.00  0.00     0.029 A 
ATOM     21  N   UNL A   1      42.453  28.545  29.141  1.00  0.00    -0.354 N 
ATOM     22  C   UNL A   1      44.608  32.246  29.425  1.00  0.00     0.074 A 
ATOM     23  C   UNL A   1      43.898  33.214  30.233  1.00  0.00     0.031 C 
ATOM     24  C   UNL A   1      40.900  27.071  29.772  1.00  0.00     0.029 A 
ATOM     25  C   UNL A   1      41.989  27.284  28.839  1.00  0.00     0.049 A 
ATOM     26  H   UNL A   1      43.309  28.905  28.813  1.00  0.00     0.167 HD
ATOM     27  C   UNL A   1      45.871  32.398  28.971  1.00  0.00     0.037 A 
ATOM     28  C   UNL A   1      42.360  26.427  27.873  1.00  0.00     0.037 A 
ATOM     29  C   UNL A   1      46.546  31.430  28.150  1.00  0.00     0.049 A 
ATOM     30  C   UNL A   1      43.605  26.748  27.107  1.00  0.00     0.074 A 
ATOM     31  C   UNL A   1      47.819  31.482  27.617  1.00  0.00     0.029 A 
ATOM     32  N   UNL A   1      45.979  30.234  27.726  1.00  0.00    -0.354 N 
ATOM     33  N   UNL A   1      44.391  27.789  27.238  1.00  0.00    -0.248 NA
ATOM     34  C   UNL A   1      44.053  25.770  26.111  1.00  0.00     0.031 C 
ATOM     35  C   UNL A   1      48.000  30.345  26.819  1.00  0.00     0.029 A 
ATOM     36  C   UNL A   1      46.856  29.565  26.890  1.00  0.00     0.049 A 
ATOM     37  H   UNL A   1      45.086  29.910  27.983  1.00  0.00     0.167 HD
ATOM     38  C   UNL A   1      45.465  27.560  26.399  1.00  0.00     0.074 A 
ATOM     39  C   UNL A   1      45.211  26.295  25.734  1.00  0.00     0.031 C 
ATOM     40  C   UNL A   1      46.579  28.312  26.230  1.00  0.00     0.037 A 
BRANCH  27  41
ATOM     41  C   UNL A   1      46.564  33.673  29.329  1.00  0.00     0.064 A 
ATOM     42  C   UNL A   1      46.378  34.847  28.583  1.00  0.00     0.173 A 
ATOM     43  C   UNL A   1      47.451  33.712  30.413  1.00  0.00     0.173 A 
ATOM     44  F   UNL A   1      45.564  34.848  27.516  1.00  0.00    -0.203 F 
ATOM     45  C   UNL A   1      47.073  36.011  28.899  1.00  0.00     0.198 A 
ATOM     46  C   UNL A   1      48.130  34.882  30.737  1.00  0.00     0.198 A 
ATOM     47  F   UNL A   1      47.673  32.609  31.143  1.00  0.00    -0.203 F 
ATOM     48  F   UNL A   1      46.919  37.109  28.146  1.00  0.00    -0.200 F 
ATOM     49  C   UNL A   1      47.945  36.028  29.978  1.00  0.00     0.200 A 
ATOM     50  F   UNL A   1      48.977  34.897  31.776  1.00  0.00    -0.200 F 
ATOM     51  F   UNL A   1      48.621  37.146  30.275  1.00  0.00    -0.200 F 
ENDBRANCH  27  41
BRANCH  28  52
ATOM     52  C   UNL A   1      41.520  25.245  27.547  1.00  0.00     0.064 A 
ATOM     53  C   UNL A   1      40.375  25.340  26.750  1.00  0.00     0.173 A 
ATOM     54  C   UNL A   1      41.844  23.982  28.073  1.00  0.00     0.173 A 
ATOM     55  F   UNL A   1      40.008  26.527  26.246  1.00  0.00    -0.203 F 
ATOM     56  C   UNL A   1      39.570  24.224  26.509  1.00  0.00     0.198 A 
ATOM     57  C   UNL A   1      41.050  22.866  27.817  1.00  0.00     0.198 A 
ATOM     58  F   UNL A   1      42.930  23.833  28.847  1.00  0.00    -0.203 F 
ATOM     59  F   UNL A   1      38.449  24.355  25.786  1.00  0.00    -0.200 F 
ATOM     60  C   UNL A   1      39.908  22.989  27.042  1.00  0.00     0.200 A 
ATOM     61  F   UNL A   1      41.384  21.676  28.336  1.00  0.00    -0.200 F 
ATOM     62  F   UNL A   1      39.122  21.924  26.830  1.00  0.00    -0.200 F 
ENDBRANCH  28  52
BRANCH  40  63
ATOM     63  C   UNL A   1      47.625  27.758  25.318  1.00  0.00     0.064 A 
ATOM     64  C   UNL A   1      48.705  27.015  25.808  1.00  0.00     0.173 A 
ATOM     65  C   UNL A   1      47.531  27.963  23.933  1.00  0.00     0.173 A 
ATOM     66  F   UNL A   1      48.847  26.821  27.129  1.00  0.00    -0.203 F 
ATOM     67  C   UNL A   1      49.670  26.510  24.943  1.00  0.00     0.198 A 
ATOM     68  C   UNL A   1      48.481  27.431  23.069  1.00  0.00     0.198 A 
ATOM     69  F   UNL A   1      46.514  28.672  23.420  1.00  0.00    -0.203 F 
ATOM     70  F   UNL A   1      50.722  25.841  25.436  1.00  0.00    -0.200 F 
ATOM     71  C   UNL A   1      49.552  26.710  23.576  1.00  0.00     0.200 A 
ATOM     72  F   UNL A   1      48.362  27.618  21.749  1.00  0.00    -0.200 F 
ATOM     73  F   UNL A   1      50.479  26.215  22.745  1.00  0.00    -0.200 F 
ENDBRANCH  40  63
ENDBRANCH  14  15
ENDBRANCH   7   9
ENDBRANCH   6   7
ENDBRANCH   5   6
ENDBRANCH   4   5
ENDBRANCH   3   4
ENDBRANCH   2   3
ENDBRANCH   1   2
BRANCH   1  74
ATOM     74  O   UNL A   1      35.004  32.426  28.779  1.00  0.00    -0.376 OA
BRANCH  74  75
ATOM     75  C   UNL A   1      34.624  31.766  27.568  1.00  0.00     0.202 C 
BRANCH  75  76
ATOM     76  C   UNL A   1      33.882  30.420  27.654  1.00  0.00     0.261 C 
BRANCH  76  77
ATOM     77  O   UNL A   1      32.505  30.449  27.200  1.00  0.00    -0.459 OA
BRANCH  77  78
ATOM     78  C   UNL A   1      31.949  29.262  26.839  1.00  0.00     0.349 C 
ATOM     79  O   UNL A   1      31.738  28.352  27.621  1.00  0.00    -0.245 OA
BRANCH  78  80
ATOM     80  C   UNL A   1      31.552  29.217  25.441  1.00  0.00     0.133 A 
ATOM     81  S   UNL A   1      30.475  30.502  24.949  1.00  0.00    -0.136 S 
ATOM     82  C   UNL A   1      31.848  28.397  24.363  1.00  0.00     0.113 A 
ATOM     83  C   UNL A   1      30.432  29.970  23.335  1.00  0.00     0.067 A 
ATOM     84  C   UNL A   1      31.168  28.823  23.162  1.00  0.00     0.035 A 
BRANCH  82  85
ATOM     85  S   UNL A   1      32.960  27.068  24.338  1.00  0.00     0.263 S 
ATOM     86  O   UNL A   1      32.411  26.200  23.309  1.00  0.00    -0.201 OA
ATOM     87  O   UNL A   1      34.253  27.670  24.094  1.00  0.00    -0.201 OA
BRANCH  85  88
ATOM     88  N   UNL A   1      33.062  26.105  25.708  1.00  0.00    -0.277 N 
ATOM     89  H   UNL A   1      33.619  26.413  26.459  1.00  0.00     0.180 HD
BRANCH  88  90
ATOM     90  C   UNL A   1      32.374  24.851  25.834  1.00  0.00     0.072 A 
ATOM     91  C   UNL A   1      31.048  24.890  26.292  1.00  0.00     0.029 A 
ATOM     92  C   UNL A   1      33.016  23.609  25.608  1.00  0.00     0.061 A 
ATOM     93  C   UNL A   1      30.340  23.708  26.522  1.00  0.00     0.002 A 
ATOM     94  C   UNL A   1      32.254  22.441  25.802  1.00  0.00     0.028 A 
ATOM     95  C   UNL A   1      30.937  22.484  26.260  1.00  0.00     0.002 A 
BRANCH  92  96
ATOM     96  N   UNL A   1      34.364  23.484  25.297  1.00  0.00    -0.370 N 
ATOM     97  C   UNL A   1      34.888  23.914  23.999  1.00  0.00     0.116 C 
ATOM     98  C   UNL A   1      35.264  22.798  26.225  1.00  0.00     0.116 C 
ATOM     99  C   UNL A   1      35.665  22.816  23.297  1.00  0.00     0.021 C 
ATOM    100  C   UNL A   1      36.037  21.701  25.494  1.00  0.00     0.021 C 
ATOM    101  C   UNL A   1      36.715  22.239  24.239  1.00  0.00     0.004 C 
ENDBRANCH  92  96
ENDBRANCH  88  90
ENDBRANCH  85  88
ENDBRANCH  82  85
ENDBRANCH  78  80
ENDBRANCH  77  78
ENDBRANCH  76  77
ENDBRANCH  75  76
ENDBRANCH  74  75
ENDBRANCH   1  74
TORSDOF 21
ENDMDL
