MODEL 1
REMARK VINA RESULT:     -10.2      0.000      0.000
REMARK SMILES O=C(CCNC(=O)c1cc(S(=O)(=O)N2CCCCC2)cs1)OCCOCCOCCOC(=O)c1ccc(-c2c3nc(c(-c4c(F)c(F)c(F)c(F)c4F)c4ccc([nH]4)c(-c4c(F)c(F)c(F)c(F)c4F)c4nc(c(-c5c(F)c(F)c(F)c(F)c5F)c5ccc2[nH]5)C=C4)C=C3)cc1
REMARK SMILES IDX 25 1 24 2 23 3 22 4 2 5 1 6 3 7 4 8 5 9 6 10 7 12 8 13 9 14
REMARK SMILES IDX 21 15 10 16 20 17 11 18 12 19 13 20 14 21 15 22 19 23 16 24
REMARK SMILES IDX 18 25 17 26 26 27 27 28 28 29 29 30 30 31 31 32 32 33 33 34
REMARK SMILES IDX 34 35 35 36 96 37 36 38 95 39 37 40 38 41 39 42 89 43 40 44
REMARK SMILES IDX 94 45 88 46 90 47 41 48 93 49 87 50 86 51 42 53 74 54 54 55
REMARK SMILES IDX 73 56 55 57 58 58 72 59 91 60 56 61 57 62 71 64 92 65 59 66
REMARK SMILES IDX 43 67 44 68 52 69 45 70 46 71 50 72 53 73 47 74 48 75 51 76
REMARK SMILES IDX 49 77 75 78 76 79 84 80 77 81 78 82 82 83 85 84 79 85 80 86
REMARK SMILES IDX 83 87 81 88 60 89 61 90 69 91 62 92 63 93 67 94 70 95 64 96
REMARK SMILES IDX 65 97 68 98 66 99
REMARK H PARENT 5 11 90 52 58 63
REMARK Flexibility Score: inf
ROOT
ATOM      1  O   UNL A   1      35.489  23.715  23.719  1.00  0.00    -0.376 OA
ENDROOT
BRANCH   1   2
ATOM      2  C   UNL A   1      34.181  24.255  23.539  1.00  0.00     0.202 C 
BRANCH   2   3
ATOM      3  C   UNL A   1      33.752  25.514  24.295  1.00  0.00     0.261 C 
BRANCH   3   4
ATOM      4  O   UNL A   1      32.591  26.288  23.867  1.00  0.00    -0.463 OA
BRANCH   4   5
ATOM      5  C   UNL A   1      31.363  25.977  23.423  1.00  0.00     0.307 C 
ATOM      6  O   UNL A   1      31.040  26.250  22.268  1.00  0.00    -0.252 OA
BRANCH   5   7
ATOM      7  C   UNL A   1      30.391  25.270  24.310  1.00  0.00     0.144 C 
BRANCH   7   8
ATOM      8  C   UNL A   1      30.788  25.387  25.769  1.00  0.00     0.128 C 
BRANCH   8   9
ATOM      9  N   UNL A   1      30.032  24.530  26.673  1.00  0.00    -0.351 N 
ATOM     10  C   UNL A   1      30.177  23.194  26.993  1.00  0.00     0.261 C 
ATOM     11  H   UNL A   1      29.292  24.981  27.138  1.00  0.00     0.163 HD
ATOM     12  O   UNL A   1      29.215  22.648  27.530  1.00  0.00    -0.268 OA
BRANCH  10  13
ATOM     13  C   UNL A   1      31.422  22.526  26.673  1.00  0.00     0.093 A 
ATOM     14  C   UNL A   1      31.764  21.889  25.500  1.00  0.00     0.047 A 
ATOM     15  S   UNL A   1      32.732  22.515  27.772  1.00  0.00    -0.137 S 
ATOM     16  C   UNL A   1      33.007  21.207  25.574  1.00  0.00     0.094 A 
ATOM     17  C   UNL A   1      33.674  21.510  26.742  1.00  0.00     0.087 A 
BRANCH  16  18
ATOM     18  S   UNL A   1      33.602  20.118  24.350  1.00  0.00     0.243 S 
ATOM     19  O   UNL A   1      32.594  20.184  23.320  1.00  0.00    -0.207 OA
ATOM     20  O   UNL A   1      34.962  20.572  24.148  1.00  0.00    -0.207 OA
BRANCH  18  21
ATOM     21  N   UNL A   1      33.663  18.520  24.985  1.00  0.00    -0.198 NA
ATOM     22  C   UNL A   1      32.336  17.882  25.157  1.00  0.00     0.102 C 
ATOM     23  C   UNL A   1      34.813  17.699  24.528  1.00  0.00     0.102 C 
ATOM     24  C   UNL A   1      32.418  16.462  25.692  1.00  0.00     0.017 C 
ATOM     25  C   UNL A   1      34.775  16.251  25.000  1.00  0.00     0.017 C 
ATOM     26  C   UNL A   1      33.395  15.631  24.882  1.00  0.00     0.003 C 
ENDBRANCH  18  21
ENDBRANCH  16  18
ENDBRANCH  10  13
ENDBRANCH   8   9
ENDBRANCH   7   8
ENDBRANCH   5   7
ENDBRANCH   4   5
ENDBRANCH   3   4
ENDBRANCH   2   3
ENDBRANCH   1   2
BRANCH   1  27
ATOM     27  C   UNL A   1      36.088  23.728  25.001  1.00  0.00     0.188 C 
BRANCH  27  28
ATOM     28  C   UNL A   1      37.424  22.981  25.100  1.00  0.00     0.188 C 
BRANCH  28  29
ATOM     29  O   UNL A   1      38.339  23.409  26.095  1.00  0.00    -0.376 OA
BRANCH  29  30
ATOM     30  C   UNL A   1      39.288  22.460  26.587  1.00  0.00     0.202 C 
BRANCH  30  31
ATOM     31  C   UNL A   1      39.415  21.097  25.886  1.00  0.00     0.261 C 
BRANCH  31  32
ATOM     32  O   UNL A   1      40.086  20.092  26.680  1.00  0.00    -0.460 OA
BRANCH  32  33
ATOM     33  C   UNL A   1      41.356  19.816  26.304  1.00  0.00     0.338 C 
ATOM     34  O   UNL A   1      41.743  18.858  25.654  1.00  0.00    -0.246 OA
BRANCH  33  35
ATOM     35  C   UNL A   1      42.273  20.917  26.652  1.00  0.00     0.060 A 
ATOM     36  C   UNL A   1      42.319  21.334  27.988  1.00  0.00     0.016 A 
ATOM     37  C   UNL A   1      42.904  21.666  25.656  1.00  0.00     0.016 A 
ATOM     38  C   UNL A   1      42.949  22.531  28.326  1.00  0.00     0.010 A 
ATOM     39  C   UNL A   1      43.527  22.876  25.997  1.00  0.00     0.010 A 
ATOM     40  C   UNL A   1      43.511  23.337  27.326  1.00  0.00    -0.014 A 
BRANCH  40  41
ATOM     41  C   UNL A   1      43.912  24.728  27.665  1.00  0.00     0.031 A 
ATOM     42  C   UNL A   1      42.844  25.747  27.972  1.00  0.00     0.074 A 
ATOM     43  C   UNL A   1      45.208  25.070  27.775  1.00  0.00     0.049 A 
ATOM     44  N   UNL A   1      42.969  26.996  28.347  1.00  0.00    -0.248 NA
ATOM     45  C   UNL A   1      41.450  25.296  27.840  1.00  0.00     0.031 C 
ATOM     46  C   UNL A   1      46.338  24.177  27.530  1.00  0.00     0.029 A 
ATOM     47  N   UNL A   1      45.789  26.264  28.123  1.00  0.00    -0.354 N 
ATOM     48  C   UNL A   1      41.674  27.472  28.512  1.00  0.00     0.074 A 
ATOM     49  C   UNL A   1      40.778  26.393  28.154  1.00  0.00     0.031 C 
ATOM     50  C   UNL A   1      47.479  24.858  27.728  1.00  0.00     0.029 A 
ATOM     51  C   UNL A   1      47.161  26.237  28.099  1.00  0.00     0.049 A 
ATOM     52  H   UNL A   1      45.270  27.064  28.369  1.00  0.00     0.167 HD
ATOM     53  C   UNL A   1      41.266  28.691  28.942  1.00  0.00     0.037 A 
ATOM     54  C   UNL A   1      48.056  27.215  28.339  1.00  0.00     0.037 A 
ATOM     55  C   UNL A   1      42.148  29.775  29.287  1.00  0.00     0.049 A 
ATOM     56  C   UNL A   1      47.575  28.580  28.760  1.00  0.00     0.074 A 
ATOM     57  C   UNL A   1      41.824  31.048  29.727  1.00  0.00     0.029 A 
ATOM     58  N   UNL A   1      43.532  29.716  29.224  1.00  0.00    -0.354 N 
ATOM     59  N   UNL A   1      46.350  29.008  28.946  1.00  0.00    -0.248 NA
ATOM     60  C   UNL A   1      48.607  29.594  29.020  1.00  0.00     0.031 C 
ATOM     61  C   UNL A   1      43.011  31.771  29.892  1.00  0.00     0.029 A 
ATOM     62  C   UNL A   1      44.075  30.934  29.602  1.00  0.00     0.049 A 
ATOM     63  H   UNL A   1      44.051  28.925  28.952  1.00  0.00     0.167 HD
ATOM     64  C   UNL A   1      46.465  30.328  29.363  1.00  0.00     0.074 A 
ATOM     65  C   UNL A   1      47.880  30.624  29.429  1.00  0.00     0.031 C 
ATOM     66  C   UNL A   1      45.486  31.218  29.662  1.00  0.00     0.037 A 
BRANCH  53  67
ATOM     67  C   UNL A   1      39.787  28.922  29.058  1.00  0.00     0.064 A 
ATOM     68  C   UNL A   1      39.120  28.790  30.285  1.00  0.00     0.173 A 
ATOM     69  C   UNL A   1      39.036  29.321  27.942  1.00  0.00     0.173 A 
ATOM     70  F   UNL A   1      39.792  28.398  31.379  1.00  0.00    -0.203 F 
ATOM     71  C   UNL A   1      37.752  29.028  30.387  1.00  0.00     0.198 A 
ATOM     72  C   UNL A   1      37.673  29.584  28.053  1.00  0.00     0.198 A 
ATOM     73  F   UNL A   1      39.627  29.467  26.747  1.00  0.00    -0.203 F 
ATOM     74  F   UNL A   1      37.129  28.857  31.561  1.00  0.00    -0.200 F 
ATOM     75  C   UNL A   1      37.031  29.432  29.274  1.00  0.00     0.200 A 
ATOM     76  F   UNL A   1      36.980  29.986  26.979  1.00  0.00    -0.200 F 
ATOM     77  F   UNL A   1      35.716  29.669  29.374  1.00  0.00    -0.200 F 
ENDBRANCH  53  67
BRANCH  54  78
ATOM     78  C   UNL A   1      49.509  26.944  28.183  1.00  0.00     0.064 A 
ATOM     79  C   UNL A   1      50.296  26.543  29.271  1.00  0.00     0.173 A 
ATOM     80  C   UNL A   1      50.145  27.113  26.944  1.00  0.00     0.173 A 
ATOM     81  F   UNL A   1      49.738  26.391  30.481  1.00  0.00    -0.203 F 
ATOM     82  C   UNL A   1      51.668  26.343  29.132  1.00  0.00     0.198 A 
ATOM     83  C   UNL A   1      51.512  26.885  26.799  1.00  0.00     0.198 A 
ATOM     84  F   UNL A   1      49.436  27.496  25.873  1.00  0.00    -0.203 F 
ATOM     85  F   UNL A   1      52.406  26.007  30.199  1.00  0.00    -0.200 F 
ATOM     86  C   UNL A   1      52.274  26.508  27.895  1.00  0.00     0.200 A 
ATOM     87  F   UNL A   1      52.089  27.031  25.600  1.00  0.00    -0.200 F 
ATOM     88  F   UNL A   1      53.592  26.312  27.761  1.00  0.00    -0.200 F 
ENDBRANCH  54  78
BRANCH  66  89
ATOM     89  C   UNL A   1      45.915  32.587  30.110  1.00  0.00     0.064 A 
ATOM     90  C   UNL A   1      46.146  32.881  31.463  1.00  0.00     0.173 A 
ATOM     91  C   UNL A   1      46.112  33.614  29.174  1.00  0.00     0.173 A 
ATOM     92  F   UNL A   1      45.959  31.938  32.399  1.00  0.00    -0.203 F 
ATOM     93  C   UNL A   1      46.521  34.161  31.865  1.00  0.00     0.198 A 
ATOM     94  C   UNL A   1      46.517  34.884  29.576  1.00  0.00     0.198 A 
ATOM     95  F   UNL A   1      45.913  33.386  27.868  1.00  0.00    -0.203 F 
ATOM     96  F   UNL A   1      46.679  34.432  33.168  1.00  0.00    -0.200 F 
ATOM     97  C   UNL A   1      46.711  35.159  30.921  1.00  0.00     0.200 A 
ATOM     98  F   UNL A   1      46.711  35.845  28.662  1.00  0.00    -0.200 F 
ATOM     99  F   UNL A   1      47.069  36.391  31.310  1.00  0.00    -0.200 F 
ENDBRANCH  66  89
ENDBRANCH  40  41
ENDBRANCH  33  35
ENDBRANCH  32  33
ENDBRANCH  31  32
ENDBRANCH  30  31
ENDBRANCH  29  30
ENDBRANCH  28  29
ENDBRANCH  27  28
ENDBRANCH   1  27
TORSDOF 22
ENDMDL
MODEL 2
REMARK VINA RESULT:      -9.9      2.412      5.059
REMARK SMILES O=C(CCNC(=O)c1cc(S(=O)(=O)N2CCCCC2)cs1)OCCOCCOCCOC(=O)c1ccc(-c2c3nc(c(-c4c(F)c(F)c(F)c(F)c4F)c4ccc([nH]4)c(-c4c(F)c(F)c(F)c(F)c4F)c4nc(c(-c5c(F)c(F)c(F)c(F)c5F)c5ccc2[nH]5)C=C4)C=C3)cc1
REMARK SMILES IDX 25 1 24 2 23 3 22 4 2 5 1 6 3 7 4 8 5 9 6 10 7 12 8 13 9 14
REMARK SMILES IDX 21 15 10 16 20 17 11 18 12 19 13 20 14 21 15 22 19 23 16 24
REMARK SMILES IDX 18 25 17 26 26 27 27 28 28 29 29 30 30 31 31 32 32 33 33 34
REMARK SMILES IDX 34 35 35 36 96 37 36 38 95 39 37 40 38 41 39 42 89 43 40 44
REMARK SMILES IDX 94 45 88 46 90 47 41 48 93 49 87 50 86 51 42 53 74 54 54 55
REMARK SMILES IDX 73 56 55 57 58 58 72 59 91 60 56 61 57 62 71 64 92 65 59 66
REMARK SMILES IDX 43 67 44 68 52 69 45 70 46 71 50 72 53 73 47 74 48 75 51 76
REMARK SMILES IDX 49 77 75 78 76 79 84 80 77 81 78 82 82 83 85 84 79 85 80 86
REMARK SMILES IDX 83 87 81 88 60 89 61 90 69 91 62 92 63 93 67 94 70 95 64 96
REMARK SMILES IDX 65 97 68 98 66 99
REMARK H PARENT 5 11 90 52 58 63
REMARK Flexibility Score: inf
ROOT
ATOM      1  O   UNL A   1      34.797  21.991  23.932  1.00  0.00    -0.376 OA
ENDROOT
BRANCH   1   2
ATOM      2  C   UNL A   1      33.622  22.493  24.566  1.00  0.00     0.202 C 
BRANCH   2   3
ATOM      3  C   UNL A   1      33.694  23.731  25.462  1.00  0.00     0.261 C 
BRANCH   3   4
ATOM      4  O   UNL A   1      32.563  24.646  25.572  1.00  0.00    -0.463 OA
BRANCH   4   5
ATOM      5  C   UNL A   1      31.236  24.493  25.714  1.00  0.00     0.307 C 
ATOM      6  O   UNL A   1      30.772  24.123  26.791  1.00  0.00    -0.252 OA
BRANCH   5   7
ATOM      7  C   UNL A   1      30.312  24.799  24.582  1.00  0.00     0.144 C 
BRANCH   7   8
ATOM      8  C   UNL A   1      31.070  24.977  23.281  1.00  0.00     0.128 C 
BRANCH   8   9
ATOM      9  N   UNL A   1      30.635  26.111  22.475  1.00  0.00    -0.351 N 
ATOM     10  C   UNL A   1      30.815  27.471  22.646  1.00  0.00     0.261 C 
ATOM     11  H   UNL A   1      30.127  25.866  21.669  1.00  0.00     0.163 HD
ATOM     12  O   UNL A   1      30.074  28.209  22.001  1.00  0.00    -0.268 OA
BRANCH  10  13
ATOM     13  C   UNL A   1      31.835  27.934  23.564  1.00  0.00     0.093 A 
ATOM     14  C   UNL A   1      31.717  28.158  24.919  1.00  0.00     0.047 A 
ATOM     15  S   UNL A   1      33.441  28.207  23.044  1.00  0.00    -0.137 S 
ATOM     16  C   UNL A   1      32.870  28.756  25.491  1.00  0.00     0.094 A 
ATOM     17  C   UNL A   1      33.914  28.789  24.591  1.00  0.00     0.087 A 
BRANCH  16  18
ATOM     18  S   UNL A   1      32.947  29.379  27.117  1.00  0.00     0.243 S 
ATOM     19  O   UNL A   1      31.648  29.065  27.661  1.00  0.00    -0.207 OA
ATOM     20  O   UNL A   1      34.172  28.800  27.627  1.00  0.00    -0.207 OA
BRANCH  18  21
ATOM     21  N   UNL A   1      33.145  31.087  27.068  1.00  0.00    -0.198 NA
ATOM     22  C   UNL A   1      31.882  31.842  26.887  1.00  0.00     0.102 C 
ATOM     23  C   UNL A   1      34.196  31.631  27.966  1.00  0.00     0.102 C 
ATOM     24  C   UNL A   1      32.080  33.349  26.876  1.00  0.00     0.017 C 
ATOM     25  C   UNL A   1      34.265  33.152  28.000  1.00  0.00     0.017 C 
ATOM     26  C   UNL A   1      32.894  33.799  28.073  1.00  0.00     0.003 C 
ENDBRANCH  18  21
ENDBRANCH  16  18
ENDBRANCH  10  13
ENDBRANCH   8   9
ENDBRANCH   7   8
ENDBRANCH   5   7
ENDBRANCH   4   5
ENDBRANCH   3   4
ENDBRANCH   2   3
ENDBRANCH   1   2
BRANCH   1  27
ATOM     27  C   UNL A   1      35.845  21.450  24.713  1.00  0.00     0.188 C 
BRANCH  27  28
ATOM     28  C   UNL A   1      37.252  21.925  24.329  1.00  0.00     0.188 C 
BRANCH  28  29
ATOM     29  O   UNL A   1      37.975  22.672  25.293  1.00  0.00    -0.376 OA
BRANCH  29  30
ATOM     30  C   UNL A   1      38.897  21.971  26.131  1.00  0.00     0.202 C 
BRANCH  30  31
ATOM     31  C   UNL A   1      39.342  20.554  25.733  1.00  0.00     0.261 C 
BRANCH  31  32
ATOM     32  O   UNL A   1      40.160  19.897  26.726  1.00  0.00    -0.460 OA
BRANCH  32  33
ATOM     33  C   UNL A   1      41.412  19.578  26.322  1.00  0.00     0.338 C 
ATOM     34  O   UNL A   1      41.766  18.559  25.751  1.00  0.00    -0.246 OA
BRANCH  33  35
ATOM     35  C   UNL A   1      42.345  20.702  26.519  1.00  0.00     0.060 A 
ATOM     36  C   UNL A   1      42.393  21.300  27.785  1.00  0.00     0.016 A 
ATOM     37  C   UNL A   1      42.993  21.295  25.433  1.00  0.00     0.016 A 
ATOM     38  C   UNL A   1      43.041  22.523  27.956  1.00  0.00     0.010 A 
ATOM     39  C   UNL A   1      43.634  22.531  25.606  1.00  0.00     0.010 A 
ATOM     40  C   UNL A   1      43.621  23.173  26.858  1.00  0.00    -0.014 A 
BRANCH  40  41
ATOM     41  C   UNL A   1      44.043  24.591  27.003  1.00  0.00     0.031 A 
ATOM     42  C   UNL A   1      43.032  25.618  27.445  1.00  0.00     0.074 A 
ATOM     43  C   UNL A   1      45.324  24.956  26.817  1.00  0.00     0.049 A 
ATOM     44  N   UNL A   1      43.196  26.894  27.693  1.00  0.00    -0.248 NA
ATOM     45  C   UNL A   1      41.654  25.141  27.638  1.00  0.00     0.031 C 
ATOM     46  C   UNL A   1      46.405  24.060  26.412  1.00  0.00     0.029 A 
ATOM     47  N   UNL A   1      45.931  26.180  26.949  1.00  0.00    -0.354 N 
ATOM     48  C   UNL A   1      41.950  27.366  28.086  1.00  0.00     0.074 A 
ATOM     49  C   UNL A   1      41.030  26.251  28.001  1.00  0.00     0.031 C 
ATOM     50  C   UNL A   1      47.543  24.769  26.320  1.00  0.00     0.029 A 
ATOM     51  C   UNL A   1      47.269  26.168  26.644  1.00  0.00     0.049 A 
ATOM     52  H   UNL A   1      45.450  26.991  27.236  1.00  0.00     0.167 HD
ATOM     53  C   UNL A   1      41.603  28.610  28.498  1.00  0.00     0.037 A 
ATOM     54  C   UNL A   1      48.166  27.173  26.622  1.00  0.00     0.037 A 
ATOM     55  C   UNL A   1      42.507  29.728  28.573  1.00  0.00     0.049 A 
ATOM     56  C   UNL A   1      47.743  28.561  27.030  1.00  0.00     0.074 A 
ATOM     57  C   UNL A   1      42.244  31.027  28.973  1.00  0.00     0.029 A 
ATOM     58  N   UNL A   1      43.850  29.681  28.230  1.00  0.00    -0.354 N 
ATOM     59  N   UNL A   1      46.570  28.988  27.432  1.00  0.00    -0.248 NA
ATOM     60  C   UNL A   1      48.778  29.605  26.996  1.00  0.00     0.031 C 
ATOM     61  C   UNL A   1      43.419  31.776  28.836  1.00  0.00     0.029 A 
ATOM     62  C   UNL A   1      44.425  30.932  28.396  1.00  0.00     0.049 A 
ATOM     63  H   UNL A   1      44.325  28.877  27.917  1.00  0.00     0.167 HD
ATOM     64  C   UNL A   1      46.731  30.338  27.717  1.00  0.00     0.074 A 
ATOM     65  C   UNL A   1      48.121  30.655  27.468  1.00  0.00     0.031 C 
ATOM     66  C   UNL A   1      45.809  31.236  28.144  1.00  0.00     0.037 A 
BRANCH  53  67
ATOM     67  C   UNL A   1      40.174  28.831  28.898  1.00  0.00     0.064 A 
ATOM     68  C   UNL A   1      39.195  29.177  27.954  1.00  0.00     0.173 A 
ATOM     69  C   UNL A   1      39.768  28.653  30.229  1.00  0.00     0.173 A 
ATOM     70  F   UNL A   1      39.535  29.370  26.670  1.00  0.00    -0.203 F 
ATOM     71  C   UNL A   1      37.867  29.358  28.331  1.00  0.00     0.198 A 
ATOM     72  C   UNL A   1      38.434  28.809  30.598  1.00  0.00     0.198 A 
ATOM     73  F   UNL A   1      40.663  28.317  31.170  1.00  0.00    -0.203 F 
ATOM     74  F   UNL A   1      36.957  29.727  27.419  1.00  0.00    -0.200 F 
ATOM     75  C   UNL A   1      37.486  29.167  29.651  1.00  0.00     0.200 A 
ATOM     76  F   UNL A   1      38.066  28.612  31.872  1.00  0.00    -0.200 F 
ATOM     77  F   UNL A   1      36.207  29.332  30.012  1.00  0.00    -0.200 F 
ENDBRANCH  53  67
BRANCH  54  78
ATOM     78  C   UNL A   1      49.564  26.909  26.191  1.00  0.00     0.064 A 
ATOM     79  C   UNL A   1      50.574  26.635  27.123  1.00  0.00     0.173 A 
ATOM     80  C   UNL A   1      49.922  26.957  24.835  1.00  0.00     0.173 A 
ATOM     81  F   UNL A   1      50.286  26.602  28.432  1.00  0.00    -0.203 F 
ATOM     82  C   UNL A   1      51.893  26.441  26.718  1.00  0.00     0.198 A 
ATOM     83  C   UNL A   1      51.235  26.734  24.429  1.00  0.00     0.198 A 
ATOM     84  F   UNL A   1      48.991  27.215  23.905  1.00  0.00    -0.203 F 
ATOM     85  F   UNL A   1      52.849  26.229  27.634  1.00  0.00    -0.200 F 
ATOM     86  C   UNL A   1      52.222  26.485  25.371  1.00  0.00     0.200 A 
ATOM     87  F   UNL A   1      51.545  26.762  23.126  1.00  0.00    -0.200 F 
ATOM     88  F   UNL A   1      53.490  26.295  24.983  1.00  0.00    -0.200 F 
ENDBRANCH  54  78
BRANCH  66  89
ATOM     89  C   UNL A   1      46.282  32.642  28.391  1.00  0.00     0.064 A 
ATOM     90  C   UNL A   1      46.768  33.046  29.644  1.00  0.00     0.173 A 
ATOM     91  C   UNL A   1      46.263  33.591  27.357  1.00  0.00     0.173 A 
ATOM     92  F   UNL A   1      46.794  32.180  30.668  1.00  0.00    -0.203 F 
ATOM     93  C   UNL A   1      47.182  34.358  29.863  1.00  0.00     0.198 A 
ATOM     94  C   UNL A   1      46.706  34.894  27.572  1.00  0.00     0.198 A 
ATOM     95  F   UNL A   1      45.817  33.256  26.138  1.00  0.00    -0.203 F 
ATOM     96  F   UNL A   1      47.586  34.735  31.084  1.00  0.00    -0.200 F 
ATOM     97  C   UNL A   1      47.155  35.279  28.827  1.00  0.00     0.200 A 
ATOM     98  F   UNL A   1      46.691  35.780  26.567  1.00  0.00    -0.200 F 
ATOM     99  F   UNL A   1      47.550  36.542  29.040  1.00  0.00    -0.200 F 
ENDBRANCH  66  89
ENDBRANCH  40  41
ENDBRANCH  33  35
ENDBRANCH  32  33
ENDBRANCH  31  32
ENDBRANCH  30  31
ENDBRANCH  29  30
ENDBRANCH  28  29
ENDBRANCH  27  28
ENDBRANCH   1  27
TORSDOF 22
ENDMDL
MODEL 3
REMARK VINA RESULT:      -9.5      4.138      8.229
REMARK SMILES O=C(CCNC(=O)c1cc(S(=O)(=O)N2CCCCC2)cs1)OCCOCCOCCOC(=O)c1ccc(-c2c3nc(c(-c4c(F)c(F)c(F)c(F)c4F)c4ccc([nH]4)c(-c4c(F)c(F)c(F)c(F)c4F)c4nc(c(-c5c(F)c(F)c(F)c(F)c5F)c5ccc2[nH]5)C=C4)C=C3)cc1
REMARK SMILES IDX 25 1 24 2 23 3 22 4 2 5 1 6 3 7 4 8 5 9 6 10 7 12 8 13 9 14
REMARK SMILES IDX 21 15 10 16 20 17 11 18 12 19 13 20 14 21 15 22 19 23 16 24
REMARK SMILES IDX 18 25 17 26 26 27 27 28 28 29 29 30 30 31 31 32 32 33 33 34
REMARK SMILES IDX 34 35 35 36 96 37 36 38 95 39 37 40 38 41 39 42 89 43 40 44
REMARK SMILES IDX 94 45 88 46 90 47 41 48 93 49 87 50 86 51 42 53 74 54 54 55
REMARK SMILES IDX 73 56 55 57 58 58 72 59 91 60 56 61 57 62 71 64 92 65 59 66
REMARK SMILES IDX 43 67 44 68 52 69 45 70 46 71 50 72 53 73 47 74 48 75 51 76
REMARK SMILES IDX 49 77 75 78 76 79 84 80 77 81 78 82 82 83 85 84 79 85 80 86
REMARK SMILES IDX 83 87 81 88 60 89 61 90 69 91 62 92 63 93 67 94 70 95 64 96
REMARK SMILES IDX 65 97 68 98 66 99
REMARK H PARENT 5 11 90 52 58 63
REMARK Flexibility Score: inf
ROOT
ATOM      1  O   UNL A   1      33.082  29.381  24.374  1.00  0.00    -0.376 OA
ENDROOT
BRANCH   1   2
ATOM      2  C   UNL A   1      32.807  28.790  23.105  1.00  0.00     0.202 C 
BRANCH   2   3
ATOM      3  C   UNL A   1      31.560  29.195  22.316  1.00  0.00     0.261 C 
BRANCH   3   4
ATOM      4  O   UNL A   1      30.422  28.291  22.193  1.00  0.00    -0.463 OA
BRANCH   4   5
ATOM      5  C   UNL A   1      29.491  27.827  23.042  1.00  0.00     0.307 C 
ATOM      6  O   UNL A   1      28.329  28.223  22.956  1.00  0.00    -0.252 OA
BRANCH   5   7
ATOM      7  C   UNL A   1      29.844  26.807  24.072  1.00  0.00     0.144 C 
BRANCH   7   8
ATOM      8  C   UNL A   1      30.246  25.491  23.433  1.00  0.00     0.128 C 
BRANCH   8   9
ATOM      9  N   UNL A   1      31.245  25.608  22.380  1.00  0.00    -0.351 N 
ATOM     10  C   UNL A   1      32.489  25.023  22.237  1.00  0.00     0.261 C 
ATOM     11  H   UNL A   1      30.990  26.206  21.641  1.00  0.00     0.163 HD
ATOM     12  O   UNL A   1      33.252  25.541  21.424  1.00  0.00    -0.268 OA
BRANCH  10  13
ATOM     13  C   UNL A   1      32.818  23.866  23.045  1.00  0.00     0.093 A 
ATOM     14  C   UNL A   1      33.405  23.843  24.291  1.00  0.00     0.047 A 
ATOM     15  S   UNL A   1      32.418  22.284  22.535  1.00  0.00    -0.137 S 
ATOM     16  C   UNL A   1      33.725  22.533  24.736  1.00  0.00     0.094 A 
ATOM     17  C   UNL A   1      33.191  21.577  23.898  1.00  0.00     0.087 A 
BRANCH  16  18
ATOM     18  S   UNL A   1      34.683  22.186  26.150  1.00  0.00     0.243 S 
ATOM     19  O   UNL A   1      34.187  23.118  27.133  1.00  0.00    -0.207 OA
ATOM     20  O   UNL A   1      34.544  20.751  26.289  1.00  0.00    -0.207 OA
BRANCH  18  21
ATOM     21  N   UNL A   1      36.337  22.531  25.822  1.00  0.00    -0.198 NA
ATOM     22  C   UNL A   1      36.844  23.757  26.482  1.00  0.00     0.102 C 
ATOM     23  C   UNL A   1      37.223  21.345  25.707  1.00  0.00     0.102 C 
ATOM     24  C   UNL A   1      38.314  24.025  26.200  1.00  0.00     0.017 C 
ATOM     25  C   UNL A   1      38.700  21.680  25.546  1.00  0.00     0.017 C 
ATOM     26  C   UNL A   1      39.154  22.792  26.474  1.00  0.00     0.003 C 
ENDBRANCH  18  21
ENDBRANCH  16  18
ENDBRANCH  10  13
ENDBRANCH   8   9
ENDBRANCH   7   8
ENDBRANCH   5   7
ENDBRANCH   4   5
ENDBRANCH   3   4
ENDBRANCH   2   3
ENDBRANCH   1   2
BRANCH   1  27
ATOM     27  C   UNL A   1      32.107  29.339  25.399  1.00  0.00     0.188 C 
BRANCH  27  28
ATOM     28  C   UNL A   1      31.488  30.695  25.760  1.00  0.00     0.188 C 
BRANCH  28  29
ATOM     29  O   UNL A   1      32.048  31.397  26.858  1.00  0.00    -0.376 OA
BRANCH  29  30
ATOM     30  C   UNL A   1      33.125  30.782  27.567  1.00  0.00     0.202 C 
BRANCH  30  31
ATOM     31  C   UNL A   1      34.506  31.457  27.565  1.00  0.00     0.261 C 
BRANCH  31  32
ATOM     32  O   UNL A   1      34.626  32.545  28.509  1.00  0.00    -0.460 OA
BRANCH  32  33
ATOM     33  C   UNL A   1      35.071  32.194  29.738  1.00  0.00     0.338 C 
ATOM     34  O   UNL A   1      34.524  32.401  30.809  1.00  0.00    -0.246 OA
BRANCH  33  35
ATOM     35  C   UNL A   1      36.286  31.363  29.654  1.00  0.00     0.060 A 
ATOM     36  C   UNL A   1      36.344  30.205  30.439  1.00  0.00     0.016 A 
ATOM     37  C   UNL A   1      37.426  31.825  28.991  1.00  0.00     0.016 A 
ATOM     38  C   UNL A   1      37.556  29.536  30.610  1.00  0.00     0.010 A 
ATOM     39  C   UNL A   1      38.645  31.157  29.174  1.00  0.00     0.010 A 
ATOM     40  C   UNL A   1      38.726  30.037  30.022  1.00  0.00    -0.014 A 
BRANCH  40  41
ATOM     41  C   UNL A   1      40.038  29.485  30.450  1.00  0.00     0.031 A 
ATOM     42  C   UNL A   1      40.735  30.087  31.644  1.00  0.00     0.074 A 
ATOM     43  C   UNL A   1      40.575  28.416  29.836  1.00  0.00     0.049 A 
ATOM     44  N   UNL A   1      41.853  29.726  32.225  1.00  0.00    -0.248 NA
ATOM     45  C   UNL A   1      40.081  31.247  32.268  1.00  0.00     0.031 C 
ATOM     46  C   UNL A   1      39.995  27.725  28.687  1.00  0.00     0.029 A 
ATOM     47  N   UNL A   1      41.731  27.724  30.099  1.00  0.00    -0.354 N 
ATOM     48  C   UNL A   1      42.026  30.602  33.289  1.00  0.00     0.074 A 
ATOM     49  C   UNL A   1      40.923  31.539  33.249  1.00  0.00     0.031 C 
ATOM     50  C   UNL A   1      40.804  26.711  28.337  1.00  0.00     0.029 A 
ATOM     51  C   UNL A   1      41.964  26.690  29.227  1.00  0.00     0.049 A 
ATOM     52  H   UNL A   1      42.336  27.949  30.844  1.00  0.00     0.167 HD
ATOM     53  C   UNL A   1      43.003  30.615  34.228  1.00  0.00     0.037 A 
ATOM     54  C   UNL A   1      43.000  25.832  29.152  1.00  0.00     0.037 A 
ATOM     55  C   UNL A   1      44.111  29.697  34.269  1.00  0.00     0.049 A 
ATOM     56  C   UNL A   1      44.105  25.903  30.174  1.00  0.00     0.074 A 
ATOM     57  C   UNL A   1      45.153  29.638  35.179  1.00  0.00     0.029 A 
ATOM     58  N   UNL A   1      44.325  28.679  33.352  1.00  0.00    -0.354 N 
ATOM     59  N   UNL A   1      44.241  26.713  31.196  1.00  0.00    -0.248 NA
ATOM     60  C   UNL A   1      45.196  24.925  30.040  1.00  0.00     0.031 C 
ATOM     61  C   UNL A   1      46.018  28.609  34.791  1.00  0.00     0.029 A 
ATOM     62  C   UNL A   1      45.491  27.997  33.667  1.00  0.00     0.049 A 
ATOM     63  H   UNL A   1      43.736  28.471  32.591  1.00  0.00     0.167 HD
ATOM     64  C   UNL A   1      45.414  26.331  31.835  1.00  0.00     0.074 A 
ATOM     65  C   UNL A   1      45.940  25.200  31.102  1.00  0.00     0.031 C 
ATOM     66  C   UNL A   1      46.005  26.872  32.929  1.00  0.00     0.037 A 
BRANCH  53  67
ATOM     67  C   UNL A   1      42.921  31.669  35.294  1.00  0.00     0.064 A 
ATOM     68  C   UNL A   1      43.466  32.948  35.102  1.00  0.00     0.173 A 
ATOM     69  C   UNL A   1      42.255  31.413  36.502  1.00  0.00     0.173 A 
ATOM     70  F   UNL A   1      44.124  33.237  33.968  1.00  0.00    -0.203 F 
ATOM     71  C   UNL A   1      43.365  33.925  36.088  1.00  0.00     0.198 A 
ATOM     72  C   UNL A   1      42.133  32.402  37.475  1.00  0.00     0.198 A 
ATOM     73  F   UNL A   1      41.712  30.209  36.733  1.00  0.00    -0.203 F 
ATOM     74  F   UNL A   1      43.927  35.127  35.898  1.00  0.00    -0.200 F 
ATOM     75  C   UNL A   1      42.693  33.655  37.270  1.00  0.00     0.200 A 
ATOM     76  F   UNL A   1      41.473  32.143  38.612  1.00  0.00    -0.200 F 
ATOM     77  F   UNL A   1      42.588  34.599  38.215  1.00  0.00    -0.200 F 
ENDBRANCH  53  67
BRANCH  54  78
ATOM     78  C   UNL A   1      43.049  24.824  28.060  1.00  0.00     0.064 A 
ATOM     79  C   UNL A   1      43.507  25.159  26.779  1.00  0.00     0.173 A 
ATOM     80  C   UNL A   1      42.609  23.509  28.273  1.00  0.00     0.173 A 
ATOM     81  F   UNL A   1      43.916  26.410  26.520  1.00  0.00    -0.203 F 
ATOM     82  C   UNL A   1      43.501  24.225  25.745  1.00  0.00     0.198 A 
ATOM     83  C   UNL A   1      42.630  22.568  27.246  1.00  0.00     0.198 A 
ATOM     84  F   UNL A   1      42.162  23.138  29.481  1.00  0.00    -0.203 F 
ATOM     85  F   UNL A   1      43.898  24.585  24.517  1.00  0.00    -0.200 F 
ATOM     86  C   UNL A   1      43.068  22.928  25.981  1.00  0.00     0.200 A 
ATOM     87  F   UNL A   1      42.226  21.313  27.482  1.00  0.00    -0.200 F 
ATOM     88  F   UNL A   1      43.066  22.030  24.987  1.00  0.00    -0.200 F 
ENDBRANCH  54  78
BRANCH  66  89
ATOM     89  C   UNL A   1      47.276  26.229  33.412  1.00  0.00     0.064 A 
ATOM     90  C   UNL A   1      48.536  26.732  33.056  1.00  0.00     0.173 A 
ATOM     91  C   UNL A   1      47.231  25.106  34.253  1.00  0.00     0.173 A 
ATOM     92  F   UNL A   1      48.634  27.794  32.243  1.00  0.00    -0.203 F 
ATOM     93  C   UNL A   1      49.705  26.112  33.493  1.00  0.00     0.198 A 
ATOM     94  C   UNL A   1      48.401  24.508  34.713  1.00  0.00     0.198 A 
ATOM     95  F   UNL A   1      46.053  24.590  34.631  1.00  0.00    -0.203 F 
ATOM     96  F   UNL A   1      50.897  26.575  33.091  1.00  0.00    -0.200 F 
ATOM     97  C   UNL A   1      49.636  25.004  34.324  1.00  0.00     0.200 A 
ATOM     98  F   UNL A   1      48.334  23.445  35.526  1.00  0.00    -0.200 F 
ATOM     99  F   UNL A   1      50.762  24.407  34.741  1.00  0.00    -0.200 F 
ENDBRANCH  66  89
ENDBRANCH  40  41
ENDBRANCH  33  35
ENDBRANCH  32  33
ENDBRANCH  31  32
ENDBRANCH  30  31
ENDBRANCH  29  30
ENDBRANCH  28  29
ENDBRANCH  27  28
ENDBRANCH   1  27
TORSDOF 22
ENDMDL
