MODEL 1
REMARK VINA RESULT:      -9.6      0.000      0.000
REMARK SMILES C[C@@]([NH2+]CCC1CC1)(C(=O)OCCOCCOCCOC(=O)c1ccc(-c2c3nc(c(-c4c(F)c(F)c(F)c(F)c4F)c4ccc([nH]4)c(-c4c(F)c(F)c(F)c(F)c4F)c4nc(c(-c5c(F)c(F)c(F)c(F)c5F)c5ccc2[nH]5)C=C4)C=C3)cc1)C(F)(F)F
REMARK SMILES IDX 15 1 14 2 13 3 12 4 11 5 9 6 10 7 2 8 1 9 3 10 4 13 5 14
REMARK SMILES IDX 6 15 7 16 8 17 86 18 87 19 88 20 89 21 16 22 17 23 18 24
REMARK SMILES IDX 19 25 20 26 21 27 22 28 23 29 24 30 85 31 25 32 84 33 26 34
REMARK SMILES IDX 27 35 28 36 78 37 29 38 83 39 77 40 79 41 30 42 82 43 76 44
REMARK SMILES IDX 75 45 31 47 63 48 43 49 62 50 44 51 47 52 61 53 80 54 45 55
REMARK SMILES IDX 46 56 60 58 81 59 48 60 32 61 33 62 41 63 34 64 35 65 39 66
REMARK SMILES IDX 42 67 36 68 37 69 40 70 38 71 64 72 65 73 73 74 66 75 67 76
REMARK SMILES IDX 71 77 74 78 68 79 69 80 72 81 70 82 49 83 50 84 58 85 51 86
REMARK SMILES IDX 52 87 56 88 59 89 53 90 54 91 57 92 55 93
REMARK H PARENT 3 11 3 12 79 46 47 57
REMARK Flexibility Score: inf
ROOT
ATOM      1  C   UNL A   1      36.765  23.507  25.421  1.00  0.00     0.188 C 
ENDROOT
BRANCH   1   2
ATOM      2  O   UNL A   1      35.598  24.109  24.876  1.00  0.00    -0.376 OA
BRANCH   2   3
ATOM      3  C   UNL A   1      35.089  23.694  23.620  1.00  0.00     0.202 C 
BRANCH   3   4
ATOM      4  C   UNL A   1      33.735  24.240  23.140  1.00  0.00     0.261 C 
BRANCH   4   5
ATOM      5  O   UNL A   1      33.546  25.668  23.207  1.00  0.00    -0.458 OA
BRANCH   5   6
ATOM      6  C   UNL A   1      32.320  26.086  23.626  1.00  0.00     0.377 C 
ATOM      7  O   UNL A   1      31.274  25.588  23.216  1.00  0.00    -0.244 OA
BRANCH   6   8
ATOM      8  C   UNL A   1      32.352  27.273  24.610  1.00  0.00     0.287 C 
ATOM      9  C   UNL A   1      33.350  28.410  24.263  1.00  0.00     0.103 C 
BRANCH   8  10
ATOM     10  N   UNL A   1      31.035  28.009  24.575  1.00  0.00    -0.325 N 
ATOM     11  H   UNL A   1      30.865  28.366  25.515  1.00  0.00     0.347 HD
ATOM     12  H   UNL A   1      30.371  27.317  24.230  1.00  0.00     0.347 HD
BRANCH  10  13
ATOM     13  C   UNL A   1      30.891  29.136  23.651  1.00  0.00     0.261 C 
BRANCH  13  14
ATOM     14  C   UNL A   1      29.473  29.481  23.184  1.00  0.00     0.065 C 
BRANCH  14  15
ATOM     15  C   UNL A   1      29.114  30.911  23.463  1.00  0.00    -0.006 C 
ATOM     16  C   UNL A   1      28.383  31.704  22.416  1.00  0.00     0.004 C 
ATOM     17  C   UNL A   1      27.688  31.323  23.695  1.00  0.00     0.004 C 
ENDBRANCH  14  15
ENDBRANCH  13  14
ENDBRANCH  10  13
ENDBRANCH   8  10
BRANCH   8  18
ATOM     18  C   UNL A   1      32.851  26.664  25.954  1.00  0.00     0.455 C 
ATOM     19  F   UNL A   1      34.204  26.709  26.057  1.00  0.00    -0.164 F 
ATOM     20  F   UNL A   1      32.375  27.389  27.001  1.00  0.00    -0.164 F 
ATOM     21  F   UNL A   1      32.496  25.386  26.177  1.00  0.00    -0.164 F 
ENDBRANCH   8  18
ENDBRANCH   6   8
ENDBRANCH   5   6
ENDBRANCH   4   5
ENDBRANCH   3   4
ENDBRANCH   2   3
ENDBRANCH   1   2
BRANCH   1  22
ATOM     22  C   UNL A   1      36.821  21.988  25.668  1.00  0.00     0.188 C 
BRANCH  22  23
ATOM     23  O   UNL A   1      37.512  21.267  24.681  1.00  0.00    -0.376 OA
BRANCH  23  24
ATOM     24  C   UNL A   1      37.877  19.932  24.956  1.00  0.00     0.202 C 
BRANCH  24  25
ATOM     25  C   UNL A   1      39.307  19.595  25.419  1.00  0.00     0.261 C 
BRANCH  25  26
ATOM     26  O   UNL A   1      39.701  20.015  26.736  1.00  0.00    -0.460 OA
BRANCH  26  27
ATOM     27  C   UNL A   1      41.019  20.236  26.964  1.00  0.00     0.338 C 
ATOM     28  O   UNL A   1      41.932  19.462  26.769  1.00  0.00    -0.246 OA
BRANCH  27  29
ATOM     29  C   UNL A   1      41.192  21.674  27.302  1.00  0.00     0.060 A 
ATOM     30  C   UNL A   1      40.476  22.636  26.575  1.00  0.00     0.016 A 
ATOM     31  C   UNL A   1      42.047  22.072  28.331  1.00  0.00     0.016 A 
ATOM     32  C   UNL A   1      40.633  23.998  26.857  1.00  0.00     0.010 A 
ATOM     33  C   UNL A   1      42.224  23.438  28.594  1.00  0.00     0.010 A 
ATOM     34  C   UNL A   1      41.541  24.410  27.840  1.00  0.00    -0.014 A 
BRANCH  34  35
ATOM     35  C   UNL A   1      41.931  25.843  27.952  1.00  0.00     0.031 A 
ATOM     36  C   UNL A   1      43.259  26.266  27.386  1.00  0.00     0.074 A 
ATOM     37  C   UNL A   1      41.138  26.759  28.538  1.00  0.00     0.049 A 
ATOM     38  N   UNL A   1      43.865  27.425  27.445  1.00  0.00    -0.248 NA
ATOM     39  C   UNL A   1      44.006  25.233  26.651  1.00  0.00     0.031 C 
ATOM     40  C   UNL A   1      39.805  26.506  29.073  1.00  0.00     0.029 A 
ATOM     41  N   UNL A   1      41.359  28.092  28.791  1.00  0.00    -0.354 N 
ATOM     42  C   UNL A   1      45.067  27.258  26.769  1.00  0.00     0.074 A 
ATOM     43  C   UNL A   1      45.117  25.879  26.331  1.00  0.00     0.031 C 
ATOM     44  C   UNL A   1      39.330  27.644  29.612  1.00  0.00     0.029 A 
ATOM     45  C   UNL A   1      40.343  28.694  29.494  1.00  0.00     0.049 A 
ATOM     46  H   UNL A   1      42.167  28.571  28.497  1.00  0.00     0.167 HD
ATOM     47  C   UNL A   1      46.041  28.169  26.530  1.00  0.00     0.037 A 
ATOM     48  C   UNL A   1      40.258  29.937  30.011  1.00  0.00     0.037 A 
ATOM     49  C   UNL A   1      45.998  29.539  26.970  1.00  0.00     0.049 A 
ATOM     50  C   UNL A   1      41.400  30.908  29.820  1.00  0.00     0.074 A 
ATOM     51  C   UNL A   1      46.932  30.540  26.766  1.00  0.00     0.029 A 
ATOM     52  N   UNL A   1      44.972  30.098  27.718  1.00  0.00    -0.354 N 
ATOM     53  N   UNL A   1      42.526  30.751  29.168  1.00  0.00    -0.248 NA
ATOM     54  C   UNL A   1      41.255  32.234  30.442  1.00  0.00     0.031 C 
ATOM     55  C   UNL A   1      46.503  31.684  27.446  1.00  0.00     0.029 A 
ATOM     56  C   UNL A   1      45.267  31.420  28.012  1.00  0.00     0.049 A 
ATOM     57  H   UNL A   1      44.155  29.625  27.997  1.00  0.00     0.167 HD
ATOM     58  C   UNL A   1      43.204  31.960  29.271  1.00  0.00     0.074 A 
ATOM     59  C   UNL A   1      42.358  32.848  30.038  1.00  0.00     0.031 C 
ATOM     60  C   UNL A   1      44.417  32.304  28.770  1.00  0.00     0.037 A 
BRANCH  47  61
ATOM     61  C   UNL A   1      47.259  27.698  25.789  1.00  0.00     0.064 A 
ATOM     62  C   UNL A   1      48.387  27.198  26.458  1.00  0.00     0.173 A 
ATOM     63  C   UNL A   1      47.291  27.730  24.387  1.00  0.00     0.173 A 
ATOM     64  F   UNL A   1      48.416  27.158  27.799  1.00  0.00    -0.203 F 
ATOM     65  C   UNL A   1      49.513  26.783  25.752  1.00  0.00     0.198 A 
ATOM     66  C   UNL A   1      48.404  27.279  23.683  1.00  0.00     0.198 A 
ATOM     67  F   UNL A   1      46.237  28.192  23.696  1.00  0.00    -0.203 F 
ATOM     68  F   UNL A   1      50.602  26.366  26.414  1.00  0.00    -0.200 F 
ATOM     69  C   UNL A   1      49.518  26.817  24.366  1.00  0.00     0.200 A 
ATOM     70  F   UNL A   1      48.401  27.300  22.343  1.00  0.00    -0.200 F 
ATOM     71  F   UNL A   1      50.600  26.412  23.687  1.00  0.00    -0.200 F 
ENDBRANCH  47  61
BRANCH  48  72
ATOM     72  C   UNL A   1      39.052  30.341  30.786  1.00  0.00     0.064 A 
ATOM     73  C   UNL A   1      37.959  30.956  30.159  1.00  0.00     0.173 A 
ATOM     74  C   UNL A   1      38.984  30.158  32.176  1.00  0.00     0.173 A 
ATOM     75  F   UNL A   1      37.989  31.188  28.838  1.00  0.00    -0.203 F 
ATOM     76  C   UNL A   1      36.856  31.388  30.892  1.00  0.00     0.198 A 
ATOM     77  C   UNL A   1      37.866  30.560  32.904  1.00  0.00     0.198 A 
ATOM     78  F   UNL A   1      40.007  29.589  32.829  1.00  0.00    -0.203 F 
ATOM     79  F   UNL A   1      35.851  32.025  30.275  1.00  0.00    -0.200 F 
ATOM     80  C   UNL A   1      36.806  31.183  32.262  1.00  0.00     0.200 A 
ATOM     81  F   UNL A   1      37.821  30.355  34.227  1.00  0.00    -0.200 F 
ATOM     82  F   UNL A   1      35.744  31.599  32.967  1.00  0.00    -0.200 F 
ENDBRANCH  48  72
BRANCH  60  83
ATOM     83  C   UNL A   1      44.892  33.715  28.991  1.00  0.00     0.064 A 
ATOM     84  C   UNL A   1      45.695  34.066  30.086  1.00  0.00     0.173 A 
ATOM     85  C   UNL A   1      44.578  34.721  28.063  1.00  0.00     0.173 A 
ATOM     86  F   UNL A   1      46.016  33.148  31.010  1.00  0.00    -0.203 F 
ATOM     87  C   UNL A   1      46.141  35.374  30.258  1.00  0.00     0.198 A 
ATOM     88  C   UNL A   1      45.056  36.020  28.219  1.00  0.00     0.198 A 
ATOM     89  F   UNL A   1      43.822  34.441  26.989  1.00  0.00    -0.203 F 
ATOM     90  F   UNL A   1      46.864  35.697  31.340  1.00  0.00    -0.200 F 
ATOM     91  C   UNL A   1      45.829  36.348  29.321  1.00  0.00     0.200 A 
ATOM     92  F   UNL A   1      44.769  36.954  27.301  1.00  0.00    -0.200 F 
ATOM     93  F   UNL A   1      46.269  37.603  29.483  1.00  0.00    -0.200 F 
ENDBRANCH  60  83
ENDBRANCH  34  35
ENDBRANCH  27  29
ENDBRANCH  26  27
ENDBRANCH  25  26
ENDBRANCH  24  25
ENDBRANCH  23  24
ENDBRANCH  22  23
ENDBRANCH   1  22
TORSDOF 22
ENDMDL
MODEL 2
REMARK VINA RESULT:      -9.1      1.031      2.037
REMARK SMILES C[C@@]([NH2+]CCC1CC1)(C(=O)OCCOCCOCCOC(=O)c1ccc(-c2c3nc(c(-c4c(F)c(F)c(F)c(F)c4F)c4ccc([nH]4)c(-c4c(F)c(F)c(F)c(F)c4F)c4nc(c(-c5c(F)c(F)c(F)c(F)c5F)c5ccc2[nH]5)C=C4)C=C3)cc1)C(F)(F)F
REMARK SMILES IDX 15 1 14 2 13 3 12 4 11 5 9 6 10 7 2 8 1 9 3 10 4 13 5 14
REMARK SMILES IDX 6 15 7 16 8 17 86 18 87 19 88 20 89 21 16 22 17 23 18 24
REMARK SMILES IDX 19 25 20 26 21 27 22 28 23 29 24 30 85 31 25 32 84 33 26 34
REMARK SMILES IDX 27 35 28 36 78 37 29 38 83 39 77 40 79 41 30 42 82 43 76 44
REMARK SMILES IDX 75 45 31 47 63 48 43 49 62 50 44 51 47 52 61 53 80 54 45 55
REMARK SMILES IDX 46 56 60 58 81 59 48 60 32 61 33 62 41 63 34 64 35 65 39 66
REMARK SMILES IDX 42 67 36 68 37 69 40 70 38 71 64 72 65 73 73 74 66 75 67 76
REMARK SMILES IDX 71 77 74 78 68 79 69 80 72 81 70 82 49 83 50 84 58 85 51 86
REMARK SMILES IDX 52 87 56 88 59 89 53 90 54 91 57 92 55 93
REMARK H PARENT 3 11 3 12 79 46 47 57
REMARK Flexibility Score: inf
ROOT
ATOM      1  C   UNL A   1      35.672  23.492  25.700  1.00  0.00     0.188 C 
ENDROOT
BRANCH   1   2
ATOM      2  O   UNL A   1      34.620  24.445  25.621  1.00  0.00    -0.376 OA
BRANCH   2   3
ATOM      3  C   UNL A   1      33.318  24.053  25.218  1.00  0.00     0.202 C 
BRANCH   3   4
ATOM      4  C   UNL A   1      32.103  24.829  25.749  1.00  0.00     0.261 C 
BRANCH   4   5
ATOM      5  O   UNL A   1      31.469  25.752  24.840  1.00  0.00    -0.458 OA
BRANCH   5   6
ATOM      6  C   UNL A   1      31.543  27.068  25.181  1.00  0.00     0.377 C 
ATOM      7  O   UNL A   1      31.224  27.483  26.293  1.00  0.00    -0.244 OA
BRANCH   6   8
ATOM      8  C   UNL A   1      32.003  27.998  24.041  1.00  0.00     0.287 C 
ATOM      9  C   UNL A   1      31.437  27.670  22.633  1.00  0.00     0.103 C 
BRANCH   8  10
ATOM     10  N   UNL A   1      31.466  29.391  24.261  1.00  0.00    -0.325 N 
ATOM     11  H   UNL A   1      32.222  30.042  24.047  1.00  0.00     0.347 HD
ATOM     12  H   UNL A   1      31.141  29.383  25.228  1.00  0.00     0.347 HD
BRANCH  10  13
ATOM     13  C   UNL A   1      30.296  29.817  23.492  1.00  0.00     0.261 C 
BRANCH  13  14
ATOM     14  C   UNL A   1      29.521  31.033  24.012  1.00  0.00     0.065 C 
BRANCH  14  15
ATOM     15  C   UNL A   1      28.106  31.064  23.511  1.00  0.00    -0.006 C 
ATOM     16  C   UNL A   1      27.805  31.727  22.196  1.00  0.00     0.004 C 
ATOM     17  C   UNL A   1      27.681  30.234  22.334  1.00  0.00     0.004 C 
ENDBRANCH  14  15
ENDBRANCH  13  14
ENDBRANCH  10  13
ENDBRANCH   8  10
BRANCH   8  18
ATOM     18  C   UNL A   1      33.541  27.778  23.942  1.00  0.00     0.455 C 
ATOM     19  F   UNL A   1      34.099  27.556  25.159  1.00  0.00    -0.164 F 
ATOM     20  F   UNL A   1      33.808  26.667  23.204  1.00  0.00    -0.164 F 
ATOM     21  F   UNL A   1      34.234  28.787  23.385  1.00  0.00    -0.164 F 
ENDBRANCH   8  18
ENDBRANCH   6   8
ENDBRANCH   5   6
ENDBRANCH   4   5
ENDBRANCH   3   4
ENDBRANCH   2   3
ENDBRANCH   1   2
BRANCH   1  22
ATOM     22  C   UNL A   1      35.362  21.993  25.874  1.00  0.00     0.188 C 
BRANCH  22  23
ATOM     23  O   UNL A   1      35.718  21.198  24.772  1.00  0.00    -0.376 OA
BRANCH  23  24
ATOM     24  C   UNL A   1      36.695  20.197  24.955  1.00  0.00     0.202 C 
BRANCH  24  25
ATOM     25  C   UNL A   1      38.184  20.575  25.070  1.00  0.00     0.261 C 
BRANCH  25  26
ATOM     26  O   UNL A   1      38.730  20.754  26.388  1.00  0.00    -0.460 OA
BRANCH  26  27
ATOM     27  C   UNL A   1      40.077  20.857  26.508  1.00  0.00     0.338 C 
ATOM     28  O   UNL A   1      40.903  20.045  26.153  1.00  0.00    -0.246 OA
BRANCH  27  29
ATOM     29  C   UNL A   1      40.392  22.237  26.964  1.00  0.00     0.060 A 
ATOM     30  C   UNL A   1      39.699  23.318  26.399  1.00  0.00     0.016 A 
ATOM     31  C   UNL A   1      41.358  22.466  27.945  1.00  0.00     0.016 A 
ATOM     32  C   UNL A   1      39.989  24.628  26.794  1.00  0.00     0.010 A 
ATOM     33  C   UNL A   1      41.666  23.781  28.320  1.00  0.00     0.010 A 
ATOM     34  C   UNL A   1      41.005  24.872  27.727  1.00  0.00    -0.014 A 
BRANCH  34  35
ATOM     35  C   UNL A   1      41.518  26.253  27.939  1.00  0.00     0.031 A 
ATOM     36  C   UNL A   1      42.901  26.584  27.445  1.00  0.00     0.074 A 
ATOM     37  C   UNL A   1      40.788  27.204  28.550  1.00  0.00     0.049 A 
ATOM     38  N   UNL A   1      43.606  27.677  27.596  1.00  0.00    -0.248 NA
ATOM     39  C   UNL A   1      43.581  25.530  26.676  1.00  0.00     0.031 C 
ATOM     40  C   UNL A   1      39.417  27.046  29.022  1.00  0.00     0.029 A 
ATOM     41  N   UNL A   1      41.118  28.495  28.892  1.00  0.00    -0.354 N 
ATOM     42  C   UNL A   1      44.814  27.438  26.953  1.00  0.00     0.074 A 
ATOM     43  C   UNL A   1      44.758  26.088  26.435  1.00  0.00     0.031 C 
ATOM     44  C   UNL A   1      39.026  28.190  29.612  1.00  0.00     0.029 A 
ATOM     45  C   UNL A   1      40.133  29.147  29.594  1.00  0.00     0.049 A 
ATOM     46  H   UNL A   1      41.977  28.913  28.655  1.00  0.00     0.167 HD
ATOM     47  C   UNL A   1      45.875  28.268  26.804  1.00  0.00     0.037 A 
ATOM     48  C   UNL A   1      40.140  30.361  30.182  1.00  0.00     0.037 A 
ATOM     49  C   UNL A   1      45.938  29.608  27.325  1.00  0.00     0.049 A 
ATOM     50  C   UNL A   1      41.371  31.231  30.090  1.00  0.00     0.074 A 
ATOM     51  C   UNL A   1      46.967  30.528  27.214  1.00  0.00     0.029 A 
ATOM     52  N   UNL A   1      44.937  30.216  28.068  1.00  0.00    -0.354 N 
ATOM     53  N   UNL A   1      42.504  31.008  29.469  1.00  0.00    -0.248 NA
ATOM     54  C   UNL A   1      41.321  32.527  30.786  1.00  0.00     0.031 C 
ATOM     55  C   UNL A   1      46.615  31.667  27.947  1.00  0.00     0.029 A 
ATOM     56  C   UNL A   1      45.339  31.486  28.452  1.00  0.00     0.049 A 
ATOM     57  H   UNL A   1      44.071  29.806  28.290  1.00  0.00     0.167 HD
ATOM     58  C   UNL A   1      43.283  32.141  29.668  1.00  0.00     0.074 A 
ATOM     59  C   UNL A   1      42.491  33.059  30.458  1.00  0.00     0.031 C 
ATOM     60  C   UNL A   1      44.542  32.400  29.232  1.00  0.00     0.037 A 
BRANCH  47  61
ATOM     61  C   UNL A   1      47.075  27.729  26.080  1.00  0.00     0.064 A 
ATOM     62  C   UNL A   1      47.174  27.760  24.680  1.00  0.00     0.173 A 
ATOM     63  C   UNL A   1      48.152  27.189  26.800  1.00  0.00     0.173 A 
ATOM     64  F   UNL A   1      46.167  28.252  23.942  1.00  0.00    -0.203 F 
ATOM     65  C   UNL A   1      48.289  27.239  24.029  1.00  0.00     0.198 A 
ATOM     66  C   UNL A   1      49.281  26.703  26.147  1.00  0.00     0.198 A 
ATOM     67  F   UNL A   1      48.113  27.140  28.140  1.00  0.00    -0.203 F 
ATOM     68  F   UNL A   1      48.334  27.224  22.689  1.00  0.00    -0.200 F 
ATOM     69  C   UNL A   1      49.344  26.717  24.762  1.00  0.00     0.200 A 
ATOM     70  F   UNL A   1      50.305  26.213  26.859  1.00  0.00    -0.200 F 
ATOM     71  F   UNL A   1      50.418  26.220  24.134  1.00  0.00    -0.200 F 
ENDBRANCH  47  61
BRANCH  48  72
ATOM     72  C   UNL A   1      38.945  30.830  30.937  1.00  0.00     0.064 A 
ATOM     73  C   UNL A   1      38.840  30.634  32.322  1.00  0.00     0.173 A 
ATOM     74  C   UNL A   1      37.866  31.446  30.285  1.00  0.00     0.173 A 
ATOM     75  F   UNL A   1      39.828  30.017  32.988  1.00  0.00    -0.203 F 
ATOM     76  C   UNL A   1      37.697  31.020  33.021  1.00  0.00     0.198 A 
ATOM     77  C   UNL A   1      36.738  31.862  30.989  1.00  0.00     0.198 A 
ATOM     78  F   UNL A   1      37.908  31.644  28.960  1.00  0.00    -0.203 F 
ATOM     79  F   UNL A   1      37.600  30.769  34.333  1.00  0.00    -0.200 F 
ATOM     80  C   UNL A   1      36.650  31.640  32.356  1.00  0.00     0.200 A 
ATOM     81  F   UNL A   1      35.732  32.465  30.343  1.00  0.00    -0.200 F 
ATOM     82  F   UNL A   1      35.552  32.011  33.028  1.00  0.00    -0.200 F 
ENDBRANCH  48  72
BRANCH  60  83
ATOM     83  C   UNL A   1      45.133  33.746  29.554  1.00  0.00     0.064 A 
ATOM     84  C   UNL A   1      45.874  33.972  30.724  1.00  0.00     0.173 A 
ATOM     85  C   UNL A   1      44.995  34.814  28.653  1.00  0.00     0.173 A 
ATOM     86  F   UNL A   1      46.028  32.991  31.626  1.00  0.00    -0.203 F 
ATOM     87  C   UNL A   1      46.431  35.220  30.991  1.00  0.00     0.198 A 
ATOM     88  C   UNL A   1      45.583  36.051  28.906  1.00  0.00     0.198 A 
ATOM     89  F   UNL A   1      44.305  34.653  27.513  1.00  0.00    -0.203 F 
ATOM     90  F   UNL A   1      47.092  35.426  32.139  1.00  0.00    -0.200 F 
ATOM     91  C   UNL A   1      46.293  36.256  30.078  1.00  0.00     0.200 A 
ATOM     92  F   UNL A   1      45.465  37.043  28.013  1.00  0.00    -0.200 F 
ATOM     93  F   UNL A   1      46.839  37.453  30.332  1.00  0.00    -0.200 F 
ENDBRANCH  60  83
ENDBRANCH  34  35
ENDBRANCH  27  29
ENDBRANCH  26  27
ENDBRANCH  25  26
ENDBRANCH  24  25
ENDBRANCH  23  24
ENDBRANCH  22  23
ENDBRANCH   1  22
TORSDOF 22
ENDMDL
MODEL 3
REMARK VINA RESULT:      -9.0      5.003      9.187
REMARK SMILES C[C@@]([NH2+]CCC1CC1)(C(=O)OCCOCCOCCOC(=O)c1ccc(-c2c3nc(c(-c4c(F)c(F)c(F)c(F)c4F)c4ccc([nH]4)c(-c4c(F)c(F)c(F)c(F)c4F)c4nc(c(-c5c(F)c(F)c(F)c(F)c5F)c5ccc2[nH]5)C=C4)C=C3)cc1)C(F)(F)F
REMARK SMILES IDX 15 1 14 2 13 3 12 4 11 5 9 6 10 7 2 8 1 9 3 10 4 13 5 14
REMARK SMILES IDX 6 15 7 16 8 17 86 18 87 19 88 20 89 21 16 22 17 23 18 24
REMARK SMILES IDX 19 25 20 26 21 27 22 28 23 29 24 30 85 31 25 32 84 33 26 34
REMARK SMILES IDX 27 35 28 36 78 37 29 38 83 39 77 40 79 41 30 42 82 43 76 44
REMARK SMILES IDX 75 45 31 47 63 48 43 49 62 50 44 51 47 52 61 53 80 54 45 55
REMARK SMILES IDX 46 56 60 58 81 59 48 60 32 61 33 62 41 63 34 64 35 65 39 66
REMARK SMILES IDX 42 67 36 68 37 69 40 70 38 71 64 72 65 73 73 74 66 75 67 76
REMARK SMILES IDX 71 77 74 78 68 79 69 80 72 81 70 82 49 83 50 84 58 85 51 86
REMARK SMILES IDX 52 87 56 88 59 89 53 90 54 91 57 92 55 93
REMARK H PARENT 3 11 3 12 79 46 47 57
REMARK Flexibility Score: inf
ROOT
ATOM      1  C   UNL A   1      32.254  29.420  24.857  1.00  0.00     0.188 C 
ENDROOT
BRANCH   1   2
ATOM      2  O   UNL A   1      33.419  28.731  25.294  1.00  0.00    -0.376 OA
BRANCH   2   3
ATOM      3  C   UNL A   1      33.520  27.323  25.157  1.00  0.00     0.202 C 
BRANCH   3   4
ATOM      4  C   UNL A   1      33.629  26.712  23.751  1.00  0.00     0.261 C 
BRANCH   4   5
ATOM      5  O   UNL A   1      32.520  25.908  23.299  1.00  0.00    -0.458 OA
BRANCH   5   6
ATOM      6  C   UNL A   1      32.846  24.761  22.642  1.00  0.00     0.377 C 
ATOM      7  O   UNL A   1      33.096  24.735  21.439  1.00  0.00    -0.244 OA
BRANCH   6   8
ATOM      8  C   UNL A   1      32.818  23.493  23.519  1.00  0.00     0.287 C 
ATOM      9  C   UNL A   1      32.809  22.143  22.753  1.00  0.00     0.103 C 
BRANCH   8  10
ATOM     10  N   UNL A   1      34.101  23.381  24.306  1.00  0.00    -0.325 N 
ATOM     11  H   UNL A   1      34.183  22.411  24.611  1.00  0.00     0.347 HD
ATOM     12  H   UNL A   1      34.003  24.076  25.045  1.00  0.00     0.347 HD
BRANCH  10  13
ATOM     13  C   UNL A   1      35.358  23.735  23.645  1.00  0.00     0.261 C 
BRANCH  13  14
ATOM     14  C   UNL A   1      36.450  22.660  23.595  1.00  0.00     0.065 C 
BRANCH  14  15
ATOM     15  C   UNL A   1      36.497  21.839  24.851  1.00  0.00    -0.006 C 
ATOM     16  C   UNL A   1      35.799  20.509  24.887  1.00  0.00     0.004 C 
ATOM     17  C   UNL A   1      37.302  20.572  24.921  1.00  0.00     0.004 C 
ENDBRANCH  14  15
ENDBRANCH  13  14
ENDBRANCH  10  13
ENDBRANCH   8  10
BRANCH   8  18
ATOM     18  C   UNL A   1      31.460  23.562  24.278  1.00  0.00     0.455 C 
ATOM     19  F   UNL A   1      30.441  23.923  23.457  1.00  0.00    -0.164 F 
ATOM     20  F   UNL A   1      31.131  22.333  24.758  1.00  0.00    -0.164 F 
ATOM     21  F   UNL A   1      31.424  24.407  25.323  1.00  0.00    -0.164 F 
ENDBRANCH   8  18
ENDBRANCH   6   8
ENDBRANCH   5   6
ENDBRANCH   4   5
ENDBRANCH   3   4
ENDBRANCH   2   3
ENDBRANCH   1   2
BRANCH   1  22
ATOM     22  C   UNL A   1      31.420  30.256  25.845  1.00  0.00     0.188 C 
BRANCH  22  23
ATOM     23  O   UNL A   1      32.184  31.033  26.732  1.00  0.00    -0.376 OA
BRANCH  23  24
ATOM     24  C   UNL A   1      31.832  32.388  26.911  1.00  0.00     0.202 C 
BRANCH  24  25
ATOM     25  C   UNL A   1      32.781  33.347  27.654  1.00  0.00     0.261 C 
BRANCH  25  26
ATOM     26  O   UNL A   1      32.320  34.686  27.903  1.00  0.00    -0.460 OA
BRANCH  26  27
ATOM     27  C   UNL A   1      32.900  35.378  28.914  1.00  0.00     0.338 C 
ATOM     28  O   UNL A   1      32.474  36.378  29.450  1.00  0.00    -0.246 OA
BRANCH  27  29
ATOM     29  C   UNL A   1      34.059  34.587  29.406  1.00  0.00     0.060 A 
ATOM     30  C   UNL A   1      33.893  33.758  30.525  1.00  0.00     0.016 A 
ATOM     31  C   UNL A   1      35.298  34.655  28.767  1.00  0.00     0.016 A 
ATOM     32  C   UNL A   1      34.971  33.017  31.023  1.00  0.00     0.010 A 
ATOM     33  C   UNL A   1      36.384  33.933  29.284  1.00  0.00     0.010 A 
ATOM     34  C   UNL A   1      36.235  33.132  30.431  1.00  0.00    -0.014 A 
BRANCH  34  35
ATOM     35  C   UNL A   1      37.439  32.585  31.114  1.00  0.00     0.031 A 
ATOM     36  C   UNL A   1      38.183  31.457  30.452  1.00  0.00     0.074 A 
ATOM     37  C   UNL A   1      37.878  33.067  32.291  1.00  0.00     0.049 A 
ATOM     38  N   UNL A   1      39.194  30.748  30.889  1.00  0.00    -0.248 NA
ATOM     39  C   UNL A   1      37.716  31.075  29.110  1.00  0.00     0.031 C 
ATOM     40  C   UNL A   1      37.297  34.193  33.014  1.00  0.00     0.029 A 
ATOM     41  N   UNL A   1      38.914  32.647  33.092  1.00  0.00    -0.354 N 
ATOM     42  C   UNL A   1      39.474  29.831  29.884  1.00  0.00     0.074 A 
ATOM     43  C   UNL A   1      38.511  30.055  28.827  1.00  0.00     0.031 C 
ATOM     44  C   UNL A   1      37.972  34.365  34.166  1.00  0.00     0.029 A 
ATOM     45  C   UNL A   1      39.007  33.336  34.278  1.00  0.00     0.049 A 
ATOM     46  H   UNL A   1      39.532  31.923  32.841  1.00  0.00     0.167 HD
ATOM     47  C   UNL A   1      40.448  28.890  29.841  1.00  0.00     0.037 A 
ATOM     48  C   UNL A   1      39.811  33.135  35.342  1.00  0.00     0.037 A 
ATOM     49  C   UNL A   1      41.403  28.660  30.893  1.00  0.00     0.049 A 
ATOM     50  C   UNL A   1      40.824  32.014  35.315  1.00  0.00     0.074 A 
ATOM     51  C   UNL A   1      42.433  27.736  30.935  1.00  0.00     0.029 A 
ATOM     52  N   UNL A   1      41.436  29.349  32.096  1.00  0.00    -0.354 N 
ATOM     53  N   UNL A   1      41.095  31.161  34.358  1.00  0.00    -0.248 NA
ATOM     54  C   UNL A   1      41.642  31.829  36.525  1.00  0.00     0.031 C 
ATOM     55  C   UNL A   1      43.046  27.822  32.190  1.00  0.00     0.029 A 
ATOM     56  C   UNL A   1      42.447  28.847  32.901  1.00  0.00     0.049 A 
ATOM     57  H   UNL A   1      40.830  30.085  32.342  1.00  0.00     0.167 HD
ATOM     58  C   UNL A   1      42.133  30.366  34.832  1.00  0.00     0.074 A 
ATOM     59  C   UNL A   1      42.452  30.845  36.160  1.00  0.00     0.031 C 
ATOM     60  C   UNL A   1      42.766  29.334  34.220  1.00  0.00     0.037 A 
BRANCH  47  61
ATOM     61  C   UNL A   1      40.501  28.008  28.627  1.00  0.00     0.064 A 
ATOM     62  C   UNL A   1      41.227  28.364  27.480  1.00  0.00     0.173 A 
ATOM     63  C   UNL A   1      39.828  26.776  28.619  1.00  0.00     0.173 A 
ATOM     64  F   UNL A   1      41.878  29.536  27.429  1.00  0.00    -0.203 F 
ATOM     65  C   UNL A   1      41.248  27.538  26.360  1.00  0.00     0.198 A 
ATOM     66  C   UNL A   1      39.881  25.936  27.511  1.00  0.00     0.198 A 
ATOM     67  F   UNL A   1      39.123  26.383  29.691  1.00  0.00    -0.203 F 
ATOM     68  F   UNL A   1      41.899  27.926  25.254  1.00  0.00    -0.200 F 
ATOM     69  C   UNL A   1      40.581  26.322  26.378  1.00  0.00     0.200 A 
ATOM     70  F   UNL A   1      39.247  24.755  27.536  1.00  0.00    -0.200 F 
ATOM     71  F   UNL A   1      40.606  25.526  25.301  1.00  0.00    -0.200 F 
ENDBRANCH  47  61
BRANCH  48  72
ATOM     72  C   UNL A   1      39.684  34.001  36.547  1.00  0.00     0.064 A 
ATOM     73  C   UNL A   1      40.426  35.185  36.670  1.00  0.00     0.173 A 
ATOM     74  C   UNL A   1      38.848  33.644  37.616  1.00  0.00     0.173 A 
ATOM     75  F   UNL A   1      41.268  35.552  35.692  1.00  0.00    -0.203 F 
ATOM     76  C   UNL A   1      40.352  35.966  37.822  1.00  0.00     0.198 A 
ATOM     77  C   UNL A   1      38.750  34.443  38.753  1.00  0.00     0.198 A 
ATOM     78  F   UNL A   1      38.127  32.516  37.557  1.00  0.00    -0.203 F 
ATOM     79  F   UNL A   1      41.117  37.061  37.938  1.00  0.00    -0.200 F 
ATOM     80  C   UNL A   1      39.509  35.599  38.860  1.00  0.00     0.200 A 
ATOM     81  F   UNL A   1      37.930  34.087  39.751  1.00  0.00    -0.200 F 
ATOM     82  F   UNL A   1      39.439  36.350  39.967  1.00  0.00    -0.200 F 
ENDBRANCH  48  72
BRANCH  60  83
ATOM     83  C   UNL A   1      43.904  28.676  34.954  1.00  0.00     0.064 A 
ATOM     84  C   UNL A   1      45.227  29.125  34.831  1.00  0.00     0.173 A 
ATOM     85  C   UNL A   1      43.656  27.607  35.831  1.00  0.00     0.173 A 
ATOM     86  F   UNL A   1      45.523  30.134  33.998  1.00  0.00    -0.203 F 
ATOM     87  C   UNL A   1      46.261  28.513  35.536  1.00  0.00     0.198 A 
ATOM     88  C   UNL A   1      44.687  27.021  36.562  1.00  0.00     0.198 A 
ATOM     89  F   UNL A   1      42.408  27.142  35.996  1.00  0.00    -0.203 F 
ATOM     90  F   UNL A   1      47.524  28.927  35.364  1.00  0.00    -0.200 F 
ATOM     91  C   UNL A   1      45.989  27.469  36.407  1.00  0.00     0.200 A 
ATOM     92  F   UNL A   1      44.418  26.025  37.417  1.00  0.00    -0.200 F 
ATOM     93  F   UNL A   1      46.984  26.889  37.093  1.00  0.00    -0.200 F 
ENDBRANCH  60  83
ENDBRANCH  34  35
ENDBRANCH  27  29
ENDBRANCH  26  27
ENDBRANCH  25  26
ENDBRANCH  24  25
ENDBRANCH  23  24
ENDBRANCH  22  23
ENDBRANCH   1  22
TORSDOF 22
ENDMDL
