MODEL 1
REMARK VINA RESULT:      -9.6      0.000      0.000
REMARK SMILES Cn1cc(CCC(=O)N2CCCC2)cc1C(=O)OCCOCCOCCOC(=O)c1ccc(-c2c3nc(c(-c4c(F)c(F)c(F)c(F)c4F)c4ccc([nH]4)c(-c4c(F)c(F)c(F)c(F)c4F)c4nc(c(-c5c(F)c(F)c(F)c(F)c5F)c5ccc2[nH]5)C=C4)C=C3)cc1
REMARK SMILES IDX 22 1 21 2 20 3 19 4 18 5 16 6 17 7 15 8 1 9 2 10 3 11 4 12
REMARK SMILES IDX 14 13 5 14 6 15 7 16 8 17 9 18 10 19 13 20 11 21 12 22 23 23
REMARK SMILES IDX 24 24 25 25 26 26 27 27 28 28 29 29 30 30 31 31 92 32 32 33
REMARK SMILES IDX 91 34 33 35 34 36 35 37 85 38 36 39 90 40 84 41 86 42 37 43
REMARK SMILES IDX 89 44 83 45 82 46 38 48 70 49 50 50 69 51 51 52 54 53 68 54
REMARK SMILES IDX 87 55 52 56 53 57 67 59 88 60 55 61 39 62 40 63 48 64 41 65
REMARK SMILES IDX 42 66 46 67 49 68 43 69 44 70 47 71 45 72 71 73 72 74 80 75
REMARK SMILES IDX 73 76 74 77 78 78 81 79 75 80 76 81 79 82 77 83 56 84 57 85
REMARK SMILES IDX 65 86 58 87 59 88 63 89 66 90 60 91 61 92 64 93 62 94
REMARK H PARENT 86 47 54 58
REMARK Flexibility Score: inf
ROOT
ATOM      1  C   UNL A   1      43.772  18.782  25.094  1.00  0.00     0.188 C 
ENDROOT
BRANCH   1   2
ATOM      2  O   UNL A   1      45.029  18.193  25.411  1.00  0.00    -0.376 OA
BRANCH   2   3
ATOM      3  C   UNL A   1      46.215  18.967  25.381  1.00  0.00     0.202 C 
BRANCH   3   4
ATOM      4  C   UNL A   1      46.196  20.299  24.624  1.00  0.00     0.261 C 
BRANCH   4   5
ATOM      5  O   UNL A   1      46.208  21.474  25.446  1.00  0.00    -0.459 OA
BRANCH   5   6
ATOM      6  C   UNL A   1      45.835  22.629  24.828  1.00  0.00     0.355 C 
ATOM      7  O   UNL A   1      45.287  22.692  23.734  1.00  0.00    -0.244 OA
BRANCH   6   8
ATOM      8  C   UNL A   1      46.051  23.765  25.699  1.00  0.00     0.127 A 
ATOM      9  C   UNL A   1      44.378  23.309  27.551  1.00  0.00     0.150 C 
ATOM     10  N   UNL A   1      45.455  24.035  26.913  1.00  0.00    -0.345 N 
ATOM     11  C   UNL A   1      46.039  25.143  27.478  1.00  0.00     0.089 A 
ATOM     12  C   UNL A   1      46.885  25.715  26.554  1.00  0.00    -0.029 A 
ATOM     13  C   UNL A   1      46.941  24.808  25.465  1.00  0.00     0.039 A 
BRANCH  12  14
ATOM     14  C   UNL A   1      47.592  27.026  26.687  1.00  0.00     0.047 C 
BRANCH  14  15
ATOM     15  C   UNL A   1      47.164  28.044  25.633  1.00  0.00     0.105 C 
BRANCH  15  16
ATOM     16  C   UNL A   1      46.699  29.365  26.224  1.00  0.00     0.222 C 
ATOM     17  O   UNL A   1      47.515  30.270  26.412  1.00  0.00    -0.275 OA
ATOM     18  N   UNL A   1      45.360  29.537  26.494  1.00  0.00    -0.343 N 
ATOM     19  C   UNL A   1      44.301  28.541  26.494  1.00  0.00     0.119 C 
ATOM     20  C   UNL A   1      44.843  30.839  26.885  1.00  0.00     0.119 C 
ATOM     21  C   UNL A   1      43.013  29.344  26.544  1.00  0.00     0.023 C 
ATOM     22  C   UNL A   1      43.417  30.572  27.350  1.00  0.00     0.023 C 
ENDBRANCH  15  16
ENDBRANCH  14  15
ENDBRANCH  12  14
ENDBRANCH   6   8
ENDBRANCH   5   6
ENDBRANCH   4   5
ENDBRANCH   3   4
ENDBRANCH   2   3
ENDBRANCH   1   2
BRANCH   1  23
ATOM     23  C   UNL A   1      42.662  18.915  26.157  1.00  0.00     0.188 C 
BRANCH  23  24
ATOM     24  O   UNL A   1      41.398  19.269  25.622  1.00  0.00    -0.376 OA
BRANCH  24  25
ATOM     25  C   UNL A   1      40.492  19.944  26.479  1.00  0.00     0.202 C 
BRANCH  25  26
ATOM     26  C   UNL A   1      40.931  21.310  27.024  1.00  0.00     0.261 C 
BRANCH  26  27
ATOM     27  O   UNL A   1      40.655  22.443  26.189  1.00  0.00    -0.460 OA
BRANCH  27  28
ATOM     28  C   UNL A   1      39.436  23.014  26.296  1.00  0.00     0.338 C 
ATOM     29  O   UNL A   1      38.363  22.520  26.003  1.00  0.00    -0.246 OA
BRANCH  28  30
ATOM     30  C   UNL A   1      39.605  24.308  26.994  1.00  0.00     0.060 A 
ATOM     31  C   UNL A   1      40.279  25.347  26.340  1.00  0.00     0.016 A 
ATOM     32  C   UNL A   1      39.089  24.502  28.280  1.00  0.00     0.016 A 
ATOM     33  C   UNL A   1      40.458  26.575  26.983  1.00  0.00     0.010 A 
ATOM     34  C   UNL A   1      39.282  25.726  28.927  1.00  0.00     0.010 A 
ATOM     35  C   UNL A   1      39.989  26.762  28.292  1.00  0.00    -0.014 A 
BRANCH  35  36
ATOM     36  C   UNL A   1      40.371  27.977  29.055  1.00  0.00     0.031 A 
ATOM     37  C   UNL A   1      41.755  28.056  29.638  1.00  0.00     0.074 A 
ATOM     38  C   UNL A   1      39.511  28.995  29.228  1.00  0.00     0.049 A 
ATOM     39  N   UNL A   1      42.304  29.001  30.358  1.00  0.00    -0.248 NA
ATOM     40  C   UNL A   1      42.640  26.910  29.371  1.00  0.00     0.031 C 
ATOM     41  C   UNL A   1      38.152  29.054  28.696  1.00  0.00     0.029 A 
ATOM     42  N   UNL A   1      39.658  30.177  29.914  1.00  0.00    -0.354 N 
ATOM     43  C   UNL A   1      43.594  28.565  30.631  1.00  0.00     0.074 A 
ATOM     44  C   UNL A   1      43.738  27.259  30.024  1.00  0.00     0.031 C 
ATOM     45  C   UNL A   1      37.585  30.211  29.081  1.00  0.00     0.029 A 
ATOM     46  C   UNL A   1      38.530  30.960  29.909  1.00  0.00     0.049 A 
ATOM     47  H   UNL A   1      40.493  30.438  30.365  1.00  0.00     0.167 HD
ATOM     48  C   UNL A   1      44.574  29.199  31.317  1.00  0.00     0.037 A 
ATOM     49  C   UNL A   1      38.286  32.137  30.519  1.00  0.00     0.037 A 
ATOM     50  C   UNL A   1      44.433  30.493  31.928  1.00  0.00     0.049 A 
ATOM     51  C   UNL A   1      39.370  32.789  31.340  1.00  0.00     0.074 A 
ATOM     52  C   UNL A   1      45.379  31.230  32.620  1.00  0.00     0.029 A 
ATOM     53  N   UNL A   1      43.264  31.240  31.931  1.00  0.00    -0.354 N 
ATOM     54  N   UNL A   1      40.601  32.391  31.556  1.00  0.00    -0.248 NA
ATOM     55  C   UNL A   1      39.028  34.057  32.003  1.00  0.00     0.031 C 
ATOM     56  C   UNL A   1      44.767  32.399  33.086  1.00  0.00     0.029 A 
ATOM     57  C   UNL A   1      43.455  32.415  32.640  1.00  0.00     0.049 A 
ATOM     58  H   UNL A   1      42.423  30.974  31.495  1.00  0.00     0.167 HD
ATOM     59  C   UNL A   1      41.187  33.370  32.351  1.00  0.00     0.074 A 
ATOM     60  C   UNL A   1      40.179  34.385  32.573  1.00  0.00     0.031 C 
ATOM     61  C   UNL A   1      42.446  33.422  32.848  1.00  0.00     0.037 A 
BRANCH  48  62
ATOM     62  C   UNL A   1      45.883  28.482  31.466  1.00  0.00     0.064 A 
ATOM     63  C   UNL A   1      46.151  27.659  32.570  1.00  0.00     0.173 A 
ATOM     64  C   UNL A   1      46.875  28.605  30.482  1.00  0.00     0.173 A 
ATOM     65  F   UNL A   1      45.240  27.521  33.546  1.00  0.00    -0.203 F 
ATOM     66  C   UNL A   1      47.375  27.007  32.696  1.00  0.00     0.198 A 
ATOM     67  C   UNL A   1      48.087  27.930  30.598  1.00  0.00     0.198 A 
ATOM     68  F   UNL A   1      46.667  29.378  29.406  1.00  0.00    -0.203 F 
ATOM     69  F   UNL A   1      47.628  26.265  33.784  1.00  0.00    -0.200 F 
ATOM     70  C   UNL A   1      48.339  27.140  31.708  1.00  0.00     0.200 A 
ATOM     71  F   UNL A   1      49.014  28.052  29.638  1.00  0.00    -0.200 F 
ATOM     72  F   UNL A   1      49.516  26.511  31.830  1.00  0.00    -0.200 F 
ENDBRANCH  48  62
BRANCH  49  73
ATOM     73  C   UNL A   1      36.955  32.783  30.382  1.00  0.00     0.064 A 
ATOM     74  C   UNL A   1      35.980  32.648  31.380  1.00  0.00     0.173 A 
ATOM     75  C   UNL A   1      36.622  33.528  29.241  1.00  0.00     0.173 A 
ATOM     76  F   UNL A   1      36.240  31.919  32.475  1.00  0.00    -0.203 F 
ATOM     77  C   UNL A   1      34.718  33.221  31.236  1.00  0.00     0.198 A 
ATOM     78  C   UNL A   1      35.369  34.121  29.109  1.00  0.00     0.198 A 
ATOM     79  F   UNL A   1      37.517  33.678  28.253  1.00  0.00    -0.203 F 
ATOM     80  F   UNL A   1      33.789  33.037  32.184  1.00  0.00    -0.200 F 
ATOM     81  C   UNL A   1      34.415  33.962  30.103  1.00  0.00     0.200 A 
ATOM     82  F   UNL A   1      35.081  34.839  28.014  1.00  0.00    -0.200 F 
ATOM     83  F   UNL A   1      33.201  34.511  29.964  1.00  0.00    -0.200 F 
ENDBRANCH  49  73
BRANCH  61  84
ATOM     84  C   UNL A   1      42.825  34.632  33.652  1.00  0.00     0.064 A 
ATOM     85  C   UNL A   1      43.284  35.809  33.043  1.00  0.00     0.173 A 
ATOM     86  C   UNL A   1      42.679  34.630  35.048  1.00  0.00     0.173 A 
ATOM     87  F   UNL A   1      43.455  35.858  31.713  1.00  0.00    -0.203 F 
ATOM     88  C   UNL A   1      43.604  36.932  33.804  1.00  0.00     0.198 A 
ATOM     89  C   UNL A   1      42.971  35.763  35.803  1.00  0.00     0.198 A 
ATOM     90  F   UNL A   1      42.234  33.533  35.680  1.00  0.00    -0.203 F 
ATOM     91  F   UNL A   1      44.080  38.031  33.204  1.00  0.00    -0.200 F 
ATOM     92  C   UNL A   1      43.440  36.910  35.181  1.00  0.00     0.200 A 
ATOM     93  F   UNL A   1      42.799  35.745  37.132  1.00  0.00    -0.200 F 
ATOM     94  F   UNL A   1      43.738  37.994  35.910  1.00  0.00    -0.200 F 
ENDBRANCH  61  84
ENDBRANCH  35  36
ENDBRANCH  28  30
ENDBRANCH  27  28
ENDBRANCH  26  27
ENDBRANCH  25  26
ENDBRANCH  24  25
ENDBRANCH  23  24
ENDBRANCH   1  23
TORSDOF 20
ENDMDL
MODEL 2
REMARK VINA RESULT:      -9.4      4.150      7.100
REMARK SMILES Cn1cc(CCC(=O)N2CCCC2)cc1C(=O)OCCOCCOCCOC(=O)c1ccc(-c2c3nc(c(-c4c(F)c(F)c(F)c(F)c4F)c4ccc([nH]4)c(-c4c(F)c(F)c(F)c(F)c4F)c4nc(c(-c5c(F)c(F)c(F)c(F)c5F)c5ccc2[nH]5)C=C4)C=C3)cc1
REMARK SMILES IDX 22 1 21 2 20 3 19 4 18 5 16 6 17 7 15 8 1 9 2 10 3 11 4 12
REMARK SMILES IDX 14 13 5 14 6 15 7 16 8 17 9 18 10 19 13 20 11 21 12 22 23 23
REMARK SMILES IDX 24 24 25 25 26 26 27 27 28 28 29 29 30 30 31 31 92 32 32 33
REMARK SMILES IDX 91 34 33 35 34 36 35 37 85 38 36 39 90 40 84 41 86 42 37 43
REMARK SMILES IDX 89 44 83 45 82 46 38 48 70 49 50 50 69 51 51 52 54 53 68 54
REMARK SMILES IDX 87 55 52 56 53 57 67 59 88 60 55 61 39 62 40 63 48 64 41 65
REMARK SMILES IDX 42 66 46 67 49 68 43 69 44 70 47 71 45 72 71 73 72 74 80 75
REMARK SMILES IDX 73 76 74 77 78 78 81 79 75 80 76 81 79 82 77 83 56 84 57 85
REMARK SMILES IDX 65 86 58 87 59 88 63 89 66 90 60 91 61 92 64 93 62 94
REMARK H PARENT 86 47 54 58
REMARK Flexibility Score: inf
ROOT
ATOM      1  C   UNL A   1      41.061  20.730  26.513  1.00  0.00     0.188 C 
ENDROOT
BRANCH   1   2
ATOM      2  O   UNL A   1      40.449  21.913  26.010  1.00  0.00    -0.376 OA
BRANCH   2   3
ATOM      3  C   UNL A   1      39.049  22.104  26.124  1.00  0.00     0.202 C 
BRANCH   3   4
ATOM      4  C   UNL A   1      38.121  21.149  25.367  1.00  0.00     0.261 C 
BRANCH   4   5
ATOM      5  O   UNL A   1      36.719  21.346  25.593  1.00  0.00    -0.459 OA
BRANCH   5   6
ATOM      6  C   UNL A   1      36.014  21.833  24.534  1.00  0.00     0.355 C 
ATOM      7  O   UNL A   1      36.509  22.227  23.485  1.00  0.00    -0.244 OA
BRANCH   6   8
ATOM      8  C   UNL A   1      34.592  21.698  24.766  1.00  0.00     0.127 A 
ATOM      9  C   UNL A   1      34.291  19.183  24.614  1.00  0.00     0.150 C 
ATOM     10  N   UNL A   1      33.848  20.540  24.854  1.00  0.00    -0.345 N 
ATOM     11  C   UNL A   1      32.558  20.845  25.216  1.00  0.00     0.089 A 
ATOM     12  C   UNL A   1      32.402  22.213  25.180  1.00  0.00    -0.029 A 
ATOM     13  C   UNL A   1      33.699  22.746  24.963  1.00  0.00     0.039 A 
BRANCH  12  14
ATOM     14  C   UNL A   1      31.120  22.967  25.338  1.00  0.00     0.047 C 
BRANCH  14  15
ATOM     15  C   UNL A   1      31.160  23.977  26.483  1.00  0.00     0.105 C 
BRANCH  15  16
ATOM     16  C   UNL A   1      30.771  25.384  26.059  1.00  0.00     0.222 C 
ATOM     17  O   UNL A   1      29.584  25.655  25.861  1.00  0.00    -0.275 OA
ATOM     18  N   UNL A   1      31.754  26.342  25.951  1.00  0.00    -0.343 N 
ATOM     19  C   UNL A   1      33.197  26.164  25.981  1.00  0.00     0.119 C 
ATOM     20  C   UNL A   1      31.411  27.737  25.729  1.00  0.00     0.119 C 
ATOM     21  C   UNL A   1      33.757  27.567  26.139  1.00  0.00     0.023 C 
ATOM     22  C   UNL A   1      32.732  28.420  25.401  1.00  0.00     0.023 C 
ENDBRANCH  15  16
ENDBRANCH  14  15
ENDBRANCH  12  14
ENDBRANCH   6   8
ENDBRANCH   5   6
ENDBRANCH   4   5
ENDBRANCH   3   4
ENDBRANCH   2   3
ENDBRANCH   1   2
BRANCH   1  23
ATOM     23  C   UNL A   1      42.394  20.212  25.934  1.00  0.00     0.188 C 
BRANCH  23  24
ATOM     24  O   UNL A   1      43.500  21.057  26.201  1.00  0.00    -0.376 OA
BRANCH  24  25
ATOM     25  C   UNL A   1      44.400  21.309  25.135  1.00  0.00     0.202 C 
BRANCH  25  26
ATOM     26  C   UNL A   1      44.030  22.432  24.157  1.00  0.00     0.261 C 
BRANCH  26  27
ATOM     27  O   UNL A   1      43.450  23.610  24.734  1.00  0.00    -0.460 OA
BRANCH  27  28
ATOM     28  C   UNL A   1      44.287  24.611  25.080  1.00  0.00     0.338 C 
ATOM     29  O   UNL A   1      45.364  24.877  24.580  1.00  0.00    -0.246 OA
BRANCH  28  30
ATOM     30  C   UNL A   1      43.593  25.451  26.083  1.00  0.00     0.060 A 
ATOM     31  C   UNL A   1      43.968  26.793  26.219  1.00  0.00     0.016 A 
ATOM     32  C   UNL A   1      42.568  24.920  26.875  1.00  0.00     0.016 A 
ATOM     33  C   UNL A   1      43.332  27.602  27.164  1.00  0.00     0.010 A 
ATOM     34  C   UNL A   1      41.944  25.728  27.831  1.00  0.00     0.010 A 
ATOM     35  C   UNL A   1      42.339  27.066  27.998  1.00  0.00    -0.014 A 
BRANCH  35  36
ATOM     36  C   UNL A   1      41.825  27.855  29.146  1.00  0.00     0.031 A 
ATOM     37  C   UNL A   1      42.540  27.759  30.465  1.00  0.00     0.074 A 
ATOM     38  C   UNL A   1      40.744  28.645  29.026  1.00  0.00     0.049 A 
ATOM     39  N   UNL A   1      42.264  28.333  31.608  1.00  0.00    -0.248 NA
ATOM     40  C   UNL A   1      43.733  26.897  30.497  1.00  0.00     0.031 C 
ATOM     41  C   UNL A   1      39.974  28.844  27.800  1.00  0.00     0.029 A 
ATOM     42  N   UNL A   1      40.101  29.422  29.959  1.00  0.00    -0.354 N 
ATOM     43  C   UNL A   1      43.243  27.902  32.493  1.00  0.00     0.074 A 
ATOM     44  C   UNL A   1      44.105  26.997  31.764  1.00  0.00     0.031 C 
ATOM     45  C   UNL A   1      38.957  29.685  28.058  1.00  0.00     0.029 A 
ATOM     46  C   UNL A   1      38.987  30.060  29.471  1.00  0.00     0.049 A 
ATOM     47  H   UNL A   1      40.410  29.513  30.889  1.00  0.00     0.167 HD
ATOM     48  C   UNL A   1      43.415  28.237  33.794  1.00  0.00     0.037 A 
ATOM     49  C   UNL A   1      38.088  30.842  30.102  1.00  0.00     0.037 A 
ATOM     50  C   UNL A   1      42.557  29.130  34.524  1.00  0.00     0.049 A 
ATOM     51  C   UNL A   1      38.259  31.141  31.570  1.00  0.00     0.074 A 
ATOM     52  C   UNL A   1      42.667  29.553  35.838  1.00  0.00     0.029 A 
ATOM     53  N   UNL A   1      41.419  29.730  34.005  1.00  0.00    -0.354 N 
ATOM     54  N   UNL A   1      39.213  30.766  32.387  1.00  0.00    -0.248 NA
ATOM     55  C   UNL A   1      37.226  31.976  32.202  1.00  0.00     0.031 C 
ATOM     56  C   UNL A   1      41.568  30.367  36.128  1.00  0.00     0.029 A 
ATOM     57  C   UNL A   1      40.800  30.494  34.981  1.00  0.00     0.049 A 
ATOM     58  H   UNL A   1      41.098  29.627  33.080  1.00  0.00     0.167 HD
ATOM     59  C   UNL A   1      38.912  31.340  33.617  1.00  0.00     0.074 A 
ATOM     60  C   UNL A   1      37.691  32.097  33.437  1.00  0.00     0.031 C 
ATOM     61  C   UNL A   1      39.589  31.250  34.788  1.00  0.00     0.037 A 
BRANCH  48  62
ATOM     62  C   UNL A   1      44.568  27.607  34.518  1.00  0.00     0.064 A 
ATOM     63  C   UNL A   1      44.437  26.378  35.183  1.00  0.00     0.173 A 
ATOM     64  C   UNL A   1      45.823  28.232  34.533  1.00  0.00     0.173 A 
ATOM     65  F   UNL A   1      43.252  25.748  35.211  1.00  0.00    -0.203 F 
ATOM     66  C   UNL A   1      45.515  25.812  35.857  1.00  0.00     0.198 A 
ATOM     67  C   UNL A   1      46.906  27.650  35.186  1.00  0.00     0.198 A 
ATOM     68  F   UNL A   1      46.001  29.407  33.911  1.00  0.00    -0.203 F 
ATOM     69  F   UNL A   1      45.356  24.661  36.527  1.00  0.00    -0.200 F 
ATOM     70  C   UNL A   1      46.749  26.445  35.854  1.00  0.00     0.200 A 
ATOM     71  F   UNL A   1      48.099  28.259  35.175  1.00  0.00    -0.200 F 
ATOM     72  F   UNL A   1      47.786  25.898  36.504  1.00  0.00    -0.200 F 
ENDBRANCH  48  62
BRANCH  49  73
ATOM     73  C   UNL A   1      36.934  31.402  29.350  1.00  0.00     0.064 A 
ATOM     74  C   UNL A   1      36.886  32.759  29.007  1.00  0.00     0.173 A 
ATOM     75  C   UNL A   1      35.846  30.596  28.982  1.00  0.00     0.173 A 
ATOM     76  F   UNL A   1      37.887  33.577  29.365  1.00  0.00    -0.203 F 
ATOM     77  C   UNL A   1      35.787  33.294  28.336  1.00  0.00     0.198 A 
ATOM     78  C   UNL A   1      34.761  31.125  28.289  1.00  0.00     0.198 A 
ATOM     79  F   UNL A   1      35.841  29.292  29.296  1.00  0.00    -0.203 F 
ATOM     80  F   UNL A   1      35.745  34.604  28.060  1.00  0.00    -0.200 F 
ATOM     81  C   UNL A   1      34.728  32.475  27.972  1.00  0.00     0.200 A 
ATOM     82  F   UNL A   1      33.741  30.330  27.936  1.00  0.00    -0.200 F 
ATOM     83  F   UNL A   1      33.671  32.990  27.328  1.00  0.00    -0.200 F 
ENDBRANCH  49  73
BRANCH  61  84
ATOM     84  C   UNL A   1      39.050  32.016  35.961  1.00  0.00     0.064 A 
ATOM     85  C   UNL A   1      38.195  31.422  36.900  1.00  0.00     0.173 A 
ATOM     86  C   UNL A   1      39.436  33.349  36.176  1.00  0.00     0.173 A 
ATOM     87  F   UNL A   1      37.786  30.155  36.733  1.00  0.00    -0.203 F 
ATOM     88  C   UNL A   1      37.727  32.140  37.999  1.00  0.00     0.198 A 
ATOM     89  C   UNL A   1      38.990  34.055  37.290  1.00  0.00     0.198 A 
ATOM     90  F   UNL A   1      40.260  33.962  35.313  1.00  0.00    -0.203 F 
ATOM     91  F   UNL A   1      36.877  31.564  38.860  1.00  0.00    -0.200 F 
ATOM     92  C   UNL A   1      38.131  33.452  38.196  1.00  0.00     0.200 A 
ATOM     93  F   UNL A   1      39.392  35.317  37.487  1.00  0.00    -0.200 F 
ATOM     94  F   UNL A   1      37.689  34.138  39.259  1.00  0.00    -0.200 F 
ENDBRANCH  61  84
ENDBRANCH  35  36
ENDBRANCH  28  30
ENDBRANCH  27  28
ENDBRANCH  26  27
ENDBRANCH  25  26
ENDBRANCH  24  25
ENDBRANCH  23  24
ENDBRANCH   1  23
TORSDOF 20
ENDMDL
MODEL 3
REMARK VINA RESULT:      -9.4      1.007      2.083
REMARK SMILES Cn1cc(CCC(=O)N2CCCC2)cc1C(=O)OCCOCCOCCOC(=O)c1ccc(-c2c3nc(c(-c4c(F)c(F)c(F)c(F)c4F)c4ccc([nH]4)c(-c4c(F)c(F)c(F)c(F)c4F)c4nc(c(-c5c(F)c(F)c(F)c(F)c5F)c5ccc2[nH]5)C=C4)C=C3)cc1
REMARK SMILES IDX 22 1 21 2 20 3 19 4 18 5 16 6 17 7 15 8 1 9 2 10 3 11 4 12
REMARK SMILES IDX 14 13 5 14 6 15 7 16 8 17 9 18 10 19 13 20 11 21 12 22 23 23
REMARK SMILES IDX 24 24 25 25 26 26 27 27 28 28 29 29 30 30 31 31 92 32 32 33
REMARK SMILES IDX 91 34 33 35 34 36 35 37 85 38 36 39 90 40 84 41 86 42 37 43
REMARK SMILES IDX 89 44 83 45 82 46 38 48 70 49 50 50 69 51 51 52 54 53 68 54
REMARK SMILES IDX 87 55 52 56 53 57 67 59 88 60 55 61 39 62 40 63 48 64 41 65
REMARK SMILES IDX 42 66 46 67 49 68 43 69 44 70 47 71 45 72 71 73 72 74 80 75
REMARK SMILES IDX 73 76 74 77 78 78 81 79 75 80 76 81 79 82 77 83 56 84 57 85
REMARK SMILES IDX 65 86 58 87 59 88 63 89 66 90 60 91 61 92 64 93 62 94
REMARK H PARENT 86 47 54 58
REMARK Flexibility Score: inf
ROOT
ATOM      1  C   UNL A   1      43.889  18.827  25.098  1.00  0.00     0.188 C 
ENDROOT
BRANCH   1   2
ATOM      2  O   UNL A   1      45.099  18.168  25.454  1.00  0.00    -0.376 OA
BRANCH   2   3
ATOM      3  C   UNL A   1      46.326  18.876  25.476  1.00  0.00     0.202 C 
BRANCH   3   4
ATOM      4  C   UNL A   1      46.411  20.207  24.722  1.00  0.00     0.261 C 
BRANCH   4   5
ATOM      5  O   UNL A   1      45.956  21.356  25.450  1.00  0.00    -0.459 OA
BRANCH   5   6
ATOM      6  C   UNL A   1      45.172  22.222  24.751  1.00  0.00     0.355 C 
ATOM      7  O   UNL A   1      44.476  21.918  23.790  1.00  0.00    -0.244 OA
BRANCH   6   8
ATOM      8  C   UNL A   1      45.167  23.525  25.381  1.00  0.00     0.127 A 
ATOM      9  C   UNL A   1      43.931  23.037  27.543  1.00  0.00     0.150 C 
ATOM     10  N   UNL A   1      44.674  23.871  26.622  1.00  0.00    -0.345 N 
ATOM     11  C   UNL A   1      44.988  25.180  26.897  1.00  0.00     0.089 A 
ATOM     12  C   UNL A   1      45.519  25.753  25.762  1.00  0.00    -0.029 A 
ATOM     13  C   UNL A   1      45.692  24.692  24.836  1.00  0.00     0.039 A 
BRANCH  12  14
ATOM     14  C   UNL A   1      45.841  27.200  25.563  1.00  0.00     0.047 C 
BRANCH  14  15
ATOM     15  C   UNL A   1      46.759  27.761  26.646  1.00  0.00     0.105 C 
BRANCH  15  16
ATOM     16  C   UNL A   1      48.230  27.725  26.267  1.00  0.00     0.222 C 
ATOM     17  O   UNL A   1      48.690  28.598  25.526  1.00  0.00    -0.275 OA
ATOM     18  N   UNL A   1      49.031  26.741  26.802  1.00  0.00    -0.343 N 
ATOM     19  C   UNL A   1      48.634  25.555  27.543  1.00  0.00     0.119 C 
ATOM     20  C   UNL A   1      50.473  26.774  26.616  1.00  0.00     0.119 C 
ATOM     21  C   UNL A   1      49.924  25.023  28.143  1.00  0.00     0.023 C 
ATOM     22  C   UNL A   1      50.963  25.416  27.100  1.00  0.00     0.023 C 
ENDBRANCH  15  16
ENDBRANCH  14  15
ENDBRANCH  12  14
ENDBRANCH   6   8
ENDBRANCH   5   6
ENDBRANCH   4   5
ENDBRANCH   3   4
ENDBRANCH   2   3
ENDBRANCH   1   2
BRANCH   1  23
ATOM     23  C   UNL A   1      42.687  18.868  26.065  1.00  0.00     0.188 C 
BRANCH  23  24
ATOM     24  O   UNL A   1      41.483  19.309  25.461  1.00  0.00    -0.376 OA
BRANCH  24  25
ATOM     25  C   UNL A   1      40.487  19.851  26.313  1.00  0.00     0.202 C 
BRANCH  25  26
ATOM     26  C   UNL A   1      40.797  21.196  26.984  1.00  0.00     0.261 C 
BRANCH  26  27
ATOM     27  O   UNL A   1      40.664  22.362  26.159  1.00  0.00    -0.460 OA
BRANCH  27  28
ATOM     28  C   UNL A   1      39.473  22.999  26.168  1.00  0.00     0.338 C 
ATOM     29  O   UNL A   1      38.398  22.555  25.809  1.00  0.00    -0.246 OA
BRANCH  28  30
ATOM     30  C   UNL A   1      39.664  24.298  26.851  1.00  0.00     0.060 A 
ATOM     31  C   UNL A   1      40.378  25.309  26.196  1.00  0.00     0.016 A 
ATOM     32  C   UNL A   1      39.129  24.524  28.124  1.00  0.00     0.016 A 
ATOM     33  C   UNL A   1      40.577  26.542  26.824  1.00  0.00     0.010 A 
ATOM     34  C   UNL A   1      39.343  25.752  28.757  1.00  0.00     0.010 A 
ATOM     35  C   UNL A   1      40.089  26.759  28.121  1.00  0.00    -0.014 A 
BRANCH  35  36
ATOM     36  C   UNL A   1      40.490  27.975  28.874  1.00  0.00     0.031 A 
ATOM     37  C   UNL A   1      41.896  28.068  29.397  1.00  0.00     0.074 A 
ATOM     38  C   UNL A   1      39.625  28.981  29.091  1.00  0.00     0.049 A 
ATOM     39  N   UNL A   1      42.465  29.015  30.098  1.00  0.00    -0.248 NA
ATOM     40  C   UNL A   1      42.783  26.935  29.085  1.00  0.00     0.031 C 
ATOM     41  C   UNL A   1      38.244  29.027  28.619  1.00  0.00     0.029 A 
ATOM     42  N   UNL A   1      39.788  30.161  29.777  1.00  0.00    -0.354 N 
ATOM     43  C   UNL A   1      43.771  28.594  30.312  1.00  0.00     0.074 A 
ATOM     44  C   UNL A   1      43.904  27.293  29.691  1.00  0.00     0.031 C 
ATOM     45  C   UNL A   1      37.680  30.174  29.035  1.00  0.00     0.029 A 
ATOM     46  C   UNL A   1      38.651  30.930  29.826  1.00  0.00     0.049 A 
ATOM     47  H   UNL A   1      40.638  30.429  30.193  1.00  0.00     0.167 HD
ATOM     48  C   UNL A   1      44.772  29.236  30.959  1.00  0.00     0.037 A 
ATOM     49  C   UNL A   1      38.420  32.101  30.453  1.00  0.00     0.037 A 
ATOM     50  C   UNL A   1      44.642  30.525  31.584  1.00  0.00     0.049 A 
ATOM     51  C   UNL A   1      39.530  32.761  31.231  1.00  0.00     0.074 A 
ATOM     52  C   UNL A   1      45.608  31.269  32.239  1.00  0.00     0.029 A 
ATOM     53  N   UNL A   1      43.465  31.257  31.642  1.00  0.00    -0.354 N 
ATOM     54  N   UNL A   1      40.774  32.378  31.390  1.00  0.00    -0.248 NA
ATOM     55  C   UNL A   1      39.202  34.021  31.916  1.00  0.00     0.031 C 
ATOM     56  C   UNL A   1      45.003  32.428  32.737  1.00  0.00     0.029 A 
ATOM     57  C   UNL A   1      43.673  32.431  32.349  1.00  0.00     0.049 A 
ATOM     58  H   UNL A   1      42.609  30.983  31.241  1.00  0.00     0.167 HD
ATOM     59  C   UNL A   1      41.382  33.359  32.164  1.00  0.00     0.074 A 
ATOM     60  C   UNL A   1      40.373  34.361  32.437  1.00  0.00     0.031 C 
ATOM     61  C   UNL A   1      42.662  33.424  32.606  1.00  0.00     0.037 A 
BRANCH  48  62
ATOM     62  C   UNL A   1      46.094  28.535  31.046  1.00  0.00     0.064 A 
ATOM     63  C   UNL A   1      46.333  27.526  31.993  1.00  0.00     0.173 A 
ATOM     64  C   UNL A   1      47.131  28.862  30.161  1.00  0.00     0.173 A 
ATOM     65  F   UNL A   1      45.378  27.187  32.873  1.00  0.00    -0.203 F 
ATOM     66  C   UNL A   1      47.569  26.891  32.065  1.00  0.00     0.198 A 
ATOM     67  C   UNL A   1      48.357  28.206  30.218  1.00  0.00     0.198 A 
ATOM     68  F   UNL A   1      46.953  29.818  29.236  1.00  0.00    -0.203 F 
ATOM     69  F   UNL A   1      47.791  25.965  33.008  1.00  0.00    -0.200 F 
ATOM     70  C   UNL A   1      48.578  27.228  31.175  1.00  0.00     0.200 A 
ATOM     71  F   UNL A   1      49.328  28.527  29.352  1.00  0.00    -0.200 F 
ATOM     72  F   UNL A   1      49.768  26.615  31.245  1.00  0.00    -0.200 F 
ENDBRANCH  48  62
BRANCH  49  73
ATOM     73  C   UNL A   1      37.076  32.731  30.378  1.00  0.00     0.064 A 
ATOM     74  C   UNL A   1      36.111  32.494  31.366  1.00  0.00     0.173 A 
ATOM     75  C   UNL A   1      36.722  33.562  29.305  1.00  0.00     0.173 A 
ATOM     76  F   UNL A   1      36.392  31.681  32.395  1.00  0.00    -0.203 F 
ATOM     77  C   UNL A   1      34.838  33.053  31.278  1.00  0.00     0.198 A 
ATOM     78  C   UNL A   1      35.457  34.141  29.230  1.00  0.00     0.198 A 
ATOM     79  F   UNL A   1      37.607  33.812  28.329  1.00  0.00    -0.203 F 
ATOM     80  F   UNL A   1      33.918  32.773  32.212  1.00  0.00    -0.200 F 
ATOM     81  C   UNL A   1      34.514  33.881  30.213  1.00  0.00     0.200 A 
ATOM     82  F   UNL A   1      35.149  34.943  28.202  1.00  0.00    -0.200 F 
ATOM     83  F   UNL A   1      33.288  34.417  30.127  1.00  0.00    -0.200 F 
ENDBRANCH  49  73
BRANCH  61  84
ATOM     84  C   UNL A   1      43.060  34.635  33.401  1.00  0.00     0.064 A 
ATOM     85  C   UNL A   1      43.028  34.640  34.803  1.00  0.00     0.173 A 
ATOM     86  C   UNL A   1      43.528  35.788  32.751  1.00  0.00     0.173 A 
ATOM     87  F   UNL A   1      42.576  33.568  35.471  1.00  0.00    -0.203 F 
ATOM     88  C   UNL A   1      43.429  35.763  35.524  1.00  0.00     0.198 A 
ATOM     89  C   UNL A   1      43.955  36.897  33.475  1.00  0.00     0.198 A 
ATOM     90  F   UNL A   1      43.587  35.831  31.411  1.00  0.00    -0.203 F 
ATOM     91  F   UNL A   1      43.350  35.760  36.862  1.00  0.00    -0.200 F 
ATOM     92  C   UNL A   1      43.898  36.887  34.860  1.00  0.00     0.200 A 
ATOM     93  F   UNL A   1      44.421  37.977  32.833  1.00  0.00    -0.200 F 
ATOM     94  F   UNL A   1      44.292  37.961  35.556  1.00  0.00    -0.200 F 
ENDBRANCH  61  84
ENDBRANCH  35  36
ENDBRANCH  28  30
ENDBRANCH  27  28
ENDBRANCH  26  27
ENDBRANCH  25  26
ENDBRANCH  24  25
ENDBRANCH  23  24
ENDBRANCH   1  23
TORSDOF 20
ENDMDL
