MODEL 1
REMARK VINA RESULT:     -11.6      0.000      0.000
REMARK SMILES C[C@H]1OCC[C@@H]1C(=O)Nc1sc2c(c1C(=O)OCCOCCOCCOC(=O)c1ccc(-c3c4nc(c(-c5c(F)c(F)c(F)c(F)c5F)c5ccc([nH]5)c(-c5c(F)c(F)c(F)c(F)c5F)c5nc(c(-c6c(F)c(F)c(F)c(F)c6F)c6ccc3[nH]6)C=C5)C=C4)cc1)CCC2
REMARK SMILES IDX 21 1 20 2 19 3 18 4 17 5 15 6 16 7 14 8 10 9 11 10 12 11
REMARK SMILES IDX 13 12 94 13 92 14 93 15 9 16 7 17 8 18 6 20 1 21 2 22 3 23
REMARK SMILES IDX 4 24 5 25 22 26 23 27 24 28 25 29 26 30 27 31 28 32 29 33
REMARK SMILES IDX 30 34 91 35 31 36 90 37 32 38 33 39 34 40 84 41 35 42 89 43
REMARK SMILES IDX 83 44 85 45 36 46 88 47 82 48 81 49 37 51 69 52 49 53 68 54
REMARK SMILES IDX 50 55 53 56 67 57 86 58 51 59 52 60 66 62 87 63 54 64 38 65
REMARK SMILES IDX 39 66 47 67 40 68 41 69 45 70 48 71 42 72 43 73 46 74 44 75
REMARK SMILES IDX 70 76 71 77 79 78 72 79 73 80 77 81 80 82 74 83 75 84 78 85
REMARK SMILES IDX 76 86 55 87 56 88 64 89 57 90 58 91 62 92 65 93 59 94 60 95
REMARK SMILES IDX 63 96 61 97
REMARK H PARENT 9 19 85 50 53 61
REMARK Flexibility Score: inf
ROOT
ATOM      1  C   UNL A   1      39.828  22.048  26.423  1.00  0.00     0.188 C 
ENDROOT
BRANCH   1   2
ATOM      2  O   UNL A   1      39.033  21.040  25.832  1.00  0.00    -0.376 OA
BRANCH   2   3
ATOM      3  C   UNL A   1      37.856  21.560  25.201  1.00  0.00     0.202 C 
BRANCH   3   4
ATOM      4  C   UNL A   1      37.686  23.095  25.331  1.00  0.00     0.261 C 
BRANCH   4   5
ATOM      5  O   UNL A   1      36.377  23.622  24.953  1.00  0.00    -0.460 OA
BRANCH   5   6
ATOM      6  C   UNL A   1      35.875  23.195  23.735  1.00  0.00     0.341 C 
ATOM      7  O   UNL A   1      36.497  23.295  22.684  1.00  0.00    -0.246 OA
BRANCH   6   8
ATOM      8  C   UNL A   1      34.526  22.589  23.780  1.00  0.00     0.098 A 
ATOM      9  C   UNL A   1      33.389  23.139  23.180  1.00  0.00     0.110 A 
ATOM     10  S   UNL A   1      31.910  22.402  23.645  1.00  0.00    -0.122 S 
ATOM     11  C   UNL A   1      32.770  21.123  24.263  1.00  0.00     0.011 A 
ATOM     12  C   UNL A   1      34.125  21.327  24.330  1.00  0.00    -0.017 A 
ATOM     13  C   UNL A   1      32.311  19.780  24.673  1.00  0.00     0.047 C 
ATOM     14  C   UNL A   1      34.787  20.113  24.876  1.00  0.00     0.038 C 
ATOM     15  C   UNL A   1      33.669  19.026  24.721  1.00  0.00     0.010 C 
BRANCH   9  16
ATOM     16  N   UNL A   1      33.196  24.157  22.272  1.00  0.00    -0.317 N 
ATOM     17  C   UNL A   1      33.480  25.469  22.580  1.00  0.00     0.230 C 
ATOM     18  O   UNL A   1      33.913  26.186  21.668  1.00  0.00    -0.274 OA
ATOM     19  H   UNL A   1      32.843  23.940  21.378  1.00  0.00     0.170 HD
BRANCH  17  20
ATOM     20  C   UNL A   1      33.237  26.097  23.955  1.00  0.00     0.110 C 
ATOM     21  C   UNL A   1      31.721  25.832  25.943  1.00  0.00     0.039 C 
ATOM     22  C   UNL A   1      31.807  26.189  24.461  1.00  0.00     0.127 C 
ATOM     23  O   UNL A   1      31.410  27.567  24.366  1.00  0.00    -0.378 OA
ATOM     24  C   UNL A   1      32.583  28.381  24.397  1.00  0.00     0.161 C 
ATOM     25  C   UNL A   1      33.769  27.486  24.105  1.00  0.00     0.044 C 
ENDBRANCH  17  20
ENDBRANCH   9  16
ENDBRANCH   6   8
ENDBRANCH   5   6
ENDBRANCH   4   5
ENDBRANCH   3   4
ENDBRANCH   2   3
ENDBRANCH   1   2
BRANCH   1  26
ATOM     26  C   UNL A   1      40.599  21.557  27.634  1.00  0.00     0.188 C 
BRANCH  26  27
ATOM     27  O   UNL A   1      40.790  20.144  27.667  1.00  0.00    -0.376 OA
BRANCH  27  28
ATOM     28  C   UNL A   1      42.122  19.698  27.397  1.00  0.00     0.202 C 
BRANCH  28  29
ATOM     29  C   UNL A   1      42.587  19.621  25.933  1.00  0.00     0.261 C 
BRANCH  29  30
ATOM     30  O   UNL A   1      43.349  20.739  25.527  1.00  0.00    -0.460 OA
BRANCH  30  31
ATOM     31  C   UNL A   1      44.260  20.560  24.547  1.00  0.00     0.338 C 
ATOM     32  O   UNL A   1      44.523  19.519  23.957  1.00  0.00    -0.246 OA
BRANCH  31  33
ATOM     33  C   UNL A   1      44.951  21.859  24.380  1.00  0.00     0.060 A 
ATOM     34  C   UNL A   1      46.123  22.035  25.108  1.00  0.00     0.016 A 
ATOM     35  C   UNL A   1      44.165  22.948  23.991  1.00  0.00     0.016 A 
ATOM     36  C   UNL A   1      46.214  23.156  25.883  1.00  0.00     0.010 A 
ATOM     37  C   UNL A   1      44.201  24.033  24.807  1.00  0.00     0.010 A 
ATOM     38  C   UNL A   1      45.145  24.039  25.831  1.00  0.00    -0.014 A 
BRANCH  38  39
ATOM     39  C   UNL A   1      45.042  25.060  26.838  1.00  0.00     0.031 A 
ATOM     40  C   UNL A   1      46.195  25.974  26.738  1.00  0.00     0.074 A 
ATOM     41  C   UNL A   1      43.929  25.130  27.593  1.00  0.00     0.049 A 
ATOM     42  N   UNL A   1      47.186  26.089  27.559  1.00  0.00    -0.248 NA
ATOM     43  C   UNL A   1      46.439  26.600  25.422  1.00  0.00     0.031 C 
ATOM     44  C   UNL A   1      42.720  24.299  27.500  1.00  0.00     0.029 A 
ATOM     45  N   UNL A   1      43.582  26.070  28.512  1.00  0.00    -0.354 N 
ATOM     46  C   UNL A   1      48.020  27.021  26.950  1.00  0.00     0.074 A 
ATOM     47  C   UNL A   1      47.706  26.984  25.555  1.00  0.00     0.031 C 
ATOM     48  C   UNL A   1      41.700  24.922  28.132  1.00  0.00     0.029 A 
ATOM     49  C   UNL A   1      42.204  26.130  28.750  1.00  0.00     0.049 A 
ATOM     50  H   UNL A   1      44.235  26.651  28.967  1.00  0.00     0.167 HD
ATOM     51  C   UNL A   1      48.513  28.059  27.679  1.00  0.00     0.037 A 
ATOM     52  C   UNL A   1      41.572  27.206  29.289  1.00  0.00     0.037 A 
ATOM     53  C   UNL A   1      48.505  27.719  29.085  1.00  0.00     0.049 A 
ATOM     54  C   UNL A   1      42.631  28.034  29.941  1.00  0.00     0.074 A 
ATOM     55  C   UNL A   1      49.062  26.701  29.836  1.00  0.00     0.029 A 
ATOM     56  N   UNL A   1      47.501  28.253  29.856  1.00  0.00    -0.354 N 
ATOM     57  N   UNL A   1      43.313  27.637  30.983  1.00  0.00    -0.248 NA
ATOM     58  C   UNL A   1      43.287  29.036  29.109  1.00  0.00     0.031 C 
ATOM     59  C   UNL A   1      48.082  26.386  30.825  1.00  0.00     0.029 A 
ATOM     60  C   UNL A   1      47.019  27.279  30.690  1.00  0.00     0.049 A 
ATOM     61  H   UNL A   1      47.179  29.182  29.816  1.00  0.00     0.167 HD
ATOM     62  C   UNL A   1      44.627  27.988  30.694  1.00  0.00     0.074 A 
ATOM     63  C   UNL A   1      44.542  28.891  29.549  1.00  0.00     0.031 C 
ATOM     64  C   UNL A   1      45.674  27.277  31.211  1.00  0.00     0.037 A 
BRANCH  51  65
ATOM     65  C   UNL A   1      48.508  29.501  27.190  1.00  0.00     0.064 A 
ATOM     66  C   UNL A   1      49.708  30.227  27.306  1.00  0.00     0.173 A 
ATOM     67  C   UNL A   1      47.362  30.289  26.915  1.00  0.00     0.173 A 
ATOM     68  F   UNL A   1      50.867  29.594  27.537  1.00  0.00    -0.203 F 
ATOM     69  C   UNL A   1      49.734  31.624  27.293  1.00  0.00     0.198 A 
ATOM     70  C   UNL A   1      47.398  31.681  26.866  1.00  0.00     0.198 A 
ATOM     71  F   UNL A   1      46.135  29.790  26.756  1.00  0.00    -0.203 F 
ATOM     72  F   UNL A   1      50.880  32.265  27.548  1.00  0.00    -0.200 F 
ATOM     73  C   UNL A   1      48.576  32.350  27.095  1.00  0.00     0.200 A 
ATOM     74  F   UNL A   1      46.257  32.358  26.675  1.00  0.00    -0.200 F 
ATOM     75  F   UNL A   1      48.583  33.686  27.161  1.00  0.00    -0.200 F 
ENDBRANCH  51  65
BRANCH  52  76
ATOM     76  C   UNL A   1      40.235  27.751  28.943  1.00  0.00     0.064 A 
ATOM     77  C   UNL A   1      39.231  27.888  29.915  1.00  0.00     0.173 A 
ATOM     78  C   UNL A   1      39.997  28.393  27.710  1.00  0.00     0.173 A 
ATOM     79  F   UNL A   1      39.399  27.357  31.135  1.00  0.00    -0.203 F 
ATOM     80  C   UNL A   1      38.069  28.632  29.673  1.00  0.00     0.198 A 
ATOM     81  C   UNL A   1      38.835  29.126  27.467  1.00  0.00     0.198 A 
ATOM     82  F   UNL A   1      40.928  28.403  26.747  1.00  0.00    -0.203 F 
ATOM     83  F   UNL A   1      37.159  28.788  30.645  1.00  0.00    -0.200 F 
ATOM     84  C   UNL A   1      37.875  29.256  28.452  1.00  0.00     0.200 A 
ATOM     85  F   UNL A   1      38.682  29.757  26.294  1.00  0.00    -0.200 F 
ATOM     86  F   UNL A   1      36.791  30.013  28.238  1.00  0.00    -0.200 F 
ENDBRANCH  52  76
BRANCH  64  87
ATOM     87  C   UNL A   1      45.371  26.267  32.282  1.00  0.00     0.064 A 
ATOM     88  C   UNL A   1      45.309  26.566  33.655  1.00  0.00     0.173 A 
ATOM     89  C   UNL A   1      44.972  24.986  31.882  1.00  0.00     0.173 A 
ATOM     90  F   UNL A   1      45.579  27.799  34.103  1.00  0.00    -0.203 F 
ATOM     91  C   UNL A   1      44.901  25.609  34.584  1.00  0.00     0.198 A 
ATOM     92  C   UNL A   1      44.529  24.046  32.806  1.00  0.00     0.198 A 
ATOM     93  F   UNL A   1      44.957  24.666  30.579  1.00  0.00    -0.203 F 
ATOM     94  F   UNL A   1      44.855  25.916  35.889  1.00  0.00    -0.200 F 
ATOM     95  C   UNL A   1      44.503  24.353  34.157  1.00  0.00     0.200 A 
ATOM     96  F   UNL A   1      44.096  22.852  32.382  1.00  0.00    -0.200 F 
ATOM     97  F   UNL A   1      44.068  23.447  35.044  1.00  0.00    -0.200 F 
ENDBRANCH  64  87
ENDBRANCH  38  39
ENDBRANCH  31  33
ENDBRANCH  30  31
ENDBRANCH  29  30
ENDBRANCH  28  29
ENDBRANCH  27  28
ENDBRANCH  26  27
ENDBRANCH   1  26
TORSDOF 19
ENDMDL
MODEL 2
REMARK VINA RESULT:     -11.2      4.809      9.050
REMARK SMILES C[C@H]1OCC[C@@H]1C(=O)Nc1sc2c(c1C(=O)OCCOCCOCCOC(=O)c1ccc(-c3c4nc(c(-c5c(F)c(F)c(F)c(F)c5F)c5ccc([nH]5)c(-c5c(F)c(F)c(F)c(F)c5F)c5nc(c(-c6c(F)c(F)c(F)c(F)c6F)c6ccc3[nH]6)C=C5)C=C4)cc1)CCC2
REMARK SMILES IDX 21 1 20 2 19 3 18 4 17 5 15 6 16 7 14 8 10 9 11 10 12 11
REMARK SMILES IDX 13 12 94 13 92 14 93 15 9 16 7 17 8 18 6 20 1 21 2 22 3 23
REMARK SMILES IDX 4 24 5 25 22 26 23 27 24 28 25 29 26 30 27 31 28 32 29 33
REMARK SMILES IDX 30 34 91 35 31 36 90 37 32 38 33 39 34 40 84 41 35 42 89 43
REMARK SMILES IDX 83 44 85 45 36 46 88 47 82 48 81 49 37 51 69 52 49 53 68 54
REMARK SMILES IDX 50 55 53 56 67 57 86 58 51 59 52 60 66 62 87 63 54 64 38 65
REMARK SMILES IDX 39 66 47 67 40 68 41 69 45 70 48 71 42 72 43 73 46 74 44 75
REMARK SMILES IDX 70 76 71 77 79 78 72 79 73 80 77 81 80 82 74 83 75 84 78 85
REMARK SMILES IDX 76 86 55 87 56 88 64 89 57 90 58 91 62 92 65 93 59 94 60 95
REMARK SMILES IDX 63 96 61 97
REMARK H PARENT 9 19 85 50 53 61
REMARK Flexibility Score: inf
ROOT
ATOM      1  C   UNL A   1      32.549  28.741  23.834  1.00  0.00     0.188 C 
ENDROOT
BRANCH   1   2
ATOM      2  O   UNL A   1      32.114  27.791  22.883  1.00  0.00    -0.376 OA
BRANCH   2   3
ATOM      3  C   UNL A   1      33.197  27.057  22.297  1.00  0.00     0.202 C 
BRANCH   3   4
ATOM      4  C   UNL A   1      32.758  25.833  21.454  1.00  0.00     0.261 C 
BRANCH   4   5
ATOM      5  O   UNL A   1      32.319  24.665  22.213  1.00  0.00    -0.460 OA
BRANCH   5   6
ATOM      6  C   UNL A   1      33.070  23.513  22.051  1.00  0.00     0.341 C 
ATOM      7  O   UNL A   1      33.464  23.122  20.958  1.00  0.00    -0.246 OA
BRANCH   6   8
ATOM      8  C   UNL A   1      33.385  22.778  23.294  1.00  0.00     0.098 A 
ATOM      9  C   UNL A   1      33.830  23.374  24.478  1.00  0.00     0.110 A 
ATOM     10  S   UNL A   1      34.413  22.271  25.657  1.00  0.00    -0.122 S 
ATOM     11  C   UNL A   1      33.692  21.032  24.819  1.00  0.00     0.011 A 
ATOM     12  C   UNL A   1      33.218  21.382  23.581  1.00  0.00    -0.017 A 
ATOM     13  C   UNL A   1      33.412  19.643  25.235  1.00  0.00     0.047 C 
ATOM     14  C   UNL A   1      32.579  20.204  22.938  1.00  0.00     0.038 C 
ATOM     15  C   UNL A   1      32.375  19.233  24.152  1.00  0.00     0.010 C 
BRANCH   9  16
ATOM     16  N   UNL A   1      33.894  24.679  24.915  1.00  0.00    -0.317 N 
ATOM     17  C   UNL A   1      32.843  25.276  25.575  1.00  0.00     0.230 C 
ATOM     18  O   UNL A   1      33.119  26.096  26.461  1.00  0.00    -0.274 OA
ATOM     19  H   UNL A   1      34.714  25.199  24.750  1.00  0.00     0.170 HD
BRANCH  17  20
ATOM     20  C   UNL A   1      31.370  25.031  25.236  1.00  0.00     0.110 C 
ATOM     21  C   UNL A   1      29.338  26.306  24.484  1.00  0.00     0.039 C 
ATOM     22  C   UNL A   1      30.359  26.105  25.601  1.00  0.00     0.127 C 
ATOM     23  O   UNL A   1      29.614  25.622  26.731  1.00  0.00    -0.378 OA
ATOM     24  C   UNL A   1      29.669  24.195  26.734  1.00  0.00     0.161 C 
ATOM     25  C   UNL A   1      30.800  23.778  25.818  1.00  0.00     0.044 C 
ENDBRANCH  17  20
ENDBRANCH   9  16
ENDBRANCH   6   8
ENDBRANCH   5   6
ENDBRANCH   4   5
ENDBRANCH   3   4
ENDBRANCH   2   3
ENDBRANCH   1   2
BRANCH   1  26
ATOM     26  C   UNL A   1      31.402  29.377  24.599  1.00  0.00     0.188 C 
BRANCH  26  27
ATOM     27  O   UNL A   1      31.782  29.937  25.855  1.00  0.00    -0.376 OA
BRANCH  27  28
ATOM     28  C   UNL A   1      33.076  29.554  26.330  1.00  0.00     0.202 C 
BRANCH  28  29
ATOM     29  C   UNL A   1      34.003  30.644  26.895  1.00  0.00     0.261 C 
BRANCH  29  30
ATOM     30  O   UNL A   1      33.494  31.266  28.057  1.00  0.00    -0.460 OA
BRANCH  30  31
ATOM     31  C   UNL A   1      33.174  32.575  27.982  1.00  0.00     0.338 C 
ATOM     32  O   UNL A   1      32.273  33.086  27.326  1.00  0.00    -0.246 OA
BRANCH  31  33
ATOM     33  C   UNL A   1      34.188  33.296  28.786  1.00  0.00     0.060 A 
ATOM     34  C   UNL A   1      35.181  33.963  28.076  1.00  0.00     0.016 A 
ATOM     35  C   UNL A   1      34.407  32.834  30.087  1.00  0.00     0.016 A 
ATOM     36  C   UNL A   1      36.476  33.693  28.413  1.00  0.00     0.010 A 
ATOM     37  C   UNL A   1      35.687  32.496  30.393  1.00  0.00     0.010 A 
ATOM     38  C   UNL A   1      36.677  32.814  29.468  1.00  0.00    -0.014 A 
BRANCH  38  39
ATOM     39  C   UNL A   1      37.989  32.259  29.664  1.00  0.00     0.031 A 
ATOM     40  C   UNL A   1      38.010  30.859  29.201  1.00  0.00     0.074 A 
ATOM     41  C   UNL A   1      38.986  33.061  30.083  1.00  0.00     0.049 A 
ATOM     42  N   UNL A   1      38.092  29.789  29.921  1.00  0.00    -0.248 NA
ATOM     43  C   UNL A   1      37.570  30.608  27.813  1.00  0.00     0.031 C 
ATOM     44  C   UNL A   1      38.938  34.508  30.336  1.00  0.00     0.029 A 
ATOM     45  N   UNL A   1      40.308  32.772  30.224  1.00  0.00    -0.354 N 
ATOM     46  C   UNL A   1      37.986  28.754  28.998  1.00  0.00     0.074 A 
ATOM     47  C   UNL A   1      37.313  29.303  27.861  1.00  0.00     0.031 C 
ATOM     48  C   UNL A   1      40.195  35.004  30.345  1.00  0.00     0.029 A 
ATOM     49  C   UNL A   1      41.128  33.907  30.199  1.00  0.00     0.049 A 
ATOM     50  H   UNL A   1      40.654  31.857  30.335  1.00  0.00     0.167 HD
ATOM     51  C   UNL A   1      38.872  27.723  29.040  1.00  0.00     0.037 A 
ATOM     52  C   UNL A   1      42.458  33.876  29.921  1.00  0.00     0.037 A 
ATOM     53  C   UNL A   1      39.446  27.623  30.364  1.00  0.00     0.049 A 
ATOM     54  C   UNL A   1      42.894  32.458  30.098  1.00  0.00     0.074 A 
ATOM     55  C   UNL A   1      38.926  27.454  31.633  1.00  0.00     0.029 A 
ATOM     56  N   UNL A   1      40.716  28.118  30.538  1.00  0.00    -0.354 N 
ATOM     57  N   UNL A   1      42.900  31.847  31.253  1.00  0.00    -0.248 NA
ATOM     58  C   UNL A   1      42.790  31.588  28.931  1.00  0.00     0.031 C 
ATOM     59  C   UNL A   1      39.734  28.269  32.481  1.00  0.00     0.029 A 
ATOM     60  C   UNL A   1      40.758  28.823  31.712  1.00  0.00     0.049 A 
ATOM     61  H   UNL A   1      41.472  27.990  29.921  1.00  0.00     0.167 HD
ATOM     62  C   UNL A   1      42.358  30.594  30.988  1.00  0.00     0.074 A 
ATOM     63  C   UNL A   1      42.356  30.475  29.532  1.00  0.00     0.031 C 
ATOM     64  C   UNL A   1      41.683  29.903  31.954  1.00  0.00     0.037 A 
BRANCH  51  65
ATOM     65  C   UNL A   1      39.571  27.170  27.806  1.00  0.00     0.064 A 
ATOM     66  C   UNL A   1      39.662  25.771  27.686  1.00  0.00     0.173 A 
ATOM     67  C   UNL A   1      40.405  27.896  26.918  1.00  0.00     0.173 A 
ATOM     68  F   UNL A   1      38.903  24.971  28.450  1.00  0.00    -0.203 F 
ATOM     69  C   UNL A   1      40.605  25.156  26.858  1.00  0.00     0.198 A 
ATOM     70  C   UNL A   1      41.319  27.279  26.067  1.00  0.00     0.198 A 
ATOM     71  F   UNL A   1      40.455  29.229  26.864  1.00  0.00    -0.203 F 
ATOM     72  F   UNL A   1      40.744  23.826  26.890  1.00  0.00    -0.200 F 
ATOM     73  C   UNL A   1      41.448  25.912  26.067  1.00  0.00     0.200 A 
ATOM     74  F   UNL A   1      42.126  28.039  25.312  1.00  0.00    -0.200 F 
ATOM     75  F   UNL A   1      42.405  25.331  25.333  1.00  0.00    -0.200 F 
ENDBRANCH  51  65
BRANCH  52  76
ATOM     76  C   UNL A   1      43.254  34.864  29.150  1.00  0.00     0.064 A 
ATOM     77  C   UNL A   1      42.747  35.453  27.979  1.00  0.00     0.173 A 
ATOM     78  C   UNL A   1      44.420  35.450  29.684  1.00  0.00     0.173 A 
ATOM     79  F   UNL A   1      41.612  34.994  27.434  1.00  0.00    -0.203 F 
ATOM     80  C   UNL A   1      43.361  36.565  27.389  1.00  0.00     0.198 A 
ATOM     81  C   UNL A   1      45.036  36.553  29.090  1.00  0.00     0.198 A 
ATOM     82  F   UNL A   1      44.934  35.026  30.847  1.00  0.00    -0.203 F 
ATOM     83  F   UNL A   1      42.816  37.134  26.305  1.00  0.00    -0.200 F 
ATOM     84  C   UNL A   1      44.500  37.118  27.950  1.00  0.00     0.200 A 
ATOM     85  F   UNL A   1      46.115  37.100  29.668  1.00  0.00    -0.200 F 
ATOM     86  F   UNL A   1      45.057  38.215  27.419  1.00  0.00    -0.200 F 
ENDBRANCH  52  76
BRANCH  64  87
ATOM     87  C   UNL A   1      41.751  30.423  33.363  1.00  0.00     0.064 A 
ATOM     88  C   UNL A   1      40.853  31.360  33.905  1.00  0.00     0.173 A 
ATOM     89  C   UNL A   1      42.664  29.825  34.240  1.00  0.00     0.173 A 
ATOM     90  F   UNL A   1      39.885  31.899  33.151  1.00  0.00    -0.203 F 
ATOM     91  C   UNL A   1      40.896  31.705  35.255  1.00  0.00     0.198 A 
ATOM     92  C   UNL A   1      42.681  30.143  35.593  1.00  0.00     0.198 A 
ATOM     93  F   UNL A   1      43.507  28.883  33.788  1.00  0.00    -0.203 F 
ATOM     94  F   UNL A   1      40.032  32.606  35.747  1.00  0.00    -0.200 F 
ATOM     95  C   UNL A   1      41.805  31.090  36.099  1.00  0.00     0.200 A 
ATOM     96  F   UNL A   1      43.527  29.506  36.414  1.00  0.00    -0.200 F 
ATOM     97  F   UNL A   1      41.820  31.388  37.406  1.00  0.00    -0.200 F 
ENDBRANCH  64  87
ENDBRANCH  38  39
ENDBRANCH  31  33
ENDBRANCH  30  31
ENDBRANCH  29  30
ENDBRANCH  28  29
ENDBRANCH  27  28
ENDBRANCH  26  27
ENDBRANCH   1  26
TORSDOF 19
ENDMDL
MODEL 3
REMARK VINA RESULT:     -11.1      4.299      9.161
REMARK SMILES C[C@H]1OCC[C@@H]1C(=O)Nc1sc2c(c1C(=O)OCCOCCOCCOC(=O)c1ccc(-c3c4nc(c(-c5c(F)c(F)c(F)c(F)c5F)c5ccc([nH]5)c(-c5c(F)c(F)c(F)c(F)c5F)c5nc(c(-c6c(F)c(F)c(F)c(F)c6F)c6ccc3[nH]6)C=C5)C=C4)cc1)CCC2
REMARK SMILES IDX 21 1 20 2 19 3 18 4 17 5 15 6 16 7 14 8 10 9 11 10 12 11
REMARK SMILES IDX 13 12 94 13 92 14 93 15 9 16 7 17 8 18 6 20 1 21 2 22 3 23
REMARK SMILES IDX 4 24 5 25 22 26 23 27 24 28 25 29 26 30 27 31 28 32 29 33
REMARK SMILES IDX 30 34 91 35 31 36 90 37 32 38 33 39 34 40 84 41 35 42 89 43
REMARK SMILES IDX 83 44 85 45 36 46 88 47 82 48 81 49 37 51 69 52 49 53 68 54
REMARK SMILES IDX 50 55 53 56 67 57 86 58 51 59 52 60 66 62 87 63 54 64 38 65
REMARK SMILES IDX 39 66 47 67 40 68 41 69 45 70 48 71 42 72 43 73 46 74 44 75
REMARK SMILES IDX 70 76 71 77 79 78 72 79 73 80 77 81 80 82 74 83 75 84 78 85
REMARK SMILES IDX 76 86 55 87 56 88 64 89 57 90 58 91 62 92 65 93 59 94 60 95
REMARK SMILES IDX 63 96 61 97
REMARK H PARENT 9 19 85 50 53 61
REMARK Flexibility Score: inf
ROOT
ATOM      1  C   UNL A   1      33.471  28.851  23.904  1.00  0.00     0.188 C 
ENDROOT
BRANCH   1   2
ATOM      2  O   UNL A   1      33.257  28.260  22.638  1.00  0.00    -0.376 OA
BRANCH   2   3
ATOM      3  C   UNL A   1      33.400  26.834  22.658  1.00  0.00     0.202 C 
BRANCH   3   4
ATOM      4  C   UNL A   1      32.809  26.115  21.420  1.00  0.00     0.261 C 
BRANCH   4   5
ATOM      5  O   UNL A   1      32.009  24.925  21.701  1.00  0.00    -0.460 OA
BRANCH   5   6
ATOM      6  C   UNL A   1      32.688  23.844  22.239  1.00  0.00     0.341 C 
ATOM      7  O   UNL A   1      33.673  23.344  21.708  1.00  0.00    -0.246 OA
BRANCH   6   8
ATOM      8  C   UNL A   1      32.155  23.330  23.518  1.00  0.00     0.098 A 
ATOM      9  C   UNL A   1      32.526  22.114  24.102  1.00  0.00     0.110 A 
ATOM     10  S   UNL A   1      31.534  21.620  25.413  1.00  0.00    -0.122 S 
ATOM     11  C   UNL A   1      30.918  23.160  25.496  1.00  0.00     0.011 A 
ATOM     12  C   UNL A   1      31.265  23.970  24.444  1.00  0.00    -0.017 A 
ATOM     13  C   UNL A   1      30.128  23.810  26.561  1.00  0.00     0.047 C 
ATOM     14  C   UNL A   1      30.677  25.321  24.637  1.00  0.00     0.038 C 
ATOM     15  C   UNL A   1      30.292  25.301  26.158  1.00  0.00     0.010 C 
BRANCH   9  16
ATOM     16  N   UNL A   1      33.540  21.216  23.854  1.00  0.00    -0.317 N 
ATOM     17  C   UNL A   1      34.625  21.096  24.693  1.00  0.00     0.230 C 
ATOM     18  O   UNL A   1      35.113  19.966  24.835  1.00  0.00    -0.274 OA
ATOM     19  H   UNL A   1      33.488  20.644  23.053  1.00  0.00     0.170 HD
BRANCH  17  20
ATOM     20  C   UNL A   1      35.292  22.276  25.405  1.00  0.00     0.110 C 
ATOM     21  C   UNL A   1      35.247  24.790  25.402  1.00  0.00     0.039 C 
ATOM     22  C   UNL A   1      35.577  23.533  24.600  1.00  0.00     0.127 C 
ATOM     23  O   UNL A   1      36.995  23.577  24.370  1.00  0.00    -0.378 OA
ATOM     24  C   UNL A   1      37.646  22.822  25.391  1.00  0.00     0.161 C 
ATOM     25  C   UNL A   1      36.598  21.952  26.054  1.00  0.00     0.044 C 
ENDBRANCH  17  20
ENDBRANCH   9  16
ENDBRANCH   6   8
ENDBRANCH   5   6
ENDBRANCH   4   5
ENDBRANCH   3   4
ENDBRANCH   2   3
ENDBRANCH   1   2
BRANCH   1  26
ATOM     26  C   UNL A   1      32.181  29.132  24.651  1.00  0.00     0.188 C 
BRANCH  26  27
ATOM     27  O   UNL A   1      32.308  30.108  25.683  1.00  0.00    -0.376 OA
BRANCH  27  28
ATOM     28  C   UNL A   1      33.305  29.829  26.671  1.00  0.00     0.202 C 
BRANCH  28  29
ATOM     29  C   UNL A   1      34.141  30.997  27.219  1.00  0.00     0.261 C 
BRANCH  29  30
ATOM     30  O   UNL A   1      33.560  31.622  28.346  1.00  0.00    -0.460 OA
BRANCH  30  31
ATOM     31  C   UNL A   1      33.367  32.957  28.297  1.00  0.00     0.338 C 
ATOM     32  O   UNL A   1      32.549  33.567  27.618  1.00  0.00    -0.246 OA
BRANCH  31  33
ATOM     33  C   UNL A   1      34.405  33.558  29.166  1.00  0.00     0.060 A 
ATOM     34  C   UNL A   1      35.422  34.256  28.524  1.00  0.00     0.016 A 
ATOM     35  C   UNL A   1      34.606  32.962  30.415  1.00  0.00     0.016 A 
ATOM     36  C   UNL A   1      36.706  33.908  28.830  1.00  0.00     0.010 A 
ATOM     37  C   UNL A   1      35.872  32.549  30.684  1.00  0.00     0.010 A 
ATOM     38  C   UNL A   1      36.875  32.922  29.792  1.00  0.00    -0.014 A 
BRANCH  38  39
ATOM     39  C   UNL A   1      38.165  32.304  29.931  1.00  0.00     0.031 A 
ATOM     40  C   UNL A   1      38.108  30.918  29.431  1.00  0.00     0.074 A 
ATOM     41  C   UNL A   1      39.211  33.049  30.336  1.00  0.00     0.049 A 
ATOM     42  N   UNL A   1      38.164  29.827  30.120  1.00  0.00    -0.248 NA
ATOM     43  C   UNL A   1      37.612  30.725  28.052  1.00  0.00     0.031 C 
ATOM     44  C   UNL A   1      39.236  34.490  30.628  1.00  0.00     0.029 A 
ATOM     45  N   UNL A   1      40.522  32.698  30.426  1.00  0.00    -0.354 N 
ATOM     46  C   UNL A   1      37.981  28.823  29.174  1.00  0.00     0.074 A 
ATOM     47  C   UNL A   1      37.297  29.432  28.075  1.00  0.00     0.031 C 
ATOM     48  C   UNL A   1      40.515  34.928  30.608  1.00  0.00     0.029 A 
ATOM     49  C   UNL A   1      41.392  33.795  30.403  1.00  0.00     0.049 A 
ATOM     50  H   UNL A   1      40.830  31.766  30.502  1.00  0.00     0.167 HD
ATOM     51  C   UNL A   1      38.820  27.752  29.160  1.00  0.00     0.037 A 
ATOM     52  C   UNL A   1      42.709  33.712  30.079  1.00  0.00     0.037 A 
ATOM     53  C   UNL A   1      39.432  27.590  30.461  1.00  0.00     0.049 A 
ATOM     54  C   UNL A   1      43.085  32.272  30.205  1.00  0.00     0.074 A 
ATOM     55  C   UNL A   1      38.946  27.410  31.742  1.00  0.00     0.029 A 
ATOM     56  N   UNL A   1      40.728  28.023  30.606  1.00  0.00    -0.354 N 
ATOM     57  N   UNL A   1      43.101  31.631  31.344  1.00  0.00    -0.248 NA
ATOM     58  C   UNL A   1      42.905  31.441  29.021  1.00  0.00     0.031 C 
ATOM     59  C   UNL A   1      39.817  28.165  32.583  1.00  0.00     0.029 A 
ATOM     60  C   UNL A   1      40.839  28.693  31.795  1.00  0.00     0.049 A 
ATOM     61  H   UNL A   1      41.457  27.878  29.960  1.00  0.00     0.167 HD
ATOM     62  C   UNL A   1      42.495  30.411  31.064  1.00  0.00     0.074 A 
ATOM     63  C   UNL A   1      42.440  30.332  29.607  1.00  0.00     0.031 C 
ATOM     64  C   UNL A   1      41.820  29.724  32.034  1.00  0.00     0.037 A 
BRANCH  51  65
ATOM     65  C   UNL A   1      39.454  27.203  27.889  1.00  0.00     0.064 A 
ATOM     66  C   UNL A   1      39.486  25.804  27.736  1.00  0.00     0.173 A 
ATOM     67  C   UNL A   1      40.282  27.918  26.988  1.00  0.00     0.173 A 
ATOM     68  F   UNL A   1      38.724  25.016  28.508  1.00  0.00    -0.203 F 
ATOM     69  C   UNL A   1      40.375  25.174  26.861  1.00  0.00     0.198 A 
ATOM     70  C   UNL A   1      41.142  27.287  26.092  1.00  0.00     0.198 A 
ATOM     71  F   UNL A   1      40.382  29.248  26.963  1.00  0.00    -0.203 F 
ATOM     72  F   UNL A   1      40.463  23.839  26.858  1.00  0.00    -0.200 F 
ATOM     73  C   UNL A   1      41.218  25.916  26.056  1.00  0.00     0.200 A 
ATOM     74  F   UNL A   1      41.949  28.033  25.325  1.00  0.00    -0.200 F 
ATOM     75  F   UNL A   1      42.125  25.317  25.276  1.00  0.00    -0.200 F 
ENDBRANCH  51  65
BRANCH  52  76
ATOM     76  C   UNL A   1      43.524  34.685  29.308  1.00  0.00     0.064 A 
ATOM     77  C   UNL A   1      44.891  34.864  29.578  1.00  0.00     0.173 A 
ATOM     78  C   UNL A   1      43.045  35.269  28.118  1.00  0.00     0.173 A 
ATOM     79  F   UNL A   1      45.443  34.296  30.659  1.00  0.00    -0.203 F 
ATOM     80  C   UNL A   1      45.727  35.571  28.704  1.00  0.00     0.198 A 
ATOM     81  C   UNL A   1      43.877  35.982  27.253  1.00  0.00     0.198 A 
ATOM     82  F   UNL A   1      41.779  35.082  27.719  1.00  0.00    -0.203 F 
ATOM     83  F   UNL A   1      47.038  35.673  28.966  1.00  0.00    -0.200 F 
ATOM     84  C   UNL A   1      45.220  36.123  27.539  1.00  0.00     0.200 A 
ATOM     85  F   UNL A   1      43.378  36.475  26.110  1.00  0.00    -0.200 F 
ATOM     86  F   UNL A   1      46.029  36.752  26.676  1.00  0.00    -0.200 F 
ENDBRANCH  52  76
BRANCH  64  87
ATOM     87  C   UNL A   1      41.957  30.202  33.453  1.00  0.00     0.064 A 
ATOM     88  C   UNL A   1      41.109  31.150  34.054  1.00  0.00     0.173 A 
ATOM     89  C   UNL A   1      42.883  29.552  34.278  1.00  0.00     0.173 A 
ATOM     90  F   UNL A   1      40.132  31.739  33.352  1.00  0.00    -0.203 F 
ATOM     91  C   UNL A   1      41.214  31.455  35.410  1.00  0.00     0.198 A 
ATOM     92  C   UNL A   1      42.961  29.831  35.638  1.00  0.00     0.198 A 
ATOM     93  F   UNL A   1      43.678  28.598  33.768  1.00  0.00    -0.203 F 
ATOM     94  F   UNL A   1      40.398  32.367  35.959  1.00  0.00    -0.200 F 
ATOM     95  C   UNL A   1      42.135  30.790  36.202  1.00  0.00     0.200 A 
ATOM     96  F   UNL A   1      43.816  29.146  36.408  1.00  0.00    -0.200 F 
ATOM     97  F   UNL A   1      42.207  31.050  37.515  1.00  0.00    -0.200 F 
ENDBRANCH  64  87
ENDBRANCH  38  39
ENDBRANCH  31  33
ENDBRANCH  30  31
ENDBRANCH  29  30
ENDBRANCH  28  29
ENDBRANCH  27  28
ENDBRANCH  26  27
ENDBRANCH   1  26
TORSDOF 19
ENDMDL
