MODEL 1
REMARK VINA RESULT:     -11.6      0.000      0.000
REMARK SMILES CS(=O)(=O)c1ccc(/C=C(/C(=O)OCCOCCOCCOC(=O)c2ccc(-c3c4nc(c(-c5c(F)c(F)c(F)c(F)c5F)c5ccc([nH]5)c(-c5c(F)c(F)c(F)c(F)c5F)c5nc(c(-c6c(F)c(F)c(F)c(F)c6F)c6ccc3[nH]6)C=C5)C=C4)cc2)c2ccccc2)cc1
REMARK SMILES IDX 17 1 16 2 15 3 14 4 13 5 11 6 12 7 10 8 9 9 8 10 5 11 6 12
REMARK SMILES IDX 95 13 7 14 94 15 2 16 1 17 3 18 4 19 88 20 89 21 93 22 90 23
REMARK SMILES IDX 92 24 91 25 18 26 19 27 20 28 21 29 22 30 23 31 24 32 25 33
REMARK SMILES IDX 26 34 87 35 27 36 86 37 28 38 29 39 30 40 80 41 31 42 85 43
REMARK SMILES IDX 79 44 81 45 32 46 84 47 78 48 77 49 33 51 65 52 45 53 64 54
REMARK SMILES IDX 46 55 49 56 63 57 82 58 47 59 48 60 62 62 83 63 50 64 34 65
REMARK SMILES IDX 35 66 43 67 36 68 37 69 41 70 44 71 38 72 39 73 42 74 40 75
REMARK SMILES IDX 66 76 67 77 75 78 68 79 69 80 73 81 76 82 70 83 71 84 74 85
REMARK SMILES IDX 72 86 51 87 52 88 60 89 53 90 54 91 58 92 61 93 55 94 56 95
REMARK SMILES IDX 59 96 57 97
REMARK H PARENT 81 50 49 61
REMARK Flexibility Score: inf
ROOT
ATOM      1  C   UNL A   1      35.636  23.609  25.779  1.00  0.00     0.188 C 
ENDROOT
BRANCH   1   2
ATOM      2  O   UNL A   1      34.932  22.780  26.680  1.00  0.00    -0.376 OA
BRANCH   2   3
ATOM      3  C   UNL A   1      34.217  21.684  26.137  1.00  0.00     0.202 C 
BRANCH   3   4
ATOM      4  C   UNL A   1      32.688  21.783  25.994  1.00  0.00     0.261 C 
BRANCH   4   5
ATOM      5  O   UNL A   1      32.168  23.011  25.457  1.00  0.00    -0.460 OA
BRANCH   5   6
ATOM      6  C   UNL A   1      31.668  23.925  26.325  1.00  0.00     0.338 C 
ATOM      7  O   UNL A   1      31.583  23.771  27.534  1.00  0.00    -0.246 OA
BRANCH   6   8
ATOM      8  C   UNL A   1      31.335  25.210  25.614  1.00  0.00     0.067 C 
ATOM      9  C   UNL A   1      30.451  25.199  24.584  1.00  0.00     0.024 C 
BRANCH   9  10
ATOM     10  C   UNL A   1      29.882  26.349  23.835  1.00  0.00    -0.025 A 
ATOM     11  C   UNL A   1      28.744  28.701  22.804  1.00  0.00     0.067 A 
ATOM     12  C   UNL A   1      30.089  28.424  22.569  1.00  0.00     0.021 A 
ATOM     13  C   UNL A   1      27.930  27.759  23.432  1.00  0.00     0.021 A 
ATOM     14  C   UNL A   1      30.642  27.237  23.058  1.00  0.00     0.009 A 
ATOM     15  C   UNL A   1      28.503  26.590  23.945  1.00  0.00     0.009 A 
BRANCH  11  16
ATOM     16  S   UNL A   1      28.087  30.281  22.329  1.00  0.00     0.175 S 
ATOM     17  C   UNL A   1      29.357  31.410  22.850  1.00  0.00     0.163 C 
ATOM     18  O   UNL A   1      26.908  30.531  23.137  1.00  0.00    -0.224 OA
ATOM     19  O   UNL A   1      28.022  30.307  20.881  1.00  0.00    -0.224 OA
ENDBRANCH  11  16
ENDBRANCH   9  10
BRANCH   8  20
ATOM     20  C   UNL A   1      31.991  26.447  26.087  1.00  0.00    -0.011 A 
ATOM     21  C   UNL A   1      31.296  27.311  26.949  1.00  0.00     0.009 A 
ATOM     22  C   UNL A   1      33.334  26.716  25.791  1.00  0.00     0.009 A 
ATOM     23  C   UNL A   1      31.941  28.403  27.530  1.00  0.00     0.001 A 
ATOM     24  C   UNL A   1      33.977  27.809  26.380  1.00  0.00     0.001 A 
ATOM     25  C   UNL A   1      33.282  28.646  27.252  1.00  0.00     0.000 A 
ENDBRANCH   8  20
ENDBRANCH   6   8
ENDBRANCH   5   6
ENDBRANCH   4   5
ENDBRANCH   3   4
ENDBRANCH   2   3
ENDBRANCH   1   2
BRANCH   1  26
ATOM     26  C   UNL A   1      36.082  22.870  24.498  1.00  0.00     0.188 C 
BRANCH  26  27
ATOM     27  O   UNL A   1      37.343  22.216  24.446  1.00  0.00    -0.376 OA
BRANCH  27  28
ATOM     28  C   UNL A   1      37.412  20.812  24.643  1.00  0.00     0.202 C 
BRANCH  28  29
ATOM     29  C   UNL A   1      38.318  20.256  25.752  1.00  0.00     0.261 C 
BRANCH  29  30
ATOM     30  O   UNL A   1      39.708  20.605  25.646  1.00  0.00    -0.460 OA
BRANCH  30  31
ATOM     31  C   UNL A   1      40.399  20.595  26.812  1.00  0.00     0.338 C 
ATOM     32  O   UNL A   1      40.879  19.630  27.385  1.00  0.00    -0.246 OA
BRANCH  31  33
ATOM     33  C   UNL A   1      40.656  21.982  27.249  1.00  0.00     0.060 A 
ATOM     34  C   UNL A   1      39.945  23.017  26.624  1.00  0.00     0.016 A 
ATOM     35  C   UNL A   1      41.625  22.273  28.210  1.00  0.00     0.016 A 
ATOM     36  C   UNL A   1      40.210  24.347  26.947  1.00  0.00     0.010 A 
ATOM     37  C   UNL A   1      41.912  23.609  28.513  1.00  0.00     0.010 A 
ATOM     38  C   UNL A   1      41.223  24.651  27.865  1.00  0.00    -0.014 A 
BRANCH  38  39
ATOM     39  C   UNL A   1      41.678  26.055  28.015  1.00  0.00     0.031 A 
ATOM     40  C   UNL A   1      43.024  26.438  27.467  1.00  0.00     0.074 A 
ATOM     41  C   UNL A   1      40.906  26.979  28.611  1.00  0.00     0.049 A 
ATOM     42  N   UNL A   1      43.645  27.589  27.515  1.00  0.00    -0.248 NA
ATOM     43  C   UNL A   1      43.771  25.377  26.775  1.00  0.00     0.031 C 
ATOM     44  C   UNL A   1      39.568  26.743  29.149  1.00  0.00     0.029 A 
ATOM     45  N   UNL A   1      41.144  28.306  28.869  1.00  0.00    -0.354 N 
ATOM     46  C   UNL A   1      44.854  27.391  26.861  1.00  0.00     0.074 A 
ATOM     47  C   UNL A   1      44.889  26.005  26.446  1.00  0.00     0.031 C 
ATOM     48  C   UNL A   1      39.104  27.888  29.678  1.00  0.00     0.029 A 
ATOM     49  C   UNL A   1      40.128  28.925  29.553  1.00  0.00     0.049 A 
ATOM     50  H   UNL A   1      41.966  28.770  28.588  1.00  0.00     0.167 HD
ATOM     51  C   UNL A   1      45.845  28.283  26.628  1.00  0.00     0.037 A 
ATOM     52  C   UNL A   1      40.050  30.177  30.046  1.00  0.00     0.037 A 
ATOM     53  C   UNL A   1      45.822  29.655  27.060  1.00  0.00     0.049 A 
ATOM     54  C   UNL A   1      41.206  31.128  29.850  1.00  0.00     0.074 A 
ATOM     55  C   UNL A   1      46.779  30.638  26.869  1.00  0.00     0.029 A 
ATOM     56  N   UNL A   1      44.792  30.236  27.785  1.00  0.00    -0.354 N 
ATOM     57  N   UNL A   1      42.333  30.943  29.207  1.00  0.00    -0.248 NA
ATOM     58  C   UNL A   1      41.077  32.463  30.453  1.00  0.00     0.031 C 
ATOM     59  C   UNL A   1      46.352  31.797  27.526  1.00  0.00     0.029 A 
ATOM     60  C   UNL A   1      45.103  31.555  28.074  1.00  0.00     0.049 A 
ATOM     61  H   UNL A   1      43.962  29.780  28.054  1.00  0.00     0.167 HD
ATOM     62  C   UNL A   1      43.033  32.140  29.304  1.00  0.00     0.074 A 
ATOM     63  C   UNL A   1      42.196  33.051  30.056  1.00  0.00     0.031 C 
ATOM     64  C   UNL A   1      44.257  32.457  28.814  1.00  0.00     0.037 A 
BRANCH  51  65
ATOM     65  C   UNL A   1      47.060  27.787  25.901  1.00  0.00     0.064 A 
ATOM     66  C   UNL A   1      47.132  27.786  24.500  1.00  0.00     0.173 A 
ATOM     67  C   UNL A   1      48.177  27.328  26.617  1.00  0.00     0.173 A 
ATOM     68  F   UNL A   1      46.085  28.201  23.771  1.00  0.00    -0.203 F 
ATOM     69  C   UNL A   1      48.266  27.317  23.842  1.00  0.00     0.198 A 
ATOM     70  C   UNL A   1      49.319  26.887  25.956  1.00  0.00     0.198 A 
ATOM     71  F   UNL A   1      48.159  27.311  27.958  1.00  0.00    -0.203 F 
ATOM     72  F   UNL A   1      48.294  27.279  22.503  1.00  0.00    -0.200 F 
ATOM     73  C   UNL A   1      49.361  26.875  24.570  1.00  0.00     0.200 A 
ATOM     74  F   UNL A   1      50.380  26.470  26.662  1.00  0.00    -0.200 F 
ATOM     75  F   UNL A   1      50.453  26.428  23.935  1.00  0.00    -0.200 F 
ENDBRANCH  51  65
BRANCH  52  76
ATOM     76  C   UNL A   1      38.842  30.610  30.797  1.00  0.00     0.064 A 
ATOM     77  C   UNL A   1      37.769  31.233  30.145  1.00  0.00     0.173 A 
ATOM     78  C   UNL A   1      38.751  30.445  32.187  1.00  0.00     0.173 A 
ATOM     79  F   UNL A   1      37.821  31.440  28.820  1.00  0.00    -0.203 F 
ATOM     80  C   UNL A   1      36.662  31.693  30.856  1.00  0.00     0.198 A 
ATOM     81  C   UNL A   1      37.631  30.878  32.894  1.00  0.00     0.198 A 
ATOM     82  F   UNL A   1      39.754  29.861  32.861  1.00  0.00    -0.203 F 
ATOM     83  F   UNL A   1      35.676  32.333  30.213  1.00  0.00    -0.200 F 
ATOM     84  C   UNL A   1      36.592  31.510  32.229  1.00  0.00     0.200 A 
ATOM     85  F   UNL A   1      37.564  30.692  34.219  1.00  0.00    -0.200 F 
ATOM     86  F   UNL A   1      35.528  31.954  32.912  1.00  0.00    -0.200 F 
ENDBRANCH  52  76
BRANCH  64  87
ATOM     87  C   UNL A   1      44.755  33.857  29.036  1.00  0.00     0.064 A 
ATOM     88  C   UNL A   1      45.486  34.210  30.180  1.00  0.00     0.173 A 
ATOM     89  C   UNL A   1      44.542  34.846  28.063  1.00  0.00     0.173 A 
ATOM     90  F   UNL A   1      45.705  33.307  31.146  1.00  0.00    -0.203 F 
ATOM     91  C   UNL A   1      45.964  35.508  30.352  1.00  0.00     0.198 A 
ATOM     92  C   UNL A   1      45.049  36.133  28.223  1.00  0.00     0.198 A 
ATOM     93  F   UNL A   1      43.856  34.560  26.946  1.00  0.00    -0.203 F 
ATOM     94  F   UNL A   1      46.621  35.834  31.473  1.00  0.00    -0.200 F 
ATOM     95  C   UNL A   1      45.754  36.464  29.370  1.00  0.00     0.200 A 
ATOM     96  F   UNL A   1      44.856  37.052  27.267  1.00  0.00    -0.200 F 
ATOM     97  F   UNL A   1      46.224  37.709  29.532  1.00  0.00    -0.200 F 
ENDBRANCH  64  87
ENDBRANCH  38  39
ENDBRANCH  31  33
ENDBRANCH  30  31
ENDBRANCH  29  30
ENDBRANCH  28  29
ENDBRANCH  27  28
ENDBRANCH  26  27
ENDBRANCH   1  26
TORSDOF 20
ENDMDL
MODEL 2
REMARK VINA RESULT:     -11.5      1.805      7.187
REMARK SMILES CS(=O)(=O)c1ccc(/C=C(/C(=O)OCCOCCOCCOC(=O)c2ccc(-c3c4nc(c(-c5c(F)c(F)c(F)c(F)c5F)c5ccc([nH]5)c(-c5c(F)c(F)c(F)c(F)c5F)c5nc(c(-c6c(F)c(F)c(F)c(F)c6F)c6ccc3[nH]6)C=C5)C=C4)cc2)c2ccccc2)cc1
REMARK SMILES IDX 17 1 16 2 15 3 14 4 13 5 11 6 12 7 10 8 9 9 8 10 5 11 6 12
REMARK SMILES IDX 95 13 7 14 94 15 2 16 1 17 3 18 4 19 88 20 89 21 93 22 90 23
REMARK SMILES IDX 92 24 91 25 18 26 19 27 20 28 21 29 22 30 23 31 24 32 25 33
REMARK SMILES IDX 26 34 87 35 27 36 86 37 28 38 29 39 30 40 80 41 31 42 85 43
REMARK SMILES IDX 79 44 81 45 32 46 84 47 78 48 77 49 33 51 65 52 45 53 64 54
REMARK SMILES IDX 46 55 49 56 63 57 82 58 47 59 48 60 62 62 83 63 50 64 34 65
REMARK SMILES IDX 35 66 43 67 36 68 37 69 41 70 44 71 38 72 39 73 42 74 40 75
REMARK SMILES IDX 66 76 67 77 75 78 68 79 69 80 73 81 76 82 70 83 71 84 74 85
REMARK SMILES IDX 72 86 51 87 52 88 60 89 53 90 54 91 58 92 61 93 55 94 56 95
REMARK SMILES IDX 59 96 57 97
REMARK H PARENT 81 50 49 61
REMARK Flexibility Score: inf
ROOT
ATOM      1  C   UNL A   1      35.148  23.109  24.210  1.00  0.00     0.188 C 
ENDROOT
BRANCH   1   2
ATOM      2  O   UNL A   1      34.241  22.038  24.053  1.00  0.00    -0.376 OA
BRANCH   2   3
ATOM      3  C   UNL A   1      33.649  21.504  25.226  1.00  0.00     0.202 C 
BRANCH   3   4
ATOM      4  C   UNL A   1      32.259  22.004  25.657  1.00  0.00     0.261 C 
BRANCH   4   5
ATOM      5  O   UNL A   1      31.889  23.327  25.235  1.00  0.00    -0.460 OA
BRANCH   5   6
ATOM      6  C   UNL A   1      31.216  24.111  26.113  1.00  0.00     0.338 C 
ATOM      7  O   UNL A   1      30.852  23.765  27.226  1.00  0.00    -0.246 OA
BRANCH   6   8
ATOM      8  C   UNL A   1      31.076  25.513  25.579  1.00  0.00     0.067 C 
ATOM      9  C   UNL A   1      30.214  25.761  24.561  1.00  0.00     0.024 C 
BRANCH   9  10
ATOM     10  C   UNL A   1      29.823  27.068  23.972  1.00  0.00    -0.025 A 
ATOM     11  C   UNL A   1      28.854  29.594  23.219  1.00  0.00     0.067 A 
ATOM     12  C   UNL A   1      30.210  29.426  23.485  1.00  0.00     0.021 A 
ATOM     13  C   UNL A   1      27.998  28.493  23.195  1.00  0.00     0.021 A 
ATOM     14  C   UNL A   1      30.692  28.160  23.829  1.00  0.00     0.009 A 
ATOM     15  C   UNL A   1      28.486  27.237  23.573  1.00  0.00     0.009 A 
BRANCH  11  16
ATOM     16  S   UNL A   1      28.218  31.230  22.946  1.00  0.00     0.175 S 
ATOM     17  C   UNL A   1      27.963  31.266  21.187  1.00  0.00     0.163 C 
ATOM     18  O   UNL A   1      29.273  32.173  23.264  1.00  0.00    -0.224 OA
ATOM     19  O   UNL A   1      26.924  31.307  23.594  1.00  0.00    -0.224 OA
ENDBRANCH  11  16
ENDBRANCH   9  10
BRANCH   8  20
ATOM     20  C   UNL A   1      31.893  26.572  26.207  1.00  0.00    -0.011 A 
ATOM     21  C   UNL A   1      33.206  26.789  25.757  1.00  0.00     0.009 A 
ATOM     22  C   UNL A   1      31.347  27.443  27.158  1.00  0.00     0.009 A 
ATOM     23  C   UNL A   1      33.946  27.876  26.224  1.00  0.00     0.001 A 
ATOM     24  C   UNL A   1      32.091  28.534  27.619  1.00  0.00     0.001 A 
ATOM     25  C   UNL A   1      33.384  28.752  27.148  1.00  0.00     0.000 A 
ENDBRANCH   8  20
ENDBRANCH   6   8
ENDBRANCH   5   6
ENDBRANCH   4   5
ENDBRANCH   3   4
ENDBRANCH   2   3
ENDBRANCH   1   2
BRANCH   1  26
ATOM     26  C   UNL A   1      36.599  22.734  23.839  1.00  0.00     0.188 C 
BRANCH  26  27
ATOM     27  O   UNL A   1      37.120  21.455  24.173  1.00  0.00    -0.376 OA
BRANCH  27  28
ATOM     28  C   UNL A   1      38.091  21.341  25.203  1.00  0.00     0.202 C 
BRANCH  28  29
ATOM     29  C   UNL A   1      38.905  20.044  25.323  1.00  0.00     0.261 C 
BRANCH  29  30
ATOM     30  O   UNL A   1      39.724  19.936  26.499  1.00  0.00    -0.460 OA
BRANCH  30  31
ATOM     31  C   UNL A   1      41.040  19.705  26.270  1.00  0.00     0.338 C 
ATOM     32  O   UNL A   1      41.544  18.723  25.749  1.00  0.00    -0.246 OA
BRANCH  31  33
ATOM     33  C   UNL A   1      41.820  20.916  26.595  1.00  0.00     0.060 A 
ATOM     34  C   UNL A   1      42.029  21.228  27.946  1.00  0.00     0.016 A 
ATOM     35  C   UNL A   1      42.287  21.769  25.594  1.00  0.00     0.016 A 
ATOM     36  C   UNL A   1      42.692  22.401  28.302  1.00  0.00     0.010 A 
ATOM     37  C   UNL A   1      42.926  22.962  25.952  1.00  0.00     0.010 A 
ATOM     38  C   UNL A   1      43.110  23.294  27.307  1.00  0.00    -0.014 A 
BRANCH  38  39
ATOM     39  C   UNL A   1      43.578  24.649  27.688  1.00  0.00     0.031 A 
ATOM     40  C   UNL A   1      42.554  25.697  28.021  1.00  0.00     0.074 A 
ATOM     41  C   UNL A   1      44.888  24.941  27.754  1.00  0.00     0.049 A 
ATOM     42  N   UNL A   1      42.725  26.954  28.343  1.00  0.00    -0.248 NA
ATOM     43  C   UNL A   1      41.148  25.268  27.986  1.00  0.00     0.031 C 
ATOM     44  C   UNL A   1      45.977  24.004  27.491  1.00  0.00     0.029 A 
ATOM     45  N   UNL A   1      45.522  26.120  28.057  1.00  0.00    -0.354 N 
ATOM     46  C   UNL A   1      41.450  27.467  28.545  1.00  0.00     0.074 A 
ATOM     47  C   UNL A   1      40.516  26.392  28.290  1.00  0.00     0.031 C 
ATOM     48  C   UNL A   1      47.148  24.646  27.641  1.00  0.00     0.029 A 
ATOM     49  C   UNL A   1      46.890  26.048  27.969  1.00  0.00     0.049 A 
ATOM     50  H   UNL A   1      45.041  26.940  28.315  1.00  0.00     0.167 HD
ATOM     51  C   UNL A   1      41.091  28.719  28.911  1.00  0.00     0.037 A 
ATOM     52  C   UNL A   1      47.821  27.013  28.108  1.00  0.00     0.037 A 
ATOM     53  C   UNL A   1      42.018  29.796  29.142  1.00  0.00     0.049 A 
ATOM     54  C   UNL A   1      47.390  28.423  28.429  1.00  0.00     0.074 A 
ATOM     55  C   UNL A   1      41.749  31.101  29.519  1.00  0.00     0.029 A 
ATOM     56  N   UNL A   1      43.394  29.694  29.005  1.00  0.00    -0.354 N 
ATOM     57  N   UNL A   1      46.186  28.894  28.646  1.00  0.00    -0.248 NA
ATOM     58  C   UNL A   1      48.452  29.437  28.520  1.00  0.00     0.031 C 
ATOM     59  C   UNL A   1      42.958  31.803  29.555  1.00  0.00     0.029 A 
ATOM     60  C   UNL A   1      43.986  30.921  29.260  1.00  0.00     0.049 A 
ATOM     61  H   UNL A   1      43.879  28.873  28.762  1.00  0.00     0.167 HD
ATOM     62  C   UNL A   1      46.346  30.246  28.926  1.00  0.00     0.074 A 
ATOM     63  C   UNL A   1      47.767  30.518  28.865  1.00  0.00     0.031 C 
ATOM     64  C   UNL A   1      45.403  31.178  29.209  1.00  0.00     0.037 A 
BRANCH  51  65
ATOM     65  C   UNL A   1      39.624  29.003  29.045  1.00  0.00     0.064 A 
ATOM     66  C   UNL A   1      38.835  29.344  27.937  1.00  0.00     0.173 A 
ATOM     67  C   UNL A   1      38.995  28.909  30.296  1.00  0.00     0.173 A 
ATOM     68  F   UNL A   1      39.392  29.462  26.722  1.00  0.00    -0.203 F 
ATOM     69  C   UNL A   1      37.475  29.609  28.080  1.00  0.00     0.198 A 
ATOM     70  C   UNL A   1      37.631  29.146  30.430  1.00  0.00     0.198 A 
ATOM     71  F   UNL A   1      39.705  28.583  31.387  1.00  0.00    -0.203 F 
ATOM     72  F   UNL A   1      36.750  29.981  27.016  1.00  0.00    -0.200 F 
ATOM     73  C   UNL A   1      36.873  29.502  29.325  1.00  0.00     0.200 A 
ATOM     74  F   UNL A   1      37.048  29.033  31.633  1.00  0.00    -0.200 F 
ATOM     75  F   UNL A   1      35.564  29.753  29.461  1.00  0.00    -0.200 F 
ENDBRANCH  51  65
BRANCH  52  76
ATOM     76  C   UNL A   1      49.261  26.692  27.923  1.00  0.00     0.064 A 
ATOM     77  C   UNL A   1      49.818  26.572  26.643  1.00  0.00     0.173 A 
ATOM     78  C   UNL A   1      50.102  26.462  29.023  1.00  0.00     0.173 A 
ATOM     79  F   UNL A   1      49.048  26.753  25.559  1.00  0.00    -0.203 F 
ATOM     80  C   UNL A   1      51.153  26.212  26.468  1.00  0.00     0.198 A 
ATOM     81  C   UNL A   1      51.444  26.133  28.848  1.00  0.00     0.198 A 
ATOM     82  F   UNL A   1      49.618  26.558  30.270  1.00  0.00    -0.203 F 
ATOM     83  F   UNL A   1      51.644  26.051  25.231  1.00  0.00    -0.200 F 
ATOM     84  C   UNL A   1      51.966  25.999  27.571  1.00  0.00     0.200 A 
ATOM     85  F   UNL A   1      52.229  25.935  29.916  1.00  0.00    -0.200 F 
ATOM     86  F   UNL A   1      53.250  25.652  27.402  1.00  0.00    -0.200 F 
ENDBRANCH  52  76
BRANCH  64  87
ATOM     87  C   UNL A   1      45.871  32.573  29.515  1.00  0.00     0.064 A 
ATOM     88  C   UNL A   1      45.970  33.556  28.520  1.00  0.00     0.173 A 
ATOM     89  C   UNL A   1      46.174  32.942  30.835  1.00  0.00     0.173 A 
ATOM     90  F   UNL A   1      45.705  33.251  27.242  1.00  0.00    -0.203 F 
ATOM     91  C   UNL A   1      46.378  34.851  28.831  1.00  0.00     0.198 A 
ATOM     92  C   UNL A   1      46.550  34.246  31.148  1.00  0.00     0.198 A 
ATOM     93  F   UNL A   1      46.088  32.043  31.827  1.00  0.00    -0.203 F 
ATOM     94  F   UNL A   1      46.508  35.762  27.858  1.00  0.00    -0.200 F 
ATOM     95  C   UNL A   1      46.658  35.197  30.145  1.00  0.00     0.200 A 
ATOM     96  F   UNL A   1      46.807  34.582  32.420  1.00  0.00    -0.200 F 
ATOM     97  F   UNL A   1      47.040  36.447  30.444  1.00  0.00    -0.200 F 
ENDBRANCH  64  87
ENDBRANCH  38  39
ENDBRANCH  31  33
ENDBRANCH  30  31
ENDBRANCH  29  30
ENDBRANCH  28  29
ENDBRANCH  27  28
ENDBRANCH  26  27
ENDBRANCH   1  26
TORSDOF 20
ENDMDL
MODEL 3
REMARK VINA RESULT:     -11.4      0.734      7.214
REMARK SMILES CS(=O)(=O)c1ccc(/C=C(/C(=O)OCCOCCOCCOC(=O)c2ccc(-c3c4nc(c(-c5c(F)c(F)c(F)c(F)c5F)c5ccc([nH]5)c(-c5c(F)c(F)c(F)c(F)c5F)c5nc(c(-c6c(F)c(F)c(F)c(F)c6F)c6ccc3[nH]6)C=C5)C=C4)cc2)c2ccccc2)cc1
REMARK SMILES IDX 17 1 16 2 15 3 14 4 13 5 11 6 12 7 10 8 9 9 8 10 5 11 6 12
REMARK SMILES IDX 95 13 7 14 94 15 2 16 1 17 3 18 4 19 88 20 89 21 93 22 90 23
REMARK SMILES IDX 92 24 91 25 18 26 19 27 20 28 21 29 22 30 23 31 24 32 25 33
REMARK SMILES IDX 26 34 87 35 27 36 86 37 28 38 29 39 30 40 80 41 31 42 85 43
REMARK SMILES IDX 79 44 81 45 32 46 84 47 78 48 77 49 33 51 65 52 45 53 64 54
REMARK SMILES IDX 46 55 49 56 63 57 82 58 47 59 48 60 62 62 83 63 50 64 34 65
REMARK SMILES IDX 35 66 43 67 36 68 37 69 41 70 44 71 38 72 39 73 42 74 40 75
REMARK SMILES IDX 66 76 67 77 75 78 68 79 69 80 73 81 76 82 70 83 71 84 74 85
REMARK SMILES IDX 72 86 51 87 52 88 60 89 53 90 54 91 58 92 61 93 55 94 56 95
REMARK SMILES IDX 59 96 57 97
REMARK H PARENT 81 50 49 61
REMARK Flexibility Score: inf
ROOT
ATOM      1  C   UNL A   1      36.008  22.853  26.149  1.00  0.00     0.188 C 
ENDROOT
BRANCH   1   2
ATOM      2  O   UNL A   1      34.604  22.734  26.256  1.00  0.00    -0.376 OA
BRANCH   2   3
ATOM      3  C   UNL A   1      33.834  23.032  25.104  1.00  0.00     0.202 C 
BRANCH   3   4
ATOM      4  C   UNL A   1      32.418  22.442  24.977  1.00  0.00     0.261 C 
BRANCH   4   5
ATOM      5  O   UNL A   1      31.348  23.374  24.752  1.00  0.00    -0.460 OA
BRANCH   5   6
ATOM      6  C   UNL A   1      30.980  24.182  25.777  1.00  0.00     0.338 C 
ATOM      7  O   UNL A   1      30.825  23.821  26.933  1.00  0.00    -0.246 OA
BRANCH   6   8
ATOM      8  C   UNL A   1      30.898  25.616  25.324  1.00  0.00     0.067 C 
ATOM      9  C   UNL A   1      30.037  25.960  24.333  1.00  0.00     0.024 C 
BRANCH   9  10
ATOM     10  C   UNL A   1      29.699  27.315  23.824  1.00  0.00    -0.025 A 
ATOM     11  C   UNL A   1      28.807  29.905  23.207  1.00  0.00     0.067 A 
ATOM     12  C   UNL A   1      30.139  29.699  23.556  1.00  0.00     0.021 A 
ATOM     13  C   UNL A   1      27.947  28.820  23.033  1.00  0.00     0.021 A 
ATOM     14  C   UNL A   1      30.584  28.403  23.831  1.00  0.00     0.009 A 
ATOM     15  C   UNL A   1      28.397  27.532  23.345  1.00  0.00     0.009 A 
BRANCH  11  16
ATOM     16  S   UNL A   1      28.204  31.565  23.020  1.00  0.00     0.175 S 
ATOM     17  C   UNL A   1      27.939  31.695  21.268  1.00  0.00     0.163 C 
ATOM     18  O   UNL A   1      29.281  32.469  23.377  1.00  0.00    -0.224 OA
ATOM     19  O   UNL A   1      26.916  31.638  23.681  1.00  0.00    -0.224 OA
ENDBRANCH  11  16
ENDBRANCH   9  10
BRANCH   8  20
ATOM     20  C   UNL A   1      31.770  26.600  25.999  1.00  0.00    -0.011 A 
ATOM     21  C   UNL A   1      33.086  26.783  25.544  1.00  0.00     0.009 A 
ATOM     22  C   UNL A   1      31.275  27.440  27.005  1.00  0.00     0.009 A 
ATOM     23  C   UNL A   1      33.880  27.807  26.061  1.00  0.00     0.001 A 
ATOM     24  C   UNL A   1      32.072  28.469  27.516  1.00  0.00     0.001 A 
ATOM     25  C   UNL A   1      33.369  28.654  27.040  1.00  0.00     0.000 A 
ENDBRANCH   8  20
ENDBRANCH   6   8
ENDBRANCH   5   6
ENDBRANCH   4   5
ENDBRANCH   3   4
ENDBRANCH   2   3
ENDBRANCH   1   2
BRANCH   1  26
ATOM     26  C   UNL A   1      36.511  22.802  24.691  1.00  0.00     0.188 C 
BRANCH  26  27
ATOM     27  O   UNL A   1      36.796  21.555  24.070  1.00  0.00    -0.376 OA
BRANCH  27  28
ATOM     28  C   UNL A   1      36.955  20.394  24.871  1.00  0.00     0.202 C 
BRANCH  28  29
ATOM     29  C   UNL A   1      38.373  19.898  25.196  1.00  0.00     0.261 C 
BRANCH  29  30
ATOM     30  O   UNL A   1      39.344  20.928  25.444  1.00  0.00    -0.460 OA
BRANCH  30  31
ATOM     31  C   UNL A   1      40.017  20.821  26.615  1.00  0.00     0.338 C 
ATOM     32  O   UNL A   1      40.361  19.798  27.186  1.00  0.00    -0.246 OA
BRANCH  31  33
ATOM     33  C   UNL A   1      40.450  22.160  27.063  1.00  0.00     0.060 A 
ATOM     34  C   UNL A   1      39.936  23.281  26.396  1.00  0.00     0.016 A 
ATOM     35  C   UNL A   1      41.395  22.315  28.079  1.00  0.00     0.016 A 
ATOM     36  C   UNL A   1      40.375  24.561  26.731  1.00  0.00     0.010 A 
ATOM     37  C   UNL A   1      41.857  23.598  28.395  1.00  0.00     0.010 A 
ATOM     38  C   UNL A   1      41.367  24.723  27.706  1.00  0.00    -0.014 A 
BRANCH  38  39
ATOM     39  C   UNL A   1      42.015  26.046  27.879  1.00  0.00     0.031 A 
ATOM     40  C   UNL A   1      41.271  27.121  28.620  1.00  0.00     0.074 A 
ATOM     41  C   UNL A   1      43.249  26.286  27.404  1.00  0.00     0.049 A 
ATOM     42  N   UNL A   1      41.619  28.360  28.860  1.00  0.00    -0.248 NA
ATOM     43  C   UNL A   1      39.955  26.748  29.160  1.00  0.00     0.031 C 
ATOM     44  C   UNL A   1      44.087  25.317  26.703  1.00  0.00     0.029 A 
ATOM     45  N   UNL A   1      44.008  27.429  27.436  1.00  0.00    -0.354 N 
ATOM     46  C   UNL A   1      40.566  28.914  29.576  1.00  0.00     0.074 A 
ATOM     47  C   UNL A   1      39.559  27.884  29.713  1.00  0.00     0.031 C 
ATOM     48  C   UNL A   1      45.246  25.908  26.366  1.00  0.00     0.029 A 
ATOM     49  C   UNL A   1      45.214  27.307  26.791  1.00  0.00     0.049 A 
ATOM     50  H   UNL A   1      43.716  28.257  27.880  1.00  0.00     0.167 HD
ATOM     51  C   UNL A   1      40.450  30.167  30.075  1.00  0.00     0.037 A 
ATOM     52  C   UNL A   1      46.165  28.231  26.548  1.00  0.00     0.037 A 
ATOM     53  C   UNL A   1      41.441  31.199  29.920  1.00  0.00     0.049 A 
ATOM     54  C   UNL A   1      45.973  29.645  27.038  1.00  0.00     0.074 A 
ATOM     55  C   UNL A   1      41.414  32.500  30.392  1.00  0.00     0.029 A 
ATOM     56  N   UNL A   1      42.633  31.049  29.227  1.00  0.00    -0.354 N 
ATOM     57  N   UNL A   1      44.988  30.154  27.738  1.00  0.00    -0.248 NA
ATOM     58  C   UNL A   1      47.026  30.614  26.698  1.00  0.00     0.031 C 
ATOM     59  C   UNL A   1      42.564  33.153  29.937  1.00  0.00     0.029 A 
ATOM     60  C   UNL A   1      43.336  32.243  29.233  1.00  0.00     0.049 A 
ATOM     61  H   UNL A   1      42.935  30.219  28.794  1.00  0.00     0.167 HD
ATOM     62  C   UNL A   1      45.315  31.489  27.946  1.00  0.00     0.074 A 
ATOM     63  C   UNL A   1      46.596  31.709  27.310  1.00  0.00     0.031 C 
ATOM     64  C   UNL A   1      44.617  32.447  28.606  1.00  0.00     0.037 A 
BRANCH  51  65
ATOM     65  C   UNL A   1      39.183  30.501  30.805  1.00  0.00     0.064 A 
ATOM     66  C   UNL A   1      39.072  30.353  32.196  1.00  0.00     0.173 A 
ATOM     67  C   UNL A   1      38.072  30.999  30.107  1.00  0.00     0.173 A 
ATOM     68  F   UNL A   1      40.101  29.867  32.907  1.00  0.00    -0.203 F 
ATOM     69  C   UNL A   1      37.887  30.664  32.857  1.00  0.00     0.198 A 
ATOM     70  C   UNL A   1      36.899  31.336  30.774  1.00  0.00     0.198 A 
ATOM     71  F   UNL A   1      38.128  31.163  28.776  1.00  0.00    -0.203 F 
ATOM     72  F   UNL A   1      37.786  30.469  34.179  1.00  0.00    -0.200 F 
ATOM     73  C   UNL A   1      36.804  31.162  32.147  1.00  0.00     0.200 A 
ATOM     74  F   UNL A   1      35.857  31.827  30.088  1.00  0.00    -0.200 F 
ATOM     75  F   UNL A   1      35.665  31.465  32.785  1.00  0.00    -0.200 F 
ENDBRANCH  51  65
BRANCH  52  76
ATOM     76  C   UNL A   1      47.385  27.861  25.782  1.00  0.00     0.064 A 
ATOM     77  C   UNL A   1      47.360  27.760  24.384  1.00  0.00     0.173 A 
ATOM     78  C   UNL A   1      48.591  27.565  26.434  1.00  0.00     0.173 A 
ATOM     79  F   UNL A   1      46.221  28.006  23.717  1.00  0.00    -0.203 F 
ATOM     80  C   UNL A   1      48.486  27.356  23.670  1.00  0.00     0.198 A 
ATOM     81  C   UNL A   1      49.726  27.190  25.717  1.00  0.00     0.198 A 
ATOM     82  F   UNL A   1      48.668  27.639  27.771  1.00  0.00    -0.203 F 
ATOM     83  F   UNL A   1      48.417  27.216  22.339  1.00  0.00    -0.200 F 
ATOM     84  C   UNL A   1      49.669  27.077  24.337  1.00  0.00     0.200 A 
ATOM     85  F   UNL A   1      50.869  26.928  26.364  1.00  0.00    -0.200 F 
ATOM     86  F   UNL A   1      50.752  26.686  23.649  1.00  0.00    -0.200 F 
ENDBRANCH  52  76
BRANCH  64  87
ATOM     87  C   UNL A   1      45.237  33.812  28.712  1.00  0.00     0.064 A 
ATOM     88  C   UNL A   1      44.966  34.823  27.779  1.00  0.00     0.173 A 
ATOM     89  C   UNL A   1      46.073  34.126  29.795  1.00  0.00     0.173 A 
ATOM     90  F   UNL A   1      44.186  34.570  26.718  1.00  0.00    -0.203 F 
ATOM     91  C   UNL A   1      45.528  36.091  27.912  1.00  0.00     0.198 A 
ATOM     92  C   UNL A   1      46.607  35.404  29.943  1.00  0.00     0.198 A 
ATOM     93  F   UNL A   1      46.358  33.199  30.722  1.00  0.00    -0.203 F 
ATOM     94  F   UNL A   1      45.291  37.027  26.984  1.00  0.00    -0.200 F 
ATOM     95  C   UNL A   1      46.339  36.383  28.999  1.00  0.00     0.200 A 
ATOM     96  F   UNL A   1      47.379  35.688  31.001  1.00  0.00    -0.200 F 
ATOM     97  F   UNL A   1      46.870  37.606  29.131  1.00  0.00    -0.200 F 
ENDBRANCH  64  87
ENDBRANCH  38  39
ENDBRANCH  31  33
ENDBRANCH  30  31
ENDBRANCH  29  30
ENDBRANCH  28  29
ENDBRANCH  27  28
ENDBRANCH  26  27
ENDBRANCH   1  26
TORSDOF 20
ENDMDL
