MODEL 1
REMARK VINA RESULT:     -12.1      0.000      0.000
REMARK SMILES C[C@@](COc1ccccc1)(NC(=O)CN1CSCC1=O)C(=O)OCCOCCOCCOC(=O)c1ccc(-c2c3nc(c(-c4c(F)c(F)c(F)c(F)c4F)c4ccc([nH]4)c(-c4c(F)c(F)c(F)c(F)c4F)c4nc(c(-c5c(F)c(F)c(F)c(F)c5F)c5ccc2[nH]5)C=C4)C=C3)cc1
REMARK SMILES IDX 27 1 26 2 25 3 24 4 23 5 21 6 22 7 2 8 1 9 3 10 4 11 5 12
REMARK SMILES IDX 6 13 10 14 7 15 9 16 8 17 11 18 12 19 13 21 14 22 15 23
REMARK SMILES IDX 16 24 19 25 17 26 18 27 20 28 28 29 29 30 30 31 31 32 32 33
REMARK SMILES IDX 33 34 34 35 35 36 36 37 97 38 37 39 96 40 38 41 39 42 40 43
REMARK SMILES IDX 90 44 41 45 95 46 89 47 91 48 42 49 94 50 88 51 87 52 43 54
REMARK SMILES IDX 75 55 55 56 74 57 56 58 59 59 73 60 92 61 57 62 58 63 72 65
REMARK SMILES IDX 93 66 60 67 44 68 45 69 53 70 46 71 47 72 51 73 54 74 48 75
REMARK SMILES IDX 49 76 52 77 50 78 76 79 77 80 85 81 78 82 79 83 83 84 86 85
REMARK SMILES IDX 80 86 81 87 84 88 82 89 61 90 62 91 70 92 63 93 64 94 68 95
REMARK SMILES IDX 71 96 65 97 66 98 69 99 67 100
REMARK H PARENT 11 20 91 53 59 64
REMARK Flexibility Score: inf
ROOT
ATOM      1  C   UNL A   1      40.551  20.642  25.868  1.00  0.00     0.188 C 
ENDROOT
BRANCH   1   2
ATOM      2  O   UNL A   1      39.523  22.049  26.827  1.00  0.00    -0.376 OA
BRANCH   2   3
ATOM      3  C   UNL A   1      38.566  23.338  26.597  1.00  0.00     0.202 C 
BRANCH   3   4
ATOM      4  C   UNL A   1      37.315  23.438  25.562  1.00  0.00     0.261 C 
BRANCH   4   5
ATOM      5  O   UNL A   1      35.999  22.994  26.056  1.00  0.00    -0.461 OA
BRANCH   5   6
ATOM      6  C   UNL A   1      35.365  21.851  25.658  1.00  0.00     0.335 C 
ATOM      7  O   UNL A   1      35.966  20.838  25.325  1.00  0.00    -0.249 OA
BRANCH   6   8
ATOM      8  C   UNL A   1      33.809  21.880  25.968  1.00  0.00     0.169 C 
ATOM      9  C   UNL A   1      33.591  22.730  27.241  1.00  0.00     0.051 C 
BRANCH   8  10
ATOM     10  C   UNL A   1      33.305  20.445  26.350  1.00  0.00     0.269 C 
BRANCH  10  11
ATOM     11  O   UNL A   1      32.446  19.900  25.293  1.00  0.00    -0.491 OA
BRANCH  11  12
ATOM     12  C   UNL A   1      32.748  18.624  24.882  1.00  0.00     0.119 A 
ATOM     13  C   UNL A   1      33.256  18.370  23.611  1.00  0.00     0.046 A 
ATOM     14  C   UNL A   1      32.546  17.563  25.775  1.00  0.00     0.046 A 
ATOM     15  C   UNL A   1      33.641  17.071  23.262  1.00  0.00     0.004 A 
ATOM     16  C   UNL A   1      32.957  16.270  25.435  1.00  0.00     0.004 A 
ATOM     17  C   UNL A   1      33.514  16.027  24.180  1.00  0.00     0.000 A 
ENDBRANCH  11  12
ENDBRANCH  10  11
ENDBRANCH   8  10
BRANCH   8  18
ATOM     18  N   UNL A   1      32.901  22.302  24.859  1.00  0.00    -0.336 N 
ATOM     19  C   UNL A   1      32.644  23.376  24.082  1.00  0.00     0.240 C 
ATOM     20  H   UNL A   1      32.296  21.561  24.619  1.00  0.00     0.164 HD
ATOM     21  O   UNL A   1      31.635  23.272  23.372  1.00  0.00    -0.273 OA
BRANCH  19  22
ATOM     22  C   UNL A   1      33.609  24.525  23.863  1.00  0.00     0.220 C 
BRANCH  22  23
ATOM     23  N   UNL A   1      33.163  25.909  24.049  1.00  0.00    -0.323 N 
ATOM     24  C   UNL A   1      32.734  26.921  25.647  1.00  0.00     0.190 C 
ATOM     25  C   UNL A   1      33.219  26.864  22.507  1.00  0.00     0.233 C 
ATOM     26  S   UNL A   1      32.111  29.116  25.034  1.00  0.00    -0.130 SA
ATOM     27  C   UNL A   1      32.531  28.709  22.743  1.00  0.00     0.171 C 
ATOM     28  O   UNL A   1      33.648  26.418  21.435  1.00  0.00    -0.274 OA
ENDBRANCH  22  23
ENDBRANCH  19  22
ENDBRANCH   8  18
ENDBRANCH   6   8
ENDBRANCH   5   6
ENDBRANCH   4   5
ENDBRANCH   3   4
ENDBRANCH   2   3
ENDBRANCH   1   2
BRANCH   1  29
ATOM     29  C   UNL A   1      41.911  19.858  26.272  1.00  0.00     0.188 C 
BRANCH  29  30
ATOM     30  O   UNL A   1      43.120  20.573  26.372  1.00  0.00    -0.376 OA
BRANCH  30  31
ATOM     31  C   UNL A   1      43.916  20.811  25.209  1.00  0.00     0.202 C 
BRANCH  31  32
ATOM     32  C   UNL A   1      44.333  22.248  24.833  1.00  0.00     0.261 C 
BRANCH  32  33
ATOM     33  O   UNL A   1      43.620  23.291  25.526  1.00  0.00    -0.460 OA
BRANCH  33  34
ATOM     34  C   UNL A   1      44.069  24.552  25.349  1.00  0.00     0.338 C 
ATOM     35  O   UNL A   1      44.915  24.917  24.553  1.00  0.00    -0.246 OA
BRANCH  34  36
ATOM     36  C   UNL A   1      43.154  25.469  26.084  1.00  0.00     0.060 A 
ATOM     37  C   UNL A   1      43.599  26.785  26.292  1.00  0.00     0.016 A 
ATOM     38  C   UNL A   1      41.839  25.115  26.428  1.00  0.00     0.016 A 
ATOM     39  C   UNL A   1      42.770  27.718  26.912  1.00  0.00     0.010 A 
ATOM     40  C   UNL A   1      41.015  26.042  27.077  1.00  0.00     0.010 A 
ATOM     41  C   UNL A   1      41.512  27.321  27.385  1.00  0.00    -0.014 A 
BRANCH  41  42
ATOM     42  C   UNL A   1      40.972  28.047  28.562  1.00  0.00     0.031 A 
ATOM     43  C   UNL A   1      41.729  27.850  29.853  1.00  0.00     0.074 A 
ATOM     44  C   UNL A   1      39.927  28.888  28.502  1.00  0.00     0.049 A 
ATOM     45  N   UNL A   1      41.553  28.403  31.025  1.00  0.00    -0.248 NA
ATOM     46  C   UNL A   1      42.854  26.897  29.808  1.00  0.00     0.031 C 
ATOM     47  C   UNL A   1      39.138  29.193  27.312  1.00  0.00     0.029 A 
ATOM     48  N   UNL A   1      39.357  29.653  29.491  1.00  0.00    -0.354 N 
ATOM     49  C   UNL A   1      42.558  27.885  31.833  1.00  0.00     0.074 A 
ATOM     50  C   UNL A   1      43.313  26.944  31.043  1.00  0.00     0.031 C 
ATOM     51  C   UNL A   1      38.178  30.079  27.643  1.00  0.00     0.029 A 
ATOM     52  C   UNL A   1      38.279  30.391  29.069  1.00  0.00     0.049 A 
ATOM     53  H   UNL A   1      39.690  29.668  30.417  1.00  0.00     0.167 HD
ATOM     54  C   UNL A   1      42.843  28.171  33.122  1.00  0.00     0.037 A 
ATOM     55  C   UNL A   1      37.472  31.212  29.769  1.00  0.00     0.037 A 
ATOM     56  C   UNL A   1      42.066  29.062  33.929  1.00  0.00     0.049 A 
ATOM     57  C   UNL A   1      37.747  31.439  31.239  1.00  0.00     0.074 A 
ATOM     58  C   UNL A   1      42.232  29.388  35.261  1.00  0.00     0.029 A 
ATOM     59  N   UNL A   1      40.957  29.756  33.474  1.00  0.00    -0.354 N 
ATOM     60  N   UNL A   1      38.717  30.972  31.988  1.00  0.00    -0.248 NA
ATOM     61  C   UNL A   1      36.812  32.318  31.959  1.00  0.00     0.031 C 
ATOM     62  C   UNL A   1      41.190  30.248  35.625  1.00  0.00     0.029 A 
ATOM     63  C   UNL A   1      40.412  30.499  34.505  1.00  0.00     0.049 A 
ATOM     64  H   UNL A   1      40.608  29.725  32.553  1.00  0.00     0.167 HD
ATOM     65  C   UNL A   1      38.531  31.526  33.250  1.00  0.00     0.074 A 
ATOM     66  C   UNL A   1      37.361  32.374  33.163  1.00  0.00     0.031 C 
ATOM     67  C   UNL A   1      39.260  31.352  34.382  1.00  0.00     0.037 A 
BRANCH  54  68
ATOM     68  C   UNL A   1      44.018  27.464  33.725  1.00  0.00     0.064 A 
ATOM     69  C   UNL A   1      43.877  26.218  34.357  1.00  0.00     0.173 A 
ATOM     70  C   UNL A   1      45.287  28.058  33.714  1.00  0.00     0.173 A 
ATOM     71  F   UNL A   1      42.674  25.628  34.425  1.00  0.00    -0.203 F 
ATOM     72  C   UNL A   1      44.962  25.605  34.979  1.00  0.00     0.198 A 
ATOM     73  C   UNL A   1      46.374  27.430  34.314  1.00  0.00     0.198 A 
ATOM     74  F   UNL A   1      45.467  29.257  33.140  1.00  0.00    -0.203 F 
ATOM     75  F   UNL A   1      44.792  24.446  35.629  1.00  0.00    -0.200 F 
ATOM     76  C   UNL A   1      46.210  26.210  34.953  1.00  0.00     0.200 A 
ATOM     77  F   UNL A   1      47.580  28.015  34.289  1.00  0.00    -0.200 F 
ATOM     78  F   UNL A   1      47.252  25.623  35.557  1.00  0.00    -0.200 F 
ENDBRANCH  54  68
BRANCH  55  79
ATOM     79  C   UNL A   1      36.320  31.888  29.110  1.00  0.00     0.064 A 
ATOM     80  C   UNL A   1      36.293  33.280  28.942  1.00  0.00     0.173 A 
ATOM     81  C   UNL A   1      35.195  31.162  28.693  1.00  0.00     0.173 A 
ATOM     82  F   UNL A   1      37.331  34.023  29.353  1.00  0.00    -0.203 F 
ATOM     83  C   UNL A   1      35.175  33.922  28.411  1.00  0.00     0.198 A 
ATOM     84  C   UNL A   1      34.088  31.802  28.136  1.00  0.00     0.198 A 
ATOM     85  F   UNL A   1      35.164  29.829  28.839  1.00  0.00    -0.203 F 
ATOM     86  F   UNL A   1      35.153  35.258  28.320  1.00  0.00    -0.200 F 
ATOM     87  C   UNL A   1      34.074  33.182  28.006  1.00  0.00     0.200 A 
ATOM     88  F   UNL A   1      33.029  31.082  27.742  1.00  0.00    -0.200 F 
ATOM     89  F   UNL A   1      32.997  33.800  27.505  1.00  0.00    -0.200 F 
ENDBRANCH  55  79
BRANCH  67  90
ATOM     90  C   UNL A   1      38.851  32.130  35.598  1.00  0.00     0.064 A 
ATOM     91  C   UNL A   1      38.156  31.532  36.659  1.00  0.00     0.173 A 
ATOM     92  C   UNL A   1      39.215  33.479  35.726  1.00  0.00     0.173 A 
ATOM     93  F   UNL A   1      37.778  30.247  36.580  1.00  0.00    -0.203 F 
ATOM     94  C   UNL A   1      37.814  32.266  37.791  1.00  0.00     0.198 A 
ATOM     95  C   UNL A   1      38.901  34.200  36.874  1.00  0.00     0.198 A 
ATOM     96  F   UNL A   1      39.894  34.093  34.745  1.00  0.00    -0.203 F 
ATOM     97  F   UNL A   1      37.108  31.689  38.773  1.00  0.00    -0.200 F 
ATOM     98  C   UNL A   1      38.194  33.596  37.901  1.00  0.00     0.200 A 
ATOM     99  F   UNL A   1      39.285  35.479  36.986  1.00  0.00    -0.200 F 
ATOM    100  F   UNL A   1      37.872  34.298  38.997  1.00  0.00    -0.200 F 
ENDBRANCH  67  90
ENDBRANCH  41  42
ENDBRANCH  34  36
ENDBRANCH  33  34
ENDBRANCH  32  33
ENDBRANCH  31  32
ENDBRANCH  30  31
ENDBRANCH  29  30
ENDBRANCH   1  29
TORSDOF 23
ENDMDL
MODEL 2
REMARK VINA RESULT:     -11.8      4.592      6.868
REMARK SMILES C[C@@](COc1ccccc1)(NC(=O)CN1CSCC1=O)C(=O)OCCOCCOCCOC(=O)c1ccc(-c2c3nc(c(-c4c(F)c(F)c(F)c(F)c4F)c4ccc([nH]4)c(-c4c(F)c(F)c(F)c(F)c4F)c4nc(c(-c5c(F)c(F)c(F)c(F)c5F)c5ccc2[nH]5)C=C4)C=C3)cc1
REMARK SMILES IDX 27 1 26 2 25 3 24 4 23 5 21 6 22 7 2 8 1 9 3 10 4 11 5 12
REMARK SMILES IDX 6 13 10 14 7 15 9 16 8 17 11 18 12 19 13 21 14 22 15 23
REMARK SMILES IDX 16 24 19 25 17 26 18 27 20 28 28 29 29 30 30 31 31 32 32 33
REMARK SMILES IDX 33 34 34 35 35 36 36 37 97 38 37 39 96 40 38 41 39 42 40 43
REMARK SMILES IDX 90 44 41 45 95 46 89 47 91 48 42 49 94 50 88 51 87 52 43 54
REMARK SMILES IDX 75 55 55 56 74 57 56 58 59 59 73 60 92 61 57 62 58 63 72 65
REMARK SMILES IDX 93 66 60 67 44 68 45 69 53 70 46 71 47 72 51 73 54 74 48 75
REMARK SMILES IDX 49 76 52 77 50 78 76 79 77 80 85 81 78 82 79 83 83 84 86 85
REMARK SMILES IDX 80 86 81 87 84 88 82 89 61 90 62 91 70 92 63 93 64 94 68 95
REMARK SMILES IDX 71 96 65 97 66 98 69 99 67 100
REMARK H PARENT 11 20 91 53 59 64
REMARK Flexibility Score: inf
ROOT
ATOM      1  C   UNL A   1      40.666  21.881  26.320  1.00  0.00     0.188 C 
ENDROOT
BRANCH   1   2
ATOM      2  O   UNL A   1      39.125  23.071  26.725  1.00  0.00    -0.376 OA
BRANCH   2   3
ATOM      3  C   UNL A   1      37.780  23.713  26.086  1.00  0.00     0.202 C 
BRANCH   3   4
ATOM      4  C   UNL A   1      36.587  22.902  25.334  1.00  0.00     0.261 C 
BRANCH   4   5
ATOM      5  O   UNL A   1      35.240  22.987  25.929  1.00  0.00    -0.461 OA
BRANCH   5   6
ATOM      6  C   UNL A   1      34.074  22.808  25.240  1.00  0.00     0.335 C 
ATOM      7  O   UNL A   1      33.943  23.114  24.062  1.00  0.00    -0.249 OA
BRANCH   6   8
ATOM      8  C   UNL A   1      33.039  21.898  26.026  1.00  0.00     0.169 C 
ATOM      9  C   UNL A   1      33.768  21.287  27.244  1.00  0.00     0.051 C 
BRANCH   8  10
ATOM     10  C   UNL A   1      32.621  20.669  25.147  1.00  0.00     0.269 C 
BRANCH  10  11
ATOM     11  O   UNL A   1      33.796  19.870  24.780  1.00  0.00    -0.491 OA
BRANCH  11  12
ATOM     12  C   UNL A   1      33.623  18.508  24.820  1.00  0.00     0.119 A 
ATOM     13  C   UNL A   1      32.727  17.914  25.703  1.00  0.00     0.046 A 
ATOM     14  C   UNL A   1      34.366  17.710  23.940  1.00  0.00     0.046 A 
ATOM     15  C   UNL A   1      32.509  16.532  25.649  1.00  0.00     0.004 A 
ATOM     16  C   UNL A   1      34.127  16.333  23.867  1.00  0.00     0.004 A 
ATOM     17  C   UNL A   1      33.190  15.746  24.717  1.00  0.00     0.000 A 
ENDBRANCH  11  12
ENDBRANCH  10  11
ENDBRANCH   8  10
BRANCH   8  18
ATOM     18  N   UNL A   1      31.740  22.525  26.416  1.00  0.00    -0.336 N 
ATOM     19  C   UNL A   1      31.238  23.720  26.792  1.00  0.00     0.240 C 
ATOM     20  H   UNL A   1      31.020  21.852  26.392  1.00  0.00     0.164 HD
ATOM     21  O   UNL A   1      30.061  23.692  27.176  1.00  0.00    -0.273 OA
BRANCH  19  22
ATOM     22  C   UNL A   1      31.921  25.052  26.545  1.00  0.00     0.220 C 
BRANCH  22  23
ATOM     23  N   UNL A   1      31.347  26.012  25.598  1.00  0.00    -0.323 N 
ATOM     24  C   UNL A   1      29.996  25.812  24.221  1.00  0.00     0.190 C 
ATOM     25  C   UNL A   1      31.879  27.715  25.934  1.00  0.00     0.233 C 
ATOM     26  S   UNL A   1      29.651  27.896  23.161  1.00  0.00    -0.130 SA
ATOM     27  C   UNL A   1      31.172  28.998  24.597  1.00  0.00     0.171 C 
ATOM     28  O   UNL A   1      32.592  28.037  26.893  1.00  0.00    -0.274 OA
ENDBRANCH  22  23
ENDBRANCH  19  22
ENDBRANCH   8  18
ENDBRANCH   6   8
ENDBRANCH   5   6
ENDBRANCH   4   5
ENDBRANCH   3   4
ENDBRANCH   2   3
ENDBRANCH   1   2
BRANCH   1  29
ATOM     29  C   UNL A   1      40.796  20.266  26.339  1.00  0.00     0.188 C 
BRANCH  29  30
ATOM     30  O   UNL A   1      41.694  19.632  25.459  1.00  0.00    -0.376 OA
BRANCH  30  31
ATOM     31  C   UNL A   1      42.580  18.617  25.939  1.00  0.00     0.202 C 
BRANCH  31  32
ATOM     32  C   UNL A   1      43.902  18.325  25.200  1.00  0.00     0.261 C 
BRANCH  32  33
ATOM     33  O   UNL A   1      44.225  19.248  24.140  1.00  0.00    -0.460 OA
BRANCH  33  34
ATOM     34  C   UNL A   1      45.321  20.016  24.320  1.00  0.00     0.338 C 
ATOM     35  O   UNL A   1      46.422  19.838  23.831  1.00  0.00    -0.246 OA
BRANCH  34  36
ATOM     36  C   UNL A   1      44.888  21.279  24.981  1.00  0.00     0.060 A 
ATOM     37  C   UNL A   1      44.479  22.330  24.144  1.00  0.00     0.016 A 
ATOM     38  C   UNL A   1      44.734  21.394  26.371  1.00  0.00     0.016 A 
ATOM     39  C   UNL A   1      43.997  23.518  24.692  1.00  0.00     0.010 A 
ATOM     40  C   UNL A   1      44.277  22.596  26.925  1.00  0.00     0.010 A 
ATOM     41  C   UNL A   1      43.981  23.683  26.084  1.00  0.00    -0.014 A 
BRANCH  41  42
ATOM     42  C   UNL A   1      44.128  25.066  26.602  1.00  0.00     0.031 A 
ATOM     43  C   UNL A   1      45.517  25.652  26.510  1.00  0.00     0.074 A 
ATOM     44  C   UNL A   1      43.104  25.802  27.061  1.00  0.00     0.049 A 
ATOM     45  N   UNL A   1      45.946  26.851  26.805  1.00  0.00    -0.248 NA
ATOM     46  C   UNL A   1      46.569  24.753  25.999  1.00  0.00     0.031 C 
ATOM     47  C   UNL A   1      41.714  25.367  27.166  1.00  0.00     0.029 A 
ATOM     48  N   UNL A   1      43.089  27.096  27.523  1.00  0.00    -0.354 N 
ATOM     49  C   UNL A   1      47.299  26.848  26.489  1.00  0.00     0.074 A 
ATOM     50  C   UNL A   1      47.637  25.526  26.023  1.00  0.00     0.031 C 
ATOM     51  C   UNL A   1      40.979  26.379  27.667  1.00  0.00     0.029 A 
ATOM     52  C   UNL A   1      41.850  27.524  27.931  1.00  0.00     0.049 A 
ATOM     53  H   UNL A   1      43.892  27.663  27.558  1.00  0.00     0.167 HD
ATOM     54  C   UNL A   1      48.191  27.859  26.566  1.00  0.00     0.037 A 
ATOM     55  C   UNL A   1      41.482  28.707  28.463  1.00  0.00     0.037 A 
ATOM     56  C   UNL A   1      47.877  29.159  27.078  1.00  0.00     0.049 A 
ATOM     57  C   UNL A   1      42.519  29.793  28.637  1.00  0.00     0.074 A 
ATOM     58  C   UNL A   1      48.713  30.245  27.250  1.00  0.00     0.029 A 
ATOM     59  N   UNL A   1      46.620  29.538  27.521  1.00  0.00    -0.354 N 
ATOM     60  N   UNL A   1      43.788  29.794  28.306  1.00  0.00    -0.248 NA
ATOM     61  C   UNL A   1      42.065  31.048  29.256  1.00  0.00     0.031 C 
ATOM     62  C   UNL A   1      47.969  31.271  27.842  1.00  0.00     0.029 A 
ATOM     63  C   UNL A   1      46.659  30.839  27.986  1.00  0.00     0.049 A 
ATOM     64  H   UNL A   1      45.819  28.965  27.508  1.00  0.00     0.167 HD
ATOM     65  C   UNL A   1      44.272  31.055  28.640  1.00  0.00     0.074 A 
ATOM     66  C   UNL A   1      43.157  31.796  29.190  1.00  0.00     0.031 C 
ATOM     67  C   UNL A   1      45.526  31.558  28.506  1.00  0.00     0.037 A 
BRANCH  54  68
ATOM     68  C   UNL A   1      49.591  27.559  26.125  1.00  0.00     0.064 A 
ATOM     69  C   UNL A   1      49.948  27.564  24.767  1.00  0.00     0.173 A 
ATOM     70  C   UNL A   1      50.573  27.216  27.064  1.00  0.00     0.173 A 
ATOM     71  F   UNL A   1      49.032  27.850  23.829  1.00  0.00    -0.203 F 
ATOM     72  C   UNL A   1      51.233  27.212  24.364  1.00  0.00     0.198 A 
ATOM     73  C   UNL A   1      51.864  26.889  26.659  1.00  0.00     0.198 A 
ATOM     74  F   UNL A   1      50.275  27.178  28.371  1.00  0.00    -0.203 F 
ATOM     75  F   UNL A   1      51.535  27.163  23.060  1.00  0.00    -0.200 F 
ATOM     76  C   UNL A   1      52.191  26.879  25.311  1.00  0.00     0.200 A 
ATOM     77  F   UNL A   1      52.789  26.567  27.574  1.00  0.00    -0.200 F 
ATOM     78  F   UNL A   1      53.425  26.533  24.923  1.00  0.00    -0.200 F 
ENDBRANCH  54  68
BRANCH  55  79
ATOM     79  C   UNL A   1      40.072  28.944  28.881  1.00  0.00     0.064 A 
ATOM     80  C   UNL A   1      39.662  28.742  30.207  1.00  0.00     0.173 A 
ATOM     81  C   UNL A   1      39.092  29.316  27.948  1.00  0.00     0.173 A 
ATOM     82  F   UNL A   1      40.555  28.356  31.131  1.00  0.00    -0.203 F 
ATOM     83  C   UNL A   1      38.325  28.874  30.578  1.00  0.00     0.198 A 
ATOM     84  C   UNL A   1      37.759  29.474  28.327  1.00  0.00     0.198 A 
ATOM     85  F   UNL A   1      39.427  29.513  26.665  1.00  0.00    -0.203 F 
ATOM     86  F   UNL A   1      37.954  28.614  31.839  1.00  0.00    -0.200 F 
ATOM     87  C   UNL A   1      37.375  29.242  29.638  1.00  0.00     0.200 A 
ATOM     88  F   UNL A   1      36.845  29.834  27.415  1.00  0.00    -0.200 F 
ATOM     89  F   UNL A   1      36.088  29.359  29.993  1.00  0.00    -0.200 F 
ENDBRANCH  55  79
BRANCH  67  90
ATOM     90  C   UNL A   1      45.747  32.987  28.907  1.00  0.00     0.064 A 
ATOM     91  C   UNL A   1      46.180  33.336  30.194  1.00  0.00     0.173 A 
ATOM     92  C   UNL A   1      45.580  34.016  27.967  1.00  0.00     0.173 A 
ATOM     93  F   UNL A   1      46.347  32.389  31.130  1.00  0.00    -0.203 F 
ATOM     94  C   UNL A   1      46.410  34.666  30.534  1.00  0.00     0.198 A 
ATOM     95  C   UNL A   1      45.842  35.341  28.301  1.00  0.00     0.198 A 
ATOM     96  F   UNL A   1      45.181  33.732  26.718  1.00  0.00    -0.203 F 
ATOM     97  F   UNL A   1      46.777  34.982  31.783  1.00  0.00    -0.200 F 
ATOM     98  C   UNL A   1      46.248  35.666  29.586  1.00  0.00     0.200 A 
ATOM     99  F   UNL A   1      45.703  36.303  27.379  1.00  0.00    -0.200 F 
ATOM    100  F   UNL A   1      46.478  36.945  29.913  1.00  0.00    -0.200 F 
ENDBRANCH  67  90
ENDBRANCH  41  42
ENDBRANCH  34  36
ENDBRANCH  33  34
ENDBRANCH  32  33
ENDBRANCH  31  32
ENDBRANCH  30  31
ENDBRANCH  29  30
ENDBRANCH   1  29
TORSDOF 23
ENDMDL
MODEL 3
REMARK VINA RESULT:     -11.6      4.944      9.250
REMARK SMILES C[C@@](COc1ccccc1)(NC(=O)CN1CSCC1=O)C(=O)OCCOCCOCCOC(=O)c1ccc(-c2c3nc(c(-c4c(F)c(F)c(F)c(F)c4F)c4ccc([nH]4)c(-c4c(F)c(F)c(F)c(F)c4F)c4nc(c(-c5c(F)c(F)c(F)c(F)c5F)c5ccc2[nH]5)C=C4)C=C3)cc1
REMARK SMILES IDX 27 1 26 2 25 3 24 4 23 5 21 6 22 7 2 8 1 9 3 10 4 11 5 12
REMARK SMILES IDX 6 13 10 14 7 15 9 16 8 17 11 18 12 19 13 21 14 22 15 23
REMARK SMILES IDX 16 24 19 25 17 26 18 27 20 28 28 29 29 30 30 31 31 32 32 33
REMARK SMILES IDX 33 34 34 35 35 36 36 37 97 38 37 39 96 40 38 41 39 42 40 43
REMARK SMILES IDX 90 44 41 45 95 46 89 47 91 48 42 49 94 50 88 51 87 52 43 54
REMARK SMILES IDX 75 55 55 56 74 57 56 58 59 59 73 60 92 61 57 62 58 63 72 65
REMARK SMILES IDX 93 66 60 67 44 68 45 69 53 70 46 71 47 72 51 73 54 74 48 75
REMARK SMILES IDX 49 76 52 77 50 78 76 79 77 80 85 81 78 82 79 83 83 84 86 85
REMARK SMILES IDX 80 86 81 87 84 88 82 89 61 90 62 91 70 92 63 93 64 94 68 95
REMARK SMILES IDX 71 96 65 97 66 98 69 99 67 100
REMARK H PARENT 11 20 91 53 59 64
REMARK Flexibility Score: inf
ROOT
ATOM      1  C   UNL A   1      40.844  21.396  27.028  1.00  0.00     0.188 C 
ENDROOT
BRANCH   1   2
ATOM      2  O   UNL A   1      40.071  23.162  27.518  1.00  0.00    -0.376 OA
BRANCH   2   3
ATOM      3  C   UNL A   1      38.852  24.179  27.188  1.00  0.00     0.202 C 
BRANCH   3   4
ATOM      4  C   UNL A   1      37.797  24.054  25.956  1.00  0.00     0.261 C 
BRANCH   4   5
ATOM      5  O   UNL A   1      36.560  23.292  26.208  1.00  0.00    -0.461 OA
BRANCH   5   6
ATOM      6  C   UNL A   1      35.312  23.687  25.817  1.00  0.00     0.335 C 
ATOM      7  O   UNL A   1      35.114  24.671  25.117  1.00  0.00    -0.249 OA
BRANCH   6   8
ATOM      8  C   UNL A   1      34.209  22.582  26.101  1.00  0.00     0.169 C 
ATOM      9  C   UNL A   1      34.145  22.351  27.628  1.00  0.00     0.051 C 
BRANCH   8  10
ATOM     10  C   UNL A   1      34.656  21.203  25.502  1.00  0.00     0.269 C 
BRANCH  10  11
ATOM     11  O   UNL A   1      33.588  20.207  25.642  1.00  0.00    -0.491 OA
BRANCH  11  12
ATOM     12  C   UNL A   1      33.531  19.255  24.652  1.00  0.00     0.119 A 
ATOM     13  C   UNL A   1      34.465  18.227  24.577  1.00  0.00     0.046 A 
ATOM     14  C   UNL A   1      32.497  19.327  23.709  1.00  0.00     0.046 A 
ATOM     15  C   UNL A   1      34.319  17.223  23.613  1.00  0.00     0.004 A 
ATOM     16  C   UNL A   1      32.336  18.308  22.764  1.00  0.00     0.004 A 
ATOM     17  C   UNL A   1      33.244  17.250  22.723  1.00  0.00     0.000 A 
ENDBRANCH  11  12
ENDBRANCH  10  11
ENDBRANCH   8  10
BRANCH   8  18
ATOM     18  N   UNL A   1      32.851  22.809  25.519  1.00  0.00    -0.336 N 
ATOM     19  C   UNL A   1      31.776  23.608  25.680  1.00  0.00     0.240 C 
ATOM     20  H   UNL A   1      32.689  22.171  24.785  1.00  0.00     0.164 HD
ATOM     21  O   UNL A   1      30.784  23.284  25.013  1.00  0.00    -0.273 OA
BRANCH  19  22
ATOM     22  C   UNL A   1      31.802  24.945  26.396  1.00  0.00     0.220 C 
BRANCH  22  23
ATOM     23  N   UNL A   1      32.006  26.184  25.640  1.00  0.00    -0.323 N 
ATOM     24  C   UNL A   1      32.427  26.499  23.773  1.00  0.00     0.190 C 
ATOM     25  C   UNL A   1      31.597  27.661  26.612  1.00  0.00     0.233 C 
ATOM     26  S   UNL A   1      32.562  28.827  23.388  1.00  0.00    -0.130 SA
ATOM     27  C   UNL A   1      31.960  29.338  25.617  1.00  0.00     0.171 C 
ATOM     28  O   UNL A   1      31.135  27.624  27.760  1.00  0.00    -0.274 OA
ENDBRANCH  22  23
ENDBRANCH  19  22
ENDBRANCH   8  18
ENDBRANCH   6   8
ENDBRANCH   5   6
ENDBRANCH   4   5
ENDBRANCH   3   4
ENDBRANCH   2   3
ENDBRANCH   1   2
BRANCH   1  29
ATOM     29  C   UNL A   1      40.262  20.201  26.102  1.00  0.00     0.188 C 
BRANCH  29  30
ATOM     30  O   UNL A   1      41.081  19.096  25.800  1.00  0.00    -0.376 OA
BRANCH  30  31
ATOM     31  C   UNL A   1      42.424  19.037  26.287  1.00  0.00     0.202 C 
BRANCH  31  32
ATOM     32  C   UNL A   1      43.557  18.507  25.385  1.00  0.00     0.261 C 
BRANCH  32  33
ATOM     33  O   UNL A   1      43.954  19.394  24.320  1.00  0.00    -0.460 OA
BRANCH  33  34
ATOM     34  C   UNL A   1      45.190  19.931  24.411  1.00  0.00     0.338 C 
ATOM     35  O   UNL A   1      46.213  19.491  23.919  1.00  0.00    -0.246 OA
BRANCH  34  36
ATOM     36  C   UNL A   1      45.049  21.306  24.968  1.00  0.00     0.060 A 
ATOM     37  C   UNL A   1      44.765  22.338  24.058  1.00  0.00     0.016 A 
ATOM     38  C   UNL A   1      45.037  21.570  26.347  1.00  0.00     0.016 A 
ATOM     39  C   UNL A   1      44.551  23.637  24.513  1.00  0.00     0.010 A 
ATOM     40  C   UNL A   1      44.852  22.879  26.805  1.00  0.00     0.010 A 
ATOM     41  C   UNL A   1      44.685  23.925  25.879  1.00  0.00    -0.014 A 
BRANCH  41  42
ATOM     42  C   UNL A   1      45.121  25.296  26.242  1.00  0.00     0.031 A 
ATOM     43  C   UNL A   1      44.054  26.184  26.835  1.00  0.00     0.074 A 
ATOM     44  C   UNL A   1      46.388  25.728  26.131  1.00  0.00     0.049 A 
ATOM     45  N   UNL A   1      44.140  27.396  27.319  1.00  0.00    -0.248 NA
ATOM     46  C   UNL A   1      42.696  25.612  26.903  1.00  0.00     0.031 C 
ATOM     47  C   UNL A   1      47.514  24.958  25.611  1.00  0.00     0.029 A 
ATOM     48  N   UNL A   1      46.935  26.942  26.468  1.00  0.00    -0.354 N 
ATOM     49  C   UNL A   1      42.862  27.708  27.765  1.00  0.00     0.074 A 
ATOM     50  C   UNL A   1      42.006  26.588  27.460  1.00  0.00     0.031 C 
ATOM     51  C   UNL A   1      48.622  25.724  25.658  1.00  0.00     0.029 A 
ATOM     52  C   UNL A   1      48.277  27.039  26.198  1.00  0.00     0.049 A 
ATOM     53  H   UNL A   1      46.411  27.675  26.865  1.00  0.00     0.167 HD
ATOM     54  C   UNL A   1      42.429  28.826  28.387  1.00  0.00     0.037 A 
ATOM     55  C   UNL A   1      49.115  28.082  26.366  1.00  0.00     0.037 A 
ATOM     56  C   UNL A   1      43.258  29.964  28.644  1.00  0.00     0.049 A 
ATOM     57  C   UNL A   1      48.586  29.363  26.970  1.00  0.00     0.074 A 
ATOM     58  C   UNL A   1      42.914  31.171  29.221  1.00  0.00     0.029 A 
ATOM     59  N   UNL A   1      44.602  30.037  28.315  1.00  0.00    -0.354 N 
ATOM     60  N   UNL A   1      47.385  29.640  27.419  1.00  0.00    -0.248 NA
ATOM     61  C   UNL A   1      49.538  30.478  27.096  1.00  0.00     0.031 C 
ATOM     62  C   UNL A   1      44.045  31.994  29.201  1.00  0.00     0.029 A 
ATOM     63  C   UNL A   1      45.103  31.279  28.661  1.00  0.00     0.049 A 
ATOM     64  H   UNL A   1      45.123  29.313  27.897  1.00  0.00     0.167 HD
ATOM     65  C   UNL A   1      47.447  30.939  27.912  1.00  0.00     0.074 A 
ATOM     66  C   UNL A   1      48.807  31.393  27.717  1.00  0.00     0.031 C 
ATOM     67  C   UNL A   1      46.469  31.693  28.476  1.00  0.00     0.037 A 
BRANCH  54  68
ATOM     68  C   UNL A   1      40.983  28.864  28.776  1.00  0.00     0.064 A 
ATOM     69  C   UNL A   1      40.562  28.504  30.067  1.00  0.00     0.173 A 
ATOM     70  C   UNL A   1      40.004  29.217  27.838  1.00  0.00     0.173 A 
ATOM     71  F   UNL A   1      41.461  28.122  30.987  1.00  0.00    -0.203 F 
ATOM     72  C   UNL A   1      39.210  28.473  30.395  1.00  0.00     0.198 A 
ATOM     73  C   UNL A   1      38.654  29.210  28.179  1.00  0.00     0.198 A 
ATOM     74  F   UNL A   1      40.355  29.551  26.587  1.00  0.00    -0.203 F 
ATOM     75  F   UNL A   1      38.828  28.066  31.613  1.00  0.00    -0.200 F 
ATOM     76  C   UNL A   1      38.258  28.830  29.452  1.00  0.00     0.200 A 
ATOM     77  F   UNL A   1      37.734  29.555  27.266  1.00  0.00    -0.200 F 
ATOM     78  F   UNL A   1      36.956  28.793  29.766  1.00  0.00    -0.200 F 
ENDBRANCH  54  68
BRANCH  55  79
ATOM     79  C   UNL A   1      50.544  27.980  25.960  1.00  0.00     0.064 A 
ATOM     80  C   UNL A   1      50.925  28.074  24.612  1.00  0.00     0.173 A 
ATOM     81  C   UNL A   1      51.550  27.723  26.902  1.00  0.00     0.173 A 
ATOM     82  F   UNL A   1      49.996  28.289  23.669  1.00  0.00    -0.203 F 
ATOM     83  C   UNL A   1      52.250  27.886  24.222  1.00  0.00     0.198 A 
ATOM     84  C   UNL A   1      52.879  27.562  26.513  1.00  0.00     0.198 A 
ATOM     85  F   UNL A   1      51.240  27.613  28.202  1.00  0.00    -0.203 F 
ATOM     86  F   UNL A   1      52.573  27.920  22.923  1.00  0.00    -0.200 F 
ATOM     87  C   UNL A   1      53.226  27.632  25.173  1.00  0.00     0.200 A 
ATOM     88  F   UNL A   1      53.821  27.321  27.436  1.00  0.00    -0.200 F 
ATOM     89  F   UNL A   1      54.498  27.441  24.796  1.00  0.00    -0.200 F 
ENDBRANCH  55  79
BRANCH  67  90
ATOM     90  C   UNL A   1      46.843  33.059  28.970  1.00  0.00     0.064 A 
ATOM     91  C   UNL A   1      47.335  33.267  30.267  1.00  0.00     0.173 A 
ATOM     92  C   UNL A   1      46.764  34.165  28.111  1.00  0.00     0.173 A 
ATOM     93  F   UNL A   1      47.422  32.242  31.129  1.00  0.00    -0.203 F 
ATOM     94  C   UNL A   1      47.706  34.539  30.694  1.00  0.00     0.198 A 
ATOM     95  C   UNL A   1      47.166  35.429  28.531  1.00  0.00     0.198 A 
ATOM     96  F   UNL A   1      46.313  34.015  26.856  1.00  0.00    -0.203 F 
ATOM     97  F   UNL A   1      48.128  34.724  31.952  1.00  0.00    -0.200 F 
ATOM     98  C   UNL A   1      47.629  35.617  29.823  1.00  0.00     0.200 A 
ATOM     99  F   UNL A   1      47.108  36.465  27.682  1.00  0.00    -0.200 F 
ATOM    100  F   UNL A   1      47.995  36.839  30.234  1.00  0.00    -0.200 F 
ENDBRANCH  67  90
ENDBRANCH  41  42
ENDBRANCH  34  36
ENDBRANCH  33  34
ENDBRANCH  32  33
ENDBRANCH  31  32
ENDBRANCH  30  31
ENDBRANCH  29  30
ENDBRANCH   1  29
TORSDOF 23
ENDMDL
