MODEL 1
REMARK VINA RESULT:     -11.5      0.000      0.000
REMARK SMILES C[C@H](Nc1ccc2c(c1)Cc1ccccc1-2)[C@@H](C)C(=O)OCCOCCOCCOC(=O)c1ccc(-c2c3nc(c(-c4c(F)c(F)c(F)c(F)c4F)c4ccc([nH]4)c(-c4c(F)c(F)c(F)c(F)c4F)c4nc(c(-c5c(F)c(F)c(F)c(F)c5F)c5ccc2[nH]5)C=C4)C=C3)cc1
REMARK SMILES IDX 25 1 24 2 23 3 22 4 21 5 19 6 20 7 17 8 18 9 2 10 1 11 3 12
REMARK SMILES IDX 4 14 5 15 9 16 6 17 8 18 7 19 10 20 16 21 11 22 15 23 12 24
REMARK SMILES IDX 14 25 13 26 26 27 27 28 28 29 29 30 30 31 31 32 32 33 33 34
REMARK SMILES IDX 34 35 95 36 35 37 94 38 36 39 37 40 38 41 88 42 39 43 93 44
REMARK SMILES IDX 87 45 89 46 40 47 92 48 86 49 85 50 41 52 73 53 53 54 72 55
REMARK SMILES IDX 54 56 57 57 71 58 90 59 55 60 56 61 70 63 91 64 58 65 42 66
REMARK SMILES IDX 43 67 51 68 44 69 45 70 49 71 52 72 46 73 47 74 50 75 48 76
REMARK SMILES IDX 74 77 75 78 83 79 76 80 77 81 81 82 84 83 78 84 79 85 82 86
REMARK SMILES IDX 80 87 59 88 60 89 68 90 61 91 62 92 66 93 69 94 63 95 64 96
REMARK SMILES IDX 67 97 65 98
REMARK H PARENT 3 13 89 51 57 62
REMARK Flexibility Score: inf
ROOT
ATOM      1  C   UNL A   1      30.896  27.848  22.365  1.00  0.00     0.188 C 
ENDROOT
BRANCH   1   2
ATOM      2  O   UNL A   1      29.513  28.160  22.457  1.00  0.00    -0.376 OA
BRANCH   2   3
ATOM      3  C   UNL A   1      28.784  27.475  23.469  1.00  0.00     0.202 C 
BRANCH   3   4
ATOM      4  C   UNL A   1      29.508  26.335  24.204  1.00  0.00     0.261 C 
BRANCH   4   5
ATOM      5  O   UNL A   1      30.141  26.669  25.461  1.00  0.00    -0.463 OA
BRANCH   5   6
ATOM      6  C   UNL A   1      30.699  25.623  26.126  1.00  0.00     0.310 C 
ATOM      7  O   UNL A   1      30.090  24.599  26.427  1.00  0.00    -0.252 OA
BRANCH   6   8
ATOM      8  C   UNL A   1      32.151  25.825  26.552  1.00  0.00     0.118 C 
ATOM      9  C   UNL A   1      32.257  27.287  27.010  1.00  0.00     0.022 C 
BRANCH   8  10
ATOM     10  C   UNL A   1      33.243  25.451  25.521  1.00  0.00     0.090 C 
ATOM     11  C   UNL A   1      33.982  26.693  25.007  1.00  0.00     0.031 C 
BRANCH  10  12
ATOM     12  N   UNL A   1      32.614  24.830  24.342  1.00  0.00    -0.382 N 
ATOM     13  H   UNL A   1      32.127  25.399  23.703  1.00  0.00     0.160 HD
BRANCH  12  14
ATOM     14  C   UNL A   1      32.689  23.461  24.107  1.00  0.00     0.035 A 
ATOM     15  C   UNL A   1      31.759  22.790  23.291  1.00  0.00     0.026 A 
ATOM     16  C   UNL A   1      33.689  22.716  24.752  1.00  0.00     0.030 A 
ATOM     17  C   UNL A   1      31.831  21.406  23.075  1.00  0.00     0.011 A 
ATOM     18  C   UNL A   1      33.743  21.343  24.554  1.00  0.00    -0.034 A 
ATOM     19  C   UNL A   1      32.830  20.689  23.707  1.00  0.00    -0.014 A 
ATOM     20  C   UNL A   1      34.713  20.346  25.156  1.00  0.00     0.072 C 
ATOM     21  C   UNL A   1      33.166  19.282  23.657  1.00  0.00    -0.015 A 
ATOM     22  C   UNL A   1      34.278  19.052  24.497  1.00  0.00    -0.036 A 
ATOM     23  C   UNL A   1      32.607  18.244  22.934  1.00  0.00     0.009 A 
ATOM     24  C   UNL A   1      34.839  17.793  24.627  1.00  0.00     0.005 A 
ATOM     25  C   UNL A   1      33.171  16.970  23.054  1.00  0.00     0.001 A 
ATOM     26  C   UNL A   1      34.277  16.747  23.893  1.00  0.00     0.000 A 
ENDBRANCH  12  14
ENDBRANCH  10  12
ENDBRANCH   8  10
ENDBRANCH   6   8
ENDBRANCH   5   6
ENDBRANCH   4   5
ENDBRANCH   3   4
ENDBRANCH   2   3
ENDBRANCH   1   2
BRANCH   1  27
ATOM     27  C   UNL A   1      31.856  28.966  22.782  1.00  0.00     0.188 C 
BRANCH  27  28
ATOM     28  O   UNL A   1      31.910  29.138  24.193  1.00  0.00    -0.376 OA
BRANCH  28  29
ATOM     29  C   UNL A   1      31.105  30.149  24.803  1.00  0.00     0.202 C 
BRANCH  29  30
ATOM     30  C   UNL A   1      31.465  30.744  26.178  1.00  0.00     0.261 C 
BRANCH  30  31
ATOM     31  O   UNL A   1      32.867  30.797  26.482  1.00  0.00    -0.460 OA
BRANCH  31  32
ATOM     32  C   UNL A   1      33.309  31.869  27.178  1.00  0.00     0.338 C 
ATOM     33  O   UNL A   1      32.679  32.881  27.437  1.00  0.00    -0.246 OA
BRANCH  32  34
ATOM     34  C   UNL A   1      34.612  31.500  27.791  1.00  0.00     0.060 A 
ATOM     35  C   UNL A   1      34.826  30.156  28.128  1.00  0.00     0.016 A 
ATOM     36  C   UNL A   1      35.652  32.426  27.933  1.00  0.00     0.016 A 
ATOM     37  C   UNL A   1      36.056  29.746  28.649  1.00  0.00     0.010 A 
ATOM     38  C   UNL A   1      36.879  32.019  28.465  1.00  0.00     0.010 A 
ATOM     39  C   UNL A   1      37.074  30.684  28.865  1.00  0.00    -0.014 A 
BRANCH  39  40
ATOM     40  C   UNL A   1      38.216  30.353  29.755  1.00  0.00     0.031 A 
ATOM     41  C   UNL A   1      39.239  29.382  29.230  1.00  0.00     0.074 A 
ATOM     42  C   UNL A   1      38.368  30.887  30.980  1.00  0.00     0.049 A 
ATOM     43  N   UNL A   1      40.265  28.838  29.832  1.00  0.00    -0.248 NA
ATOM     44  C   UNL A   1      39.074  28.965  27.827  1.00  0.00     0.031 C 
ATOM     45  C   UNL A   1      37.497  31.887  31.588  1.00  0.00     0.029 A 
ATOM     46  N   UNL A   1      39.324  30.642  31.939  1.00  0.00    -0.354 N 
ATOM     47  C   UNL A   1      40.855  28.007  28.887  1.00  0.00     0.074 A 
ATOM     48  C   UNL A   1      40.061  28.097  27.683  1.00  0.00     0.031 C 
ATOM     49  C   UNL A   1      37.948  32.162  32.826  1.00  0.00     0.029 A 
ATOM     50  C   UNL A   1      39.116  31.326  33.113  1.00  0.00     0.049 A 
ATOM     51  H   UNL A   1      40.085  30.034  31.798  1.00  0.00     0.167 HD
ATOM     52  C   UNL A   1      41.962  27.239  29.009  1.00  0.00     0.037 A 
ATOM     53  C   UNL A   1      39.776  31.258  34.288  1.00  0.00     0.037 A 
ATOM     54  C   UNL A   1      42.757  27.148  30.203  1.00  0.00     0.049 A 
ATOM     55  C   UNL A   1      40.955  30.324  34.431  1.00  0.00     0.074 A 
ATOM     56  C   UNL A   1      43.894  26.392  30.424  1.00  0.00     0.029 A 
ATOM     57  N   UNL A   1      42.494  27.833  31.378  1.00  0.00    -0.354 N 
ATOM     58  N   UNL A   1      41.506  29.538  33.537  1.00  0.00    -0.248 NA
ATOM     59  C   UNL A   1      41.604  30.265  35.750  1.00  0.00     0.031 C 
ATOM     60  C   UNL A   1      44.290  26.579  31.751  1.00  0.00     0.029 A 
ATOM     61  C   UNL A   1      43.437  27.502  32.335  1.00  0.00     0.049 A 
ATOM     62  H   UNL A   1      41.748  28.461  31.512  1.00  0.00     0.167 HD
ATOM     63  C   UNL A   1      42.585  28.930  34.171  1.00  0.00     0.074 A 
ATOM     64  C   UNL A   1      42.613  29.435  35.526  1.00  0.00     0.031 C 
ATOM     65  C   UNL A   1      43.475  28.038  33.671  1.00  0.00     0.037 A 
BRANCH  52  66
ATOM     66  C   UNL A   1      42.354  26.406  27.826  1.00  0.00     0.064 A 
ATOM     67  C   UNL A   1      41.776  25.152  27.579  1.00  0.00     0.173 A 
ATOM     68  C   UNL A   1      43.312  26.880  26.917  1.00  0.00     0.173 A 
ATOM     69  F   UNL A   1      40.872  24.645  28.432  1.00  0.00    -0.203 F 
ATOM     70  C   UNL A   1      42.162  24.391  26.480  1.00  0.00     0.198 A 
ATOM     71  C   UNL A   1      43.671  26.132  25.801  1.00  0.00     0.198 A 
ATOM     72  F   UNL A   1      43.895  28.073  27.110  1.00  0.00    -0.203 F 
ATOM     73  F   UNL A   1      41.637  23.173  26.292  1.00  0.00    -0.200 F 
ATOM     74  C   UNL A   1      43.103  24.885  25.587  1.00  0.00     0.200 A 
ATOM     75  F   UNL A   1      44.572  26.615  24.933  1.00  0.00    -0.200 F 
ATOM     76  F   UNL A   1      43.469  24.155  24.525  1.00  0.00    -0.200 F 
ENDBRANCH  52  66
BRANCH  53  77
ATOM     77  C   UNL A   1      39.328  32.076  35.449  1.00  0.00     0.064 A 
ATOM     78  C   UNL A   1      39.828  33.369  35.661  1.00  0.00     0.173 A 
ATOM     79  C   UNL A   1      38.432  31.563  36.397  1.00  0.00     0.173 A 
ATOM     80  F   UNL A   1      40.715  33.893  34.801  1.00  0.00    -0.203 F 
ATOM     81  C   UNL A   1      39.466  34.107  36.786  1.00  0.00     0.198 A 
ATOM     82  C   UNL A   1      38.046  32.313  37.507  1.00  0.00     0.198 A 
ATOM     83  F   UNL A   1      37.932  30.326  36.250  1.00  0.00    -0.203 F 
ATOM     84  F   UNL A   1      40.004  35.317  36.993  1.00  0.00    -0.200 F 
ATOM     85  C   UNL A   1      38.570  33.581  37.706  1.00  0.00     0.200 A 
ATOM     86  F   UNL A   1      37.178  31.803  38.390  1.00  0.00    -0.200 F 
ATOM     87  F   UNL A   1      38.227  34.289  38.789  1.00  0.00    -0.200 F 
ENDBRANCH  53  77
BRANCH  65  88
ATOM     88  C   UNL A   1      44.606  27.597  34.557  1.00  0.00     0.064 A 
ATOM     89  C   UNL A   1      45.830  28.279  34.596  1.00  0.00     0.173 A 
ATOM     90  C   UNL A   1      44.424  26.523  35.443  1.00  0.00     0.173 A 
ATOM     91  F   UNL A   1      46.058  29.306  33.764  1.00  0.00    -0.203 F 
ATOM     92  C   UNL A   1      46.837  27.891  35.478  1.00  0.00     0.198 A 
ATOM     93  C   UNL A   1      45.421  26.158  36.344  1.00  0.00     0.198 A 
ATOM     94  F   UNL A   1      43.267  25.844  35.455  1.00  0.00    -0.203 F 
ATOM     95  F   UNL A   1      48.012  28.535  35.474  1.00  0.00    -0.200 F 
ATOM     96  C   UNL A   1      46.628  26.838  36.357  1.00  0.00     0.200 A 
ATOM     97  F   UNL A   1      45.210  25.152  37.205  1.00  0.00    -0.200 F 
ATOM     98  F   UNL A   1      47.592  26.480  37.217  1.00  0.00    -0.200 F 
ENDBRANCH  65  88
ENDBRANCH  39  40
ENDBRANCH  32  34
ENDBRANCH  31  32
ENDBRANCH  30  31
ENDBRANCH  29  30
ENDBRANCH  28  29
ENDBRANCH  27  28
ENDBRANCH   1  27
TORSDOF 20
ENDMDL
MODEL 2
REMARK VINA RESULT:     -11.2      3.663      8.991
REMARK SMILES C[C@H](Nc1ccc2c(c1)Cc1ccccc1-2)[C@@H](C)C(=O)OCCOCCOCCOC(=O)c1ccc(-c2c3nc(c(-c4c(F)c(F)c(F)c(F)c4F)c4ccc([nH]4)c(-c4c(F)c(F)c(F)c(F)c4F)c4nc(c(-c5c(F)c(F)c(F)c(F)c5F)c5ccc2[nH]5)C=C4)C=C3)cc1
REMARK SMILES IDX 25 1 24 2 23 3 22 4 21 5 19 6 20 7 17 8 18 9 2 10 1 11 3 12
REMARK SMILES IDX 4 14 5 15 9 16 6 17 8 18 7 19 10 20 16 21 11 22 15 23 12 24
REMARK SMILES IDX 14 25 13 26 26 27 27 28 28 29 29 30 30 31 31 32 32 33 33 34
REMARK SMILES IDX 34 35 95 36 35 37 94 38 36 39 37 40 38 41 88 42 39 43 93 44
REMARK SMILES IDX 87 45 89 46 40 47 92 48 86 49 85 50 41 52 73 53 53 54 72 55
REMARK SMILES IDX 54 56 57 57 71 58 90 59 55 60 56 61 70 63 91 64 58 65 42 66
REMARK SMILES IDX 43 67 51 68 44 69 45 70 49 71 52 72 46 73 47 74 50 75 48 76
REMARK SMILES IDX 74 77 75 78 83 79 76 80 77 81 81 82 84 83 78 84 79 85 82 86
REMARK SMILES IDX 80 87 59 88 60 89 68 90 61 91 62 92 66 93 69 94 63 95 64 96
REMARK SMILES IDX 67 97 65 98
REMARK H PARENT 3 13 89 51 57 62
REMARK Flexibility Score: inf
ROOT
ATOM      1  C   UNL A   1      40.570  21.216  26.166  1.00  0.00     0.188 C 
ENDROOT
BRANCH   1   2
ATOM      2  O   UNL A   1      39.657  22.101  26.801  1.00  0.00    -0.376 OA
BRANCH   2   3
ATOM      3  C   UNL A   1      38.593  22.589  25.991  1.00  0.00     0.202 C 
BRANCH   3   4
ATOM      4  C   UNL A   1      37.478  21.595  25.627  1.00  0.00     0.261 C 
BRANCH   4   5
ATOM      5  O   UNL A   1      37.140  21.480  24.225  1.00  0.00    -0.463 OA
BRANCH   5   6
ATOM      6  C   UNL A   1      36.410  22.508  23.718  1.00  0.00     0.310 C 
ATOM      7  O   UNL A   1      36.727  23.144  22.715  1.00  0.00    -0.252 OA
BRANCH   6   8
ATOM      8  C   UNL A   1      35.173  22.887  24.527  1.00  0.00     0.118 C 
ATOM      9  C   UNL A   1      34.134  21.790  24.250  1.00  0.00     0.022 C 
BRANCH   8  10
ATOM     10  C   UNL A   1      34.599  24.308  24.310  1.00  0.00     0.090 C 
ATOM     11  C   UNL A   1      34.291  25.002  25.642  1.00  0.00     0.031 C 
BRANCH  10  12
ATOM     12  N   UNL A   1      33.318  24.215  23.587  1.00  0.00    -0.382 N 
ATOM     13  H   UNL A   1      32.991  23.331  23.302  1.00  0.00     0.160 HD
BRANCH  12  14
ATOM     14  C   UNL A   1      32.557  25.343  23.298  1.00  0.00     0.035 A 
ATOM     15  C   UNL A   1      33.120  26.498  22.724  1.00  0.00     0.026 A 
ATOM     16  C   UNL A   1      31.196  25.349  23.641  1.00  0.00     0.030 A 
ATOM     17  C   UNL A   1      32.348  27.638  22.453  1.00  0.00     0.011 A 
ATOM     18  C   UNL A   1      30.440  26.486  23.392  1.00  0.00    -0.034 A 
ATOM     19  C   UNL A   1      31.007  27.623  22.785  1.00  0.00    -0.014 A 
ATOM     20  C   UNL A   1      28.975  26.724  23.695  1.00  0.00     0.072 C 
ATOM     21  C   UNL A   1      29.973  28.619  22.606  1.00  0.00    -0.015 A 
ATOM     22  C   UNL A   1      28.761  28.113  23.126  1.00  0.00    -0.036 A 
ATOM     23  C   UNL A   1      30.015  29.870  22.016  1.00  0.00     0.009 A 
ATOM     24  C   UNL A   1      27.587  28.845  23.069  1.00  0.00     0.005 A 
ATOM     25  C   UNL A   1      28.832  30.613  21.947  1.00  0.00     0.001 A 
ATOM     26  C   UNL A   1      27.629  30.105  22.469  1.00  0.00     0.000 A 
ENDBRANCH  12  14
ENDBRANCH  10  12
ENDBRANCH   8  10
ENDBRANCH   6   8
ENDBRANCH   5   6
ENDBRANCH   4   5
ENDBRANCH   3   4
ENDBRANCH   2   3
ENDBRANCH   1   2
BRANCH   1  27
ATOM     27  C   UNL A   1      42.053  21.515  26.401  1.00  0.00     0.188 C 
BRANCH  27  28
ATOM     28  O   UNL A   1      42.886  20.959  25.392  1.00  0.00    -0.376 OA
BRANCH  28  29
ATOM     29  C   UNL A   1      44.177  21.528  25.163  1.00  0.00     0.202 C 
BRANCH  29  30
ATOM     30  C   UNL A   1      44.353  22.813  24.331  1.00  0.00     0.261 C 
BRANCH  30  31
ATOM     31  O   UNL A   1      43.682  23.977  24.838  1.00  0.00    -0.460 OA
BRANCH  31  32
ATOM     32  C   UNL A   1      44.455  25.019  25.219  1.00  0.00     0.338 C 
ATOM     33  O   UNL A   1      45.460  25.425  24.662  1.00  0.00    -0.246 OA
BRANCH  32  34
ATOM     34  C   UNL A   1      43.729  25.745  26.296  1.00  0.00     0.060 A 
ATOM     35  C   UNL A   1      44.033  27.098  26.501  1.00  0.00     0.016 A 
ATOM     36  C   UNL A   1      42.689  25.148  27.018  1.00  0.00     0.016 A 
ATOM     37  C   UNL A   1      43.335  27.841  27.457  1.00  0.00     0.010 A 
ATOM     38  C   UNL A   1      41.998  25.887  27.983  1.00  0.00     0.010 A 
ATOM     39  C   UNL A   1      42.345  27.227  28.237  1.00  0.00    -0.014 A 
BRANCH  39  40
ATOM     40  C   UNL A   1      41.878  27.873  29.490  1.00  0.00     0.031 A 
ATOM     41  C   UNL A   1      40.597  28.660  29.422  1.00  0.00     0.074 A 
ATOM     42  C   UNL A   1      42.539  27.771  30.656  1.00  0.00     0.049 A 
ATOM     43  N   UNL A   1      40.023  29.408  30.329  1.00  0.00    -0.248 NA
ATOM     44  C   UNL A   1      39.864  28.593  28.146  1.00  0.00     0.031 C 
ATOM     45  C   UNL A   1      43.750  26.989  30.885  1.00  0.00     0.029 A 
ATOM     46  N   UNL A   1      42.274  28.350  31.876  1.00  0.00    -0.354 N 
ATOM     47  C   UNL A   1      38.876  29.910  29.728  1.00  0.00     0.074 A 
ATOM     48  C   UNL A   1      38.845  29.405  28.374  1.00  0.00     0.031 C 
ATOM     49  C   UNL A   1      44.135  27.149  32.165  1.00  0.00     0.029 A 
ATOM     50  C   UNL A   1      43.221  28.077  32.834  1.00  0.00     0.049 A 
ATOM     51  H   UNL A   1      41.482  28.909  32.047  1.00  0.00     0.167 HD
ATOM     52  C   UNL A   1      37.928  30.718  30.256  1.00  0.00     0.037 A 
ATOM     53  C   UNL A   1      43.347  28.547  34.092  1.00  0.00     0.037 A 
ATOM     54  C   UNL A   1      37.951  31.222  31.601  1.00  0.00     0.049 A 
ATOM     55  C   UNL A   1      42.326  29.522  34.632  1.00  0.00     0.074 A 
ATOM     56  C   UNL A   1      37.038  32.052  32.226  1.00  0.00     0.029 A 
ATOM     57  N   UNL A   1      38.943  30.945  32.528  1.00  0.00    -0.354 N 
ATOM     58  N   UNL A   1      41.245  29.996  34.060  1.00  0.00    -0.248 NA
ATOM     59  C   UNL A   1      42.544  30.030  35.996  1.00  0.00     0.031 C 
ATOM     60  C   UNL A   1      37.504  32.321  33.515  1.00  0.00     0.029 A 
ATOM     61  C   UNL A   1      38.674  31.605  33.715  1.00  0.00     0.049 A 
ATOM     62  H   UNL A   1      39.723  30.367  32.367  1.00  0.00     0.167 HD
ATOM     63  C   UNL A   1      40.638  30.818  35.003  1.00  0.00     0.074 A 
ATOM     64  C   UNL A   1      41.468  30.781  36.187  1.00  0.00     0.031 C 
ATOM     65  C   UNL A   1      39.491  31.533  34.899  1.00  0.00     0.037 A 
BRANCH  52  66
ATOM     66  C   UNL A   1      36.803  31.137  29.357  1.00  0.00     0.064 A 
ATOM     67  C   UNL A   1      36.715  32.438  28.838  1.00  0.00     0.173 A 
ATOM     68  C   UNL A   1      35.808  30.216  28.998  1.00  0.00     0.173 A 
ATOM     69  F   UNL A   1      37.630  33.361  29.170  1.00  0.00    -0.203 F 
ATOM     70  C   UNL A   1      35.657  32.807  28.014  1.00  0.00     0.198 A 
ATOM     71  C   UNL A   1      34.770  30.580  28.147  1.00  0.00     0.198 A 
ATOM     72  F   UNL A   1      35.847  28.961  29.470  1.00  0.00    -0.203 F 
ATOM     73  F   UNL A   1      35.563  34.069  27.572  1.00  0.00    -0.200 F 
ATOM     74  C   UNL A   1      34.690  31.876  27.662  1.00  0.00     0.200 A 
ATOM     75  F   UNL A   1      33.842  29.676  27.799  1.00  0.00    -0.200 F 
ATOM     76  F   UNL A   1      33.676  32.232  26.862  1.00  0.00    -0.200 F 
ENDBRANCH  52  66
BRANCH  53  77
ATOM     77  C   UNL A   1      44.501  28.133  34.937  1.00  0.00     0.064 A 
ATOM     78  C   UNL A   1      45.763  28.723  34.781  1.00  0.00     0.173 A 
ATOM     79  C   UNL A   1      44.377  27.104  35.882  1.00  0.00     0.173 A 
ATOM     80  F   UNL A   1      45.943  29.688  33.866  1.00  0.00    -0.203 F 
ATOM     81  C   UNL A   1      46.860  28.285  35.521  1.00  0.00     0.198 A 
ATOM     82  C   UNL A   1      45.468  26.687  36.643  1.00  0.00     0.198 A 
ATOM     83  F   UNL A   1      43.195  26.496  36.064  1.00  0.00    -0.203 F 
ATOM     84  F   UNL A   1      48.068  28.827  35.309  1.00  0.00    -0.200 F 
ATOM     85  C   UNL A   1      46.711  27.271  36.456  1.00  0.00     0.200 A 
ATOM     86  F   UNL A   1      45.318  25.710  37.548  1.00  0.00    -0.200 F 
ATOM     87  F   UNL A   1      47.768  26.848  37.162  1.00  0.00    -0.200 F 
ENDBRANCH  53  77
BRANCH  65  88
ATOM     88  C   UNL A   1      39.012  32.281  36.111  1.00  0.00     0.064 A 
ATOM     89  C   UNL A   1      38.224  31.672  37.097  1.00  0.00     0.173 A 
ATOM     90  C   UNL A   1      39.423  33.606  36.325  1.00  0.00     0.173 A 
ATOM     91  F   UNL A   1      37.797  30.411  36.937  1.00  0.00    -0.203 F 
ATOM     92  C   UNL A   1      37.852  32.368  38.246  1.00  0.00     0.198 A 
ATOM     93  C   UNL A   1      39.075  34.288  37.488  1.00  0.00     0.198 A 
ATOM     94  F   UNL A   1      40.188  34.232  35.418  1.00  0.00    -0.203 F 
ATOM     95  F   UNL A   1      37.070  31.777  39.160  1.00  0.00    -0.200 F 
ATOM     96  C   UNL A   1      38.286  33.671  38.445  1.00  0.00     0.200 A 
ATOM     97  F   UNL A   1      39.511  35.541  37.685  1.00  0.00    -0.200 F 
ATOM     98  F   UNL A   1      37.942  34.331  39.560  1.00  0.00    -0.200 F 
ENDBRANCH  65  88
ENDBRANCH  39  40
ENDBRANCH  32  34
ENDBRANCH  31  32
ENDBRANCH  30  31
ENDBRANCH  29  30
ENDBRANCH  28  29
ENDBRANCH  27  28
ENDBRANCH   1  27
TORSDOF 20
ENDMDL
MODEL 3
REMARK VINA RESULT:     -11.1      1.403      8.006
REMARK SMILES C[C@H](Nc1ccc2c(c1)Cc1ccccc1-2)[C@@H](C)C(=O)OCCOCCOCCOC(=O)c1ccc(-c2c3nc(c(-c4c(F)c(F)c(F)c(F)c4F)c4ccc([nH]4)c(-c4c(F)c(F)c(F)c(F)c4F)c4nc(c(-c5c(F)c(F)c(F)c(F)c5F)c5ccc2[nH]5)C=C4)C=C3)cc1
REMARK SMILES IDX 25 1 24 2 23 3 22 4 21 5 19 6 20 7 17 8 18 9 2 10 1 11 3 12
REMARK SMILES IDX 4 14 5 15 9 16 6 17 8 18 7 19 10 20 16 21 11 22 15 23 12 24
REMARK SMILES IDX 14 25 13 26 26 27 27 28 28 29 29 30 30 31 31 32 32 33 33 34
REMARK SMILES IDX 34 35 95 36 35 37 94 38 36 39 37 40 38 41 88 42 39 43 93 44
REMARK SMILES IDX 87 45 89 46 40 47 92 48 86 49 85 50 41 52 73 53 53 54 72 55
REMARK SMILES IDX 54 56 57 57 71 58 90 59 55 60 56 61 70 63 91 64 58 65 42 66
REMARK SMILES IDX 43 67 51 68 44 69 45 70 49 71 52 72 46 73 47 74 50 75 48 76
REMARK SMILES IDX 74 77 75 78 83 79 76 80 77 81 81 82 84 83 78 84 79 85 82 86
REMARK SMILES IDX 80 87 59 88 60 89 68 90 61 91 62 92 66 93 69 94 63 95 64 96
REMARK SMILES IDX 67 97 65 98
REMARK H PARENT 3 13 89 51 57 62
REMARK Flexibility Score: inf
ROOT
ATOM      1  C   UNL A   1      32.113  26.267  26.339  1.00  0.00     0.188 C 
ENDROOT
BRANCH   1   2
ATOM      2  O   UNL A   1      31.205  25.193  26.542  1.00  0.00    -0.376 OA
BRANCH   2   3
ATOM      3  C   UNL A   1      31.779  23.956  26.947  1.00  0.00     0.202 C 
BRANCH   3   4
ATOM      4  C   UNL A   1      31.488  22.728  26.068  1.00  0.00     0.261 C 
BRANCH   4   5
ATOM      5  O   UNL A   1      32.544  21.747  25.948  1.00  0.00    -0.463 OA
BRANCH   5   6
ATOM      6  C   UNL A   1      32.876  21.404  24.675  1.00  0.00     0.310 C 
ATOM      7  O   UNL A   1      32.200  20.663  23.966  1.00  0.00    -0.252 OA
BRANCH   6   8
ATOM      8  C   UNL A   1      34.213  21.954  24.183  1.00  0.00     0.118 C 
ATOM      9  C   UNL A   1      35.115  22.045  25.423  1.00  0.00     0.022 C 
BRANCH   8  10
ATOM     10  C   UNL A   1      34.175  23.280  23.385  1.00  0.00     0.090 C 
ATOM     11  C   UNL A   1      34.338  24.497  24.305  1.00  0.00     0.031 C 
BRANCH  10  12
ATOM     12  N   UNL A   1      32.859  23.427  22.738  1.00  0.00    -0.382 N 
ATOM     13  H   UNL A   1      32.417  22.630  22.365  1.00  0.00     0.160 HD
BRANCH  12  14
ATOM     14  C   UNL A   1      32.224  24.660  22.640  1.00  0.00     0.035 A 
ATOM     15  C   UNL A   1      32.856  25.783  22.075  1.00  0.00     0.026 A 
ATOM     16  C   UNL A   1      30.934  24.803  23.173  1.00  0.00     0.030 A 
ATOM     17  C   UNL A   1      32.215  27.029  21.997  1.00  0.00     0.011 A 
ATOM     18  C   UNL A   1      30.311  26.042  23.114  1.00  0.00    -0.034 A 
ATOM     19  C   UNL A   1      30.939  27.149  22.515  1.00  0.00    -0.014 A 
ATOM     20  C   UNL A   1      28.943  26.430  23.638  1.00  0.00     0.072 C 
ATOM     21  C   UNL A   1      30.033  28.277  22.555  1.00  0.00    -0.015 A 
ATOM     22  C   UNL A   1      28.844  27.880  23.205  1.00  0.00    -0.036 A 
ATOM     23  C   UNL A   1      30.164  29.561  22.055  1.00  0.00     0.009 A 
ATOM     24  C   UNL A   1      27.781  28.752  23.367  1.00  0.00     0.005 A 
ATOM     25  C   UNL A   1      29.092  30.446  22.207  1.00  0.00     0.001 A 
ATOM     26  C   UNL A   1      27.912  30.046  22.857  1.00  0.00     0.000 A 
ENDBRANCH  12  14
ENDBRANCH  10  12
ENDBRANCH   8  10
ENDBRANCH   6   8
ENDBRANCH   5   6
ENDBRANCH   4   5
ENDBRANCH   3   4
ENDBRANCH   2   3
ENDBRANCH   1   2
BRANCH   1  27
ATOM     27  C   UNL A   1      31.631  27.639  26.818  1.00  0.00     0.188 C 
BRANCH  27  28
ATOM     28  O   UNL A   1      31.219  28.476  25.744  1.00  0.00    -0.376 OA
BRANCH  28  29
ATOM     29  C   UNL A   1      31.966  29.660  25.458  1.00  0.00     0.202 C 
BRANCH  29  30
ATOM     30  C   UNL A   1      31.892  30.899  26.371  1.00  0.00     0.261 C 
BRANCH  30  31
ATOM     31  O   UNL A   1      32.779  30.892  27.499  1.00  0.00    -0.460 OA
BRANCH  31  32
ATOM     32  C   UNL A   1      33.618  31.944  27.633  1.00  0.00     0.338 C 
ATOM     33  O   UNL A   1      33.321  33.125  27.588  1.00  0.00    -0.246 OA
BRANCH  32  34
ATOM     34  C   UNL A   1      34.929  31.415  28.096  1.00  0.00     0.060 A 
ATOM     35  C   UNL A   1      35.086  30.025  28.188  1.00  0.00     0.016 A 
ATOM     36  C   UNL A   1      36.024  32.256  28.330  1.00  0.00     0.016 A 
ATOM     37  C   UNL A   1      36.317  29.476  28.558  1.00  0.00     0.010 A 
ATOM     38  C   UNL A   1      37.252  31.708  28.712  1.00  0.00     0.010 A 
ATOM     39  C   UNL A   1      37.394  30.316  28.868  1.00  0.00    -0.014 A 
BRANCH  39  40
ATOM     40  C   UNL A   1      38.559  29.785  29.621  1.00  0.00     0.031 A 
ATOM     41  C   UNL A   1      38.778  30.312  31.013  1.00  0.00     0.074 A 
ATOM     42  C   UNL A   1      39.397  28.862  29.116  1.00  0.00     0.049 A 
ATOM     43  N   UNL A   1      39.768  30.105  31.842  1.00  0.00    -0.248 NA
ATOM     44  C   UNL A   1      37.730  31.203  31.539  1.00  0.00     0.031 C 
ATOM     45  C   UNL A   1      39.268  28.215  27.814  1.00  0.00     0.029 A 
ATOM     46  N   UNL A   1      40.541  28.318  29.653  1.00  0.00    -0.354 N 
ATOM     47  C   UNL A   1      39.469  30.850  32.976  1.00  0.00     0.074 A 
ATOM     48  C   UNL A   1      38.221  31.533  32.722  1.00  0.00     0.031 C 
ATOM     49  C   UNL A   1      40.303  27.370  27.645  1.00  0.00     0.029 A 
ATOM     50  C   UNL A   1      41.188  27.448  28.809  1.00  0.00     0.049 A 
ATOM     51  H   UNL A   1      40.865  28.531  30.557  1.00  0.00     0.167 HD
ATOM     52  C   UNL A   1      40.168  30.954  34.129  1.00  0.00     0.037 A 
ATOM     53  C   UNL A   1      42.372  26.816  28.951  1.00  0.00     0.037 A 
ATOM     54  C   UNL A   1      41.407  30.275  34.389  1.00  0.00     0.049 A 
ATOM     55  C   UNL A   1      43.182  27.019  30.211  1.00  0.00     0.074 A 
ATOM     56  C   UNL A   1      42.192  30.322  35.527  1.00  0.00     0.029 A 
ATOM     57  N   UNL A   1      42.043  29.428  33.496  1.00  0.00    -0.354 N 
ATOM     58  N   UNL A   1      42.896  27.727  31.277  1.00  0.00    -0.248 NA
ATOM     59  C   UNL A   1      44.483  26.336  30.285  1.00  0.00     0.031 C 
ATOM     60  C   UNL A   1      43.331  29.545  35.302  1.00  0.00     0.029 A 
ATOM     61  C   UNL A   1      43.223  28.962  34.050  1.00  0.00     0.049 A 
ATOM     62  H   UNL A   1      41.707  29.193  32.601  1.00  0.00     0.167 HD
ATOM     63  C   UNL A   1      43.955  27.538  32.159  1.00  0.00     0.074 A 
ATOM     64  C   UNL A   1      44.892  26.651  31.505  1.00  0.00     0.031 C 
ATOM     65  C   UNL A   1      44.131  28.050  33.402  1.00  0.00     0.037 A 
BRANCH  52  66
ATOM     66  C   UNL A   1      39.621  31.868  35.184  1.00  0.00     0.064 A 
ATOM     67  C   UNL A   1      38.726  31.415  36.166  1.00  0.00     0.173 A 
ATOM     68  C   UNL A   1      40.012  33.215  35.222  1.00  0.00     0.173 A 
ATOM     69  F   UNL A   1      38.305  30.141  36.159  1.00  0.00    -0.203 F 
ATOM     70  C   UNL A   1      38.224  32.283  37.130  1.00  0.00     0.198 A 
ATOM     71  C   UNL A   1      39.534  34.072  36.207  1.00  0.00     0.198 A 
ATOM     72  F   UNL A   1      40.864  33.697  34.304  1.00  0.00    -0.203 F 
ATOM     73  F   UNL A   1      37.330  31.842  38.026  1.00  0.00    -0.200 F 
ATOM     74  C   UNL A   1      38.634  33.609  37.155  1.00  0.00     0.200 A 
ATOM     75  F   UNL A   1      39.939  35.350  36.237  1.00  0.00    -0.200 F 
ATOM     76  F   UNL A   1      38.155  34.442  38.088  1.00  0.00    -0.200 F 
ENDBRANCH  52  66
BRANCH  53  77
ATOM     77  C   UNL A   1      42.894  25.946  27.861  1.00  0.00     0.064 A 
ATOM     78  C   UNL A   1      43.757  26.452  26.879  1.00  0.00     0.173 A 
ATOM     79  C   UNL A   1      42.500  24.604  27.751  1.00  0.00     0.173 A 
ATOM     80  F   UNL A   1      44.136  27.738  26.919  1.00  0.00    -0.203 F 
ATOM     81  C   UNL A   1      44.188  25.657  25.818  1.00  0.00     0.198 A 
ATOM     82  C   UNL A   1      42.955  23.801  26.707  1.00  0.00     0.198 A 
ATOM     83  F   UNL A   1      41.666  24.072  28.657  1.00  0.00    -0.203 F 
ATOM     84  F   UNL A   1      44.965  26.184  24.862  1.00  0.00    -0.200 F 
ATOM     85  C   UNL A   1      43.792  24.330  25.736  1.00  0.00     0.200 A 
ATOM     86  F   UNL A   1      42.573  22.519  26.634  1.00  0.00    -0.200 F 
ATOM     87  F   UNL A   1      44.202  23.569  24.713  1.00  0.00    -0.200 F 
ENDBRANCH  53  77
BRANCH  65  88
ATOM     88  C   UNL A   1      45.340  27.616  34.181  1.00  0.00     0.064 A 
ATOM     89  C   UNL A   1      46.531  28.356  34.179  1.00  0.00     0.173 A 
ATOM     90  C   UNL A   1      45.271  26.485  35.009  1.00  0.00     0.173 A 
ATOM     91  F   UNL A   1      46.652  29.440  33.399  1.00  0.00    -0.203 F 
ATOM     92  C   UNL A   1      47.614  27.969  34.967  1.00  0.00     0.198 A 
ATOM     93  C   UNL A   1      46.345  26.118  35.817  1.00  0.00     0.198 A 
ATOM     94  F   UNL A   1      44.151  25.748  35.057  1.00  0.00    -0.203 F 
ATOM     95  F   UNL A   1      48.755  28.671  34.923  1.00  0.00    -0.200 F 
ATOM     96  C   UNL A   1      47.517  26.858  35.791  1.00  0.00     0.200 A 
ATOM     97  F   UNL A   1      46.242  25.055  36.626  1.00  0.00    -0.200 F 
ATOM     98  F   UNL A   1      48.554  26.499  36.561  1.00  0.00    -0.200 F 
ENDBRANCH  65  88
ENDBRANCH  39  40
ENDBRANCH  32  34
ENDBRANCH  31  32
ENDBRANCH  30  31
ENDBRANCH  29  30
ENDBRANCH  28  29
ENDBRANCH  27  28
ENDBRANCH   1  27
TORSDOF 20
ENDMDL
