MODEL 1
REMARK VINA RESULT:      -9.4      0.000      0.000
REMARK SMILES C[C@H](C(=O)OCCOCCOCCOC(=O)c1ccc(-c2c3nc(c(-c4c(F)c(F)c(F)c(F)c4F)c4ccc([nH]4)c(-c4c(F)c(F)c(F)c(F)c4F)c4nc(c(-c5c(F)c(F)c(F)c(F)c5F)c5ccc2[nH]5)C=C4)C=C3)cc1)[C@@H](C)[N@@H+](C)C[C@H]1C[C@H](O)C1
REMARK SMILES IDX 8 1 7 2 6 3 5 4 3 5 4 6 2 7 1 8 80 9 81 10 82 11 83 12 84 14
REMARK SMILES IDX 85 15 89 16 86 17 87 18 88 19 9 21 10 22 11 23 12 24 13 25
REMARK SMILES IDX 14 26 15 27 16 28 17 29 18 30 79 31 19 32 78 33 20 34 21 35
REMARK SMILES IDX 22 36 72 37 23 38 77 39 71 40 73 41 24 42 76 43 70 44 69 45
REMARK SMILES IDX 25 47 57 48 37 49 56 50 38 51 41 52 55 53 74 54 39 55 40 56
REMARK SMILES IDX 54 58 75 59 42 60 26 61 27 62 35 63 28 64 29 65 33 66 36 67
REMARK SMILES IDX 30 68 31 69 34 70 32 71 58 72 59 73 67 74 60 75 61 76 65 77
REMARK SMILES IDX 68 78 62 79 63 80 66 81 64 82 43 83 44 84 52 85 45 86 46 87
REMARK SMILES IDX 50 88 53 89 47 90 48 91 51 92 49 93
REMARK H PARENT 82 13 88 20 73 46 41 57
REMARK Flexibility Score: inf
ROOT
ATOM      1  O   UNL A   1      39.659  23.396  27.127  1.00  0.00    -0.376 OA
ENDROOT
BRANCH   1   2
ATOM      2  C   UNL A   1      38.483  23.926  26.529  1.00  0.00     0.202 C 
BRANCH   2   3
ATOM      3  C   UNL A   1      37.672  23.039  25.577  1.00  0.00     0.261 C 
BRANCH   3   4
ATOM      4  O   UNL A   1      36.376  23.571  25.243  1.00  0.00    -0.463 OA
BRANCH   4   5
ATOM      5  C   UNL A   1      35.595  22.807  24.448  1.00  0.00     0.314 C 
ATOM      6  O   UNL A   1      35.987  21.788  23.884  1.00  0.00    -0.252 OA
BRANCH   5   7
ATOM      7  C   UNL A   1      34.138  23.247  24.336  1.00  0.00     0.154 C 
ATOM      8  C   UNL A   1      34.047  24.347  23.259  1.00  0.00     0.026 C 
BRANCH   7   9
ATOM      9  C   UNL A   1      32.953  22.237  24.160  1.00  0.00     0.194 C 
ATOM     10  C   UNL A   1      32.275  22.205  22.775  1.00  0.00     0.076 C 
BRANCH   9  11
ATOM     11  N   UNL A   1      33.223  20.896  24.734  1.00  0.00    -0.334 N 
ATOM     12  C   UNL A   1      33.464  20.812  26.162  1.00  0.00     0.332 C 
ATOM     13  H   UNL A   1      34.124  20.927  24.256  1.00  0.00     0.348 HD
BRANCH  11  14
ATOM     14  C   UNL A   1      32.857  19.649  24.070  1.00  0.00     0.265 C 
BRANCH  14  15
ATOM     15  C   UNL A   1      33.585  18.371  24.488  1.00  0.00     0.049 C 
ATOM     16  C   UNL A   1      34.058  17.291  23.497  1.00  0.00     0.041 C 
ATOM     17  C   UNL A   1      32.804  17.285  25.255  1.00  0.00     0.041 C 
ATOM     18  C   UNL A   1      33.545  16.203  24.449  1.00  0.00     0.115 C 
BRANCH  18  19
ATOM     19  O   UNL A   1      34.558  15.474  25.161  1.00  0.00    -0.393 OA
ATOM     20  H   UNL A   1      34.347  15.468  26.108  1.00  0.00     0.210 HD
ENDBRANCH  18  19
ENDBRANCH  14  15
ENDBRANCH  11  14
ENDBRANCH   9  11
ENDBRANCH   7   9
ENDBRANCH   5   7
ENDBRANCH   4   5
ENDBRANCH   3   4
ENDBRANCH   2   3
ENDBRANCH   1   2
BRANCH   1  21
ATOM     21  C   UNL A   1      40.106  22.102  26.749  1.00  0.00     0.188 C 
BRANCH  21  22
ATOM     22  C   UNL A   1      41.167  21.381  27.606  1.00  0.00     0.188 C 
BRANCH  22  23
ATOM     23  O   UNL A   1      41.077  19.981  27.629  1.00  0.00    -0.376 OA
BRANCH  23  24
ATOM     24  C   UNL A   1      42.235  19.190  27.457  1.00  0.00     0.202 C 
BRANCH  24  25
ATOM     25  C   UNL A   1      42.647  18.496  26.141  1.00  0.00     0.261 C 
BRANCH  25  26
ATOM     26  O   UNL A   1      42.898  19.305  24.986  1.00  0.00    -0.460 OA
BRANCH  26  27
ATOM     27  C   UNL A   1      44.196  19.463  24.626  1.00  0.00     0.338 C 
ATOM     28  O   UNL A   1      44.896  18.668  24.031  1.00  0.00    -0.246 OA
BRANCH  27  29
ATOM     29  C   UNL A   1      44.592  20.863  24.899  1.00  0.00     0.060 A 
ATOM     30  C   UNL A   1      45.221  21.167  26.115  1.00  0.00     0.016 A 
ATOM     31  C   UNL A   1      44.335  21.870  23.969  1.00  0.00     0.016 A 
ATOM     32  C   UNL A   1      45.569  22.486  26.416  1.00  0.00     0.010 A 
ATOM     33  C   UNL A   1      44.663  23.193  24.281  1.00  0.00     0.010 A 
ATOM     34  C   UNL A   1      45.255  23.514  25.518  1.00  0.00    -0.014 A 
BRANCH  34  35
ATOM     35  C   UNL A   1      45.367  24.936  25.934  1.00  0.00     0.031 A 
ATOM     36  C   UNL A   1      46.708  25.611  25.824  1.00  0.00     0.074 A 
ATOM     37  C   UNL A   1      44.309  25.623  26.402  1.00  0.00     0.049 A 
ATOM     38  N   UNL A   1      47.078  26.805  26.214  1.00  0.00    -0.248 NA
ATOM     39  C   UNL A   1      47.778  24.825  25.190  1.00  0.00     0.031 C 
ATOM     40  C   UNL A   1      42.946  25.111  26.507  1.00  0.00     0.029 A 
ATOM     41  N   UNL A   1      44.227  26.905  26.891  1.00  0.00    -0.354 N 
ATOM     42  C   UNL A   1      48.424  26.906  25.888  1.00  0.00     0.074 A 
ATOM     43  C   UNL A   1      48.812  25.648  25.289  1.00  0.00     0.031 C 
ATOM     44  C   UNL A   1      42.164  26.065  27.042  1.00  0.00     0.029 A 
ATOM     45  C   UNL A   1      42.978  27.238  27.357  1.00  0.00     0.049 A 
ATOM     46  H   UNL A   1      44.991  27.527  26.905  1.00  0.00     0.167 HD
ATOM     47  C   UNL A   1      49.261  27.956  26.069  1.00  0.00     0.037 A 
ATOM     48  C   UNL A   1      42.553  28.350  27.991  1.00  0.00     0.037 A 
ATOM     49  C   UNL A   1      48.877  29.208  26.665  1.00  0.00     0.049 A 
ATOM     50  C   UNL A   1      43.529  29.471  28.263  1.00  0.00     0.074 A 
ATOM     51  C   UNL A   1      49.649  30.337  26.874  1.00  0.00     0.029 A 
ATOM     52  N   UNL A   1      47.611  29.493  27.158  1.00  0.00    -0.354 N 
ATOM     53  N   UNL A   1      44.794  29.570  27.936  1.00  0.00    -0.248 NA
ATOM     54  C   UNL A   1      43.012  30.637  28.997  1.00  0.00     0.031 C 
ATOM     55  C   UNL A   1      48.871  31.280  27.553  1.00  0.00     0.029 A 
ATOM     56  C   UNL A   1      47.593  30.767  27.701  1.00  0.00     0.049 A 
ATOM     57  H   UNL A   1      46.842  28.880  27.126  1.00  0.00     0.167 HD
ATOM     58  C   UNL A   1      45.213  30.816  28.388  1.00  0.00     0.074 A 
ATOM     59  C   UNL A   1      44.063  31.444  29.002  1.00  0.00     0.031 C 
ATOM     60  C   UNL A   1      46.438  31.391  28.298  1.00  0.00     0.037 A 
BRANCH  47  61
ATOM     61  C   UNL A   1      50.694  27.780  25.653  1.00  0.00     0.064 A 
ATOM     62  C   UNL A   1      51.702  27.463  26.578  1.00  0.00     0.173 A 
ATOM     63  C   UNL A   1      51.058  27.901  24.304  1.00  0.00     0.173 A 
ATOM     64  F   UNL A   1      51.411  27.350  27.882  1.00  0.00    -0.203 F 
ATOM     65  C   UNL A   1      53.023  27.301  26.169  1.00  0.00     0.198 A 
ATOM     66  C   UNL A   1      52.374  27.705  23.894  1.00  0.00     0.198 A 
ATOM     67  F   UNL A   1      50.133  28.200  23.378  1.00  0.00    -0.203 F 
ATOM     68  F   UNL A   1      53.977  27.049  27.076  1.00  0.00    -0.200 F 
ATOM     69  C   UNL A   1      53.356  27.414  24.827  1.00  0.00     0.200 A 
ATOM     70  F   UNL A   1      52.690  27.801  22.595  1.00  0.00    -0.200 F 
ATOM     71  F   UNL A   1      54.626  27.250  24.434  1.00  0.00    -0.200 F 
ENDBRANCH  47  61
BRANCH  48  72
ATOM     72  C   UNL A   1      41.139  28.463  28.441  1.00  0.00     0.064 A 
ATOM     73  C   UNL A   1      40.754  28.055  29.727  1.00  0.00     0.173 A 
ATOM     74  C   UNL A   1      40.135  28.937  27.583  1.00  0.00     0.173 A 
ATOM     75  F   UNL A   1      41.670  27.562  30.575  1.00  0.00    -0.203 F 
ATOM     76  C   UNL A   1      39.420  28.094  30.128  1.00  0.00     0.198 A 
ATOM     77  C   UNL A   1      38.806  29.007  27.997  1.00  0.00     0.198 A 
ATOM     78  F   UNL A   1      40.444  29.330  26.339  1.00  0.00    -0.203 F 
ATOM     79  F   UNL A   1      39.073  27.640  31.340  1.00  0.00    -0.200 F 
ATOM     80  C   UNL A   1      38.448  28.577  29.264  1.00  0.00     0.200 A 
ATOM     81  F   UNL A   1      37.871  29.481  27.162  1.00  0.00    -0.200 F 
ATOM     82  F   UNL A   1      37.165  28.611  29.649  1.00  0.00    -0.200 F 
ENDBRANCH  48  72
BRANCH  60  83
ATOM     83  C   UNL A   1      46.595  32.790  28.828  1.00  0.00     0.064 A 
ATOM     84  C   UNL A   1      46.357  33.919  28.028  1.00  0.00     0.173 A 
ATOM     85  C   UNL A   1      46.944  33.002  30.171  1.00  0.00     0.173 A 
ATOM     86  F   UNL A   1      46.033  33.775  26.735  1.00  0.00    -0.203 F 
ATOM     87  C   UNL A   1      46.490  35.205  28.548  1.00  0.00     0.198 A 
ATOM     88  C   UNL A   1      47.042  34.288  30.695  1.00  0.00     0.198 A 
ATOM     89  F   UNL A   1      47.174  31.959  30.983  1.00  0.00    -0.203 F 
ATOM     90  F   UNL A   1      46.309  36.268  27.752  1.00  0.00    -0.200 F 
ATOM     91  C   UNL A   1      46.824  35.389  29.881  1.00  0.00     0.200 A 
ATOM     92  F   UNL A   1      47.346  34.462  31.989  1.00  0.00    -0.200 F 
ATOM     93  F   UNL A   1      46.941  36.626  30.380  1.00  0.00    -0.200 F 
ENDBRANCH  60  83
ENDBRANCH  34  35
ENDBRANCH  27  29
ENDBRANCH  26  27
ENDBRANCH  25  26
ENDBRANCH  24  25
ENDBRANCH  23  24
ENDBRANCH  22  23
ENDBRANCH  21  22
ENDBRANCH   1  21
TORSDOF 22
ENDMDL
MODEL 2
REMARK VINA RESULT:      -9.4      6.369     10.742
REMARK SMILES C[C@H](C(=O)OCCOCCOCCOC(=O)c1ccc(-c2c3nc(c(-c4c(F)c(F)c(F)c(F)c4F)c4ccc([nH]4)c(-c4c(F)c(F)c(F)c(F)c4F)c4nc(c(-c5c(F)c(F)c(F)c(F)c5F)c5ccc2[nH]5)C=C4)C=C3)cc1)[C@@H](C)[N@@H+](C)C[C@H]1C[C@H](O)C1
REMARK SMILES IDX 8 1 7 2 6 3 5 4 3 5 4 6 2 7 1 8 80 9 81 10 82 11 83 12 84 14
REMARK SMILES IDX 85 15 89 16 86 17 87 18 88 19 9 21 10 22 11 23 12 24 13 25
REMARK SMILES IDX 14 26 15 27 16 28 17 29 18 30 79 31 19 32 78 33 20 34 21 35
REMARK SMILES IDX 22 36 72 37 23 38 77 39 71 40 73 41 24 42 76 43 70 44 69 45
REMARK SMILES IDX 25 47 57 48 37 49 56 50 38 51 41 52 55 53 74 54 39 55 40 56
REMARK SMILES IDX 54 58 75 59 42 60 26 61 27 62 35 63 28 64 29 65 33 66 36 67
REMARK SMILES IDX 30 68 31 69 34 70 32 71 58 72 59 73 67 74 60 75 61 76 65 77
REMARK SMILES IDX 68 78 62 79 63 80 66 81 64 82 43 83 44 84 52 85 45 86 46 87
REMARK SMILES IDX 50 88 53 89 47 90 48 91 51 92 49 93
REMARK H PARENT 82 13 88 20 73 46 41 57
REMARK Flexibility Score: inf
ROOT
ATOM      1  O   UNL A   1      31.787  27.234  26.557  1.00  0.00    -0.376 OA
ENDROOT
BRANCH   1   2
ATOM      2  C   UNL A   1      31.341  27.400  25.217  1.00  0.00     0.202 C 
BRANCH   2   3
ATOM      3  C   UNL A   1      31.744  26.357  24.167  1.00  0.00     0.261 C 
BRANCH   3   4
ATOM      4  O   UNL A   1      33.166  26.162  24.053  1.00  0.00    -0.463 OA
BRANCH   4   5
ATOM      5  C   UNL A   1      33.582  25.295  23.104  1.00  0.00     0.314 C 
ATOM      6  O   UNL A   1      33.984  25.639  21.995  1.00  0.00    -0.252 OA
BRANCH   5   7
ATOM      7  C   UNL A   1      33.594  23.824  23.514  1.00  0.00     0.154 C 
ATOM      8  C   UNL A   1      33.033  22.991  22.343  1.00  0.00     0.026 C 
BRANCH   7   9
ATOM      9  C   UNL A   1      34.859  23.115  24.108  1.00  0.00     0.194 C 
ATOM     10  C   UNL A   1      36.015  24.032  24.558  1.00  0.00     0.076 C 
BRANCH   9  11
ATOM     11  N   UNL A   1      34.538  22.029  25.065  1.00  0.00    -0.334 N 
ATOM     12  C   UNL A   1      33.433  22.244  25.981  1.00  0.00     0.332 C 
ATOM     13  H   UNL A   1      35.407  22.263  25.547  1.00  0.00     0.348 HD
BRANCH  11  14
ATOM     14  C   UNL A   1      34.957  20.644  24.879  1.00  0.00     0.265 C 
BRANCH  14  15
ATOM     15  C   UNL A   1      33.889  19.553  24.959  1.00  0.00     0.049 C 
ATOM     16  C   UNL A   1      34.110  18.101  24.492  1.00  0.00     0.041 C 
ATOM     17  C   UNL A   1      32.664  19.636  24.025  1.00  0.00     0.041 C 
ATOM     18  C   UNL A   1      32.725  18.111  23.831  1.00  0.00     0.115 C 
BRANCH  18  19
ATOM     19  O   UNL A   1      31.710  17.351  24.508  1.00  0.00    -0.393 OA
ATOM     20  H   UNL A   1      30.839  17.587  24.152  1.00  0.00     0.210 HD
ENDBRANCH  18  19
ENDBRANCH  14  15
ENDBRANCH  11  14
ENDBRANCH   9  11
ENDBRANCH   7   9
ENDBRANCH   5   7
ENDBRANCH   4   5
ENDBRANCH   3   4
ENDBRANCH   2   3
ENDBRANCH   1   2
BRANCH   1  21
ATOM     21  C   UNL A   1      32.187  28.376  27.301  1.00  0.00     0.188 C 
BRANCH  21  22
ATOM     22  C   UNL A   1      33.522  29.075  26.969  1.00  0.00     0.188 C 
BRANCH  22  23
ATOM     23  O   UNL A   1      33.470  30.475  26.895  1.00  0.00    -0.376 OA
BRANCH  23  24
ATOM     24  C   UNL A   1      32.226  31.143  26.898  1.00  0.00     0.202 C 
BRANCH  24  25
ATOM     25  C   UNL A   1      32.014  32.621  27.289  1.00  0.00     0.261 C 
BRANCH  25  26
ATOM     26  O   UNL A   1      33.149  33.494  27.319  1.00  0.00    -0.460 OA
BRANCH  26  27
ATOM     27  C   UNL A   1      33.216  34.367  28.356  1.00  0.00     0.338 C 
ATOM     28  O   UNL A   1      32.385  35.192  28.678  1.00  0.00    -0.246 OA
BRANCH  27  29
ATOM     29  C   UNL A   1      34.398  34.025  29.180  1.00  0.00     0.060 A 
ATOM     30  C   UNL A   1      35.677  34.337  28.697  1.00  0.00     0.016 A 
ATOM     31  C   UNL A   1      34.246  33.392  30.413  1.00  0.00     0.016 A 
ATOM     32  C   UNL A   1      36.811  33.991  29.435  1.00  0.00     0.010 A 
ATOM     33  C   UNL A   1      35.383  33.025  31.140  1.00  0.00     0.010 A 
ATOM     34  C   UNL A   1      36.673  33.295  30.643  1.00  0.00    -0.014 A 
BRANCH  34  35
ATOM     35  C   UNL A   1      37.858  32.683  31.297  1.00  0.00     0.031 A 
ATOM     36  C   UNL A   1      38.537  31.527  30.613  1.00  0.00     0.074 A 
ATOM     37  C   UNL A   1      38.330  33.135  32.473  1.00  0.00     0.049 A 
ATOM     38  N   UNL A   1      39.520  30.769  31.030  1.00  0.00    -0.248 NA
ATOM     39  C   UNL A   1      38.033  31.178  29.276  1.00  0.00     0.031 C 
ATOM     40  C   UNL A   1      37.805  34.279  33.214  1.00  0.00     0.029 A 
ATOM     41  N   UNL A   1      39.358  32.668  33.258  1.00  0.00    -0.354 N 
ATOM     42  C   UNL A   1      39.739  29.846  30.016  1.00  0.00     0.074 A 
ATOM     43  C   UNL A   1      38.774  30.123  28.974  1.00  0.00     0.031 C 
ATOM     44  C   UNL A   1      38.504  34.416  34.354  1.00  0.00     0.029 A 
ATOM     45  C   UNL A   1      39.497  33.346  34.445  1.00  0.00     0.049 A 
ATOM     46  H   UNL A   1      39.939  31.919  32.994  1.00  0.00     0.167 HD
ATOM     47  C   UNL A   1      40.664  28.857  29.957  1.00  0.00     0.037 A 
ATOM     48  C   UNL A   1      40.312  33.109  35.493  1.00  0.00     0.037 A 
ATOM     49  C   UNL A   1      41.624  28.580  30.993  1.00  0.00     0.049 A 
ATOM     50  C   UNL A   1      41.272  31.944  35.441  1.00  0.00     0.074 A 
ATOM     51  C   UNL A   1      42.612  27.612  31.017  1.00  0.00     0.029 A 
ATOM     52  N   UNL A   1      41.709  29.267  32.195  1.00  0.00    -0.354 N 
ATOM     53  N   UNL A   1      41.488  31.087  34.473  1.00  0.00    -0.248 NA
ATOM     54  C   UNL A   1      42.102  31.714  36.634  1.00  0.00     0.031 C 
ATOM     55  C   UNL A   1      43.251  27.669  32.259  1.00  0.00     0.029 A 
ATOM     56  C   UNL A   1      42.710  28.720  32.981  1.00  0.00     0.049 A 
ATOM     57  H   UNL A   1      41.141  30.029  32.452  1.00  0.00     0.167 HD
ATOM     58  C   UNL A   1      42.499  30.245  34.923  1.00  0.00     0.074 A 
ATOM     59  C   UNL A   1      42.862  30.701  36.247  1.00  0.00     0.031 C 
ATOM     60  C   UNL A   1      43.076  29.191  34.294  1.00  0.00     0.037 A 
BRANCH  47  61
ATOM     61  C   UNL A   1      40.655  27.970  28.745  1.00  0.00     0.064 A 
ATOM     62  C   UNL A   1      41.447  28.244  27.619  1.00  0.00     0.173 A 
ATOM     63  C   UNL A   1      39.865  26.811  28.724  1.00  0.00     0.173 A 
ATOM     64  F   UNL A   1      42.209  29.347  27.581  1.00  0.00    -0.203 F 
ATOM     65  C   UNL A   1      41.426  27.405  26.508  1.00  0.00     0.198 A 
ATOM     66  C   UNL A   1      39.872  25.956  27.625  1.00  0.00     0.198 A 
ATOM     67  F   UNL A   1      39.092  26.500  29.776  1.00  0.00    -0.203 F 
ATOM     68  F   UNL A   1      42.150  27.714  25.423  1.00  0.00    -0.200 F 
ATOM     69  C   UNL A   1      40.645  26.259  26.515  1.00  0.00     0.200 A 
ATOM     70  F   UNL A   1      39.129  24.841  27.641  1.00  0.00    -0.200 F 
ATOM     71  F   UNL A   1      40.632  25.448  25.448  1.00  0.00    -0.200 F 
ENDBRANCH  47  61
BRANCH  48  72
ATOM     72  C   UNL A   1      40.250  33.975  36.702  1.00  0.00     0.064 A 
ATOM     73  C   UNL A   1      41.102  35.080  36.845  1.00  0.00     0.173 A 
ATOM     74  C   UNL A   1      39.371  33.691  37.759  1.00  0.00     0.173 A 
ATOM     75  F   UNL A   1      41.984  35.374  35.879  1.00  0.00    -0.203 F 
ATOM     76  C   UNL A   1      41.095  35.851  38.006  1.00  0.00     0.198 A 
ATOM     77  C   UNL A   1      39.342  34.484  38.905  1.00  0.00     0.198 A 
ATOM     78  F   UNL A   1      38.542  32.641  37.680  1.00  0.00    -0.203 F 
ATOM     79  F   UNL A   1      41.963  36.864  38.140  1.00  0.00    -0.200 F 
ATOM     80  C   UNL A   1      40.210  35.556  39.032  1.00  0.00     0.200 A 
ATOM     81  F   UNL A   1      38.481  34.200  39.892  1.00  0.00    -0.200 F 
ATOM     82  F   UNL A   1      40.206  36.297  40.149  1.00  0.00    -0.200 F 
ENDBRANCH  48  72
BRANCH  60  83
ATOM     83  C   UNL A   1      44.201  28.485  35.001  1.00  0.00     0.064 A 
ATOM     84  C   UNL A   1      43.974  27.389  35.848  1.00  0.00     0.173 A 
ATOM     85  C   UNL A   1      45.530  28.883  34.789  1.00  0.00     0.173 A 
ATOM     86  F   UNL A   1      42.723  26.974  36.095  1.00  0.00    -0.203 F 
ATOM     87  C   UNL A   1      45.034  26.739  36.477  1.00  0.00     0.198 A 
ATOM     88  C   UNL A   1      46.589  28.209  35.392  1.00  0.00     0.198 A 
ATOM     89  F   UNL A   1      45.805  29.919  33.982  1.00  0.00    -0.203 F 
ATOM     90  F   UNL A   1      44.790  25.728  37.322  1.00  0.00    -0.200 F 
ATOM     91  C   UNL A   1      46.340  27.143  36.242  1.00  0.00     0.200 A 
ATOM     92  F   UNL A   1      47.850  28.590  35.148  1.00  0.00    -0.200 F 
ATOM     93  F   UNL A   1      47.357  26.509  36.840  1.00  0.00    -0.200 F 
ENDBRANCH  60  83
ENDBRANCH  34  35
ENDBRANCH  27  29
ENDBRANCH  26  27
ENDBRANCH  25  26
ENDBRANCH  24  25
ENDBRANCH  23  24
ENDBRANCH  22  23
ENDBRANCH  21  22
ENDBRANCH   1  21
TORSDOF 22
ENDMDL
MODEL 3
REMARK VINA RESULT:      -9.3      4.719      9.920
REMARK SMILES C[C@H](C(=O)OCCOCCOCCOC(=O)c1ccc(-c2c3nc(c(-c4c(F)c(F)c(F)c(F)c4F)c4ccc([nH]4)c(-c4c(F)c(F)c(F)c(F)c4F)c4nc(c(-c5c(F)c(F)c(F)c(F)c5F)c5ccc2[nH]5)C=C4)C=C3)cc1)[C@@H](C)[N@@H+](C)C[C@H]1C[C@H](O)C1
REMARK SMILES IDX 8 1 7 2 6 3 5 4 3 5 4 6 2 7 1 8 80 9 81 10 82 11 83 12 84 14
REMARK SMILES IDX 85 15 89 16 86 17 87 18 88 19 9 21 10 22 11 23 12 24 13 25
REMARK SMILES IDX 14 26 15 27 16 28 17 29 18 30 79 31 19 32 78 33 20 34 21 35
REMARK SMILES IDX 22 36 72 37 23 38 77 39 71 40 73 41 24 42 76 43 70 44 69 45
REMARK SMILES IDX 25 47 57 48 37 49 56 50 38 51 41 52 55 53 74 54 39 55 40 56
REMARK SMILES IDX 54 58 75 59 42 60 26 61 27 62 35 63 28 64 29 65 33 66 36 67
REMARK SMILES IDX 30 68 31 69 34 70 32 71 58 72 59 73 67 74 60 75 61 76 65 77
REMARK SMILES IDX 68 78 62 79 63 80 66 81 64 82 43 83 44 84 52 85 45 86 46 87
REMARK SMILES IDX 50 88 53 89 47 90 48 91 51 92 49 93
REMARK H PARENT 82 13 88 20 73 46 41 57
REMARK Flexibility Score: inf
ROOT
ATOM      1  O   UNL A   1      33.155  31.264  27.877  1.00  0.00    -0.376 OA
ENDROOT
BRANCH   1   2
ATOM      2  C   UNL A   1      32.151  31.206  26.872  1.00  0.00     0.202 C 
BRANCH   2   3
ATOM      3  C   UNL A   1      32.289  30.175  25.744  1.00  0.00     0.261 C 
BRANCH   3   4
ATOM      4  O   UNL A   1      32.909  28.941  26.153  1.00  0.00    -0.463 OA
BRANCH   4   5
ATOM      5  C   UNL A   1      32.078  27.917  26.448  1.00  0.00     0.314 C 
ATOM      6  O   UNL A   1      31.355  27.890  27.441  1.00  0.00    -0.252 OA
BRANCH   5   7
ATOM      7  C   UNL A   1      32.031  26.790  25.418  1.00  0.00     0.154 C 
ATOM      8  C   UNL A   1      32.517  25.494  26.099  1.00  0.00     0.026 C 
BRANCH   7   9
ATOM      9  C   UNL A   1      30.765  26.485  24.546  1.00  0.00     0.194 C 
ATOM     10  C   UNL A   1      29.525  25.953  25.294  1.00  0.00     0.076 C 
BRANCH   9  11
ATOM     11  N   UNL A   1      30.464  27.538  23.546  1.00  0.00    -0.334 N 
ATOM     12  C   UNL A   1      31.555  28.002  22.710  1.00  0.00     0.332 C 
ATOM     13  H   UNL A   1      30.359  28.184  24.329  1.00  0.00     0.348 HD
BRANCH  11  14
ATOM     14  C   UNL A   1      29.118  27.825  23.063  1.00  0.00     0.265 C 
BRANCH  14  15
ATOM     15  C   UNL A   1      28.743  29.285  22.803  1.00  0.00     0.049 C 
ATOM     16  C   UNL A   1      29.281  30.468  23.630  1.00  0.00     0.041 C 
ATOM     17  C   UNL A   1      27.308  29.755  23.117  1.00  0.00     0.041 C 
ATOM     18  C   UNL A   1      27.875  31.081  23.654  1.00  0.00     0.115 C 
BRANCH  18  19
ATOM     19  O   UNL A   1      27.685  32.231  22.812  1.00  0.00    -0.393 OA
ATOM     20  H   UNL A   1      27.959  33.029  23.289  1.00  0.00     0.210 HD
ENDBRANCH  18  19
ENDBRANCH  14  15
ENDBRANCH  11  14
ENDBRANCH   9  11
ENDBRANCH   7   9
ENDBRANCH   5   7
ENDBRANCH   4   5
ENDBRANCH   3   4
ENDBRANCH   2   3
ENDBRANCH   1   2
BRANCH   1  21
ATOM     21  C   UNL A   1      33.953  32.434  27.993  1.00  0.00     0.188 C 
BRANCH  21  22
ATOM     22  C   UNL A   1      33.273  33.817  28.065  1.00  0.00     0.188 C 
BRANCH  22  23
ATOM     23  O   UNL A   1      32.934  34.259  29.352  1.00  0.00    -0.376 OA
BRANCH  23  24
ATOM     24  C   UNL A   1      33.876  34.962  30.135  1.00  0.00     0.202 C 
BRANCH  24  25
ATOM     25  C   UNL A   1      35.340  34.530  30.361  1.00  0.00     0.261 C 
BRANCH  25  26
ATOM     26  O   UNL A   1      35.697  33.937  31.616  1.00  0.00    -0.460 OA
BRANCH  26  27
ATOM     27  C   UNL A   1      35.379  32.629  31.781  1.00  0.00     0.338 C 
ATOM     28  O   UNL A   1      34.314  32.170  32.142  1.00  0.00    -0.246 OA
BRANCH  27  29
ATOM     29  C   UNL A   1      36.492  31.806  31.252  1.00  0.00     0.060 A 
ATOM     30  C   UNL A   1      37.475  31.343  32.139  1.00  0.00     0.016 A 
ATOM     31  C   UNL A   1      36.570  31.504  29.894  1.00  0.00     0.016 A 
ATOM     32  C   UNL A   1      38.557  30.599  31.662  1.00  0.00     0.010 A 
ATOM     33  C   UNL A   1      37.666  30.779  29.414  1.00  0.00     0.010 A 
ATOM     34  C   UNL A   1      38.681  30.347  30.290  1.00  0.00    -0.014 A 
BRANCH  34  35
ATOM     35  C   UNL A   1      39.948  29.802  29.738  1.00  0.00     0.031 A 
ATOM     36  C   UNL A   1      41.132  30.724  29.616  1.00  0.00     0.074 A 
ATOM     37  C   UNL A   1      40.058  28.519  29.349  1.00  0.00     0.049 A 
ATOM     38  N   UNL A   1      42.306  30.512  29.078  1.00  0.00    -0.248 NA
ATOM     39  C   UNL A   1      40.962  32.074  30.177  1.00  0.00     0.031 C 
ATOM     40  C   UNL A   1      39.012  27.507  29.464  1.00  0.00     0.029 A 
ATOM     41  N   UNL A   1      41.109  27.855  28.762  1.00  0.00    -0.354 N 
ATOM     42  C   UNL A   1      43.006  31.702  29.220  1.00  0.00     0.074 A 
ATOM     43  C   UNL A   1      42.121  32.641  29.875  1.00  0.00     0.031 C 
ATOM     44  C   UNL A   1      39.467  26.351  28.948  1.00  0.00     0.029 A 
ATOM     45  C   UNL A   1      40.820  26.553  28.429  1.00  0.00     0.049 A 
ATOM     46  H   UNL A   1      41.985  28.271  28.595  1.00  0.00     0.167 HD
ATOM     47  C   UNL A   1      44.276  31.988  28.842  1.00  0.00     0.037 A 
ATOM     48  C   UNL A   1      41.554  25.642  27.758  1.00  0.00     0.037 A 
ATOM     49  C   UNL A   1      45.158  31.056  28.190  1.00  0.00     0.049 A 
ATOM     50  C   UNL A   1      42.933  26.014  27.266  1.00  0.00     0.074 A 
ATOM     51  C   UNL A   1      46.467  31.247  27.785  1.00  0.00     0.029 A 
ATOM     52  N   UNL A   1      44.816  29.758  27.838  1.00  0.00    -0.354 N 
ATOM     53  N   UNL A   1      43.597  27.134  27.419  1.00  0.00    -0.248 NA
ATOM     54  C   UNL A   1      43.664  24.990  26.502  1.00  0.00     0.031 C 
ATOM     55  C   UNL A   1      46.895  30.088  27.129  1.00  0.00     0.029 A 
ATOM     56  C   UNL A   1      45.878  29.150  27.190  1.00  0.00     0.049 A 
ATOM     57  H   UNL A   1      43.947  29.333  28.021  1.00  0.00     0.167 HD
ATOM     58  C   UNL A   1      44.830  26.937  26.809  1.00  0.00     0.074 A 
ATOM     59  C   UNL A   1      44.828  25.586  26.292  1.00  0.00     0.031 C 
ATOM     60  C   UNL A   1      45.873  27.797  26.691  1.00  0.00     0.037 A 
BRANCH  47  61
ATOM     61  C   UNL A   1      44.776  33.383  29.086  1.00  0.00     0.064 A 
ATOM     62  C   UNL A   1      44.558  34.421  28.168  1.00  0.00     0.173 A 
ATOM     63  C   UNL A   1      45.456  33.691  30.274  1.00  0.00     0.173 A 
ATOM     64  F   UNL A   1      43.926  34.178  27.010  1.00  0.00    -0.203 F 
ATOM     65  C   UNL A   1      45.027  35.708  28.417  1.00  0.00     0.198 A 
ATOM     66  C   UNL A   1      45.894  34.987  30.536  1.00  0.00     0.198 A 
ATOM     67  F   UNL A   1      45.688  32.736  31.189  1.00  0.00    -0.203 F 
ATOM     68  F   UNL A   1      44.853  36.673  27.503  1.00  0.00    -0.200 F 
ATOM     69  C   UNL A   1      45.688  35.991  29.604  1.00  0.00     0.200 A 
ATOM     70  F   UNL A   1      46.518  35.260  31.690  1.00  0.00    -0.200 F 
ATOM     71  F   UNL A   1      46.131  37.232  29.847  1.00  0.00    -0.200 F 
ENDBRANCH  47  61
BRANCH  48  72
ATOM     72  C   UNL A   1      41.001  24.288  27.483  1.00  0.00     0.064 A 
ATOM     73  C   UNL A   1      41.531  23.149  28.107  1.00  0.00     0.173 A 
ATOM     74  C   UNL A   1      39.962  24.097  26.558  1.00  0.00     0.173 A 
ATOM     75  F   UNL A   1      42.548  23.274  28.973  1.00  0.00    -0.203 F 
ATOM     76  C   UNL A   1      41.063  21.873  27.799  1.00  0.00     0.198 A 
ATOM     77  C   UNL A   1      39.472  22.824  26.277  1.00  0.00     0.198 A 
ATOM     78  F   UNL A   1      39.425  25.149  25.924  1.00  0.00    -0.203 F 
ATOM     79  F   UNL A   1      41.631  20.799  28.365  1.00  0.00    -0.200 F 
ATOM     80  C   UNL A   1      40.029  21.712  26.889  1.00  0.00     0.200 A 
ATOM     81  F   UNL A   1      38.468  22.673  25.402  1.00  0.00    -0.200 F 
ATOM     82  F   UNL A   1      39.581  20.485  26.592  1.00  0.00    -0.200 F 
ENDBRANCH  48  72
BRANCH  60  83
ATOM     83  C   UNL A   1      47.123  27.294  26.023  1.00  0.00     0.064 A 
ATOM     84  C   UNL A   1      47.347  27.454  24.647  1.00  0.00     0.173 A 
ATOM     85  C   UNL A   1      48.133  26.682  26.783  1.00  0.00     0.173 A 
ATOM     86  F   UNL A   1      46.410  28.021  23.872  1.00  0.00    -0.203 F 
ATOM     87  C   UNL A   1      48.522  26.997  24.054  1.00  0.00     0.198 A 
ATOM     88  C   UNL A   1      49.321  26.258  26.192  1.00  0.00     0.198 A 
ATOM     89  F   UNL A   1      47.976  26.511  28.104  1.00  0.00    -0.203 F 
ATOM     90  F   UNL A   1      48.691  27.115  22.730  1.00  0.00    -0.200 F 
ATOM     91  C   UNL A   1      49.511  26.407  24.827  1.00  0.00     0.200 A 
ATOM     92  F   UNL A   1      50.282  25.705  26.945  1.00  0.00    -0.200 F 
ATOM     93  F   UNL A   1      50.644  25.978  24.256  1.00  0.00    -0.200 F 
ENDBRANCH  60  83
ENDBRANCH  34  35
ENDBRANCH  27  29
ENDBRANCH  26  27
ENDBRANCH  25  26
ENDBRANCH  24  25
ENDBRANCH  23  24
ENDBRANCH  22  23
ENDBRANCH  21  22
ENDBRANCH   1  21
TORSDOF 22
ENDMDL
