MODEL 1
REMARK VINA RESULT:     -10.7      0.000      0.000
REMARK SMILES O=C(C[C@@H]1COCCN1C(=O)c1csc(Cc2ccccc2)n1)OCCOCCOCCOC(=O)c1ccc(-c2c3nc(c(-c4c(F)c(F)c(F)c(F)c4F)c4ccc([nH]4)c(-c4c(F)c(F)c(F)c(F)c4F)c4nc(c(-c5c(F)c(F)c(F)c(F)c5F)c5ccc2[nH]5)C=C4)C=C3)cc1
REMARK SMILES IDX 27 1 26 2 25 3 24 4 2 5 1 6 3 7 4 8 5 9 9 10 6 11 8 12 7 13
REMARK SMILES IDX 10 14 11 15 12 16 13 17 23 18 14 19 15 20 16 21 17 22 18 23
REMARK SMILES IDX 22 24 19 25 21 26 20 27 28 28 29 29 30 30 31 31 32 32 33 33
REMARK SMILES IDX 34 34 35 35 36 36 37 37 98 38 38 39 97 40 39 41 40 42 41 43
REMARK SMILES IDX 91 44 42 45 96 46 90 47 92 48 43 49 95 50 89 51 88 52 44 54
REMARK SMILES IDX 76 55 56 56 75 57 57 58 60 59 74 60 93 61 58 62 59 63 73 65
REMARK SMILES IDX 94 66 61 67 45 68 46 69 54 70 47 71 48 72 52 73 55 74 49 75
REMARK SMILES IDX 50 76 53 77 51 78 77 79 78 80 86 81 79 82 80 83 84 84 87 85
REMARK SMILES IDX 81 86 82 87 85 88 83 89 62 90 63 91 71 92 64 93 65 94 69 95
REMARK SMILES IDX 72 96 66 97 67 98 70 99 68 100
REMARK H PARENT 92 53 60 64
REMARK Flexibility Score: inf
ROOT
ATOM      1  O   UNL A   1      29.087  32.125  21.995  1.00  0.00    -0.376 OA
ENDROOT
BRANCH   1   2
ATOM      2  C   UNL A   1      28.013  31.402  21.439  1.00  0.00     0.202 C 
BRANCH   2   3
ATOM      3  C   UNL A   1      27.752  29.999  22.016  1.00  0.00     0.261 C 
BRANCH   3   4
ATOM      4  O   UNL A   1      28.727  29.445  22.936  1.00  0.00    -0.463 OA
BRANCH   4   5
ATOM      5  C   UNL A   1      29.862  28.776  22.614  1.00  0.00     0.308 C 
ATOM      6  O   UNL A   1      30.510  29.102  21.627  1.00  0.00    -0.252 OA
BRANCH   5   7
ATOM      7  C   UNL A   1      30.220  27.579  23.455  1.00  0.00     0.150 C 
BRANCH   7   8
ATOM      8  C   UNL A   1      31.002  27.872  24.719  1.00  0.00     0.122 C 
ATOM      9  C   UNL A   1      32.379  28.528  24.465  1.00  0.00     0.185 C 
ATOM     10  N   UNL A   1      31.077  26.928  25.862  1.00  0.00    -0.329 N 
ATOM     11  O   UNL A   1      32.808  29.234  25.640  1.00  0.00    -0.377 OA
ATOM     12  C   UNL A   1      31.638  27.607  27.051  1.00  0.00     0.148 C 
ATOM     13  C   UNL A   1      32.952  28.328  26.740  1.00  0.00     0.181 C 
BRANCH  10  14
ATOM     14  C   UNL A   1      30.518  25.664  26.107  1.00  0.00     0.273 C 
ATOM     15  O   UNL A   1      29.292  25.579  26.248  1.00  0.00    -0.267 OA
BRANCH  14  16
ATOM     16  C   UNL A   1      31.276  24.400  26.156  1.00  0.00     0.139 A 
ATOM     17  C   UNL A   1      30.783  23.290  25.487  1.00  0.00     0.101 A 
ATOM     18  N   UNL A   1      32.432  24.122  26.896  1.00  0.00    -0.236 NA
ATOM     19  S   UNL A   1      31.761  21.927  25.738  1.00  0.00    -0.126 S 
ATOM     20  C   UNL A   1      32.801  22.856  26.746  1.00  0.00     0.098 A 
BRANCH  20  21
ATOM     21  C   UNL A   1      34.102  22.269  27.261  1.00  0.00     0.103 C 
BRANCH  21  22
ATOM     22  C   UNL A   1      35.278  22.190  26.297  1.00  0.00    -0.041 A 
ATOM     23  C   UNL A   1      35.492  21.036  25.531  1.00  0.00     0.004 A 
ATOM     24  C   UNL A   1      36.214  23.233  26.191  1.00  0.00     0.004 A 
ATOM     25  C   UNL A   1      36.599  20.937  24.680  1.00  0.00     0.000 A 
ATOM     26  C   UNL A   1      37.306  23.145  25.324  1.00  0.00     0.000 A 
ATOM     27  C   UNL A   1      37.501  21.994  24.571  1.00  0.00     0.000 A 
ENDBRANCH  21  22
ENDBRANCH  20  21
ENDBRANCH  14  16
ENDBRANCH  10  14
ENDBRANCH   7   8
ENDBRANCH   5   7
ENDBRANCH   4   5
ENDBRANCH   3   4
ENDBRANCH   2   3
ENDBRANCH   1   2
BRANCH   1  28
ATOM     28  C   UNL A   1      28.823  33.154  22.924  1.00  0.00     0.188 C 
BRANCH  28  29
ATOM     29  C   UNL A   1      29.756  33.090  24.148  1.00  0.00     0.188 C 
BRANCH  29  30
ATOM     30  O   UNL A   1      30.168  31.812  24.619  1.00  0.00    -0.376 OA
BRANCH  30  31
ATOM     31  C   UNL A   1      30.599  31.687  25.975  1.00  0.00     0.202 C 
BRANCH  31  32
ATOM     32  C   UNL A   1      31.605  32.713  26.521  1.00  0.00     0.261 C 
BRANCH  32  33
ATOM     33  O   UNL A   1      32.664  32.149  27.328  1.00  0.00    -0.460 OA
BRANCH  33  34
ATOM     34  C   UNL A   1      33.596  33.037  27.747  1.00  0.00     0.338 C 
ATOM     35  O   UNL A   1      33.419  34.207  28.042  1.00  0.00    -0.246 OA
BRANCH  34  36
ATOM     36  C   UNL A   1      34.912  32.399  27.958  1.00  0.00     0.060 A 
ATOM     37  C   UNL A   1      34.926  31.017  28.185  1.00  0.00     0.016 A 
ATOM     38  C   UNL A   1      36.066  33.159  28.168  1.00  0.00     0.016 A 
ATOM     39  C   UNL A   1      36.068  30.408  28.704  1.00  0.00     0.010 A 
ATOM     40  C   UNL A   1      37.210  32.544  28.706  1.00  0.00     0.010 A 
ATOM     41  C   UNL A   1      37.192  31.177  29.033  1.00  0.00    -0.014 A 
BRANCH  41  42
ATOM     42  C   UNL A   1      38.187  30.580  29.966  1.00  0.00     0.031 A 
ATOM     43  C   UNL A   1      39.210  29.627  29.399  1.00  0.00     0.074 A 
ATOM     44  C   UNL A   1      38.278  30.956  31.254  1.00  0.00     0.049 A 
ATOM     45  N   UNL A   1      40.229  29.049  29.984  1.00  0.00    -0.248 NA
ATOM     46  C   UNL A   1      39.066  29.289  27.974  1.00  0.00     0.031 C 
ATOM     47  C   UNL A   1      37.395  31.906  31.917  1.00  0.00     0.029 A 
ATOM     48  N   UNL A   1      39.186  30.602  32.224  1.00  0.00    -0.354 N 
ATOM     49  C   UNL A   1      40.836  28.273  29.006  1.00  0.00     0.074 A 
ATOM     50  C   UNL A   1      40.071  28.447  27.791  1.00  0.00     0.031 C 
ATOM     51  C   UNL A   1      37.827  32.094  33.179  1.00  0.00     0.029 A 
ATOM     52  C   UNL A   1      38.996  31.250  33.420  1.00  0.00     0.049 A 
ATOM     53  H   UNL A   1      39.903  29.944  32.077  1.00  0.00     0.167 HD
ATOM     54  C   UNL A   1      41.929  27.480  29.105  1.00  0.00     0.037 A 
ATOM     55  C   UNL A   1      39.689  31.172  34.575  1.00  0.00     0.037 A 
ATOM     56  C   UNL A   1      42.698  27.294  30.306  1.00  0.00     0.049 A 
ATOM     57  C   UNL A   1      40.875  30.245  34.673  1.00  0.00     0.074 A 
ATOM     58  C   UNL A   1      43.802  26.484  30.507  1.00  0.00     0.029 A 
ATOM     59  N   UNL A   1      42.439  27.926  31.512  1.00  0.00    -0.354 N 
ATOM     60  N   UNL A   1      41.434  29.508  33.744  1.00  0.00    -0.248 NA
ATOM     61  C   UNL A   1      41.520  30.132  35.992  1.00  0.00     0.031 C 
ATOM     62  C   UNL A   1      44.190  26.598  31.846  1.00  0.00     0.029 A 
ATOM     63  C   UNL A   1      43.354  27.512  32.466  1.00  0.00     0.049 A 
ATOM     64  H   UNL A   1      41.714  28.573  31.666  1.00  0.00     0.167 HD
ATOM     65  C   UNL A   1      42.503  28.865  34.357  1.00  0.00     0.074 A 
ATOM     66  C   UNL A   1      42.529  29.311  35.733  1.00  0.00     0.031 C 
ATOM     67  C   UNL A   1      43.380  27.976  33.828  1.00  0.00     0.037 A 
BRANCH  54  68
ATOM     68  C   UNL A   1      42.325  26.712  27.882  1.00  0.00     0.064 A 
ATOM     69  C   UNL A   1      41.817  25.433  27.616  1.00  0.00     0.173 A 
ATOM     70  C   UNL A   1      43.228  27.268  26.963  1.00  0.00     0.173 A 
ATOM     71  F   UNL A   1      40.967  24.853  28.478  1.00  0.00    -0.203 F 
ATOM     72  C   UNL A   1      42.215  24.728  26.484  1.00  0.00     0.198 A 
ATOM     73  C   UNL A   1      43.608  26.569  25.821  1.00  0.00     0.198 A 
ATOM     74  F   UNL A   1      43.744  28.488  27.176  1.00  0.00    -0.203 F 
ATOM     75  F   UNL A   1      41.753  23.488  26.271  1.00  0.00    -0.200 F 
ATOM     76  C   UNL A   1      43.107  25.297  25.586  1.00  0.00     0.200 A 
ATOM     77  F   UNL A   1      44.464  27.124  24.952  1.00  0.00    -0.200 F 
ATOM     78  F   UNL A   1      43.492  24.617  24.498  1.00  0.00    -0.200 F 
ENDBRANCH  54  68
BRANCH  55  79
ATOM     79  C   UNL A   1      39.286  31.988  35.752  1.00  0.00     0.064 A 
ATOM     80  C   UNL A   1      38.397  31.481  36.712  1.00  0.00     0.173 A 
ATOM     81  C   UNL A   1      39.733  33.307  35.911  1.00  0.00     0.173 A 
ATOM     82  F   UNL A   1      37.913  30.238  36.584  1.00  0.00    -0.203 F 
ATOM     83  C   UNL A   1      37.956  32.270  37.773  1.00  0.00     0.198 A 
ATOM     84  C   UNL A   1      39.312  34.085  36.988  1.00  0.00     0.198 A 
ATOM     85  F   UNL A   1      40.574  33.844  35.015  1.00  0.00    -0.203 F 
ATOM     86  F   UNL A   1      37.060  31.781  38.642  1.00  0.00    -0.200 F 
ATOM     87  C   UNL A   1      38.416  33.570  37.912  1.00  0.00     0.200 A 
ATOM     88  F   UNL A   1      39.762  35.341  37.119  1.00  0.00    -0.200 F 
ATOM     89  F   UNL A   1      37.983  34.332  38.925  1.00  0.00    -0.200 F 
ENDBRANCH  55  79
BRANCH  67  90
ATOM     90  C   UNL A   1      44.462  27.451  34.727  1.00  0.00     0.064 A 
ATOM     91  C   UNL A   1      45.662  28.151  34.920  1.00  0.00     0.173 A 
ATOM     92  C   UNL A   1      44.278  26.254  35.437  1.00  0.00     0.173 A 
ATOM     93  F   UNL A   1      45.892  29.293  34.255  1.00  0.00    -0.203 F 
ATOM     94  C   UNL A   1      46.648  27.660  35.772  1.00  0.00     0.198 A 
ATOM     95  C   UNL A   1      45.255  25.780  36.307  1.00  0.00     0.198 A 
ATOM     96  F   UNL A   1      43.144  25.551  35.294  1.00  0.00    -0.203 F 
ATOM     97  F   UNL A   1      47.805  28.324  35.909  1.00  0.00    -0.200 F 
ATOM     98  C   UNL A   1      46.441  26.479  36.470  1.00  0.00     0.200 A 
ATOM     99  F   UNL A   1      45.048  24.645  36.990  1.00  0.00    -0.200 F 
ATOM    100  F   UNL A   1      47.389  26.010  37.293  1.00  0.00    -0.200 F 
ENDBRANCH  67  90
ENDBRANCH  41  42
ENDBRANCH  34  36
ENDBRANCH  33  34
ENDBRANCH  32  33
ENDBRANCH  31  32
ENDBRANCH  30  31
ENDBRANCH  29  30
ENDBRANCH  28  29
ENDBRANCH   1  28
TORSDOF 22
ENDMDL
MODEL 2
REMARK VINA RESULT:     -10.4      1.645      8.164
REMARK SMILES O=C(C[C@@H]1COCCN1C(=O)c1csc(Cc2ccccc2)n1)OCCOCCOCCOC(=O)c1ccc(-c2c3nc(c(-c4c(F)c(F)c(F)c(F)c4F)c4ccc([nH]4)c(-c4c(F)c(F)c(F)c(F)c4F)c4nc(c(-c5c(F)c(F)c(F)c(F)c5F)c5ccc2[nH]5)C=C4)C=C3)cc1
REMARK SMILES IDX 27 1 26 2 25 3 24 4 2 5 1 6 3 7 4 8 5 9 9 10 6 11 8 12 7 13
REMARK SMILES IDX 10 14 11 15 12 16 13 17 23 18 14 19 15 20 16 21 17 22 18 23
REMARK SMILES IDX 22 24 19 25 21 26 20 27 28 28 29 29 30 30 31 31 32 32 33 33
REMARK SMILES IDX 34 34 35 35 36 36 37 37 98 38 38 39 97 40 39 41 40 42 41 43
REMARK SMILES IDX 91 44 42 45 96 46 90 47 92 48 43 49 95 50 89 51 88 52 44 54
REMARK SMILES IDX 76 55 56 56 75 57 57 58 60 59 74 60 93 61 58 62 59 63 73 65
REMARK SMILES IDX 94 66 61 67 45 68 46 69 54 70 47 71 48 72 52 73 55 74 49 75
REMARK SMILES IDX 50 76 53 77 51 78 77 79 78 80 86 81 79 82 80 83 84 84 87 85
REMARK SMILES IDX 81 86 82 87 85 88 83 89 62 90 63 91 71 92 64 93 65 94 69 95
REMARK SMILES IDX 72 96 66 97 67 98 70 99 68 100
REMARK H PARENT 92 53 60 64
REMARK Flexibility Score: inf
ROOT
ATOM      1  O   UNL A   1      31.637  27.413  26.849  1.00  0.00    -0.376 OA
ENDROOT
BRANCH   1   2
ATOM      2  C   UNL A   1      30.553  26.557  26.571  1.00  0.00     0.202 C 
BRANCH   2   3
ATOM      3  C   UNL A   1      30.860  25.050  26.519  1.00  0.00     0.261 C 
BRANCH   3   4
ATOM      4  O   UNL A   1      30.520  24.323  25.311  1.00  0.00    -0.463 OA
BRANCH   4   5
ATOM      5  C   UNL A   1      31.089  23.176  24.864  1.00  0.00     0.308 C 
ATOM      6  O   UNL A   1      31.009  22.149  25.528  1.00  0.00    -0.252 OA
BRANCH   5   7
ATOM      7  C   UNL A   1      31.888  23.251  23.590  1.00  0.00     0.150 C 
BRANCH   7   8
ATOM      8  C   UNL A   1      33.393  23.190  23.751  1.00  0.00     0.122 C 
ATOM      9  C   UNL A   1      33.909  21.839  24.297  1.00  0.00     0.185 C 
ATOM     10  N   UNL A   1      34.195  24.314  24.296  1.00  0.00    -0.329 N 
ATOM     11  O   UNL A   1      35.288  21.661  23.936  1.00  0.00    -0.377 OA
ATOM     12  C   UNL A   1      35.635  24.085  24.045  1.00  0.00     0.148 C 
ATOM     13  C   UNL A   1      36.090  22.699  24.509  1.00  0.00     0.181 C 
BRANCH  10  14
ATOM     14  C   UNL A   1      33.868  25.601  24.749  1.00  0.00     0.273 C 
ATOM     15  O   UNL A   1      34.173  25.915  25.907  1.00  0.00    -0.267 OA
BRANCH  14  16
ATOM     16  C   UNL A   1      33.228  26.648  23.931  1.00  0.00     0.139 A 
ATOM     17  C   UNL A   1      33.958  27.776  23.586  1.00  0.00     0.101 A 
ATOM     18  N   UNL A   1      31.894  26.711  23.511  1.00  0.00    -0.236 NA
ATOM     19  S   UNL A   1      33.014  28.885  22.715  1.00  0.00    -0.126 S 
ATOM     20  C   UNL A   1      31.658  27.834  22.842  1.00  0.00     0.098 A 
BRANCH  20  21
ATOM     21  C   UNL A   1      30.373  28.141  22.097  1.00  0.00     0.103 C 
BRANCH  21  22
ATOM     22  C   UNL A   1      29.720  29.497  22.332  1.00  0.00    -0.041 A 
ATOM     23  C   UNL A   1      29.503  29.964  23.636  1.00  0.00     0.004 A 
ATOM     24  C   UNL A   1      29.261  30.288  21.265  1.00  0.00     0.004 A 
ATOM     25  C   UNL A   1      28.859  31.186  23.860  1.00  0.00     0.000 A 
ATOM     26  C   UNL A   1      28.639  31.519  21.487  1.00  0.00     0.000 A 
ATOM     27  C   UNL A   1      28.435  31.967  22.787  1.00  0.00     0.000 A 
ENDBRANCH  21  22
ENDBRANCH  20  21
ENDBRANCH  14  16
ENDBRANCH  10  14
ENDBRANCH   7   8
ENDBRANCH   5   7
ENDBRANCH   4   5
ENDBRANCH   3   4
ENDBRANCH   2   3
ENDBRANCH   1   2
BRANCH   1  28
ATOM     28  C   UNL A   1      31.423  28.573  27.625  1.00  0.00     0.188 C 
BRANCH  28  29
ATOM     29  C   UNL A   1      32.317  29.746  27.183  1.00  0.00     0.188 C 
BRANCH  29  30
ATOM     30  O   UNL A   1      31.929  30.501  26.042  1.00  0.00    -0.376 OA
BRANCH  30  31
ATOM     31  C   UNL A   1      31.422  31.822  26.232  1.00  0.00     0.202 C 
BRANCH  31  32
ATOM     32  C   UNL A   1      31.818  32.581  27.509  1.00  0.00     0.261 C 
BRANCH  32  33
ATOM     33  O   UNL A   1      32.929  33.492  27.349  1.00  0.00    -0.460 OA
BRANCH  33  34
ATOM     34  C   UNL A   1      33.674  33.684  28.464  1.00  0.00     0.338 C 
ATOM     35  O   UNL A   1      33.340  34.265  29.483  1.00  0.00    -0.246 OA
BRANCH  34  36
ATOM     36  C   UNL A   1      34.968  32.973  28.393  1.00  0.00     0.060 A 
ATOM     37  C   UNL A   1      34.956  31.592  28.626  1.00  0.00     0.016 A 
ATOM     38  C   UNL A   1      36.180  33.668  28.341  1.00  0.00     0.016 A 
ATOM     39  C   UNL A   1      36.148  30.920  28.892  1.00  0.00     0.010 A 
ATOM     40  C   UNL A   1      37.377  32.990  28.626  1.00  0.00     0.010 A 
ATOM     41  C   UNL A   1      37.357  31.625  28.963  1.00  0.00    -0.014 A 
BRANCH  41  42
ATOM     42  C   UNL A   1      38.496  30.972  29.665  1.00  0.00     0.031 A 
ATOM     43  C   UNL A   1      38.688  31.266  31.132  1.00  0.00     0.074 A 
ATOM     44  C   UNL A   1      39.268  30.046  29.071  1.00  0.00     0.049 A 
ATOM     45  N   UNL A   1      39.545  30.757  31.982  1.00  0.00    -0.248 NA
ATOM     46  C   UNL A   1      37.782  32.266  31.721  1.00  0.00     0.031 C 
ATOM     47  C   UNL A   1      39.158  29.625  27.680  1.00  0.00     0.029 A 
ATOM     48  N   UNL A   1      40.281  29.270  29.581  1.00  0.00    -0.354 N 
ATOM     49  C   UNL A   1      39.290  31.382  33.195  1.00  0.00     0.074 A 
ATOM     50  C   UNL A   1      38.204  32.311  32.975  1.00  0.00     0.031 C 
ATOM     51  C   UNL A   1      40.041  28.634  27.454  1.00  0.00     0.029 A 
ATOM     52  C   UNL A   1      40.801  28.376  28.676  1.00  0.00     0.049 A 
ATOM     53  H   UNL A   1      40.605  29.347  30.508  1.00  0.00     0.167 HD
ATOM     54  C   UNL A   1      39.905  31.205  34.388  1.00  0.00     0.037 A 
ATOM     55  C   UNL A   1      41.778  27.457  28.820  1.00  0.00     0.037 A 
ATOM     56  C   UNL A   1      40.988  30.288  34.623  1.00  0.00     0.049 A 
ATOM     57  C   UNL A   1      42.479  27.314  30.148  1.00  0.00     0.074 A 
ATOM     58  C   UNL A   1      41.693  30.067  35.793  1.00  0.00     0.029 A 
ATOM     59  N   UNL A   1      41.523  29.442  33.666  1.00  0.00    -0.354 N 
ATOM     60  N   UNL A   1      42.237  27.916  31.286  1.00  0.00    -0.248 NA
ATOM     61  C   UNL A   1      43.603  26.364  30.204  1.00  0.00     0.031 C 
ATOM     62  C   UNL A   1      42.682  29.111  35.534  1.00  0.00     0.029 A 
ATOM     63  C   UNL A   1      42.562  28.707  34.214  1.00  0.00     0.049 A 
ATOM     64  H   UNL A   1      41.211  29.373  32.734  1.00  0.00     0.167 HD
ATOM     65  C   UNL A   1      43.158  27.407  32.194  1.00  0.00     0.074 A 
ATOM     66  C   UNL A   1      43.953  26.430  31.481  1.00  0.00     0.031 C 
ATOM     67  C   UNL A   1      43.335  27.726  33.499  1.00  0.00     0.037 A 
BRANCH  54  68
ATOM     68  C   UNL A   1      39.447  32.068  35.524  1.00  0.00     0.064 A 
ATOM     69  C   UNL A   1      39.914  33.379  35.691  1.00  0.00     0.173 A 
ATOM     70  C   UNL A   1      38.524  31.572  36.456  1.00  0.00     0.173 A 
ATOM     71  F   UNL A   1      40.814  33.888  34.835  1.00  0.00    -0.203 F 
ATOM     72  C   UNL A   1      39.492  34.156  36.766  1.00  0.00     0.198 A 
ATOM     73  C   UNL A   1      38.086  32.358  37.518  1.00  0.00     0.198 A 
ATOM     74  F   UNL A   1      38.050  30.322  36.340  1.00  0.00    -0.203 F 
ATOM     75  F   UNL A   1      39.985  35.390  36.934  1.00  0.00    -0.200 F 
ATOM     76  C   UNL A   1      38.576  33.647  37.675  1.00  0.00     0.200 A 
ATOM     77  F   UNL A   1      37.197  31.867  38.391  1.00  0.00    -0.200 F 
ATOM     78  F   UNL A   1      38.171  34.394  38.711  1.00  0.00    -0.200 F 
ENDBRANCH  54  68
BRANCH  55  79
ATOM     79  C   UNL A   1      42.170  26.590  27.676  1.00  0.00     0.064 A 
ATOM     80  C   UNL A   1      41.587  25.326  27.496  1.00  0.00     0.173 A 
ATOM     81  C   UNL A   1      43.171  26.979  26.776  1.00  0.00     0.173 A 
ATOM     82  F   UNL A   1      40.650  24.893  28.352  1.00  0.00    -0.203 F 
ATOM     83  C   UNL A   1      42.007  24.478  26.473  1.00  0.00     0.198 A 
ATOM     84  C   UNL A   1      43.571  26.140  25.737  1.00  0.00     0.198 A 
ATOM     85  F   UNL A   1      43.769  28.171  26.911  1.00  0.00    -0.203 F 
ATOM     86  F   UNL A   1      41.476  23.252  26.360  1.00  0.00    -0.200 F 
ATOM     87  C   UNL A   1      42.997  24.887  25.592  1.00  0.00     0.200 A 
ATOM     88  F   UNL A   1      44.526  26.542  24.887  1.00  0.00    -0.200 F 
ATOM     89  F   UNL A   1      43.409  24.068  24.616  1.00  0.00    -0.200 F 
ENDBRANCH  55  79
BRANCH  67  90
ATOM     90  C   UNL A   1      44.406  26.992  34.255  1.00  0.00     0.064 A 
ATOM     91  C   UNL A   1      45.710  27.499  34.360  1.00  0.00     0.173 A 
ATOM     92  C   UNL A   1      44.111  25.791  34.917  1.00  0.00     0.173 A 
ATOM     93  F   UNL A   1      46.044  28.638  33.735  1.00  0.00    -0.203 F 
ATOM     94  C   UNL A   1      46.686  26.816  35.081  1.00  0.00     0.198 A 
ATOM     95  C   UNL A   1      45.083  25.125  35.658  1.00  0.00     0.198 A 
ATOM     96  F   UNL A   1      42.877  25.269  34.855  1.00  0.00    -0.203 F 
ATOM     97  F   UNL A   1      47.936  27.297  35.134  1.00  0.00    -0.200 F 
ATOM     98  C   UNL A   1      46.371  25.634  35.735  1.00  0.00     0.200 A 
ATOM     99  F   UNL A   1      44.774  23.989  36.299  1.00  0.00    -0.200 F 
ATOM    100  F   UNL A   1      47.311  24.981  36.432  1.00  0.00    -0.200 F 
ENDBRANCH  67  90
ENDBRANCH  41  42
ENDBRANCH  34  36
ENDBRANCH  33  34
ENDBRANCH  32  33
ENDBRANCH  31  32
ENDBRANCH  30  31
ENDBRANCH  29  30
ENDBRANCH  28  29
ENDBRANCH   1  28
TORSDOF 22
ENDMDL
MODEL 3
REMARK VINA RESULT:     -10.4      1.377      7.237
REMARK SMILES O=C(C[C@@H]1COCCN1C(=O)c1csc(Cc2ccccc2)n1)OCCOCCOCCOC(=O)c1ccc(-c2c3nc(c(-c4c(F)c(F)c(F)c(F)c4F)c4ccc([nH]4)c(-c4c(F)c(F)c(F)c(F)c4F)c4nc(c(-c5c(F)c(F)c(F)c(F)c5F)c5ccc2[nH]5)C=C4)C=C3)cc1
REMARK SMILES IDX 27 1 26 2 25 3 24 4 2 5 1 6 3 7 4 8 5 9 9 10 6 11 8 12 7 13
REMARK SMILES IDX 10 14 11 15 12 16 13 17 23 18 14 19 15 20 16 21 17 22 18 23
REMARK SMILES IDX 22 24 19 25 21 26 20 27 28 28 29 29 30 30 31 31 32 32 33 33
REMARK SMILES IDX 34 34 35 35 36 36 37 37 98 38 38 39 97 40 39 41 40 42 41 43
REMARK SMILES IDX 91 44 42 45 96 46 90 47 92 48 43 49 95 50 89 51 88 52 44 54
REMARK SMILES IDX 76 55 56 56 75 57 57 58 60 59 74 60 93 61 58 62 59 63 73 65
REMARK SMILES IDX 94 66 61 67 45 68 46 69 54 70 47 71 48 72 52 73 55 74 49 75
REMARK SMILES IDX 50 76 53 77 51 78 77 79 78 80 86 81 79 82 80 83 84 84 87 85
REMARK SMILES IDX 81 86 82 87 85 88 83 89 62 90 63 91 71 92 64 93 65 94 69 95
REMARK SMILES IDX 72 96 66 97 67 98 70 99 68 100
REMARK H PARENT 92 53 60 64
REMARK Flexibility Score: inf
ROOT
ATOM      1  O   UNL A   1      29.087  30.561  23.567  1.00  0.00    -0.376 OA
ENDROOT
BRANCH   1   2
ATOM      2  C   UNL A   1      27.973  30.028  22.888  1.00  0.00     0.202 C 
BRANCH   2   3
ATOM      3  C   UNL A   1      28.028  28.530  22.539  1.00  0.00     0.261 C 
BRANCH   3   4
ATOM      4  O   UNL A   1      29.309  27.855  22.622  1.00  0.00    -0.463 OA
BRANCH   4   5
ATOM      5  C   UNL A   1      29.669  26.897  23.512  1.00  0.00     0.308 C 
ATOM      6  O   UNL A   1      29.633  25.715  23.194  1.00  0.00    -0.252 OA
BRANCH   5   7
ATOM      7  C   UNL A   1      30.010  27.346  24.909  1.00  0.00     0.150 C 
BRANCH   7   8
ATOM      8  C   UNL A   1      31.476  27.621  25.173  1.00  0.00     0.122 C 
ATOM      9  C   UNL A   1      32.150  28.507  24.101  1.00  0.00     0.185 C 
ATOM     10  N   UNL A   1      32.420  26.583  25.660  1.00  0.00    -0.329 N 
ATOM     11  O   UNL A   1      33.314  29.142  24.652  1.00  0.00    -0.377 OA
ATOM     12  C   UNL A   1      33.680  27.210  26.116  1.00  0.00     0.148 C 
ATOM     13  C   UNL A   1      34.268  28.158  25.066  1.00  0.00     0.181 C 
BRANCH  10  14
ATOM     14  C   UNL A   1      32.273  25.229  25.997  1.00  0.00     0.273 C 
ATOM     15  O   UNL A   1      31.437  24.921  26.855  1.00  0.00    -0.267 OA
BRANCH  14  16
ATOM     16  C   UNL A   1      33.007  24.116  25.364  1.00  0.00     0.139 A 
ATOM     17  C   UNL A   1      33.388  24.229  24.035  1.00  0.00     0.101 A 
ATOM     18  N   UNL A   1      33.305  22.864  25.913  1.00  0.00    -0.236 NA
ATOM     19  S   UNL A   1      34.144  22.814  23.483  1.00  0.00    -0.126 S 
ATOM     20  C   UNL A   1      33.923  22.090  25.029  1.00  0.00     0.098 A 
BRANCH  20  21
ATOM     21  C   UNL A   1      34.543  20.742  25.345  1.00  0.00     0.103 C 
BRANCH  21  22
ATOM     22  C   UNL A   1      34.055  19.532  24.560  1.00  0.00    -0.041 A 
ATOM     23  C   UNL A   1      32.827  19.571  23.886  1.00  0.00     0.004 A 
ATOM     24  C   UNL A   1      34.780  18.328  24.537  1.00  0.00     0.004 A 
ATOM     25  C   UNL A   1      32.348  18.446  23.204  1.00  0.00     0.000 A 
ATOM     26  C   UNL A   1      34.315  17.212  23.837  1.00  0.00     0.000 A 
ATOM     27  C   UNL A   1      33.095  17.271  23.173  1.00  0.00     0.000 A 
ENDBRANCH  21  22
ENDBRANCH  20  21
ENDBRANCH  14  16
ENDBRANCH  10  14
ENDBRANCH   7   8
ENDBRANCH   5   7
ENDBRANCH   4   5
ENDBRANCH   3   4
ENDBRANCH   2   3
ENDBRANCH   1   2
BRANCH   1  28
ATOM     28  C   UNL A   1      29.157  31.953  23.797  1.00  0.00     0.188 C 
BRANCH  28  29
ATOM     29  C   UNL A   1      30.084  32.303  24.975  1.00  0.00     0.188 C 
BRANCH  29  30
ATOM     30  O   UNL A   1      30.763  31.245  25.642  1.00  0.00    -0.376 OA
BRANCH  30  31
ATOM     31  C   UNL A   1      31.847  31.567  26.515  1.00  0.00     0.202 C 
BRANCH  31  32
ATOM     32  C   UNL A   1      31.809  32.908  27.265  1.00  0.00     0.261 C 
BRANCH  32  33
ATOM     33  O   UNL A   1      33.056  33.638  27.262  1.00  0.00    -0.460 OA
BRANCH  33  34
ATOM     34  C   UNL A   1      33.702  33.670  28.452  1.00  0.00     0.338 C 
ATOM     35  O   UNL A   1      33.285  34.124  29.504  1.00  0.00    -0.246 OA
BRANCH  34  36
ATOM     36  C   UNL A   1      34.989  32.946  28.402  1.00  0.00     0.060 A 
ATOM     37  C   UNL A   1      34.965  31.574  28.682  1.00  0.00     0.016 A 
ATOM     38  C   UNL A   1      36.207  33.628  28.324  1.00  0.00     0.016 A 
ATOM     39  C   UNL A   1      36.152  30.901  28.969  1.00  0.00     0.010 A 
ATOM     40  C   UNL A   1      37.399  32.950  28.628  1.00  0.00     0.010 A 
ATOM     41  C   UNL A   1      37.367  31.597  29.012  1.00  0.00    -0.014 A 
BRANCH  41  42
ATOM     42  C   UNL A   1      38.503  30.959  29.734  1.00  0.00     0.031 A 
ATOM     43  C   UNL A   1      38.671  31.261  31.202  1.00  0.00     0.074 A 
ATOM     44  C   UNL A   1      39.293  30.039  29.155  1.00  0.00     0.049 A 
ATOM     45  N   UNL A   1      39.520  30.764  32.066  1.00  0.00    -0.248 NA
ATOM     46  C   UNL A   1      37.746  32.254  31.773  1.00  0.00     0.031 C 
ATOM     47  C   UNL A   1      39.207  29.611  27.764  1.00  0.00     0.029 A 
ATOM     48  N   UNL A   1      40.306  29.274  29.683  1.00  0.00    -0.354 N 
ATOM     49  C   UNL A   1      39.242  31.391  33.273  1.00  0.00     0.074 A 
ATOM     50  C   UNL A   1      38.149  32.308  33.033  1.00  0.00     0.031 C 
ATOM     51  C   UNL A   1      40.103  28.627  27.555  1.00  0.00     0.029 A 
ATOM     52  C   UNL A   1      40.848  28.383  28.789  1.00  0.00     0.049 A 
ATOM     53  H   UNL A   1      40.616  29.358  30.614  1.00  0.00     0.167 HD
ATOM     54  C   UNL A   1      39.841  31.225  34.476  1.00  0.00     0.037 A 
ATOM     55  C   UNL A   1      41.832  27.474  28.951  1.00  0.00     0.037 A 
ATOM     56  C   UNL A   1      40.929  30.320  34.730  1.00  0.00     0.049 A 
ATOM     57  C   UNL A   1      42.515  27.343  30.290  1.00  0.00     0.074 A 
ATOM     58  C   UNL A   1      41.619  30.111  35.911  1.00  0.00     0.029 A 
ATOM     59  N   UNL A   1      41.487  29.476  33.784  1.00  0.00    -0.354 N 
ATOM     60  N   UNL A   1      42.250  27.948  31.421  1.00  0.00    -0.248 NA
ATOM     61  C   UNL A   1      43.648  26.405  30.366  1.00  0.00     0.031 C 
ATOM     62  C   UNL A   1      42.621  29.164  35.670  1.00  0.00     0.029 A 
ATOM     63  C   UNL A   1      42.524  28.754  34.351  1.00  0.00     0.049 A 
ATOM     64  H   UNL A   1      41.189  29.399  32.848  1.00  0.00     0.167 HD
ATOM     65  C   UNL A   1      43.163  27.451  32.345  1.00  0.00     0.074 A 
ATOM     66  C   UNL A   1      43.978  26.479  31.648  1.00  0.00     0.031 C 
ATOM     67  C   UNL A   1      43.318  27.777  33.651  1.00  0.00     0.037 A 
BRANCH  54  68
ATOM     68  C   UNL A   1      39.357  32.088  35.601  1.00  0.00     0.064 A 
ATOM     69  C   UNL A   1      39.803  33.407  35.765  1.00  0.00     0.173 A 
ATOM     70  C   UNL A   1      38.432  31.584  36.526  1.00  0.00     0.173 A 
ATOM     71  F   UNL A   1      40.705  33.924  34.916  1.00  0.00    -0.203 F 
ATOM     72  C   UNL A   1      39.357  34.183  36.830  1.00  0.00     0.198 A 
ATOM     73  C   UNL A   1      37.971  32.370  37.578  1.00  0.00     0.198 A 
ATOM     74  F   UNL A   1      37.977  30.326  36.412  1.00  0.00    -0.203 F 
ATOM     75  F   UNL A   1      39.831  35.426  36.996  1.00  0.00    -0.200 F 
ATOM     76  C   UNL A   1      38.439  33.667  37.733  1.00  0.00     0.200 A 
ATOM     77  F   UNL A   1      37.079  31.871  38.445  1.00  0.00    -0.200 F 
ATOM     78  F   UNL A   1      38.012  34.413  38.760  1.00  0.00    -0.200 F 
ENDBRANCH  54  68
BRANCH  55  79
ATOM     79  C   UNL A   1      42.249  26.606  27.817  1.00  0.00     0.064 A 
ATOM     80  C   UNL A   1      43.260  27.011  26.932  1.00  0.00     0.173 A 
ATOM     81  C   UNL A   1      41.611  25.385  27.560  1.00  0.00     0.173 A 
ATOM     82  F   UNL A   1      43.876  28.188  27.113  1.00  0.00    -0.203 F 
ATOM     83  C   UNL A   1      43.599  26.238  25.823  1.00  0.00     0.198 A 
ATOM     84  C   UNL A   1      41.970  24.599  26.466  1.00  0.00     0.198 A 
ATOM     85  F   UNL A   1      40.630  24.956  28.369  1.00  0.00    -0.203 F 
ATOM     86  F   UNL A   1      44.526  26.677  24.960  1.00  0.00    -0.200 F 
ATOM     87  C   UNL A   1      42.957  25.031  25.592  1.00  0.00     0.200 A 
ATOM     88  F   UNL A   1      41.348  23.432  26.250  1.00  0.00    -0.200 F 
ATOM     89  F   UNL A   1      43.275  24.293  24.521  1.00  0.00    -0.200 F 
ENDBRANCH  55  79
BRANCH  67  90
ATOM     90  C   UNL A   1      44.385  27.058  34.425  1.00  0.00     0.064 A 
ATOM     91  C   UNL A   1      45.704  27.532  34.474  1.00  0.00     0.173 A 
ATOM     92  C   UNL A   1      44.073  25.905  35.162  1.00  0.00     0.173 A 
ATOM     93  F   UNL A   1      46.055  28.623  33.777  1.00  0.00    -0.203 F 
ATOM     94  C   UNL A   1      46.677  26.864  35.213  1.00  0.00     0.198 A 
ATOM     95  C   UNL A   1      45.042  25.254  35.920  1.00  0.00     0.198 A 
ATOM     96  F   UNL A   1      42.824  25.415  35.155  1.00  0.00    -0.203 F 
ATOM     97  F   UNL A   1      47.941  27.311  35.212  1.00  0.00    -0.200 F 
ATOM     98  C   UNL A   1      46.345  25.730  35.940  1.00  0.00     0.200 A 
ATOM     99  F   UNL A   1      44.717  24.166  36.631  1.00  0.00    -0.200 F 
ATOM    100  F   UNL A   1      47.282  25.091  36.654  1.00  0.00    -0.200 F 
ENDBRANCH  67  90
ENDBRANCH  41  42
ENDBRANCH  34  36
ENDBRANCH  33  34
ENDBRANCH  32  33
ENDBRANCH  31  32
ENDBRANCH  30  31
ENDBRANCH  29  30
ENDBRANCH  28  29
ENDBRANCH   1  28
TORSDOF 22
ENDMDL
