MODEL 1
REMARK VINA RESULT:      -9.3      0.000      0.000
REMARK SMILES CS(=O)(=O)c1ccc(/C=C(/C(=O)OCCOCCOCCOC(=O)c2ccc(-c3c4nc(c(-c5c(F)c(F)c(F)c(F)c5F)c5ccc([nH]5)c(-c5c(F)c(F)c(F)c(F)c5F)c5nc(c(-c6c(F)c(F)c(F)c(F)c6F)c6ccc3[nH]6)C=C5)C=C4)cc2)c2ccc(-c3ccc(F)cc3F)cc2)cc1
REMARK SMILES IDX 17 1 16 2 15 3 14 4 13 5 11 6 12 7 10 8 9 9 8 10 5 11 6 12
REMARK SMILES IDX 103 13 7 14 102 15 2 16 1 17 3 18 4 19 88 20 89 21 101 22
REMARK SMILES IDX 90 23 100 24 91 25 92 26 93 27 98 28 94 29 97 30 99 31 95 32
REMARK SMILES IDX 96 33 18 34 19 35 20 36 21 37 22 38 23 39 24 40 25 41 26 42
REMARK SMILES IDX 87 43 27 44 86 45 28 46 29 47 30 48 80 49 31 50 85 51 79 52
REMARK SMILES IDX 81 53 32 54 84 55 78 56 77 57 33 59 65 60 45 61 64 62 46 63
REMARK SMILES IDX 49 64 63 65 82 66 47 67 48 68 62 70 83 71 50 72 34 73 35 74
REMARK SMILES IDX 43 75 36 76 37 77 41 78 44 79 38 80 39 81 42 82 40 83 66 84
REMARK SMILES IDX 67 85 75 86 68 87 69 88 73 89 76 90 70 91 71 92 74 93 72 94
REMARK SMILES IDX 51 95 52 96 60 97 53 98 54 99 58 100 61 101 55 102 56 103
REMARK SMILES IDX 59 104 57 105
REMARK H PARENT 81 58 49 69
REMARK Flexibility Score: inf
ROOT
ATOM      1  C   UNL A   1      33.082  35.578  31.799  1.00  0.00     0.188 C 
ENDROOT
BRANCH   1   2
ATOM      2  O   UNL A   1      34.365  36.040  32.180  1.00  0.00    -0.376 OA
BRANCH   2   3
ATOM      3  C   UNL A   1      35.263  35.024  32.607  1.00  0.00     0.202 C 
BRANCH   3   4
ATOM      4  C   UNL A   1      36.067  34.320  31.501  1.00  0.00     0.261 C 
BRANCH   4   5
ATOM      5  O   UNL A   1      36.445  32.951  31.758  1.00  0.00    -0.460 OA
BRANCH   5   6
ATOM      6  C   UNL A   1      36.178  32.432  32.983  1.00  0.00     0.338 C 
ATOM      7  O   UNL A   1      35.058  32.222  33.421  1.00  0.00    -0.246 OA
BRANCH   6   8
ATOM      8  C   UNL A   1      37.449  32.004  33.679  1.00  0.00     0.067 C 
ATOM      9  C   UNL A   1      37.985  30.781  33.432  1.00  0.00     0.024 C 
BRANCH   9  10
ATOM     10  C   UNL A   1      39.263  30.200  33.927  1.00  0.00    -0.025 A 
ATOM     11  C   UNL A   1      41.441  28.879  35.136  1.00  0.00     0.067 A 
ATOM     12  C   UNL A   1      41.122  28.613  33.808  1.00  0.00     0.021 A 
ATOM     13  C   UNL A   1      40.759  29.880  35.830  1.00  0.00     0.021 A 
ATOM     14  C   UNL A   1      40.063  29.302  33.203  1.00  0.00     0.009 A 
ATOM     15  C   UNL A   1      39.681  30.537  35.224  1.00  0.00     0.009 A 
BRANCH  11  16
ATOM     16  S   UNL A   1      42.675  27.919  35.981  1.00  0.00     0.175 S 
ATOM     17  C   UNL A   1      43.787  29.091  36.717  1.00  0.00     0.163 C 
ATOM     18  O   UNL A   1      43.432  27.211  34.963  1.00  0.00    -0.224 OA
ATOM     19  O   UNL A   1      41.996  27.207  37.043  1.00  0.00    -0.224 OA
ENDBRANCH  11  16
ENDBRANCH   9  10
BRANCH   8  20
ATOM     20  C   UNL A   1      38.048  32.941  34.653  1.00  0.00    -0.011 A 
ATOM     21  C   UNL A   1      37.661  32.867  35.998  1.00  0.00     0.009 A 
ATOM     22  C   UNL A   1      39.093  33.801  34.305  1.00  0.00     0.009 A 
ATOM     23  C   UNL A   1      38.322  33.611  36.976  1.00  0.00     0.009 A 
ATOM     24  C   UNL A   1      39.762  34.535  35.294  1.00  0.00     0.009 A 
ATOM     25  C   UNL A   1      39.392  34.453  36.648  1.00  0.00    -0.015 A 
BRANCH  25  26
ATOM     26  C   UNL A   1      40.088  35.217  37.698  1.00  0.00     0.018 A 
ATOM     27  C   UNL A   1      39.627  36.485  38.105  1.00  0.00     0.015 A 
ATOM     28  C   UNL A   1      41.254  34.726  38.311  1.00  0.00     0.133 A 
ATOM     29  C   UNL A   1      40.313  37.224  39.073  1.00  0.00     0.040 A 
ATOM     30  C   UNL A   1      41.939  35.451  39.280  1.00  0.00     0.079 A 
ATOM     31  F   UNL A   1      41.755  33.534  37.950  1.00  0.00    -0.206 F 
ATOM     32  C   UNL A   1      41.459  36.697  39.653  1.00  0.00     0.126 A 
ATOM     33  F   UNL A   1      42.111  37.401  40.585  1.00  0.00    -0.207 F 
ENDBRANCH  25  26
ENDBRANCH   8  20
ENDBRANCH   6   8
ENDBRANCH   5   6
ENDBRANCH   4   5
ENDBRANCH   3   4
ENDBRANCH   2   3
ENDBRANCH   1   2
BRANCH   1  34
ATOM     34  C   UNL A   1      32.600  36.123  30.439  1.00  0.00     0.188 C 
BRANCH  34  35
ATOM     35  O   UNL A   1      32.700  35.343  29.261  1.00  0.00    -0.376 OA
BRANCH  35  36
ATOM     36  C   UNL A   1      33.970  34.881  28.835  1.00  0.00     0.202 C 
BRANCH  36  37
ATOM     37  C   UNL A   1      34.111  33.510  28.146  1.00  0.00     0.261 C 
BRANCH  37  38
ATOM     38  O   UNL A   1      34.413  32.384  28.987  1.00  0.00    -0.460 OA
BRANCH  38  39
ATOM     39  C   UNL A   1      34.363  31.170  28.392  1.00  0.00     0.338 C 
ATOM     40  O   UNL A   1      33.444  30.707  27.728  1.00  0.00    -0.246 OA
BRANCH  39  41
ATOM     41  C   UNL A   1      35.681  30.507  28.498  1.00  0.00     0.060 A 
ATOM     42  C   UNL A   1      36.087  30.016  29.749  1.00  0.00     0.016 A 
ATOM     43  C   UNL A   1      36.537  30.414  27.400  1.00  0.00     0.016 A 
ATOM     44  C   UNL A   1      37.354  29.457  29.911  1.00  0.00     0.010 A 
ATOM     45  C   UNL A   1      37.821  29.878  27.569  1.00  0.00     0.010 A 
ATOM     46  C   UNL A   1      38.246  29.424  28.831  1.00  0.00    -0.014 A 
BRANCH  46  47
ATOM     47  C   UNL A   1      39.676  29.105  29.077  1.00  0.00     0.031 A 
ATOM     48  C   UNL A   1      40.516  30.111  29.816  1.00  0.00     0.074 A 
ATOM     49  C   UNL A   1      40.216  27.936  28.690  1.00  0.00     0.049 A 
ATOM     50  N   UNL A   1      41.786  30.065  30.132  1.00  0.00    -0.248 NA
ATOM     51  C   UNL A   1      39.829  31.335  30.258  1.00  0.00     0.031 C 
ATOM     52  C   UNL A   1      39.505  26.870  27.992  1.00  0.00     0.029 A 
ATOM     53  N   UNL A   1      41.497  27.457  28.825  1.00  0.00    -0.354 N 
ATOM     54  C   UNL A   1      42.051  31.255  30.800  1.00  0.00     0.074 A 
ATOM     55  C   UNL A   1      40.819  32.012  30.821  1.00  0.00     0.031 C 
ATOM     56  C   UNL A   1      40.357  25.855  27.762  1.00  0.00     0.029 A 
ATOM     57  C   UNL A   1      41.687  26.223  28.249  1.00  0.00     0.049 A 
ATOM     58  H   UNL A   1      42.211  27.949  29.291  1.00  0.00     0.167 HD
ATOM     59  C   UNL A   1      43.215  31.676  31.348  1.00  0.00     0.037 A 
ATOM     60  C   UNL A   1      42.813  25.495  28.103  1.00  0.00     0.037 A 
ATOM     61  C   UNL A   1      44.447  30.931  31.310  1.00  0.00     0.049 A 
ATOM     62  C   UNL A   1      44.117  26.026  28.650  1.00  0.00     0.074 A 
ATOM     63  C   UNL A   1      45.676  31.272  31.848  1.00  0.00     0.029 A 
ATOM     64  N   UNL A   1      44.609  29.704  30.687  1.00  0.00    -0.354 N 
ATOM     65  N   UNL A   1      44.351  27.136  29.310  1.00  0.00    -0.248 NA
ATOM     66  C   UNL A   1      45.314  25.201  28.430  1.00  0.00     0.031 C 
ATOM     67  C   UNL A   1      46.597  30.281  31.493  1.00  0.00     0.029 A 
ATOM     68  C   UNL A   1      45.925  29.286  30.801  1.00  0.00     0.049 A 
ATOM     69  H   UNL A   1      43.895  29.204  30.229  1.00  0.00     0.167 HD
ATOM     70  C   UNL A   1      45.708  27.122  29.614  1.00  0.00     0.074 A 
ATOM     71  C   UNL A   1      46.244  25.890  29.077  1.00  0.00     0.031 C 
ATOM     72  C   UNL A   1      46.444  28.047  30.278  1.00  0.00     0.037 A 
BRANCH  59  73
ATOM     73  C   UNL A   1      43.221  33.026  32.007  1.00  0.00     0.064 A 
ATOM     74  C   UNL A   1      43.326  34.211  31.263  1.00  0.00     0.173 A 
ATOM     75  C   UNL A   1      43.088  33.135  33.400  1.00  0.00     0.173 A 
ATOM     76  F   UNL A   1      43.469  34.162  29.930  1.00  0.00    -0.203 F 
ATOM     77  C   UNL A   1      43.329  35.454  31.892  1.00  0.00     0.198 A 
ATOM     78  C   UNL A   1      43.057  34.380  34.022  1.00  0.00     0.198 A 
ATOM     79  F   UNL A   1      42.980  32.035  34.158  1.00  0.00    -0.203 F 
ATOM     80  F   UNL A   1      43.484  36.570  31.167  1.00  0.00    -0.200 F 
ATOM     81  C   UNL A   1      43.187  35.537  33.269  1.00  0.00     0.200 A 
ATOM     82  F   UNL A   1      42.904  34.460  35.351  1.00  0.00    -0.200 F 
ATOM     83  F   UNL A   1      43.182  36.735  33.873  1.00  0.00    -0.200 F 
ENDBRANCH  59  73
BRANCH  60  84
ATOM     84  C   UNL A   1      42.774  24.191  27.384  1.00  0.00     0.064 A 
ATOM     85  C   UNL A   1      42.435  23.005  28.050  1.00  0.00     0.173 A 
ATOM     86  C   UNL A   1      43.114  24.095  26.026  1.00  0.00     0.173 A 
ATOM     87  F   UNL A   1      42.151  23.030  29.359  1.00  0.00    -0.203 F 
ATOM     88  C   UNL A   1      42.449  21.776  27.392  1.00  0.00     0.198 A 
ATOM     89  C   UNL A   1      43.102  22.871  25.362  1.00  0.00     0.198 A 
ATOM     90  F   UNL A   1      43.462  25.195  25.341  1.00  0.00    -0.203 F 
ATOM     91  F   UNL A   1      42.169  20.654  28.070  1.00  0.00    -0.200 F 
ATOM     92  C   UNL A   1      42.776  21.710  26.048  1.00  0.00     0.200 A 
ATOM     93  F   UNL A   1      43.415  22.814  24.061  1.00  0.00    -0.200 F 
ATOM     94  F   UNL A   1      42.795  20.528  25.417  1.00  0.00    -0.200 F 
ENDBRANCH  60  84
BRANCH  72  95
ATOM     95  C   UNL A   1      47.897  27.741  30.524  1.00  0.00     0.064 A 
ATOM     96  C   UNL A   1      48.326  27.007  31.640  1.00  0.00     0.173 A 
ATOM     97  C   UNL A   1      48.870  28.148  29.596  1.00  0.00     0.173 A 
ATOM     98  F   UNL A   1      47.440  26.603  32.563  1.00  0.00    -0.203 F 
ATOM     99  C   UNL A   1      49.676  26.720  31.834  1.00  0.00     0.198 A 
ATOM    100  C   UNL A   1      50.213  27.827  29.774  1.00  0.00     0.198 A 
ATOM    101  F   UNL A   1      48.515  28.842  28.504  1.00  0.00    -0.203 F 
ATOM    102  F   UNL A   1      50.067  26.063  32.935  1.00  0.00    -0.200 F 
ATOM    103  C   UNL A   1      50.616  27.122  30.898  1.00  0.00     0.200 A 
ATOM    104  F   UNL A   1      51.117  28.200  28.857  1.00  0.00    -0.200 F 
ATOM    105  F   UNL A   1      51.912  26.834  31.080  1.00  0.00    -0.200 F 
ENDBRANCH  72  95
ENDBRANCH  46  47
ENDBRANCH  39  41
ENDBRANCH  38  39
ENDBRANCH  37  38
ENDBRANCH  36  37
ENDBRANCH  35  36
ENDBRANCH  34  35
ENDBRANCH   1  34
TORSDOF 21
ENDMDL
MODEL 2
REMARK VINA RESULT:      -9.1      3.762      8.303
REMARK SMILES CS(=O)(=O)c1ccc(/C=C(/C(=O)OCCOCCOCCOC(=O)c2ccc(-c3c4nc(c(-c5c(F)c(F)c(F)c(F)c5F)c5ccc([nH]5)c(-c5c(F)c(F)c(F)c(F)c5F)c5nc(c(-c6c(F)c(F)c(F)c(F)c6F)c6ccc3[nH]6)C=C5)C=C4)cc2)c2ccc(-c3ccc(F)cc3F)cc2)cc1
REMARK SMILES IDX 17 1 16 2 15 3 14 4 13 5 11 6 12 7 10 8 9 9 8 10 5 11 6 12
REMARK SMILES IDX 103 13 7 14 102 15 2 16 1 17 3 18 4 19 88 20 89 21 101 22
REMARK SMILES IDX 90 23 100 24 91 25 92 26 93 27 98 28 94 29 97 30 99 31 95 32
REMARK SMILES IDX 96 33 18 34 19 35 20 36 21 37 22 38 23 39 24 40 25 41 26 42
REMARK SMILES IDX 87 43 27 44 86 45 28 46 29 47 30 48 80 49 31 50 85 51 79 52
REMARK SMILES IDX 81 53 32 54 84 55 78 56 77 57 33 59 65 60 45 61 64 62 46 63
REMARK SMILES IDX 49 64 63 65 82 66 47 67 48 68 62 70 83 71 50 72 34 73 35 74
REMARK SMILES IDX 43 75 36 76 37 77 41 78 44 79 38 80 39 81 42 82 40 83 66 84
REMARK SMILES IDX 67 85 75 86 68 87 69 88 73 89 76 90 70 91 71 92 74 93 72 94
REMARK SMILES IDX 51 95 52 96 60 97 53 98 54 99 58 100 61 101 55 102 56 103
REMARK SMILES IDX 59 104 57 105
REMARK H PARENT 81 58 49 69
REMARK Flexibility Score: inf
ROOT
ATOM      1  C   UNL A   1      42.881  32.207  40.846  1.00  0.00     0.188 C 
ENDROOT
BRANCH   1   2
ATOM      2  O   UNL A   1      41.667  31.954  40.163  1.00  0.00    -0.376 OA
BRANCH   2   3
ATOM      3  C   UNL A   1      41.476  32.720  38.982  1.00  0.00     0.202 C 
BRANCH   3   4
ATOM      4  C   UNL A   1      40.026  33.120  38.660  1.00  0.00     0.261 C 
BRANCH   4   5
ATOM      5  O   UNL A   1      39.411  32.449  37.539  1.00  0.00    -0.460 OA
BRANCH   5   6
ATOM      6  C   UNL A   1      38.440  33.104  36.855  1.00  0.00     0.338 C 
ATOM      7  O   UNL A   1      37.832  34.078  37.270  1.00  0.00    -0.246 OA
BRANCH   6   8
ATOM      8  C   UNL A   1      38.312  32.567  35.448  1.00  0.00     0.067 C 
ATOM      9  C   UNL A   1      39.103  31.545  35.032  1.00  0.00     0.024 C 
BRANCH   9  10
ATOM     10  C   UNL A   1      39.081  30.809  33.738  1.00  0.00    -0.025 A 
ATOM     11  C   UNL A   1      38.640  29.561  31.249  1.00  0.00     0.067 A 
ATOM     12  C   UNL A   1      39.570  30.591  31.350  1.00  0.00     0.021 A 
ATOM     13  C   UNL A   1      38.014  29.071  32.396  1.00  0.00     0.021 A 
ATOM     14  C   UNL A   1      39.811  31.180  32.598  1.00  0.00     0.009 A 
ATOM     15  C   UNL A   1      38.239  29.691  33.632  1.00  0.00     0.009 A 
BRANCH  11  16
ATOM     16  S   UNL A   1      38.196  28.895  29.662  1.00  0.00     0.175 S 
ATOM     17  C   UNL A   1      39.169  29.783  28.471  1.00  0.00     0.163 C 
ATOM     18  O   UNL A   1      36.811  29.258  29.421  1.00  0.00    -0.224 OA
ATOM     19  O   UNL A   1      38.622  27.511  29.656  1.00  0.00    -0.224 OA
ENDBRANCH  11  16
ENDBRANCH   9  10
BRANCH   8  20
ATOM     20  C   UNL A   1      37.336  33.220  34.550  1.00  0.00    -0.011 A 
ATOM     21  C   UNL A   1      37.802  34.073  33.540  1.00  0.00     0.009 A 
ATOM     22  C   UNL A   1      35.976  32.902  34.582  1.00  0.00     0.009 A 
ATOM     23  C   UNL A   1      36.935  34.573  32.568  1.00  0.00     0.009 A 
ATOM     24  C   UNL A   1      35.113  33.396  33.594  1.00  0.00     0.009 A 
ATOM     25  C   UNL A   1      35.575  34.237  32.567  1.00  0.00    -0.015 A 
BRANCH  25  26
ATOM     26  C   UNL A   1      34.680  34.762  31.520  1.00  0.00     0.018 A 
ATOM     27  C   UNL A   1      34.717  34.253  30.206  1.00  0.00     0.015 A 
ATOM     28  C   UNL A   1      33.780  35.809  31.783  1.00  0.00     0.133 A 
ATOM     29  C   UNL A   1      33.894  34.781  29.207  1.00  0.00     0.040 A 
ATOM     30  C   UNL A   1      32.953  36.335  30.796  1.00  0.00     0.079 A 
ATOM     31  F   UNL A   1      33.714  36.351  33.010  1.00  0.00    -0.206 F 
ATOM     32  C   UNL A   1      33.019  35.813  29.514  1.00  0.00     0.126 A 
ATOM     33  F   UNL A   1      32.226  36.313  28.559  1.00  0.00    -0.207 F 
ENDBRANCH  25  26
ENDBRANCH   8  20
ENDBRANCH   6   8
ENDBRANCH   5   6
ENDBRANCH   4   5
ENDBRANCH   3   4
ENDBRANCH   2   3
ENDBRANCH   1   2
BRANCH   1  34
ATOM     34  C   UNL A   1      42.839  33.451  41.757  1.00  0.00     0.188 C 
BRANCH  34  35
ATOM     35  O   UNL A   1      42.889  34.758  41.213  1.00  0.00    -0.376 OA
BRANCH  35  36
ATOM     36  C   UNL A   1      42.106  35.786  41.793  1.00  0.00     0.202 C 
BRANCH  36  37
ATOM     37  C   UNL A   1      41.358  36.795  40.899  1.00  0.00     0.261 C 
BRANCH  37  38
ATOM     38  O   UNL A   1      41.800  36.914  39.537  1.00  0.00    -0.460 OA
BRANCH  38  39
ATOM     39  C   UNL A   1      40.831  36.861  38.594  1.00  0.00     0.338 C 
ATOM     40  O   UNL A   1      39.716  37.365  38.646  1.00  0.00    -0.246 OA
BRANCH  39  41
ATOM     41  C   UNL A   1      41.366  36.238  37.363  1.00  0.00     0.060 A 
ATOM     42  C   UNL A   1      40.484  35.982  36.301  1.00  0.00     0.016 A 
ATOM     43  C   UNL A   1      42.705  35.855  37.267  1.00  0.00     0.016 A 
ATOM     44  C   UNL A   1      40.930  35.324  35.156  1.00  0.00     0.010 A 
ATOM     45  C   UNL A   1      43.146  35.168  36.128  1.00  0.00     0.010 A 
ATOM     46  C   UNL A   1      42.255  34.873  35.081  1.00  0.00    -0.014 A 
BRANCH  46  47
ATOM     47  C   UNL A   1      42.642  33.926  34.003  1.00  0.00     0.031 A 
ATOM     48  C   UNL A   1      42.927  34.477  32.633  1.00  0.00     0.074 A 
ATOM     49  C   UNL A   1      42.776  32.608  34.236  1.00  0.00     0.049 A 
ATOM     50  N   UNL A   1      43.262  33.850  31.534  1.00  0.00    -0.248 NA
ATOM     51  C   UNL A   1      42.818  35.937  32.483  1.00  0.00     0.031 C 
ATOM     52  C   UNL A   1      42.556  31.952  35.521  1.00  0.00     0.029 A 
ATOM     53  N   UNL A   1      43.122  31.583  33.389  1.00  0.00    -0.354 N 
ATOM     54  C   UNL A   1      43.394  34.835  30.563  1.00  0.00     0.074 A 
ATOM     55  C   UNL A   1      43.079  36.097  31.195  1.00  0.00     0.031 C 
ATOM     56  C   UNL A   1      42.777  30.633  35.382  1.00  0.00     0.029 A 
ATOM     57  C   UNL A   1      43.101  30.344  33.984  1.00  0.00     0.049 A 
ATOM     58  H   UNL A   1      43.363  31.722  32.444  1.00  0.00     0.167 HD
ATOM     59  C   UNL A   1      43.749  34.699  29.263  1.00  0.00     0.037 A 
ATOM     60  C   UNL A   1      43.289  29.119  33.453  1.00  0.00     0.037 A 
ATOM     61  C   UNL A   1      44.045  33.441  28.629  1.00  0.00     0.049 A 
ATOM     62  C   UNL A   1      43.602  28.989  31.980  1.00  0.00     0.074 A 
ATOM     63  C   UNL A   1      44.425  33.205  27.319  1.00  0.00     0.029 A 
ATOM     64  N   UNL A   1      43.978  32.205  29.255  1.00  0.00    -0.354 N 
ATOM     65  N   UNL A   1      43.758  29.928  31.078  1.00  0.00    -0.248 NA
ATOM     66  C   UNL A   1      43.763  27.625  31.455  1.00  0.00     0.031 C 
ATOM     67  C   UNL A   1      44.524  31.822  27.137  1.00  0.00     0.029 A 
ATOM     68  C   UNL A   1      44.281  31.200  28.352  1.00  0.00     0.049 A 
ATOM     69  H   UNL A   1      43.747  32.064  30.202  1.00  0.00     0.167 HD
ATOM     70  C   UNL A   1      44.072  29.271  29.892  1.00  0.00     0.074 A 
ATOM     71  C   UNL A   1      44.095  27.856  30.192  1.00  0.00     0.031 C 
ATOM     72  C   UNL A   1      44.319  29.794  28.666  1.00  0.00     0.037 A 
BRANCH  59  73
ATOM     73  C   UNL A   1      43.802  35.946  28.427  1.00  0.00     0.064 A 
ATOM     74  C   UNL A   1      42.656  36.477  27.818  1.00  0.00     0.173 A 
ATOM     75  C   UNL A   1      45.013  36.635  28.259  1.00  0.00     0.173 A 
ATOM     76  F   UNL A   1      41.475  35.849  27.937  1.00  0.00    -0.203 F 
ATOM     77  C   UNL A   1      42.724  37.635  27.047  1.00  0.00     0.198 A 
ATOM     78  C   UNL A   1      45.072  37.811  27.516  1.00  0.00     0.198 A 
ATOM     79  F   UNL A   1      46.139  36.174  28.823  1.00  0.00    -0.203 F 
ATOM     80  F   UNL A   1      41.627  38.094  26.431  1.00  0.00    -0.200 F 
ATOM     81  C   UNL A   1      43.930  38.304  26.903  1.00  0.00     0.200 A 
ATOM     82  F   UNL A   1      46.235  38.465  27.390  1.00  0.00    -0.200 F 
ATOM     83  F   UNL A   1      43.994  39.423  26.166  1.00  0.00    -0.200 F 
ENDBRANCH  59  73
BRANCH  60  84
ATOM     84  C   UNL A   1      43.162  27.905  34.306  1.00  0.00     0.064 A 
ATOM     85  C   UNL A   1      41.940  27.229  34.429  1.00  0.00     0.173 A 
ATOM     86  C   UNL A   1      44.248  27.417  35.048  1.00  0.00     0.173 A 
ATOM     87  F   UNL A   1      40.857  27.681  33.783  1.00  0.00    -0.203 F 
ATOM     88  C   UNL A   1      41.805  26.124  35.268  1.00  0.00     0.198 A 
ATOM     89  C   UNL A   1      44.120  26.296  35.865  1.00  0.00     0.198 A 
ATOM     90  F   UNL A   1      45.438  28.032  34.981  1.00  0.00    -0.203 F 
ATOM     91  F   UNL A   1      40.610  25.531  35.402  1.00  0.00    -0.200 F 
ATOM     92  C   UNL A   1      42.896  25.654  35.980  1.00  0.00     0.200 A 
ATOM     93  F   UNL A   1      45.180  25.843  36.548  1.00  0.00    -0.200 F 
ATOM     94  F   UNL A   1      42.765  24.594  36.790  1.00  0.00    -0.200 F 
ENDBRANCH  60  84
BRANCH  72  95
ATOM     95  C   UNL A   1      44.700  28.843  27.563  1.00  0.00     0.064 A 
ATOM     96  C   UNL A   1      46.010  28.366  27.410  1.00  0.00     0.173 A 
ATOM     97  C   UNL A   1      43.722  28.365  26.676  1.00  0.00     0.173 A 
ATOM     98  F   UNL A   1      46.986  28.798  28.223  1.00  0.00    -0.203 F 
ATOM     99  C   UNL A   1      46.333  27.470  26.392  1.00  0.00     0.198 A 
ATOM    100  C   UNL A   1      44.041  27.441  25.683  1.00  0.00     0.198 A 
ATOM    101  F   UNL A   1      42.450  28.778  26.783  1.00  0.00    -0.203 F 
ATOM    102  F   UNL A   1      47.602  27.069  26.233  1.00  0.00    -0.200 F 
ATOM    103  C   UNL A   1      45.347  27.002  25.536  1.00  0.00     0.200 A 
ATOM    104  F   UNL A   1      43.082  26.976  24.870  1.00  0.00    -0.200 F 
ATOM    105  F   UNL A   1      45.657  26.132  24.566  1.00  0.00    -0.200 F 
ENDBRANCH  72  95
ENDBRANCH  46  47
ENDBRANCH  39  41
ENDBRANCH  38  39
ENDBRANCH  37  38
ENDBRANCH  36  37
ENDBRANCH  35  36
ENDBRANCH  34  35
ENDBRANCH   1  34
TORSDOF 21
ENDMDL
MODEL 3
REMARK VINA RESULT:      -8.8      4.916     10.012
REMARK SMILES CS(=O)(=O)c1ccc(/C=C(/C(=O)OCCOCCOCCOC(=O)c2ccc(-c3c4nc(c(-c5c(F)c(F)c(F)c(F)c5F)c5ccc([nH]5)c(-c5c(F)c(F)c(F)c(F)c5F)c5nc(c(-c6c(F)c(F)c(F)c(F)c6F)c6ccc3[nH]6)C=C5)C=C4)cc2)c2ccc(-c3ccc(F)cc3F)cc2)cc1
REMARK SMILES IDX 17 1 16 2 15 3 14 4 13 5 11 6 12 7 10 8 9 9 8 10 5 11 6 12
REMARK SMILES IDX 103 13 7 14 102 15 2 16 1 17 3 18 4 19 88 20 89 21 101 22
REMARK SMILES IDX 90 23 100 24 91 25 92 26 93 27 98 28 94 29 97 30 99 31 95 32
REMARK SMILES IDX 96 33 18 34 19 35 20 36 21 37 22 38 23 39 24 40 25 41 26 42
REMARK SMILES IDX 87 43 27 44 86 45 28 46 29 47 30 48 80 49 31 50 85 51 79 52
REMARK SMILES IDX 81 53 32 54 84 55 78 56 77 57 33 59 65 60 45 61 64 62 46 63
REMARK SMILES IDX 49 64 63 65 82 66 47 67 48 68 62 70 83 71 50 72 34 73 35 74
REMARK SMILES IDX 43 75 36 76 37 77 41 78 44 79 38 80 39 81 42 82 40 83 66 84
REMARK SMILES IDX 67 85 75 86 68 87 69 88 73 89 76 90 70 91 71 92 74 93 72 94
REMARK SMILES IDX 51 95 52 96 60 97 53 98 54 99 58 100 61 101 55 102 56 103
REMARK SMILES IDX 59 104 57 105
REMARK H PARENT 81 58 49 69
REMARK Flexibility Score: inf
ROOT
ATOM      1  C   UNL A   1      47.085  34.972  25.930  1.00  0.00     0.188 C 
ENDROOT
BRANCH   1   2
ATOM      2  O   UNL A   1      46.338  33.788  25.721  1.00  0.00    -0.376 OA
BRANCH   2   3
ATOM      3  C   UNL A   1      46.911  32.614  26.280  1.00  0.00     0.202 C 
BRANCH   3   4
ATOM      4  C   UNL A   1      45.940  31.455  26.565  1.00  0.00     0.261 C 
BRANCH   4   5
ATOM      5  O   UNL A   1      45.943  30.370  25.613  1.00  0.00    -0.460 OA
BRANCH   5   6
ATOM      6  C   UNL A   1      46.606  29.233  25.940  1.00  0.00     0.338 C 
ATOM      7  O   UNL A   1      47.801  29.169  26.184  1.00  0.00    -0.246 OA
BRANCH   6   8
ATOM      8  C   UNL A   1      45.647  28.077  26.114  1.00  0.00     0.067 C 
ATOM      9  C   UNL A   1      46.000  26.830  25.710  1.00  0.00     0.024 C 
BRANCH   9  10
ATOM     10  C   UNL A   1      45.259  25.549  25.870  1.00  0.00    -0.025 A 
ATOM     11  C   UNL A   1      43.576  23.349  26.396  1.00  0.00     0.067 A 
ATOM     12  C   UNL A   1      43.716  23.816  25.092  1.00  0.00     0.021 A 
ATOM     13  C   UNL A   1      44.355  23.893  27.419  1.00  0.00     0.021 A 
ATOM     14  C   UNL A   1      44.583  24.885  24.834  1.00  0.00     0.009 A 
ATOM     15  C   UNL A   1      45.193  24.982  27.152  1.00  0.00     0.009 A 
BRANCH  11  16
ATOM     16  S   UNL A   1      42.373  22.100  26.786  1.00  0.00     0.175 S 
ATOM     17  C   UNL A   1      40.789  22.890  26.654  1.00  0.00     0.163 C 
ATOM     18  O   UNL A   1      42.552  21.760  28.186  1.00  0.00    -0.224 OA
ATOM     19  O   UNL A   1      42.466  21.093  25.750  1.00  0.00    -0.224 OA
ENDBRANCH  11  16
ENDBRANCH   9  10
BRANCH   8  20
ATOM     20  C   UNL A   1      44.319  28.368  26.695  1.00  0.00    -0.011 A 
ATOM     21  C   UNL A   1      43.169  28.077  25.949  1.00  0.00     0.009 A 
ATOM     22  C   UNL A   1      44.168  28.788  28.019  1.00  0.00     0.009 A 
ATOM     23  C   UNL A   1      41.900  28.174  26.520  1.00  0.00     0.009 A 
ATOM     24  C   UNL A   1      42.891  28.870  28.592  1.00  0.00     0.009 A 
ATOM     25  C   UNL A   1      41.734  28.562  27.856  1.00  0.00    -0.015 A 
BRANCH  25  26
ATOM     26  C   UNL A   1      40.385  28.642  28.445  1.00  0.00     0.018 A 
ATOM     27  C   UNL A   1      39.323  29.262  27.757  1.00  0.00     0.015 A 
ATOM     28  C   UNL A   1      40.115  28.132  29.727  1.00  0.00     0.133 A 
ATOM     29  C   UNL A   1      38.056  29.371  28.337  1.00  0.00     0.040 A 
ATOM     30  C   UNL A   1      38.856  28.230  30.308  1.00  0.00     0.079 A 
ATOM     31  F   UNL A   1      41.091  27.550  30.442  1.00  0.00    -0.206 F 
ATOM     32  C   UNL A   1      37.836  28.850  29.605  1.00  0.00     0.126 A 
ATOM     33  F   UNL A   1      36.621  28.947  30.156  1.00  0.00    -0.207 F 
ENDBRANCH  25  26
ENDBRANCH   8  20
ENDBRANCH   6   8
ENDBRANCH   5   6
ENDBRANCH   4   5
ENDBRANCH   3   4
ENDBRANCH   2   3
ENDBRANCH   1   2
BRANCH   1  34
ATOM     34  C   UNL A   1      46.218  36.236  26.108  1.00  0.00     0.188 C 
BRANCH  34  35
ATOM     35  O   UNL A   1      46.746  37.526  25.859  1.00  0.00    -0.376 OA
BRANCH  35  36
ATOM     36  C   UNL A   1      46.587  38.544  26.832  1.00  0.00     0.202 C 
BRANCH  36  37
ATOM     37  C   UNL A   1      45.670  39.751  26.555  1.00  0.00     0.261 C 
BRANCH  37  38
ATOM     38  O   UNL A   1      44.446  39.492  25.848  1.00  0.00    -0.460 OA
BRANCH  38  39
ATOM     39  C   UNL A   1      43.305  39.675  26.553  1.00  0.00     0.338 C 
ATOM     40  O   UNL A   1      42.536  40.626  26.488  1.00  0.00    -0.246 OA
BRANCH  39  41
ATOM     41  C   UNL A   1      42.992  38.450  27.322  1.00  0.00     0.060 A 
ATOM     42  C   UNL A   1      43.133  38.480  28.718  1.00  0.00     0.016 A 
ATOM     43  C   UNL A   1      42.619  37.267  26.683  1.00  0.00     0.016 A 
ATOM     44  C   UNL A   1      42.927  37.326  29.474  1.00  0.00     0.010 A 
ATOM     45  C   UNL A   1      42.441  36.101  27.439  1.00  0.00     0.010 A 
ATOM     46  C   UNL A   1      42.622  36.117  28.833  1.00  0.00    -0.014 A 
BRANCH  46  47
ATOM     47  C   UNL A   1      42.696  34.848  29.602  1.00  0.00     0.031 A 
ATOM     48  C   UNL A   1      41.429  34.298  30.199  1.00  0.00     0.074 A 
ATOM     49  C   UNL A   1      43.849  34.171  29.740  1.00  0.00     0.049 A 
ATOM     50  N   UNL A   1      41.246  33.222  30.922  1.00  0.00    -0.248 NA
ATOM     51  C   UNL A   1      40.201  35.069  29.946  1.00  0.00     0.031 C 
ATOM     52  C   UNL A   1      45.137  34.580  29.189  1.00  0.00     0.029 A 
ATOM     53  N   UNL A   1      44.122  32.996  30.397  1.00  0.00    -0.354 N 
ATOM     54  C   UNL A   1      39.888  33.193  31.217  1.00  0.00     0.074 A 
ATOM     55  C   UNL A   1      39.299  34.370  30.617  1.00  0.00     0.031 C 
ATOM     56  C   UNL A   1      46.067  33.668  29.526  1.00  0.00     0.029 A 
ATOM     57  C   UNL A   1      45.449  32.640  30.363  1.00  0.00     0.049 A 
ATOM     58  H   UNL A   1      43.432  32.459  30.851  1.00  0.00     0.167 HD
ATOM     59  C   UNL A   1      39.195  32.267  31.921  1.00  0.00     0.037 A 
ATOM     60  C   UNL A   1      46.093  31.619  30.967  1.00  0.00     0.037 A 
ATOM     61  C   UNL A   1      39.784  31.105  32.534  1.00  0.00     0.049 A 
ATOM     62  C   UNL A   1      45.308  30.646  31.817  1.00  0.00     0.074 A 
ATOM     63  C   UNL A   1      39.161  30.104  33.259  1.00  0.00     0.029 A 
ATOM     64  N   UNL A   1      41.136  30.797  32.508  1.00  0.00    -0.354 N 
ATOM     65  N   UNL A   1      44.021  30.607  32.062  1.00  0.00    -0.248 NA
ATOM     66  C   UNL A   1      46.073  29.576  32.475  1.00  0.00     0.031 C 
ATOM     67  C   UNL A   1      40.144  29.226  33.726  1.00  0.00     0.029 A 
ATOM     68  C   UNL A   1      41.370  29.637  33.228  1.00  0.00     0.049 A 
ATOM     69  H   UNL A   1      41.827  31.326  32.047  1.00  0.00     0.167 HD
ATOM     70  C   UNL A   1      43.817  29.492  32.868  1.00  0.00     0.074 A 
ATOM     71  C   UNL A   1      45.112  28.875  33.061  1.00  0.00     0.031 C 
ATOM     72  C   UNL A   1      42.662  29.021  33.399  1.00  0.00     0.037 A 
BRANCH  59  73
ATOM     73  C   UNL A   1      37.720  32.493  32.098  1.00  0.00     0.064 A 
ATOM     74  C   UNL A   1      36.805  32.244  31.064  1.00  0.00     0.173 A 
ATOM     75  C   UNL A   1      37.215  32.937  33.329  1.00  0.00     0.173 A 
ATOM     76  F   UNL A   1      37.238  31.832  29.863  1.00  0.00    -0.203 F 
ATOM     77  C   UNL A   1      35.441  32.459  31.248  1.00  0.00     0.198 A 
ATOM     78  C   UNL A   1      35.848  33.119  33.519  1.00  0.00     0.198 A 
ATOM     79  F   UNL A   1      38.045  33.186  34.352  1.00  0.00    -0.203 F 
ATOM     80  F   UNL A   1      34.591  32.266  30.230  1.00  0.00    -0.200 F 
ATOM     81  C   UNL A   1      34.964  32.889  32.476  1.00  0.00     0.200 A 
ATOM     82  F   UNL A   1      35.387  33.519  34.713  1.00  0.00    -0.200 F 
ATOM     83  F   UNL A   1      33.650  33.089  32.654  1.00  0.00    -0.200 F 
ENDBRANCH  59  73
BRANCH  60  84
ATOM     84  C   UNL A   1      47.567  31.471  30.818  1.00  0.00     0.064 A 
ATOM     85  C   UNL A   1      48.455  32.227  31.595  1.00  0.00     0.173 A 
ATOM     86  C   UNL A   1      48.120  30.599  29.868  1.00  0.00     0.173 A 
ATOM     87  F   UNL A   1      47.981  33.112  32.482  1.00  0.00    -0.203 F 
ATOM     88  C   UNL A   1      49.834  32.129  31.420  1.00  0.00     0.198 A 
ATOM     89  C   UNL A   1      49.500  30.481  29.712  1.00  0.00     0.198 A 
ATOM     90  F   UNL A   1      47.318  29.861  29.086  1.00  0.00    -0.203 F 
ATOM     91  F   UNL A   1      50.655  32.903  32.145  1.00  0.00    -0.200 F 
ATOM     92  C   UNL A   1      50.356  31.251  30.484  1.00  0.00     0.200 A 
ATOM     93  F   UNL A   1      49.999  29.627  28.808  1.00  0.00    -0.200 F 
ATOM     94  F   UNL A   1      51.682  31.160  30.313  1.00  0.00    -0.200 F 
ENDBRANCH  60  84
BRANCH  72  95
ATOM     95  C   UNL A   1      42.726  27.742  34.190  1.00  0.00     0.064 A 
ATOM     96  C   UNL A   1      43.057  26.515  33.596  1.00  0.00     0.173 A 
ATOM     97  C   UNL A   1      42.498  27.757  35.576  1.00  0.00     0.173 A 
ATOM     98  F   UNL A   1      43.274  26.440  32.274  1.00  0.00    -0.203 F 
ATOM     99  C   UNL A   1      43.129  25.348  34.354  1.00  0.00     0.198 A 
ATOM    100  C   UNL A   1      42.606  26.596  36.336  1.00  0.00     0.198 A 
ATOM    101  F   UNL A   1      42.189  28.905  36.198  1.00  0.00    -0.203 F 
ATOM    102  F   UNL A   1      43.396  24.178  33.756  1.00  0.00    -0.200 F 
ATOM    103  C   UNL A   1      42.913  25.390  35.724  1.00  0.00     0.200 A 
ATOM    104  F   UNL A   1      42.416  26.645  37.662  1.00  0.00    -0.200 F 
ATOM    105  F   UNL A   1      42.994  24.269  36.453  1.00  0.00    -0.200 F 
ENDBRANCH  72  95
ENDBRANCH  46  47
ENDBRANCH  39  41
ENDBRANCH  38  39
ENDBRANCH  37  38
ENDBRANCH  36  37
ENDBRANCH  35  36
ENDBRANCH  34  35
ENDBRANCH   1  34
TORSDOF 21
ENDMDL
