MODEL 1
REMARK VINA RESULT:     -11.4      0.000      0.000
REMARK SMILES O=C(OCCOCCOCCOC(=O)[C@H]1CC(=O)N(CCc2ccc3c(c2)OCO3)C1)c1ccc(-c2c3nc(c(-c4c(F)c(F)c(F)c(F)c4F)c4ccc([nH]4)c(-c4c(F)c(F)c(F)c(F)c4F)c4nc(c(-c5c(F)c(F)c(F)c(F)c5F)c5ccc2[nH]5)C=C4)C=C3)cc1
REMARK SMILES IDX 8 1 7 2 6 3 5 4 4 5 3 6 2 7 1 8 32 9 33 10 94 11 34 12 93 13
REMARK SMILES IDX 35 14 36 15 37 16 87 17 38 18 92 19 86 20 88 21 39 22 91 23
REMARK SMILES IDX 85 24 84 25 40 27 72 28 52 29 71 30 53 31 56 32 70 33 89 34
REMARK SMILES IDX 54 35 55 36 69 38 90 39 57 40 41 41 42 42 50 43 43 44 44 45
REMARK SMILES IDX 48 46 51 47 45 48 46 49 49 50 47 51 73 52 74 53 82 54 75 55
REMARK SMILES IDX 76 56 80 57 83 58 77 59 78 60 81 61 79 62 58 63 59 64 67 65
REMARK SMILES IDX 60 66 61 67 65 68 68 69 62 70 63 71 66 72 64 73 9 74 10 75
REMARK SMILES IDX 11 76 12 77 13 78 14 79 15 80 16 81 31 82 17 83 19 84 18 85
REMARK SMILES IDX 20 86 21 87 22 88 23 89 27 90 24 91 26 92 25 93 28 94 30 95
REMARK SMILES IDX 29 96
REMARK H PARENT 88 26 56 37
REMARK Flexibility Score: inf
ROOT
ATOM      1  C   UNL A   1      31.951  27.324  22.379  1.00  0.00     0.188 C 
ENDROOT
BRANCH   1   2
ATOM      2  C   UNL A   1      33.025  27.874  23.315  1.00  0.00     0.188 C 
BRANCH   2   3
ATOM      3  O   UNL A   1      32.745  29.199  23.785  1.00  0.00    -0.376 OA
BRANCH   3   4
ATOM      4  C   UNL A   1      32.842  29.310  25.209  1.00  0.00     0.202 C 
BRANCH   4   5
ATOM      5  C   UNL A   1      31.904  30.379  25.790  1.00  0.00     0.261 C 
BRANCH   5   6
ATOM      6  O   UNL A   1      32.280  30.802  27.114  1.00  0.00    -0.460 OA
BRANCH   6   7
ATOM      7  C   UNL A   1      33.304  31.606  27.494  1.00  0.00     0.338 C 
ATOM      8  O   UNL A   1      33.066  32.802  27.660  1.00  0.00    -0.246 OA
BRANCH   7   9
ATOM      9  C   UNL A   1      34.690  31.127  27.815  1.00  0.00     0.060 A 
ATOM     10  C   UNL A   1      35.097  29.799  27.956  1.00  0.00     0.016 A 
ATOM     11  C   UNL A   1      35.672  32.128  27.971  1.00  0.00     0.016 A 
ATOM     12  C   UNL A   1      36.396  29.479  28.356  1.00  0.00     0.010 A 
ATOM     13  C   UNL A   1      36.981  31.817  28.356  1.00  0.00     0.010 A 
ATOM     14  C   UNL A   1      37.326  30.490  28.611  1.00  0.00    -0.014 A 
BRANCH  14  15
ATOM     15  C   UNL A   1      38.548  30.132  29.361  1.00  0.00     0.031 A 
ATOM     16  C   UNL A   1      38.600  30.464  30.814  1.00  0.00     0.074 A 
ATOM     17  C   UNL A   1      39.558  29.467  28.779  1.00  0.00     0.049 A 
ATOM     18  N   UNL A   1      39.505  30.151  31.700  1.00  0.00    -0.248 NA
ATOM     19  C   UNL A   1      37.509  31.306  31.330  1.00  0.00     0.031 C 
ATOM     20  C   UNL A   1      39.652  29.218  27.353  1.00  0.00     0.029 A 
ATOM     21  N   UNL A   1      40.666  28.849  29.301  1.00  0.00    -0.354 N 
ATOM     22  C   UNL A   1      39.154  30.846  32.845  1.00  0.00     0.074 A 
ATOM     23  C   UNL A   1      37.918  31.541  32.566  1.00  0.00     0.031 C 
ATOM     24  C   UNL A   1      40.694  28.405  27.121  1.00  0.00     0.029 A 
ATOM     25  C   UNL A   1      41.309  28.044  28.386  1.00  0.00     0.049 A 
ATOM     26  H   UNL A   1      40.970  28.967  30.230  1.00  0.00     0.167 HD
ATOM     27  C   UNL A   1      39.856  30.940  33.998  1.00  0.00     0.037 A 
ATOM     28  C   UNL A   1      42.228  27.079  28.584  1.00  0.00     0.037 A 
ATOM     29  C   UNL A   1      41.084  30.230  34.235  1.00  0.00     0.049 A 
ATOM     30  C   UNL A   1      42.821  26.976  29.960  1.00  0.00     0.074 A 
ATOM     31  C   UNL A   1      41.922  30.279  35.332  1.00  0.00     0.029 A 
ATOM     32  N   UNL A   1      41.645  29.323  33.343  1.00  0.00    -0.354 N 
ATOM     33  N   UNL A   1      42.503  27.644  31.042  1.00  0.00    -0.248 NA
ATOM     34  C   UNL A   1      43.943  26.043  30.131  1.00  0.00     0.031 C 
ATOM     35  C   UNL A   1      43.003  29.420  35.094  1.00  0.00     0.029 A 
ATOM     36  C   UNL A   1      42.812  28.798  33.868  1.00  0.00     0.049 A 
ATOM     37  H   UNL A   1      41.266  29.090  32.465  1.00  0.00     0.167 HD
ATOM     38  C   UNL A   1      43.424  27.267  32.003  1.00  0.00     0.074 A 
ATOM     39  C   UNL A   1      44.245  26.229  31.408  1.00  0.00     0.031 C 
ATOM     40  C   UNL A   1      43.618  27.782  33.241  1.00  0.00     0.037 A 
BRANCH  27  41
ATOM     41  C   UNL A   1      39.361  31.940  34.999  1.00  0.00     0.064 A 
ATOM     42  C   UNL A   1      39.717  33.295  34.949  1.00  0.00     0.173 A 
ATOM     43  C   UNL A   1      38.585  31.505  36.086  1.00  0.00     0.173 A 
ATOM     44  F   UNL A   1      40.491  33.752  33.952  1.00  0.00    -0.203 F 
ATOM     45  C   UNL A   1      39.352  34.169  35.969  1.00  0.00     0.198 A 
ATOM     46  C   UNL A   1      38.194  32.388  37.088  1.00  0.00     0.198 A 
ATOM     47  F   UNL A   1      38.229  30.217  36.191  1.00  0.00    -0.203 F 
ATOM     48  F   UNL A   1      39.773  35.441  35.943  1.00  0.00    -0.200 F 
ATOM     49  C   UNL A   1      38.590  33.715  37.037  1.00  0.00     0.200 A 
ATOM     50  F   UNL A   1      37.458  31.948  38.117  1.00  0.00    -0.200 F 
ATOM     51  F   UNL A   1      38.254  34.554  38.027  1.00  0.00    -0.200 F 
ENDBRANCH  27  41
BRANCH  28  52
ATOM     52  C   UNL A   1      42.567  26.083  27.524  1.00  0.00     0.064 A 
ATOM     53  C   UNL A   1      41.792  24.914  27.397  1.00  0.00     0.173 A 
ATOM     54  C   UNL A   1      43.620  26.250  26.616  1.00  0.00     0.173 A 
ATOM     55  F   UNL A   1      40.774  24.691  28.242  1.00  0.00    -0.203 F 
ATOM     56  C   UNL A   1      42.064  23.958  26.418  1.00  0.00     0.198 A 
ATOM     57  C   UNL A   1      43.866  25.312  25.611  1.00  0.00     0.198 A 
ATOM     58  F   UNL A   1      44.401  27.337  26.685  1.00  0.00    -0.203 F 
ATOM     59  F   UNL A   1      41.328  22.841  26.351  1.00  0.00    -0.200 F 
ATOM     60  C   UNL A   1      43.095  24.164  25.518  1.00  0.00     0.200 A 
ATOM     61  F   UNL A   1      44.847  25.527  24.724  1.00  0.00    -0.200 F 
ATOM     62  F   UNL A   1      43.341  23.261  24.558  1.00  0.00    -0.200 F 
ENDBRANCH  28  52
BRANCH  40  63
ATOM     63  C   UNL A   1      44.800  27.261  33.996  1.00  0.00     0.064 A 
ATOM     64  C   UNL A   1      46.059  27.868  33.874  1.00  0.00     0.173 A 
ATOM     65  C   UNL A   1      44.671  26.164  34.857  1.00  0.00     0.173 A 
ATOM     66  F   UNL A   1      46.230  28.911  33.048  1.00  0.00    -0.203 F 
ATOM     67  C   UNL A   1      47.158  27.372  34.567  1.00  0.00     0.198 A 
ATOM     68  C   UNL A   1      45.768  25.688  35.567  1.00  0.00     0.198 A 
ATOM     69  F   UNL A   1      43.485  25.555  35.004  1.00  0.00    -0.203 F 
ATOM     70  F   UNL A   1      48.364  27.933  34.397  1.00  0.00    -0.200 F 
ATOM     71  C   UNL A   1      47.010  26.286  35.416  1.00  0.00     0.200 A 
ATOM     72  F   UNL A   1      45.624  24.642  36.394  1.00  0.00    -0.200 F 
ATOM     73  F   UNL A   1      48.070  25.808  36.081  1.00  0.00    -0.200 F 
ENDBRANCH  40  63
ENDBRANCH  14  15
ENDBRANCH   7   9
ENDBRANCH   6   7
ENDBRANCH   5   6
ENDBRANCH   4   5
ENDBRANCH   3   4
ENDBRANCH   2   3
ENDBRANCH   1   2
BRANCH   1  74
ATOM     74  O   UNL A   1      30.661  27.843  22.694  1.00  0.00    -0.376 OA
BRANCH  74  75
ATOM     75  C   UNL A   1      30.176  27.407  23.967  1.00  0.00     0.202 C 
BRANCH  75  76
ATOM     76  C   UNL A   1      29.652  25.964  23.976  1.00  0.00     0.261 C 
BRANCH  76  77
ATOM     77  O   UNL A   1      30.483  24.997  24.652  1.00  0.00    -0.463 OA
BRANCH  77  78
ATOM     78  C   UNL A   1      30.377  24.947  26.000  1.00  0.00     0.311 C 
ATOM     79  O   UNL A   1      29.402  25.322  26.639  1.00  0.00    -0.252 OA
BRANCH  78  80
ATOM     80  C   UNL A   1      31.675  24.602  26.658  1.00  0.00     0.128 C 
ATOM     81  C   UNL A   1      31.913  23.243  27.293  1.00  0.00     0.117 C 
ATOM     82  C   UNL A   1      32.688  24.628  25.540  1.00  0.00     0.135 C 
ATOM     83  C   UNL A   1      33.421  23.121  27.141  1.00  0.00     0.223 C 
ATOM     84  N   UNL A   1      33.799  23.896  26.054  1.00  0.00    -0.341 N 
ATOM     85  O   UNL A   1      34.152  22.452  27.852  1.00  0.00    -0.275 OA
BRANCH  84  86
ATOM     86  C   UNL A   1      35.117  23.996  25.446  1.00  0.00     0.124 C 
BRANCH  86  87
ATOM     87  C   UNL A   1      35.410  22.928  24.369  1.00  0.00     0.057 C 
BRANCH  87  88
ATOM     88  C   UNL A   1      34.457  21.768  24.162  1.00  0.00    -0.042 A 
ATOM     89  C   UNL A   1      33.283  21.868  23.389  1.00  0.00     0.008 A 
ATOM     90  C   UNL A   1      34.764  20.537  24.776  1.00  0.00     0.054 A 
ATOM     91  C   UNL A   1      32.351  20.826  23.350  1.00  0.00     0.051 A 
ATOM     92  C   UNL A   1      33.852  19.508  24.679  1.00  0.00     0.166 A 
ATOM     93  C   UNL A   1      32.664  19.660  24.009  1.00  0.00     0.165 A 
ATOM     94  O   UNL A   1      33.985  18.270  25.225  1.00  0.00    -0.454 OA
ATOM     95  O   UNL A   1      31.883  18.550  24.076  1.00  0.00    -0.454 OA
ATOM     96  C   UNL A   1      32.761  17.647  24.780  1.00  0.00     0.468 C 
ENDBRANCH  87  88
ENDBRANCH  86  87
ENDBRANCH  84  86
ENDBRANCH  78  80
ENDBRANCH  77  78
ENDBRANCH  76  77
ENDBRANCH  75  76
ENDBRANCH  74  75
ENDBRANCH   1  74
TORSDOF 20
ENDMDL
MODEL 2
REMARK VINA RESULT:     -11.3      1.127      2.107
REMARK SMILES O=C(OCCOCCOCCOC(=O)[C@H]1CC(=O)N(CCc2ccc3c(c2)OCO3)C1)c1ccc(-c2c3nc(c(-c4c(F)c(F)c(F)c(F)c4F)c4ccc([nH]4)c(-c4c(F)c(F)c(F)c(F)c4F)c4nc(c(-c5c(F)c(F)c(F)c(F)c5F)c5ccc2[nH]5)C=C4)C=C3)cc1
REMARK SMILES IDX 8 1 7 2 6 3 5 4 4 5 3 6 2 7 1 8 32 9 33 10 94 11 34 12 93 13
REMARK SMILES IDX 35 14 36 15 37 16 87 17 38 18 92 19 86 20 88 21 39 22 91 23
REMARK SMILES IDX 85 24 84 25 40 27 72 28 52 29 71 30 53 31 56 32 70 33 89 34
REMARK SMILES IDX 54 35 55 36 69 38 90 39 57 40 41 41 42 42 50 43 43 44 44 45
REMARK SMILES IDX 48 46 51 47 45 48 46 49 49 50 47 51 73 52 74 53 82 54 75 55
REMARK SMILES IDX 76 56 80 57 83 58 77 59 78 60 81 61 79 62 58 63 59 64 67 65
REMARK SMILES IDX 60 66 61 67 65 68 68 69 62 70 63 71 66 72 64 73 9 74 10 75
REMARK SMILES IDX 11 76 12 77 13 78 14 79 15 80 16 81 31 82 17 83 19 84 18 85
REMARK SMILES IDX 20 86 21 87 22 88 23 89 27 90 24 91 26 92 25 93 28 94 30 95
REMARK SMILES IDX 29 96
REMARK H PARENT 88 26 56 37
REMARK Flexibility Score: inf
ROOT
ATOM      1  C   UNL A   1      31.901  27.993  23.070  1.00  0.00     0.188 C 
ENDROOT
BRANCH   1   2
ATOM      2  C   UNL A   1      33.209  27.846  23.844  1.00  0.00     0.188 C 
BRANCH   2   3
ATOM      3  O   UNL A   1      33.179  28.470  25.135  1.00  0.00    -0.376 OA
BRANCH   3   4
ATOM      4  C   UNL A   1      32.900  29.871  25.062  1.00  0.00     0.202 C 
BRANCH   4   5
ATOM      5  C   UNL A   1      31.765  30.303  26.005  1.00  0.00     0.261 C 
BRANCH   5   6
ATOM      6  O   UNL A   1      32.238  30.780  27.278  1.00  0.00    -0.460 OA
BRANCH   6   7
ATOM      7  C   UNL A   1      33.293  31.590  27.547  1.00  0.00     0.338 C 
ATOM      8  O   UNL A   1      33.087  32.802  27.608  1.00  0.00    -0.246 OA
BRANCH   7   9
ATOM      9  C   UNL A   1      34.678  31.107  27.864  1.00  0.00     0.060 A 
ATOM     10  C   UNL A   1      35.075  29.780  28.036  1.00  0.00     0.016 A 
ATOM     11  C   UNL A   1      35.670  32.104  27.983  1.00  0.00     0.016 A 
ATOM     12  C   UNL A   1      36.376  29.460  28.430  1.00  0.00     0.010 A 
ATOM     13  C   UNL A   1      36.980  31.791  28.361  1.00  0.00     0.010 A 
ATOM     14  C   UNL A   1      37.317  30.469  28.648  1.00  0.00    -0.014 A 
BRANCH  14  15
ATOM     15  C   UNL A   1      38.545  30.119  29.393  1.00  0.00     0.031 A 
ATOM     16  C   UNL A   1      38.601  30.456  30.845  1.00  0.00     0.074 A 
ATOM     17  C   UNL A   1      39.556  29.459  28.807  1.00  0.00     0.049 A 
ATOM     18  N   UNL A   1      39.512  30.150  31.728  1.00  0.00    -0.248 NA
ATOM     19  C   UNL A   1      37.508  31.293  31.364  1.00  0.00     0.031 C 
ATOM     20  C   UNL A   1      39.646  29.207  27.383  1.00  0.00     0.029 A 
ATOM     21  N   UNL A   1      40.670  28.849  29.327  1.00  0.00    -0.354 N 
ATOM     22  C   UNL A   1      39.163  30.847  32.872  1.00  0.00     0.074 A 
ATOM     23  C   UNL A   1      37.920  31.533  32.597  1.00  0.00     0.031 C 
ATOM     24  C   UNL A   1      40.691  28.400  27.148  1.00  0.00     0.029 A 
ATOM     25  C   UNL A   1      41.313  28.046  28.410  1.00  0.00     0.049 A 
ATOM     26  H   UNL A   1      40.978  28.972  30.254  1.00  0.00     0.167 HD
ATOM     27  C   UNL A   1      39.869  30.948  34.022  1.00  0.00     0.037 A 
ATOM     28  C   UNL A   1      42.239  27.086  28.607  1.00  0.00     0.037 A 
ATOM     29  C   UNL A   1      41.102  30.246  34.255  1.00  0.00     0.049 A 
ATOM     30  C   UNL A   1      42.840  26.991  29.981  1.00  0.00     0.074 A 
ATOM     31  C   UNL A   1      41.945  30.303  35.348  1.00  0.00     0.029 A 
ATOM     32  N   UNL A   1      41.664  29.340  33.363  1.00  0.00    -0.354 N 
ATOM     33  N   UNL A   1      42.522  27.659  31.063  1.00  0.00    -0.248 NA
ATOM     34  C   UNL A   1      43.967  26.065  30.149  1.00  0.00     0.031 C 
ATOM     35  C   UNL A   1      43.029  29.449  35.107  1.00  0.00     0.029 A 
ATOM     36  C   UNL A   1      42.837  28.823  33.884  1.00  0.00     0.049 A 
ATOM     37  H   UNL A   1      41.283  29.102  32.487  1.00  0.00     0.167 HD
ATOM     38  C   UNL A   1      43.450  27.291  32.020  1.00  0.00     0.074 A 
ATOM     39  C   UNL A   1      44.274  26.257  31.424  1.00  0.00     0.031 C 
ATOM     40  C   UNL A   1      43.646  27.810  33.256  1.00  0.00     0.037 A 
BRANCH  27  41
ATOM     41  C   UNL A   1      39.372  31.947  35.022  1.00  0.00     0.064 A 
ATOM     42  C   UNL A   1      39.732  33.301  34.976  1.00  0.00     0.173 A 
ATOM     43  C   UNL A   1      38.591  31.513  36.105  1.00  0.00     0.173 A 
ATOM     44  F   UNL A   1      40.511  33.758  33.983  1.00  0.00    -0.203 F 
ATOM     45  C   UNL A   1      39.365  34.175  35.996  1.00  0.00     0.198 A 
ATOM     46  C   UNL A   1      38.198  32.395  37.107  1.00  0.00     0.198 A 
ATOM     47  F   UNL A   1      38.231  30.225  36.207  1.00  0.00    -0.203 F 
ATOM     48  F   UNL A   1      39.790  35.446  35.973  1.00  0.00    -0.200 F 
ATOM     49  C   UNL A   1      38.597  33.721  37.060  1.00  0.00     0.200 A 
ATOM     50  F   UNL A   1      37.456  31.955  38.133  1.00  0.00    -0.200 F 
ATOM     51  F   UNL A   1      38.260  34.559  38.051  1.00  0.00    -0.200 F 
ENDBRANCH  27  41
BRANCH  28  52
ATOM     52  C   UNL A   1      42.579  26.090  27.548  1.00  0.00     0.064 A 
ATOM     53  C   UNL A   1      41.827  24.905  27.443  1.00  0.00     0.173 A 
ATOM     54  C   UNL A   1      43.613  26.272  26.621  1.00  0.00     0.173 A 
ATOM     55  F   UNL A   1      40.829  24.667  28.307  1.00  0.00    -0.203 F 
ATOM     56  C   UNL A   1      42.100  23.948  26.466  1.00  0.00     0.198 A 
ATOM     57  C   UNL A   1      43.860  25.332  25.618  1.00  0.00     0.198 A 
ATOM     58  F   UNL A   1      44.373  27.374  26.668  1.00  0.00    -0.203 F 
ATOM     59  F   UNL A   1      41.385  22.815  26.420  1.00  0.00    -0.200 F 
ATOM     60  C   UNL A   1      43.111  24.168  25.546  1.00  0.00     0.200 A 
ATOM     61  F   UNL A   1      44.821  25.560  24.711  1.00  0.00    -0.200 F 
ATOM     62  F   UNL A   1      43.358  23.263  24.589  1.00  0.00    -0.200 F 
ENDBRANCH  28  52
BRANCH  40  63
ATOM     63  C   UNL A   1      44.834  27.298  34.007  1.00  0.00     0.064 A 
ATOM     64  C   UNL A   1      44.726  26.187  34.858  1.00  0.00     0.173 A 
ATOM     65  C   UNL A   1      46.088  27.905  33.861  1.00  0.00     0.173 A 
ATOM     66  F   UNL A   1      43.541  25.585  35.038  1.00  0.00    -0.203 F 
ATOM     67  C   UNL A   1      45.830  25.722  35.564  1.00  0.00     0.198 A 
ATOM     68  C   UNL A   1      47.194  27.420  34.551  1.00  0.00     0.198 A 
ATOM     69  F   UNL A   1      46.236  28.967  33.057  1.00  0.00    -0.203 F 
ATOM     70  F   UNL A   1      45.695  24.693  36.413  1.00  0.00    -0.200 F 
ATOM     71  C   UNL A   1      47.063  26.335  35.406  1.00  0.00     0.200 A 
ATOM     72  F   UNL A   1      48.389  28.007  34.393  1.00  0.00    -0.200 F 
ATOM     73  F   UNL A   1      48.126  25.887  36.088  1.00  0.00    -0.200 F 
ENDBRANCH  40  63
ENDBRANCH  14  15
ENDBRANCH   7   9
ENDBRANCH   6   7
ENDBRANCH   5   6
ENDBRANCH   4   5
ENDBRANCH   3   4
ENDBRANCH   2   3
ENDBRANCH   1   2
BRANCH   1  74
ATOM     74  O   UNL A   1      30.805  27.410  23.772  1.00  0.00    -0.376 OA
BRANCH  74  75
ATOM     75  C   UNL A   1      30.944  26.000  23.959  1.00  0.00     0.202 C 
BRANCH  75  76
ATOM     76  C   UNL A   1      30.976  25.195  22.652  1.00  0.00     0.261 C 
BRANCH  76  77
ATOM     77  O   UNL A   1      31.982  24.164  22.571  1.00  0.00    -0.463 OA
BRANCH  77  78
ATOM     78  C   UNL A   1      33.259  24.579  22.407  1.00  0.00     0.311 C 
ATOM     79  O   UNL A   1      33.644  25.322  21.513  1.00  0.00    -0.252 OA
BRANCH  78  80
ATOM     80  C   UNL A   1      34.213  23.845  23.296  1.00  0.00     0.128 C 
ATOM     81  C   UNL A   1      34.951  24.543  24.426  1.00  0.00     0.117 C 
ATOM     82  C   UNL A   1      33.355  22.843  24.029  1.00  0.00     0.135 C 
ATOM     83  C   UNL A   1      35.153  23.384  25.388  1.00  0.00     0.223 C 
ATOM     84  N   UNL A   1      34.145  22.460  25.154  1.00  0.00    -0.341 N 
ATOM     85  O   UNL A   1      36.044  23.299  26.217  1.00  0.00    -0.275 OA
BRANCH  84  86
ATOM     86  C   UNL A   1      33.849  21.251  25.909  1.00  0.00     0.124 C 
BRANCH  86  87
ATOM     87  C   UNL A   1      32.995  20.214  25.147  1.00  0.00     0.057 C 
BRANCH  87  88
ATOM     88  C   UNL A   1      33.376  18.747  25.163  1.00  0.00    -0.042 A 
ATOM     89  C   UNL A   1      34.596  18.266  24.644  1.00  0.00     0.008 A 
ATOM     90  C   UNL A   1      32.464  17.829  25.719  1.00  0.00     0.054 A 
ATOM     91  C   UNL A   1      34.844  16.895  24.533  1.00  0.00     0.051 A 
ATOM     92  C   UNL A   1      32.757  16.484  25.643  1.00  0.00     0.166 A 
ATOM     93  C   UNL A   1      33.902  16.028  25.039  1.00  0.00     0.165 A 
ATOM     94  O   UNL A   1      31.981  15.470  26.112  1.00  0.00    -0.454 OA
ATOM     95  O   UNL A   1      33.977  14.672  25.020  1.00  0.00    -0.454 OA
ATOM     96  C   UNL A   1      32.795  14.328  25.772  1.00  0.00     0.468 C 
ENDBRANCH  87  88
ENDBRANCH  86  87
ENDBRANCH  84  86
ENDBRANCH  78  80
ENDBRANCH  77  78
ENDBRANCH  76  77
ENDBRANCH  75  76
ENDBRANCH  74  75
ENDBRANCH   1  74
TORSDOF 20
ENDMDL
MODEL 3
REMARK VINA RESULT:     -11.3      0.973      7.303
REMARK SMILES O=C(OCCOCCOCCOC(=O)[C@H]1CC(=O)N(CCc2ccc3c(c2)OCO3)C1)c1ccc(-c2c3nc(c(-c4c(F)c(F)c(F)c(F)c4F)c4ccc([nH]4)c(-c4c(F)c(F)c(F)c(F)c4F)c4nc(c(-c5c(F)c(F)c(F)c(F)c5F)c5ccc2[nH]5)C=C4)C=C3)cc1
REMARK SMILES IDX 8 1 7 2 6 3 5 4 4 5 3 6 2 7 1 8 32 9 33 10 94 11 34 12 93 13
REMARK SMILES IDX 35 14 36 15 37 16 87 17 38 18 92 19 86 20 88 21 39 22 91 23
REMARK SMILES IDX 85 24 84 25 40 27 72 28 52 29 71 30 53 31 56 32 70 33 89 34
REMARK SMILES IDX 54 35 55 36 69 38 90 39 57 40 41 41 42 42 50 43 43 44 44 45
REMARK SMILES IDX 48 46 51 47 45 48 46 49 49 50 47 51 73 52 74 53 82 54 75 55
REMARK SMILES IDX 76 56 80 57 83 58 77 59 78 60 81 61 79 62 58 63 59 64 67 65
REMARK SMILES IDX 60 66 61 67 65 68 68 69 62 70 63 71 66 72 64 73 9 74 10 75
REMARK SMILES IDX 11 76 12 77 13 78 14 79 15 80 16 81 31 82 17 83 19 84 18 85
REMARK SMILES IDX 20 86 21 87 22 88 23 89 27 90 24 91 26 92 25 93 28 94 30 95
REMARK SMILES IDX 29 96
REMARK H PARENT 88 26 56 37
REMARK Flexibility Score: inf
ROOT
ATOM      1  C   UNL A   1      33.617  28.900  23.267  1.00  0.00     0.188 C 
ENDROOT
BRANCH   1   2
ATOM      2  C   UNL A   1      33.252  28.778  24.745  1.00  0.00     0.188 C 
BRANCH   2   3
ATOM      3  O   UNL A   1      33.061  30.043  25.391  1.00  0.00    -0.376 OA
BRANCH   3   4
ATOM      4  C   UNL A   1      31.701  30.263  25.780  1.00  0.00     0.202 C 
BRANCH   4   5
ATOM      5  C   UNL A   1      31.547  31.413  26.788  1.00  0.00     0.261 C 
BRANCH   5   6
ATOM      6  O   UNL A   1      32.586  32.404  26.678  1.00  0.00    -0.460 OA
BRANCH   6   7
ATOM      7  C   UNL A   1      33.469  32.821  27.618  1.00  0.00     0.338 C 
ATOM      8  O   UNL A   1      33.234  33.881  28.198  1.00  0.00    -0.246 OA
BRANCH   7   9
ATOM      9  C   UNL A   1      34.668  32.039  28.068  1.00  0.00     0.060 A 
ATOM     10  C   UNL A   1      34.724  30.663  28.295  1.00  0.00     0.016 A 
ATOM     11  C   UNL A   1      35.854  32.779  28.263  1.00  0.00     0.016 A 
ATOM     12  C   UNL A   1      35.874  30.060  28.811  1.00  0.00     0.010 A 
ATOM     13  C   UNL A   1      37.016  32.181  28.763  1.00  0.00     0.010 A 
ATOM     14  C   UNL A   1      37.005  30.828  29.099  1.00  0.00    -0.014 A 
BRANCH  14  15
ATOM     15  C   UNL A   1      38.047  30.227  29.958  1.00  0.00     0.031 A 
ATOM     16  C   UNL A   1      39.146  29.466  29.296  1.00  0.00     0.074 A 
ATOM     17  C   UNL A   1      38.051  30.411  31.287  1.00  0.00     0.049 A 
ATOM     18  N   UNL A   1      40.224  28.951  29.820  1.00  0.00    -0.248 NA
ATOM     19  C   UNL A   1      38.985  29.206  27.857  1.00  0.00     0.031 C 
ATOM     20  C   UNL A   1      36.963  31.020  32.028  1.00  0.00     0.029 A 
ATOM     21  N   UNL A   1      39.000  30.147  32.242  1.00  0.00    -0.354 N 
ATOM     22  C   UNL A   1      40.810  28.215  28.804  1.00  0.00     0.074 A 
ATOM     23  C   UNL A   1      40.010  28.406  27.615  1.00  0.00     0.031 C 
ATOM     24  C   UNL A   1      37.345  31.190  33.302  1.00  0.00     0.029 A 
ATOM     25  C   UNL A   1      38.717  30.742  33.453  1.00  0.00     0.049 A 
ATOM     26  H   UNL A   1      39.798  29.593  32.081  1.00  0.00     0.167 HD
ATOM     27  C   UNL A   1      41.886  27.399  28.894  1.00  0.00     0.037 A 
ATOM     28  C   UNL A   1      39.519  30.957  34.515  1.00  0.00     0.037 A 
ATOM     29  C   UNL A   1      42.656  27.239  30.098  1.00  0.00     0.049 A 
ATOM     30  C   UNL A   1      40.860  30.280  34.503  1.00  0.00     0.074 A 
ATOM     31  C   UNL A   1      43.731  26.405  30.341  1.00  0.00     0.029 A 
ATOM     32  N   UNL A   1      42.427  27.949  31.271  1.00  0.00    -0.354 N 
ATOM     33  N   UNL A   1      41.412  29.570  33.550  1.00  0.00    -0.248 NA
ATOM     34  C   UNL A   1      41.661  30.372  35.731  1.00  0.00     0.031 C 
ATOM     35  C   UNL A   1      44.136  26.593  31.669  1.00  0.00     0.029 A 
ATOM     36  C   UNL A   1      43.345  27.581  32.238  1.00  0.00     0.049 A 
ATOM     37  H   UNL A   1      41.714  28.616  31.395  1.00  0.00     0.167 HD
ATOM     38  C   UNL A   1      42.588  29.072  34.082  1.00  0.00     0.074 A 
ATOM     39  C   UNL A   1      42.724  29.653  35.405  1.00  0.00     0.031 C 
ATOM     40  C   UNL A   1      43.441  28.162  33.552  1.00  0.00     0.037 A 
BRANCH  27  41
ATOM     41  C   UNL A   1      42.177  26.546  27.697  1.00  0.00     0.064 A 
ATOM     42  C   UNL A   1      41.552  25.309  27.484  1.00  0.00     0.173 A 
ATOM     43  C   UNL A   1      43.174  26.941  26.791  1.00  0.00     0.173 A 
ATOM     44  F   UNL A   1      40.621  24.867  28.344  1.00  0.00    -0.203 F 
ATOM     45  C   UNL A   1      41.943  24.480  26.436  1.00  0.00     0.198 A 
ATOM     46  C   UNL A   1      43.541  26.126  25.725  1.00  0.00     0.198 A 
ATOM     47  F   UNL A   1      43.813  28.109  26.955  1.00  0.00    -0.203 F 
ATOM     48  F   UNL A   1      41.391  23.267  26.301  1.00  0.00    -0.200 F 
ATOM     49  C   UNL A   1      42.936  24.890  25.557  1.00  0.00     0.200 A 
ATOM     50  F   UNL A   1      44.499  26.524  24.877  1.00  0.00    -0.200 F 
ATOM     51  F   UNL A   1      43.324  24.084  24.559  1.00  0.00    -0.200 F 
ENDBRANCH  27  41
BRANCH  28  52
ATOM     52  C   UNL A   1      39.147  31.907  35.604  1.00  0.00     0.064 A 
ATOM     53  C   UNL A   1      38.339  31.462  36.668  1.00  0.00     0.173 A 
ATOM     54  C   UNL A   1      39.575  33.240  35.645  1.00  0.00     0.173 A 
ATOM     55  F   UNL A   1      37.889  30.198  36.683  1.00  0.00    -0.203 F 
ATOM     56  C   UNL A   1      37.971  32.309  37.713  1.00  0.00     0.198 A 
ATOM     57  C   UNL A   1      39.240  34.077  36.713  1.00  0.00     0.198 A 
ATOM     58  F   UNL A   1      40.340  33.732  34.662  1.00  0.00    -0.203 F 
ATOM     59  F   UNL A   1      37.171  31.860  38.690  1.00  0.00    -0.200 F 
ATOM     60  C   UNL A   1      38.432  33.614  37.740  1.00  0.00     0.200 A 
ATOM     61  F   UNL A   1      39.710  35.332  36.750  1.00  0.00    -0.200 F 
ATOM     62  F   UNL A   1      38.104  34.423  38.757  1.00  0.00    -0.200 F 
ENDBRANCH  28  52
BRANCH  40  63
ATOM     63  C   UNL A   1      44.557  27.710  34.439  1.00  0.00     0.064 A 
ATOM     64  C   UNL A   1      44.393  26.618  35.306  1.00  0.00     0.173 A 
ATOM     65  C   UNL A   1      45.800  28.355  34.410  1.00  0.00     0.173 A 
ATOM     66  F   UNL A   1      43.214  25.981  35.376  1.00  0.00    -0.203 F 
ATOM     67  C   UNL A   1      45.429  26.208  36.138  1.00  0.00     0.198 A 
ATOM     68  C   UNL A   1      46.841  27.925  35.227  1.00  0.00     0.198 A 
ATOM     69  F   UNL A   1      46.000  29.401  33.596  1.00  0.00    -0.203 F 
ATOM     70  F   UNL A   1      45.236  25.197  36.997  1.00  0.00    -0.200 F 
ATOM     71  C   UNL A   1      46.652  26.859  36.094  1.00  0.00     0.200 A 
ATOM     72  F   UNL A   1      48.027  28.548  35.180  1.00  0.00    -0.200 F 
ATOM     73  F   UNL A   1      47.649  26.464  36.898  1.00  0.00    -0.200 F 
ENDBRANCH  40  63
ENDBRANCH  14  15
ENDBRANCH   7   9
ENDBRANCH   6   7
ENDBRANCH   5   6
ENDBRANCH   4   5
ENDBRANCH   3   4
ENDBRANCH   2   3
ENDBRANCH   1   2
BRANCH   1  74
ATOM     74  O   UNL A   1      32.638  28.288  22.431  1.00  0.00    -0.376 OA
BRANCH  74  75
ATOM     75  C   UNL A   1      31.368  28.944  22.481  1.00  0.00     0.202 C 
BRANCH  75  76
ATOM     76  C   UNL A   1      30.170  27.985  22.523  1.00  0.00     0.261 C 
BRANCH  76  77
ATOM     77  O   UNL A   1      30.426  26.680  23.083  1.00  0.00    -0.463 OA
BRANCH  77  78
ATOM     78  C   UNL A   1      29.635  26.298  24.111  1.00  0.00     0.311 C 
ATOM     79  O   UNL A   1      28.424  26.473  24.165  1.00  0.00    -0.252 OA
BRANCH  78  80
ATOM     80  C   UNL A   1      30.426  25.844  25.297  1.00  0.00     0.128 C 
ATOM     81  C   UNL A   1      30.064  24.585  26.066  1.00  0.00     0.117 C 
ATOM     82  C   UNL A   1      31.789  25.514  24.741  1.00  0.00     0.135 C 
ATOM     83  C   UNL A   1      31.427  24.181  26.604  1.00  0.00     0.223 C 
ATOM     84  N   UNL A   1      32.388  24.692  25.743  1.00  0.00    -0.341 N 
ATOM     85  O   UNL A   1      31.624  23.520  27.609  1.00  0.00    -0.275 OA
BRANCH  84  86
ATOM     86  C   UNL A   1      33.825  24.464  25.774  1.00  0.00     0.124 C 
BRANCH  86  87
ATOM     87  C   UNL A   1      34.380  23.714  24.542  1.00  0.00     0.057 C 
BRANCH  87  88
ATOM     88  C   UNL A   1      33.758  22.407  24.095  1.00  0.00    -0.042 A 
ATOM     89  C   UNL A   1      32.830  22.322  23.037  1.00  0.00     0.008 A 
ATOM     90  C   UNL A   1      34.124  21.229  24.775  1.00  0.00     0.054 A 
ATOM     91  C   UNL A   1      32.160  21.126  22.757  1.00  0.00     0.051 A 
ATOM     92  C   UNL A   1      33.486  20.052  24.444  1.00  0.00     0.166 A 
ATOM     93  C   UNL A   1      32.508  20.010  23.481  1.00  0.00     0.165 A 
ATOM     94  O   UNL A   1      33.707  18.837  25.012  1.00  0.00    -0.454 OA
ATOM     95  O   UNL A   1      31.967  18.772  23.344  1.00  0.00    -0.454 OA
ATOM     96  C   UNL A   1      32.786  18.017  24.260  1.00  0.00     0.468 C 
ENDBRANCH  87  88
ENDBRANCH  86  87
ENDBRANCH  84  86
ENDBRANCH  78  80
ENDBRANCH  77  78
ENDBRANCH  76  77
ENDBRANCH  75  76
ENDBRANCH  74  75
ENDBRANCH   1  74
TORSDOF 20
ENDMDL
