MODEL 1
REMARK VINA RESULT:     -11.6      0.000      0.000
REMARK SMILES C=C(C(=O)OCCOCCOCCOC(=O)c1ccc(-c2c3nc(c(-c4c(F)c(F)c(F)c(F)c4F)c4ccc([nH]4)c(-c4c(F)c(F)c(F)c(F)c4F)c4nc(c(-c5c(F)c(F)c(F)c(F)c5F)c5ccc2[nH]5)C=C4)C=C3)cc1)[C@@H]1CC[C@]2(C)CCCC(=C)[C@H]2[C@H]1O
REMARK SMILES IDX 9 1 8 2 7 3 6 4 5 5 3 6 4 7 2 8 1 9 80 10 81 11 91 12 82 13
REMARK SMILES IDX 90 14 83 15 88 16 84 17 85 18 87 19 89 20 86 21 92 22 10 24
REMARK SMILES IDX 11 25 12 26 13 27 14 28 15 29 16 30 17 31 18 32 79 33 19 34
REMARK SMILES IDX 78 35 20 36 21 37 22 38 72 39 23 40 77 41 71 42 73 43 24 44
REMARK SMILES IDX 76 45 70 46 69 47 25 49 57 50 37 51 56 52 38 53 41 54 55 55
REMARK SMILES IDX 74 56 39 57 40 58 54 60 75 61 42 62 26 63 27 64 35 65 28 66
REMARK SMILES IDX 29 67 33 68 36 69 30 70 31 71 34 72 32 73 58 74 59 75 67 76
REMARK SMILES IDX 60 77 61 78 65 79 68 80 62 81 63 82 66 83 64 84 43 85 44 86
REMARK SMILES IDX 52 87 45 88 46 89 50 90 53 91 47 92 48 93 51 94 49 95
REMARK H PARENT 92 23 73 48 41 59
REMARK Flexibility Score: inf
ROOT
ATOM      1  C   UNL A   1      33.986  32.299  27.899  1.00  0.00     0.188 C 
ENDROOT
BRANCH   1   2
ATOM      2  O   UNL A   1      33.264  31.138  27.563  1.00  0.00    -0.376 OA
BRANCH   2   3
ATOM      3  C   UNL A   1      33.962  29.955  27.219  1.00  0.00     0.202 C 
BRANCH   3   4
ATOM      4  C   UNL A   1      33.281  28.578  27.228  1.00  0.00     0.261 C 
BRANCH   4   5
ATOM      5  O   UNL A   1      32.705  28.189  25.972  1.00  0.00    -0.460 OA
BRANCH   5   6
ATOM      6  C   UNL A   1      31.731  27.232  25.957  1.00  0.00     0.333 C 
ATOM      7  O   UNL A   1      31.235  26.691  26.940  1.00  0.00    -0.247 OA
BRANCH   6   8
ATOM      8  C   UNL A   1      31.277  26.992  24.551  1.00  0.00     0.036 C 
ATOM      9  C   UNL A   1      30.388  27.914  24.116  1.00  0.00     0.020 C 
BRANCH   8  10
ATOM     10  C   UNL A   1      31.954  25.911  23.669  1.00  0.00     0.055 C 
ATOM     11  C   UNL A   1      31.142  24.601  23.657  1.00  0.00     0.012 C 
ATOM     12  C   UNL A   1      33.479  25.495  23.834  1.00  0.00     0.129 C 
ATOM     13  C   UNL A   1      31.334  23.837  24.972  1.00  0.00     0.008 C 
ATOM     14  C   UNL A   1      33.821  24.321  24.849  1.00  0.00     0.050 C 
ATOM     15  C   UNL A   1      32.737  23.221  25.069  1.00  0.00    -0.024 C 
ATOM     16  C   UNL A   1      35.158  23.551  24.834  1.00  0.00    -0.071 C 
ATOM     17  C   UNL A   1      32.819  22.049  24.055  1.00  0.00     0.012 C 
ATOM     18  C   UNL A   1      32.957  22.654  26.509  1.00  0.00     0.008 C 
ATOM     19  C   UNL A   1      35.490  22.899  26.172  1.00  0.00     0.031 C 
ATOM     20  C   UNL A   1      35.961  23.330  23.779  1.00  0.00     0.008 C 
ATOM     21  C   UNL A   1      34.351  22.044  26.727  1.00  0.00     0.005 C 
BRANCH  12  22
ATOM     22  O   UNL A   1      33.961  25.184  22.518  1.00  0.00    -0.392 OA
ATOM     23  H   UNL A   1      33.227  25.231  21.885  1.00  0.00     0.211 HD
ENDBRANCH  12  22
ENDBRANCH   8  10
ENDBRANCH   6   8
ENDBRANCH   5   6
ENDBRANCH   4   5
ENDBRANCH   3   4
ENDBRANCH   2   3
ENDBRANCH   1   2
BRANCH   1  24
ATOM     24  C   UNL A   1      33.265  33.671  27.932  1.00  0.00     0.188 C 
BRANCH  24  25
ATOM     25  O   UNL A   1      32.846  34.223  29.161  1.00  0.00    -0.376 OA
BRANCH  25  26
ATOM     26  C   UNL A   1      33.841  34.869  29.943  1.00  0.00     0.202 C 
BRANCH  26  27
ATOM     27  C   UNL A   1      34.328  34.214  31.249  1.00  0.00     0.261 C 
BRANCH  27  28
ATOM     28  O   UNL A   1      34.442  32.773  31.205  1.00  0.00    -0.460 OA
BRANCH  28  29
ATOM     29  C   UNL A   1      35.368  32.231  32.038  1.00  0.00     0.338 C 
ATOM     30  O   UNL A   1      35.436  32.382  33.248  1.00  0.00    -0.246 OA
BRANCH  29  31
ATOM     31  C   UNL A   1      36.305  31.328  31.326  1.00  0.00     0.060 A 
ATOM     32  C   UNL A   1      37.046  30.391  32.038  1.00  0.00     0.016 A 
ATOM     33  C   UNL A   1      36.654  31.578  30.001  1.00  0.00     0.016 A 
ATOM     34  C   UNL A   1      38.145  29.753  31.473  1.00  0.00     0.010 A 
ATOM     35  C   UNL A   1      37.754  30.913  29.421  1.00  0.00     0.010 A 
ATOM     36  C   UNL A   1      38.551  30.030  30.172  1.00  0.00    -0.014 A 
BRANCH  36  37
ATOM     37  C   UNL A   1      39.881  29.536  29.693  1.00  0.00     0.031 A 
ATOM     38  C   UNL A   1      41.080  30.452  29.751  1.00  0.00     0.074 A 
ATOM     39  C   UNL A   1      40.082  28.253  29.324  1.00  0.00     0.049 A 
ATOM     40  N   UNL A   1      42.247  30.339  29.167  1.00  0.00    -0.248 NA
ATOM     41  C   UNL A   1      40.947  31.658  30.584  1.00  0.00     0.031 C 
ATOM     42  C   UNL A   1      39.085  27.183  29.376  1.00  0.00     0.029 A 
ATOM     43  N   UNL A   1      41.210  27.623  28.848  1.00  0.00    -0.354 N 
ATOM     44  C   UNL A   1      42.947  31.498  29.485  1.00  0.00     0.074 A 
ATOM     45  C   UNL A   1      42.087  32.289  30.338  1.00  0.00     0.031 C 
ATOM     46  C   UNL A   1      39.652  26.030  28.991  1.00  0.00     0.029 A 
ATOM     47  C   UNL A   1      41.004  26.304  28.521  1.00  0.00     0.049 A 
ATOM     48  H   UNL A   1      42.080  28.074  28.750  1.00  0.00     0.167 HD
ATOM     49  C   UNL A   1      44.188  31.868  29.082  1.00  0.00     0.037 A 
ATOM     50  C   UNL A   1      41.772  25.431  27.840  1.00  0.00     0.037 A 
ATOM     51  C   UNL A   1      45.065  31.033  28.299  1.00  0.00     0.049 A 
ATOM     52  C   UNL A   1      43.099  25.893  27.305  1.00  0.00     0.074 A 
ATOM     53  C   UNL A   1      46.331  31.318  27.819  1.00  0.00     0.029 A 
ATOM     54  N   UNL A   1      44.771  29.738  27.899  1.00  0.00    -0.354 N 
ATOM     55  N   UNL A   1      43.702  27.044  27.467  1.00  0.00    -0.248 NA
ATOM     56  C   UNL A   1      43.837  24.944  26.460  1.00  0.00     0.031 C 
ATOM     57  C   UNL A   1      46.779  30.217  27.082  1.00  0.00     0.029 A 
ATOM     58  C   UNL A   1      45.822  29.220  27.159  1.00  0.00     0.049 A 
ATOM     59  H   UNL A   1      43.938  29.256  28.110  1.00  0.00     0.167 HD
ATOM     60  C   UNL A   1      44.894  26.955  26.760  1.00  0.00     0.074 A 
ATOM     61  C   UNL A   1      44.939  25.627  26.187  1.00  0.00     0.031 C 
ATOM     62  C   UNL A   1      45.859  27.894  26.597  1.00  0.00     0.037 A 
BRANCH  49  63
ATOM     63  C   UNL A   1      44.645  33.263  29.407  1.00  0.00     0.064 A 
ATOM     64  C   UNL A   1      45.399  33.570  30.549  1.00  0.00     0.173 A 
ATOM     65  C   UNL A   1      44.346  34.313  28.522  1.00  0.00     0.173 A 
ATOM     66  F   UNL A   1      45.702  32.611  31.436  1.00  0.00    -0.203 F 
ATOM     67  C   UNL A   1      45.810  34.878  30.805  1.00  0.00     0.198 A 
ATOM     68  C   UNL A   1      44.789  35.611  28.763  1.00  0.00     0.198 A 
ATOM     69  F   UNL A   1      43.633  34.077  27.409  1.00  0.00    -0.203 F 
ATOM     70  F   UNL A   1      46.486  35.157  31.929  1.00  0.00    -0.200 F 
ATOM     71  C   UNL A   1      45.513  35.893  29.909  1.00  0.00     0.200 A 
ATOM     72  F   UNL A   1      44.514  36.585  27.885  1.00  0.00    -0.200 F 
ATOM     73  F   UNL A   1      45.919  37.147  30.153  1.00  0.00    -0.200 F 
ENDBRANCH  49  63
BRANCH  50  74
ATOM     74  C   UNL A   1      41.253  24.069  27.526  1.00  0.00     0.064 A 
ATOM     75  C   UNL A   1      41.812  22.922  28.103  1.00  0.00     0.173 A 
ATOM     76  C   UNL A   1      40.188  23.889  26.628  1.00  0.00     0.173 A 
ATOM     77  F   UNL A   1      42.858  23.032  28.936  1.00  0.00    -0.203 F 
ATOM     78  C   UNL A   1      41.332  21.650  27.789  1.00  0.00     0.198 A 
ATOM     79  C   UNL A   1      39.681  22.622  26.349  1.00  0.00     0.198 A 
ATOM     80  F   UNL A   1      39.624  24.949  26.030  1.00  0.00    -0.203 F 
ATOM     81  F   UNL A   1      41.922  20.567  28.312  1.00  0.00    -0.200 F 
ATOM     82  C   UNL A   1      40.259  21.503  26.923  1.00  0.00     0.200 A 
ATOM     83  F   UNL A   1      38.634  22.490  25.521  1.00  0.00    -0.200 F 
ATOM     84  F   UNL A   1      39.791  20.282  26.632  1.00  0.00    -0.200 F 
ENDBRANCH  50  74
BRANCH  62  85
ATOM     85  C   UNL A   1      47.071  27.498  25.803  1.00  0.00     0.064 A 
ATOM     86  C   UNL A   1      47.152  27.715  24.419  1.00  0.00     0.173 A 
ATOM     87  C   UNL A   1      48.176  26.914  26.442  1.00  0.00     0.173 A 
ATOM     88  F   UNL A   1      46.118  28.254  23.758  1.00  0.00    -0.203 F 
ATOM     89  C   UNL A   1      48.282  27.331  23.700  1.00  0.00     0.198 A 
ATOM     90  C   UNL A   1      49.317  26.565  25.726  1.00  0.00     0.198 A 
ATOM     91  F   UNL A   1      48.153  26.692  27.765  1.00  0.00    -0.203 F 
ATOM     92  F   UNL A   1      48.314  27.494  22.371  1.00  0.00    -0.200 F 
ATOM     93  C   UNL A   1      49.365  26.764  24.355  1.00  0.00     0.200 A 
ATOM     94  F   UNL A   1      50.369  26.031  26.363  1.00  0.00    -0.200 F 
ATOM     95  F   UNL A   1      50.453  26.400  23.663  1.00  0.00    -0.200 F 
ENDBRANCH  62  85
ENDBRANCH  36  37
ENDBRANCH  29  31
ENDBRANCH  28  29
ENDBRANCH  27  28
ENDBRANCH  26  27
ENDBRANCH  25  26
ENDBRANCH  24  25
ENDBRANCH   1  24
TORSDOF 19
ENDMDL
MODEL 2
REMARK VINA RESULT:     -11.1      0.901      2.148
REMARK SMILES C=C(C(=O)OCCOCCOCCOC(=O)c1ccc(-c2c3nc(c(-c4c(F)c(F)c(F)c(F)c4F)c4ccc([nH]4)c(-c4c(F)c(F)c(F)c(F)c4F)c4nc(c(-c5c(F)c(F)c(F)c(F)c5F)c5ccc2[nH]5)C=C4)C=C3)cc1)[C@@H]1CC[C@]2(C)CCCC(=C)[C@H]2[C@H]1O
REMARK SMILES IDX 9 1 8 2 7 3 6 4 5 5 3 6 4 7 2 8 1 9 80 10 81 11 91 12 82 13
REMARK SMILES IDX 90 14 83 15 88 16 84 17 85 18 87 19 89 20 86 21 92 22 10 24
REMARK SMILES IDX 11 25 12 26 13 27 14 28 15 29 16 30 17 31 18 32 79 33 19 34
REMARK SMILES IDX 78 35 20 36 21 37 22 38 72 39 23 40 77 41 71 42 73 43 24 44
REMARK SMILES IDX 76 45 70 46 69 47 25 49 57 50 37 51 56 52 38 53 41 54 55 55
REMARK SMILES IDX 74 56 39 57 40 58 54 60 75 61 42 62 26 63 27 64 35 65 28 66
REMARK SMILES IDX 29 67 33 68 36 69 30 70 31 71 34 72 32 73 58 74 59 75 67 76
REMARK SMILES IDX 60 77 61 78 65 79 68 80 62 81 63 82 66 83 64 84 43 85 44 86
REMARK SMILES IDX 52 87 45 88 46 89 50 90 53 91 47 92 48 93 51 94 49 95
REMARK H PARENT 92 23 73 48 41 59
REMARK Flexibility Score: inf
ROOT
ATOM      1  C   UNL A   1      33.280  31.833  27.977  1.00  0.00     0.188 C 
ENDROOT
BRANCH   1   2
ATOM      2  O   UNL A   1      33.241  30.912  26.913  1.00  0.00    -0.376 OA
BRANCH   2   3
ATOM      3  C   UNL A   1      32.013  30.302  26.560  1.00  0.00     0.202 C 
BRANCH   3   4
ATOM      4  C   UNL A   1      31.850  29.495  25.263  1.00  0.00     0.261 C 
BRANCH   4   5
ATOM      5  O   UNL A   1      31.100  28.280  25.407  1.00  0.00    -0.460 OA
BRANCH   5   6
ATOM      6  C   UNL A   1      30.736  27.588  24.288  1.00  0.00     0.333 C 
ATOM      7  O   UNL A   1      30.088  28.030  23.344  1.00  0.00    -0.247 OA
BRANCH   6   8
ATOM      8  C   UNL A   1      31.324  26.212  24.326  1.00  0.00     0.036 C 
ATOM      9  C   UNL A   1      31.249  25.569  23.138  1.00  0.00     0.020 C 
BRANCH   8  10
ATOM     10  C   UNL A   1      32.116  25.719  25.565  1.00  0.00     0.055 C 
ATOM     11  C   UNL A   1      33.575  26.213  25.536  1.00  0.00     0.012 C 
ATOM     12  C   UNL A   1      32.165  24.193  26.005  1.00  0.00     0.129 C 
ATOM     13  C   UNL A   1      34.397  25.406  24.525  1.00  0.00     0.008 C 
ATOM     14  C   UNL A   1      33.317  23.283  25.395  1.00  0.00     0.050 C 
ATOM     15  C   UNL A   1      34.663  23.979  25.022  1.00  0.00    -0.024 C 
ATOM     16  C   UNL A   1      33.735  21.927  26.001  1.00  0.00    -0.071 C 
ATOM     17  C   UNL A   1      35.673  24.057  26.197  1.00  0.00     0.012 C 
ATOM     18  C   UNL A   1      35.300  23.136  23.869  1.00  0.00     0.008 C 
ATOM     19  C   UNL A   1      34.417  21.005  24.995  1.00  0.00     0.031 C 
ATOM     20  C   UNL A   1      33.650  21.546  27.288  1.00  0.00     0.008 C 
ATOM     21  C   UNL A   1      35.573  21.673  24.250  1.00  0.00     0.005 C 
BRANCH  12  22
ATOM     22  O   UNL A   1      32.219  24.184  27.440  1.00  0.00    -0.392 OA
ATOM     23  H   UNL A   1      32.471  25.065  27.759  1.00  0.00     0.211 HD
ENDBRANCH  12  22
ENDBRANCH   8  10
ENDBRANCH   6   8
ENDBRANCH   5   6
ENDBRANCH   4   5
ENDBRANCH   3   4
ENDBRANCH   2   3
ENDBRANCH   1   2
BRANCH   1  24
ATOM     24  C   UNL A   1      33.247  33.353  27.680  1.00  0.00     0.188 C 
BRANCH  24  25
ATOM     25  O   UNL A   1      32.614  34.238  28.580  1.00  0.00    -0.376 OA
BRANCH  25  26
ATOM     26  C   UNL A   1      33.456  35.134  29.292  1.00  0.00     0.202 C 
BRANCH  26  27
ATOM     27  C   UNL A   1      34.127  34.672  30.600  1.00  0.00     0.261 C 
BRANCH  27  28
ATOM     28  O   UNL A   1      35.245  33.771  30.428  1.00  0.00    -0.460 OA
BRANCH  28  29
ATOM     29  C   UNL A   1      35.163  32.598  31.106  1.00  0.00     0.338 C 
ATOM     30  O   UNL A   1      34.372  32.324  31.995  1.00  0.00    -0.246 OA
BRANCH  29  31
ATOM     31  C   UNL A   1      36.126  31.588  30.602  1.00  0.00     0.060 A 
ATOM     32  C   UNL A   1      36.893  30.849  31.496  1.00  0.00     0.016 A 
ATOM     33  C   UNL A   1      36.468  31.555  29.252  1.00  0.00     0.016 A 
ATOM     34  C   UNL A   1      38.010  30.134  31.076  1.00  0.00     0.010 A 
ATOM     35  C   UNL A   1      37.586  30.810  28.823  1.00  0.00     0.010 A 
ATOM     36  C   UNL A   1      38.408  30.134  29.743  1.00  0.00    -0.014 A 
BRANCH  36  37
ATOM     37  C   UNL A   1      39.752  29.584  29.376  1.00  0.00     0.031 A 
ATOM     38  C   UNL A   1      40.974  30.461  29.501  1.00  0.00     0.074 A 
ATOM     39  C   UNL A   1      39.934  28.286  29.051  1.00  0.00     0.049 A 
ATOM     40  N   UNL A   1      42.176  30.296  29.008  1.00  0.00    -0.248 NA
ATOM     41  C   UNL A   1      40.823  31.692  30.295  1.00  0.00     0.031 C 
ATOM     42  C   UNL A   1      38.900  27.251  29.053  1.00  0.00     0.029 A 
ATOM     43  N   UNL A   1      41.072  27.608  28.673  1.00  0.00    -0.354 N 
ATOM     44  C   UNL A   1      42.890  31.438  29.350  1.00  0.00     0.074 A 
ATOM     45  C   UNL A   1      41.998  32.279  30.119  1.00  0.00     0.031 C 
ATOM     46  C   UNL A   1      39.453  26.071  28.738  1.00  0.00     0.029 A 
ATOM     47  C   UNL A   1      40.845  26.289  28.363  1.00  0.00     0.049 A 
ATOM     48  H   UNL A   1      41.962  28.028  28.630  1.00  0.00     0.167 HD
ATOM     49  C   UNL A   1      44.169  31.757  29.032  1.00  0.00     0.037 A 
ATOM     50  C   UNL A   1      41.629  25.374  27.760  1.00  0.00     0.037 A 
ATOM     51  C   UNL A   1      45.072  30.875  28.334  1.00  0.00     0.049 A 
ATOM     52  C   UNL A   1      43.008  25.779  27.314  1.00  0.00     0.074 A 
ATOM     53  C   UNL A   1      46.379  31.107  27.943  1.00  0.00     0.029 A 
ATOM     54  N   UNL A   1      44.763  29.581  27.943  1.00  0.00    -0.354 N 
ATOM     55  N   UNL A   1      43.637  26.914  27.494  1.00  0.00    -0.248 NA
ATOM     56  C   UNL A   1      43.772  24.786  26.547  1.00  0.00     0.031 C 
ATOM     57  C   UNL A   1      46.841  29.973  27.266  1.00  0.00     0.029 A 
ATOM     58  C   UNL A   1      45.847  29.010  27.294  1.00  0.00     0.049 A 
ATOM     59  H   UNL A   1      43.901  29.132  28.103  1.00  0.00     0.167 HD
ATOM     60  C   UNL A   1      44.873  26.768  26.879  1.00  0.00     0.074 A 
ATOM     61  C   UNL A   1      44.914  25.425  26.341  1.00  0.00     0.031 C 
ATOM     62  C   UNL A   1      45.879  27.670  26.767  1.00  0.00     0.037 A 
BRANCH  49  63
ATOM     63  C   UNL A   1      44.649  33.145  29.358  1.00  0.00     0.064 A 
ATOM     64  C   UNL A   1      45.338  33.453  30.539  1.00  0.00     0.173 A 
ATOM     65  C   UNL A   1      44.441  34.184  28.435  1.00  0.00     0.173 A 
ATOM     66  F   UNL A   1      45.553  32.505  31.463  1.00  0.00    -0.203 F 
ATOM     67  C   UNL A   1      45.775  34.753  30.796  1.00  0.00     0.198 A 
ATOM     68  C   UNL A   1      44.910  35.472  28.678  1.00  0.00     0.198 A 
ATOM     69  F   UNL A   1      43.794  33.946  27.283  1.00  0.00    -0.203 F 
ATOM     70  F   UNL A   1      46.386  35.035  31.955  1.00  0.00    -0.200 F 
ATOM     71  C   UNL A   1      45.568  35.757  29.863  1.00  0.00     0.200 A 
ATOM     72  F   UNL A   1      44.723  36.435  27.765  1.00  0.00    -0.200 F 
ATOM     73  F   UNL A   1      45.998  37.003  30.108  1.00  0.00    -0.200 F 
ENDBRANCH  49  63
BRANCH  50  74
ATOM     74  C   UNL A   1      41.088  24.023  27.439  1.00  0.00     0.064 A 
ATOM     75  C   UNL A   1      40.067  23.848  26.498  1.00  0.00     0.173 A 
ATOM     76  C   UNL A   1      41.579  22.874  28.083  1.00  0.00     0.173 A 
ATOM     77  F   UNL A   1      39.533  24.913  25.882  1.00  0.00    -0.203 F 
ATOM     78  C   UNL A   1      39.554  22.581  26.217  1.00  0.00     0.198 A 
ATOM     79  C   UNL A   1      41.097  21.606  27.771  1.00  0.00     0.198 A 
ATOM     80  F   UNL A   1      42.545  22.982  29.009  1.00  0.00    -0.203 F 
ATOM     81  F   UNL A   1      38.539  22.448  25.352  1.00  0.00    -0.200 F 
ATOM     82  C   UNL A   1      40.078  21.461  26.845  1.00  0.00     0.200 A 
ATOM     83  F   UNL A   1      41.619  20.527  28.372  1.00  0.00    -0.200 F 
ATOM     84  F   UNL A   1      39.593  20.244  26.565  1.00  0.00    -0.200 F 
ENDBRANCH  50  74
BRANCH  62  85
ATOM     85  C   UNL A   1      47.131  27.215  26.073  1.00  0.00     0.064 A 
ATOM     86  C   UNL A   1      48.187  26.612  26.772  1.00  0.00     0.173 A 
ATOM     87  C   UNL A   1      47.265  27.365  24.684  1.00  0.00     0.173 A 
ATOM     88  F   UNL A   1      48.116  26.461  28.103  1.00  0.00    -0.203 F 
ATOM     89  C   UNL A   1      49.344  26.206  26.111  1.00  0.00     0.198 A 
ATOM     90  C   UNL A   1      48.407  26.925  24.022  1.00  0.00     0.198 A 
ATOM     91  F   UNL A   1      46.282  27.929  23.966  1.00  0.00    -0.203 F 
ATOM     92  F   UNL A   1      50.363  25.686  26.808  1.00  0.00    -0.200 F 
ATOM     93  C   UNL A   1      49.450  26.356  24.737  1.00  0.00     0.200 A 
ATOM     94  F   UNL A   1      48.501  27.058  22.691  1.00  0.00    -0.200 F 
ATOM     95  F   UNL A   1      50.561  25.961  24.101  1.00  0.00    -0.200 F 
ENDBRANCH  62  85
ENDBRANCH  36  37
ENDBRANCH  29  31
ENDBRANCH  28  29
ENDBRANCH  27  28
ENDBRANCH  26  27
ENDBRANCH  25  26
ENDBRANCH  24  25
ENDBRANCH   1  24
TORSDOF 19
ENDMDL
MODEL 3
REMARK VINA RESULT:     -11.1      5.243      7.682
REMARK SMILES C=C(C(=O)OCCOCCOCCOC(=O)c1ccc(-c2c3nc(c(-c4c(F)c(F)c(F)c(F)c4F)c4ccc([nH]4)c(-c4c(F)c(F)c(F)c(F)c4F)c4nc(c(-c5c(F)c(F)c(F)c(F)c5F)c5ccc2[nH]5)C=C4)C=C3)cc1)[C@@H]1CC[C@]2(C)CCCC(=C)[C@H]2[C@H]1O
REMARK SMILES IDX 9 1 8 2 7 3 6 4 5 5 3 6 4 7 2 8 1 9 80 10 81 11 91 12 82 13
REMARK SMILES IDX 90 14 83 15 88 16 84 17 85 18 87 19 89 20 86 21 92 22 10 24
REMARK SMILES IDX 11 25 12 26 13 27 14 28 15 29 16 30 17 31 18 32 79 33 19 34
REMARK SMILES IDX 78 35 20 36 21 37 22 38 72 39 23 40 77 41 71 42 73 43 24 44
REMARK SMILES IDX 76 45 70 46 69 47 25 49 57 50 37 51 56 52 38 53 41 54 55 55
REMARK SMILES IDX 74 56 39 57 40 58 54 60 75 61 42 62 26 63 27 64 35 65 28 66
REMARK SMILES IDX 29 67 33 68 36 69 30 70 31 71 34 72 32 73 58 74 59 75 67 76
REMARK SMILES IDX 60 77 61 78 65 79 68 80 62 81 63 82 66 83 64 84 43 85 44 86
REMARK SMILES IDX 52 87 45 88 46 89 50 90 53 91 47 92 48 93 51 94 49 95
REMARK H PARENT 92 23 73 48 41 59
REMARK Flexibility Score: inf
ROOT
ATOM      1  C   UNL A   1      34.696  31.037  28.010  1.00  0.00     0.188 C 
ENDROOT
BRANCH   1   2
ATOM      2  O   UNL A   1      33.621  30.798  27.133  1.00  0.00    -0.376 OA
BRANCH   2   3
ATOM      3  C   UNL A   1      33.299  29.468  26.767  1.00  0.00     0.202 C 
BRANCH   3   4
ATOM      4  C   UNL A   1      32.089  29.141  25.879  1.00  0.00     0.261 C 
BRANCH   4   5
ATOM      5  O   UNL A   1      32.243  27.962  25.074  1.00  0.00    -0.460 OA
BRANCH   5   6
ATOM      6  C   UNL A   1      32.088  28.057  23.721  1.00  0.00     0.333 C 
ATOM      7  O   UNL A   1      32.672  28.842  22.981  1.00  0.00    -0.247 OA
BRANCH   6   8
ATOM      8  C   UNL A   1      31.156  26.991  23.239  1.00  0.00     0.036 C 
ATOM      9  C   UNL A   1      29.877  27.416  23.125  1.00  0.00     0.020 C 
BRANCH   8  10
ATOM     10  C   UNL A   1      31.697  25.629  22.732  1.00  0.00     0.055 C 
ATOM     11  C   UNL A   1      30.894  24.450  23.315  1.00  0.00     0.012 C 
ATOM     12  C   UNL A   1      33.231  25.221  22.828  1.00  0.00     0.129 C 
ATOM     13  C   UNL A   1      31.278  24.208  24.779  1.00  0.00     0.008 C 
ATOM     14  C   UNL A   1      33.719  24.481  24.147  1.00  0.00     0.050 C 
ATOM     15  C   UNL A   1      32.680  23.596  24.903  1.00  0.00    -0.024 C 
ATOM     16  C   UNL A   1      35.040  23.689  24.234  1.00  0.00    -0.071 C 
ATOM     17  C   UNL A   1      32.614  22.132  24.391  1.00  0.00     0.012 C 
ATOM     18  C   UNL A   1      33.110  23.582  26.406  1.00  0.00     0.008 C 
ATOM     19  C   UNL A   1      35.565  23.553  25.660  1.00  0.00     0.031 C 
ATOM     20  C   UNL A   1      35.680  23.056  23.235  1.00  0.00     0.008 C 
ATOM     21  C   UNL A   1      34.521  23.021  26.640  1.00  0.00     0.005 C 
BRANCH  12  22
ATOM     22  O   UNL A   1      33.514  24.427  21.667  1.00  0.00    -0.392 OA
ATOM     23  H   UNL A   1      32.710  23.960  21.390  1.00  0.00     0.211 HD
ENDBRANCH  12  22
ENDBRANCH   8  10
ENDBRANCH   6   8
ENDBRANCH   5   6
ENDBRANCH   4   5
ENDBRANCH   3   4
ENDBRANCH   2   3
ENDBRANCH   1   2
BRANCH   1  24
ATOM     24  C   UNL A   1      34.901  32.452  28.608  1.00  0.00     0.188 C 
BRANCH  24  25
ATOM     25  O   UNL A   1      34.476  33.593  27.893  1.00  0.00    -0.376 OA
BRANCH  25  26
ATOM     26  C   UNL A   1      34.463  34.823  28.604  1.00  0.00     0.202 C 
BRANCH  26  27
ATOM     27  C   UNL A   1      33.117  35.486  28.956  1.00  0.00     0.261 C 
BRANCH  27  28
ATOM     28  O   UNL A   1      32.505  35.015  30.178  1.00  0.00    -0.460 OA
BRANCH  28  29
ATOM     29  C   UNL A   1      32.723  35.781  31.278  1.00  0.00     0.338 C 
ATOM     30  O   UNL A   1      32.154  36.824  31.563  1.00  0.00    -0.246 OA
BRANCH  29  31
ATOM     31  C   UNL A   1      33.719  35.177  32.196  1.00  0.00     0.060 A 
ATOM     32  C   UNL A   1      34.998  35.716  32.288  1.00  0.00     0.016 A 
ATOM     33  C   UNL A   1      33.485  33.928  32.765  1.00  0.00     0.016 A 
ATOM     34  C   UNL A   1      36.041  35.012  32.882  1.00  0.00     0.010 A 
ATOM     35  C   UNL A   1      34.536  33.226  33.389  1.00  0.00     0.010 A 
ATOM     36  C   UNL A   1      35.847  33.737  33.404  1.00  0.00    -0.014 A 
BRANCH  36  37
ATOM     37  C   UNL A   1      37.034  32.908  33.786  1.00  0.00     0.031 A 
ATOM     38  C   UNL A   1      37.636  33.060  35.161  1.00  0.00     0.074 A 
ATOM     39  C   UNL A   1      37.517  31.933  32.987  1.00  0.00     0.049 A 
ATOM     40  N   UNL A   1      38.794  32.651  35.617  1.00  0.00    -0.248 NA
ATOM     41  C   UNL A   1      36.820  33.765  36.164  1.00  0.00     0.031 C 
ATOM     42  C   UNL A   1      36.951  31.522  31.701  1.00  0.00     0.029 A 
ATOM     43  N   UNL A   1      38.592  31.089  33.153  1.00  0.00    -0.354 N 
ATOM     44  C   UNL A   1      38.882  33.129  36.920  1.00  0.00     0.074 A 
ATOM     45  C   UNL A   1      37.649  33.833  37.195  1.00  0.00     0.031 C 
ATOM     46  C   UNL A   1      37.652  30.487  31.218  1.00  0.00     0.029 A 
ATOM     47  C   UNL A   1      38.806  30.257  32.080  1.00  0.00     0.049 A 
ATOM     48  H   UNL A   1      39.154  31.082  33.962  1.00  0.00     0.167 HD
ATOM     49  C   UNL A   1      39.912  33.001  37.794  1.00  0.00     0.037 A 
ATOM     50  C   UNL A   1      39.850  29.465  31.769  1.00  0.00     0.037 A 
ATOM     51  C   UNL A   1      41.101  32.229  37.534  1.00  0.00     0.049 A 
ATOM     52  C   UNL A   1      41.033  29.422  32.698  1.00  0.00     0.074 A 
ATOM     53  C   UNL A   1      42.212  32.052  38.340  1.00  0.00     0.029 A 
ATOM     54  N   UNL A   1      41.322  31.485  36.384  1.00  0.00    -0.354 N 
ATOM     55  N   UNL A   1      41.192  29.998  33.863  1.00  0.00    -0.248 NA
ATOM     56  C   UNL A   1      42.197  28.646  32.249  1.00  0.00     0.031 C 
ATOM     57  C   UNL A   1      43.128  31.247  37.654  1.00  0.00     0.029 A 
ATOM     58  C   UNL A   1      42.561  30.867  36.450  1.00  0.00     0.049 A 
ATOM     59  H   UNL A   1      40.692  31.406  35.631  1.00  0.00     0.167 HD
ATOM     60  C   UNL A   1      42.463  29.644  34.295  1.00  0.00     0.074 A 
ATOM     61  C   UNL A   1      43.024  28.783  33.275  1.00  0.00     0.031 C 
ATOM     62  C   UNL A   1      43.108  30.007  35.431  1.00  0.00     0.037 A 
BRANCH  49  63
ATOM     63  C   UNL A   1      39.841  33.778  39.080  1.00  0.00     0.064 A 
ATOM     64  C   UNL A   1      39.187  33.298  40.223  1.00  0.00     0.173 A 
ATOM     65  C   UNL A   1      40.484  35.025  39.172  1.00  0.00     0.173 A 
ATOM     66  F   UNL A   1      38.545  32.121  40.190  1.00  0.00    -0.203 F 
ATOM     67  C   UNL A   1      39.156  34.048  41.399  1.00  0.00     0.198 A 
ATOM     68  C   UNL A   1      40.480  35.754  40.357  1.00  0.00     0.198 A 
ATOM     69  F   UNL A   1      41.132  35.531  38.111  1.00  0.00    -0.203 F 
ATOM     70  F   UNL A   1      38.481  33.593  42.463  1.00  0.00    -0.200 F 
ATOM     71  C   UNL A   1      39.809  35.269  41.467  1.00  0.00     0.200 A 
ATOM     72  F   UNL A   1      41.128  36.926  40.423  1.00  0.00    -0.200 F 
ATOM     73  F   UNL A   1      39.785  35.983  42.601  1.00  0.00    -0.200 F 
ENDBRANCH  49  63
BRANCH  50  74
ATOM     74  C   UNL A   1      39.875  28.739  30.467  1.00  0.00     0.064 A 
ATOM     75  C   UNL A   1      39.327  27.457  30.332  1.00  0.00     0.173 A 
ATOM     76  C   UNL A   1      40.461  29.316  29.327  1.00  0.00     0.173 A 
ATOM     77  F   UNL A   1      38.792  26.843  31.397  1.00  0.00    -0.203 F 
ATOM     78  C   UNL A   1      39.371  26.779  29.114  1.00  0.00     0.198 A 
ATOM     79  C   UNL A   1      40.465  28.656  28.101  1.00  0.00     0.198 A 
ATOM     80  F   UNL A   1      41.018  30.535  29.399  1.00  0.00    -0.203 F 
ATOM     81  F   UNL A   1      38.889  25.531  29.028  1.00  0.00    -0.200 F 
ATOM     82  C   UNL A   1      39.927  27.384  27.998  1.00  0.00     0.200 A 
ATOM     83  F   UNL A   1      40.993  29.253  27.023  1.00  0.00    -0.200 F 
ATOM     84  F   UNL A   1      39.958  26.736  26.825  1.00  0.00    -0.200 F 
ENDBRANCH  50  74
BRANCH  62  85
ATOM     85  C   UNL A   1      44.478  29.433  35.654  1.00  0.00     0.064 A 
ATOM     86  C   UNL A   1      44.668  28.206  36.306  1.00  0.00     0.173 A 
ATOM     87  C   UNL A   1      45.614  30.111  35.186  1.00  0.00     0.173 A 
ATOM     88  F   UNL A   1      43.617  27.526  36.788  1.00  0.00    -0.203 F 
ATOM     89  C   UNL A   1      45.948  27.696  36.511  1.00  0.00     0.198 A 
ATOM     90  C   UNL A   1      46.888  29.580  35.361  1.00  0.00     0.198 A 
ATOM     91  F   UNL A   1      45.487  31.285  34.549  1.00  0.00    -0.203 F 
ATOM     92  F   UNL A   1      46.110  26.551  37.188  1.00  0.00    -0.200 F 
ATOM     93  C   UNL A   1      47.055  28.379  36.032  1.00  0.00     0.200 A 
ATOM     94  F   UNL A   1      47.956  30.236  34.883  1.00  0.00    -0.200 F 
ATOM     95  F   UNL A   1      48.286  27.885  36.226  1.00  0.00    -0.200 F 
ENDBRANCH  62  85
ENDBRANCH  36  37
ENDBRANCH  29  31
ENDBRANCH  28  29
ENDBRANCH  27  28
ENDBRANCH  26  27
ENDBRANCH  25  26
ENDBRANCH  24  25
ENDBRANCH   1  24
TORSDOF 19
ENDMDL
