MODEL 1
REMARK VINA RESULT:      -9.4      0.000      0.000
REMARK SMILES CC(C)N(CCC#N)C(=O)c1ccncc1/C=C/C(=O)OCCOCCOCCOC(=O)c1ccc(-c2c3nc(c(-c4c(F)c(F)c(F)c(F)c4F)c4ccc([nH]4)c(-c4c(F)c(F)c(F)c(F)c4F)c4nc(c(-c5c(F)c(F)c(F)c(F)c5F)c5ccc2[nH]5)C=C4)C=C3)cc1
REMARK SMILES IDX 23 1 22 2 21 3 19 4 20 5 18 6 17 7 16 8 11 9 12 10 13 11
REMARK SMILES IDX 15 12 14 13 9 14 10 15 4 16 2 17 1 18 3 19 5 20 6 21 7 22
REMARK SMILES IDX 8 23 24 24 25 25 26 26 27 27 28 28 29 29 30 30 31 31 32 32
REMARK SMILES IDX 33 33 34 34 95 35 35 36 94 37 36 38 37 39 38 40 88 41 39 42
REMARK SMILES IDX 93 43 87 44 89 45 40 46 92 47 86 48 85 49 41 51 73 52 53 53
REMARK SMILES IDX 72 54 54 55 57 56 71 57 90 58 55 59 56 60 70 62 91 63 58 64
REMARK SMILES IDX 42 65 43 66 51 67 44 68 45 69 49 70 52 71 46 72 47 73 50 74
REMARK SMILES IDX 48 75 74 76 75 77 83 78 76 79 77 80 81 81 84 82 78 83 79 84
REMARK SMILES IDX 82 85 80 86 59 87 60 88 68 89 61 90 62 91 66 92 69 93 63 94
REMARK SMILES IDX 64 95 67 96 65 97
REMARK H PARENT 89 50 57 61
REMARK Flexibility Score: inf
ROOT
ATOM      1  C   UNL A   1      31.742  32.444  26.698  1.00  0.00     0.202 C 
ENDROOT
BRANCH   1   2
ATOM      2  C   UNL A   1      32.080  30.948  26.856  1.00  0.00     0.261 C 
BRANCH   2   3
ATOM      3  O   UNL A   1      33.264  30.638  27.590  1.00  0.00    -0.460 OA
BRANCH   3   4
ATOM      4  C   UNL A   1      34.019  29.601  27.143  1.00  0.00     0.330 C 
ATOM      5  O   UNL A   1      35.150  29.314  27.503  1.00  0.00    -0.247 OA
BRANCH   4   6
ATOM      6  C   UNL A   1      33.177  28.677  26.336  1.00  0.00     0.094 C 
ATOM      7  C   UNL A   1      33.672  27.519  25.864  1.00  0.00     0.018 C 
BRANCH   7   8
ATOM      8  C   UNL A   1      33.191  26.736  24.691  1.00  0.00     0.006 A 
ATOM      9  C   UNL A   1      33.813  25.541  24.219  1.00  0.00     0.050 A 
ATOM     10  C   UNL A   1      33.656  25.230  22.863  1.00  0.00     0.034 A 
ATOM     11  C   UNL A   1      32.727  25.921  22.099  1.00  0.00     0.112 A 
ATOM     12  C   UNL A   1      32.260  27.334  23.830  1.00  0.00     0.119 A 
ATOM     13  N   UNL A   1      32.002  26.947  22.560  1.00  0.00    -0.264 NA
BRANCH   9  14
ATOM     14  C   UNL A   1      34.574  24.616  25.156  1.00  0.00     0.254 C 
ATOM     15  O   UNL A   1      35.646  25.036  25.594  1.00  0.00    -0.269 OA
BRANCH  14  16
ATOM     16  N   UNL A   1      34.130  23.334  25.608  1.00  0.00    -0.335 N 
BRANCH  16  17
ATOM     17  C   UNL A   1      32.830  23.310  26.347  1.00  0.00     0.079 C 
ATOM     18  C   UNL A   1      31.626  22.896  25.482  1.00  0.00     0.031 C 
ATOM     19  C   UNL A   1      32.895  22.494  27.640  1.00  0.00     0.031 C 
ENDBRANCH  16  17
BRANCH  16  20
ATOM     20  C   UNL A   1      34.726  21.996  25.334  1.00  0.00     0.135 C 
BRANCH  20  21
ATOM     21  C   UNL A   1      35.960  21.923  24.415  1.00  0.00     0.141 C 
BRANCH  21  22
ATOM     22  C   UNL A   1      36.792  20.692  24.735  1.00  0.00     0.064 C 
ATOM     23  N   UNL A   1      37.483  19.670  25.001  1.00  0.00    -0.198 NA
ENDBRANCH  21  22
ENDBRANCH  20  21
ENDBRANCH  16  20
ENDBRANCH  14  16
ENDBRANCH   9  14
ENDBRANCH   7   8
ENDBRANCH   4   6
ENDBRANCH   3   4
ENDBRANCH   2   3
ENDBRANCH   1   2
BRANCH   1  24
ATOM     24  O   UNL A   1      32.053  33.448  27.654  1.00  0.00    -0.376 OA
BRANCH  24  25
ATOM     25  C   UNL A   1      33.392  33.752  27.984  1.00  0.00     0.188 C 
BRANCH  25  26
ATOM     26  C   UNL A   1      33.703  34.865  29.001  1.00  0.00     0.188 C 
BRANCH  26  27
ATOM     27  O   UNL A   1      32.989  34.857  30.210  1.00  0.00    -0.376 OA
BRANCH  27  28
ATOM     28  C   UNL A   1      33.562  35.403  31.384  1.00  0.00     0.202 C 
BRANCH  28  29
ATOM     29  C   UNL A   1      34.342  34.628  32.469  1.00  0.00     0.261 C 
BRANCH  29  30
ATOM     30  O   UNL A   1      35.620  34.080  32.136  1.00  0.00    -0.460 OA
BRANCH  30  31
ATOM     31  C   UNL A   1      35.658  32.734  31.976  1.00  0.00     0.338 C 
ATOM     32  O   UNL A   1      34.738  31.946  32.085  1.00  0.00    -0.246 OA
BRANCH  31  33
ATOM     33  C   UNL A   1      36.992  32.352  31.477  1.00  0.00     0.060 A 
ATOM     34  C   UNL A   1      37.296  32.568  30.126  1.00  0.00     0.016 A 
ATOM     35  C   UNL A   1      37.916  31.737  32.323  1.00  0.00     0.016 A 
ATOM     36  C   UNL A   1      38.524  32.152  29.612  1.00  0.00     0.010 A 
ATOM     37  C   UNL A   1      39.140  31.305  31.802  1.00  0.00     0.010 A 
ATOM     38  C   UNL A   1      39.439  31.487  30.439  1.00  0.00    -0.014 A 
BRANCH  38  39
ATOM     39  C   UNL A   1      40.642  30.844  29.852  1.00  0.00     0.031 A 
ATOM     40  C   UNL A   1      41.891  31.665  29.684  1.00  0.00     0.074 A 
ATOM     41  C   UNL A   1      40.628  29.554  29.475  1.00  0.00     0.049 A 
ATOM     42  N   UNL A   1      43.035  31.340  29.135  1.00  0.00    -0.248 NA
ATOM     43  C   UNL A   1      41.842  33.041  30.203  1.00  0.00     0.031 C 
ATOM     44  C   UNL A   1      39.496  28.642  29.623  1.00  0.00     0.029 A 
ATOM     45  N   UNL A   1      41.602  28.790  28.877  1.00  0.00    -0.354 N 
ATOM     46  C   UNL A   1      43.834  32.472  29.231  1.00  0.00     0.074 A 
ATOM     47  C   UNL A   1      43.038  33.500  29.867  1.00  0.00     0.031 C 
ATOM     48  C   UNL A   1      39.835  27.442  29.118  1.00  0.00     0.029 A 
ATOM     49  C   UNL A   1      41.192  27.513  28.579  1.00  0.00     0.049 A 
ATOM     50  H   UNL A   1      42.505  29.126  28.681  1.00  0.00     0.167 HD
ATOM     51  C   UNL A   1      45.117  32.636  28.829  1.00  0.00     0.037 A 
ATOM     52  C   UNL A   1      41.834  26.527  27.922  1.00  0.00     0.037 A 
ATOM     53  C   UNL A   1      45.908  31.610  28.202  1.00  0.00     0.049 A 
ATOM     54  C   UNL A   1      43.236  26.764  27.415  1.00  0.00     0.074 A 
ATOM     55  C   UNL A   1      47.227  31.671  27.788  1.00  0.00     0.029 A 
ATOM     56  N   UNL A   1      45.449  30.339  27.888  1.00  0.00    -0.354 N 
ATOM     57  N   UNL A   1      43.998  27.823  27.540  1.00  0.00    -0.248 NA
ATOM     58  C   UNL A   1      43.867  25.661  26.673  1.00  0.00     0.031 C 
ATOM     59  C   UNL A   1      47.547  30.462  27.165  1.00  0.00     0.029 A 
ATOM     60  C   UNL A   1      46.449  29.620  27.254  1.00  0.00     0.049 A 
ATOM     61  H   UNL A   1      44.546  29.999  28.086  1.00  0.00     0.167 HD
ATOM     62  C   UNL A   1      45.206  27.502  26.931  1.00  0.00     0.074 A 
ATOM     63  C   UNL A   1      45.080  26.145  26.447  1.00  0.00     0.031 C 
ATOM     64  C   UNL A   1      46.320  28.262  26.790  1.00  0.00     0.037 A 
BRANCH  51  65
ATOM     65  C   UNL A   1      45.743  33.987  29.024  1.00  0.00     0.064 A 
ATOM     66  C   UNL A   1      46.456  34.312  30.187  1.00  0.00     0.173 A 
ATOM     67  C   UNL A   1      45.670  34.952  28.007  1.00  0.00     0.173 A 
ATOM     68  F   UNL A   1      46.544  33.431  31.195  1.00  0.00    -0.203 F 
ATOM     69  C   UNL A   1      47.055  35.561  30.334  1.00  0.00     0.198 A 
ATOM     70  C   UNL A   1      46.297  36.187  28.144  1.00  0.00     0.198 A 
ATOM     71  F   UNL A   1      45.004  34.690  26.872  1.00  0.00    -0.203 F 
ATOM     72  F   UNL A   1      47.695  35.867  31.471  1.00  0.00    -0.200 F 
ATOM     73  C   UNL A   1      46.983  36.493  29.309  1.00  0.00     0.200 A 
ATOM     74  F   UNL A   1      46.239  37.080  27.146  1.00  0.00    -0.200 F 
ATOM     75  F   UNL A   1      47.572  37.689  29.446  1.00  0.00    -0.200 F 
ENDBRANCH  51  65
BRANCH  52  76
ATOM     76  C   UNL A   1      41.161  25.220  27.685  1.00  0.00     0.064 A 
ATOM     77  C   UNL A   1      41.600  24.055  28.330  1.00  0.00     0.173 A 
ATOM     78  C   UNL A   1      40.102  25.100  26.773  1.00  0.00     0.173 A 
ATOM     79  F   UNL A   1      42.630  24.111  29.187  1.00  0.00    -0.203 F 
ATOM     80  C   UNL A   1      41.023  22.816  28.051  1.00  0.00     0.198 A 
ATOM     81  C   UNL A   1      39.504  23.866  26.521  1.00  0.00     0.198 A 
ATOM     82  F   UNL A   1      39.649  26.182  26.122  1.00  0.00    -0.203 F 
ATOM     83  F   UNL A   1      41.506  21.710  28.633  1.00  0.00    -0.200 F 
ATOM     84  C   UNL A   1      39.973  22.724  27.150  1.00  0.00     0.200 A 
ATOM     85  F   UNL A   1      38.485  23.783  25.655  1.00  0.00    -0.200 F 
ATOM     86  F   UNL A   1      39.424  21.533  26.878  1.00  0.00    -0.200 F 
ENDBRANCH  52  76
BRANCH  64  87
ATOM     87  C   UNL A   1      47.515  27.631  26.132  1.00  0.00     0.064 A 
ATOM     88  C   UNL A   1      47.686  27.636  24.739  1.00  0.00     0.173 A 
ATOM     89  C   UNL A   1      48.527  27.051  26.912  1.00  0.00     0.173 A 
ATOM     90  F   UNL A   1      46.743  28.166  23.945  1.00  0.00    -0.203 F 
ATOM     91  C   UNL A   1      48.809  27.058  24.153  1.00  0.00     0.198 A 
ATOM     92  C   UNL A   1      49.666  26.506  26.324  1.00  0.00     0.198 A 
ATOM     93  F   UNL A   1      48.422  27.027  28.250  1.00  0.00    -0.203 F 
ATOM     94  F   UNL A   1      48.925  27.028  22.818  1.00  0.00    -0.200 F 
ATOM     95  C   UNL A   1      49.802  26.502  24.946  1.00  0.00     0.200 A 
ATOM     96  F   UNL A   1      50.633  25.986  27.095  1.00  0.00    -0.200 F 
ATOM     97  F   UNL A   1      50.887  25.955  24.379  1.00  0.00    -0.200 F 
ENDBRANCH  64  87
ENDBRANCH  38  39
ENDBRANCH  31  33
ENDBRANCH  30  31
ENDBRANCH  29  30
ENDBRANCH  28  29
ENDBRANCH  27  28
ENDBRANCH  26  27
ENDBRANCH  25  26
ENDBRANCH  24  25
ENDBRANCH   1  24
TORSDOF 24
ENDMDL
MODEL 2
REMARK VINA RESULT:      -9.0      1.153      7.293
REMARK SMILES CC(C)N(CCC#N)C(=O)c1ccncc1/C=C/C(=O)OCCOCCOCCOC(=O)c1ccc(-c2c3nc(c(-c4c(F)c(F)c(F)c(F)c4F)c4ccc([nH]4)c(-c4c(F)c(F)c(F)c(F)c4F)c4nc(c(-c5c(F)c(F)c(F)c(F)c5F)c5ccc2[nH]5)C=C4)C=C3)cc1
REMARK SMILES IDX 23 1 22 2 21 3 19 4 20 5 18 6 17 7 16 8 11 9 12 10 13 11
REMARK SMILES IDX 15 12 14 13 9 14 10 15 4 16 2 17 1 18 3 19 5 20 6 21 7 22
REMARK SMILES IDX 8 23 24 24 25 25 26 26 27 27 28 28 29 29 30 30 31 31 32 32
REMARK SMILES IDX 33 33 34 34 95 35 35 36 94 37 36 38 37 39 38 40 88 41 39 42
REMARK SMILES IDX 93 43 87 44 89 45 40 46 92 47 86 48 85 49 41 51 73 52 53 53
REMARK SMILES IDX 72 54 54 55 57 56 71 57 90 58 55 59 56 60 70 62 91 63 58 64
REMARK SMILES IDX 42 65 43 66 51 67 44 68 45 69 49 70 52 71 46 72 47 73 50 74
REMARK SMILES IDX 48 75 74 76 75 77 83 78 76 79 77 80 81 81 84 82 78 83 79 84
REMARK SMILES IDX 82 85 80 86 59 87 60 88 68 89 61 90 62 91 66 92 69 93 63 94
REMARK SMILES IDX 64 95 67 96 65 97
REMARK H PARENT 89 50 57 61
REMARK Flexibility Score: inf
ROOT
ATOM      1  C   UNL A   1      31.852  32.698  26.897  1.00  0.00     0.202 C 
ENDROOT
BRANCH   1   2
ATOM      2  C   UNL A   1      32.077  31.179  27.034  1.00  0.00     0.261 C 
BRANCH   2   3
ATOM      3  O   UNL A   1      33.385  30.763  27.427  1.00  0.00    -0.460 OA
BRANCH   3   4
ATOM      4  C   UNL A   1      33.835  29.580  26.935  1.00  0.00     0.330 C 
ATOM      5  O   UNL A   1      35.000  29.233  26.822  1.00  0.00    -0.247 OA
BRANCH   4   6
ATOM      6  C   UNL A   1      32.700  28.628  26.795  1.00  0.00     0.094 C 
ATOM      7  C   UNL A   1      32.576  27.850  25.705  1.00  0.00     0.018 C 
BRANCH   7   8
ATOM      8  C   UNL A   1      31.331  27.233  25.166  1.00  0.00     0.006 A 
ATOM      9  C   UNL A   1      31.176  25.836  24.916  1.00  0.00     0.050 A 
ATOM     10  C   UNL A   1      30.254  25.461  23.932  1.00  0.00     0.034 A 
ATOM     11  C   UNL A   1      29.364  26.397  23.425  1.00  0.00     0.112 A 
ATOM     12  C   UNL A   1      30.359  28.076  24.609  1.00  0.00     0.119 A 
ATOM     13  N   UNL A   1      29.375  27.691  23.765  1.00  0.00    -0.264 NA
BRANCH   9  14
ATOM     14  C   UNL A   1      31.941  24.794  25.716  1.00  0.00     0.254 C 
ATOM     15  O   UNL A   1      31.659  24.700  26.912  1.00  0.00    -0.269 OA
BRANCH  14  16
ATOM     16  N   UNL A   1      32.914  23.886  25.193  1.00  0.00    -0.335 N 
BRANCH  16  17
ATOM     17  C   UNL A   1      32.378  22.698  24.458  1.00  0.00     0.079 C 
ATOM     18  C   UNL A   1      33.311  22.170  23.354  1.00  0.00     0.031 C 
ATOM     19  C   UNL A   1      31.929  21.573  25.395  1.00  0.00     0.031 C 
ENDBRANCH  16  17
BRANCH  16  20
ATOM     20  C   UNL A   1      34.397  24.026  25.170  1.00  0.00     0.135 C 
BRANCH  20  21
ATOM     21  C   UNL A   1      35.202  23.437  26.342  1.00  0.00     0.141 C 
BRANCH  21  22
ATOM     22  C   UNL A   1      35.744  22.064  25.981  1.00  0.00     0.064 C 
ATOM     23  N   UNL A   1      36.194  20.923  25.681  1.00  0.00    -0.198 NA
ENDBRANCH  21  22
ENDBRANCH  20  21
ENDBRANCH  16  20
ENDBRANCH  14  16
ENDBRANCH   9  14
ENDBRANCH   7   8
ENDBRANCH   4   6
ENDBRANCH   3   4
ENDBRANCH   2   3
ENDBRANCH   1   2
BRANCH   1  24
ATOM     24  O   UNL A   1      32.194  33.658  27.886  1.00  0.00    -0.376 OA
BRANCH  24  25
ATOM     25  C   UNL A   1      33.469  34.265  27.904  1.00  0.00     0.188 C 
BRANCH  25  26
ATOM     26  C   UNL A   1      34.337  34.202  29.174  1.00  0.00     0.188 C 
BRANCH  26  27
ATOM     27  O   UNL A   1      33.674  34.183  30.412  1.00  0.00    -0.376 OA
BRANCH  27  28
ATOM     28  C   UNL A   1      34.335  34.623  31.585  1.00  0.00     0.202 C 
BRANCH  28  29
ATOM     29  C   UNL A   1      35.022  33.728  32.640  1.00  0.00     0.261 C 
BRANCH  29  30
ATOM     30  O   UNL A   1      36.449  33.646  32.646  1.00  0.00    -0.460 OA
BRANCH  30  31
ATOM     31  C   UNL A   1      36.973  32.573  33.289  1.00  0.00     0.338 C 
ATOM     32  O   UNL A   1      36.625  32.101  34.355  1.00  0.00    -0.246 OA
BRANCH  31  33
ATOM     33  C   UNL A   1      37.966  31.930  32.408  1.00  0.00     0.060 A 
ATOM     34  C   UNL A   1      39.042  31.245  32.990  1.00  0.00     0.016 A 
ATOM     35  C   UNL A   1      37.865  32.047  31.022  1.00  0.00     0.016 A 
ATOM     36  C   UNL A   1      40.033  30.688  32.181  1.00  0.00     0.010 A 
ATOM     37  C   UNL A   1      38.869  31.503  30.214  1.00  0.00     0.010 A 
ATOM     38  C   UNL A   1      39.970  30.844  30.790  1.00  0.00    -0.014 A 
BRANCH  38  39
ATOM     39  C   UNL A   1      41.127  30.456  29.945  1.00  0.00     0.031 A 
ATOM     40  C   UNL A   1      41.154  29.077  29.345  1.00  0.00     0.074 A 
ATOM     41  C   UNL A   1      42.137  31.312  29.712  1.00  0.00     0.049 A 
ATOM     42  N   UNL A   1      42.087  28.495  28.634  1.00  0.00    -0.248 NA
ATOM     43  C   UNL A   1      39.967  28.239  29.582  1.00  0.00     0.031 C 
ATOM     44  C   UNL A   1      42.211  32.687  30.200  1.00  0.00     0.029 A 
ATOM     45  N   UNL A   1      43.306  31.140  29.008  1.00  0.00    -0.354 N 
ATOM     46  C   UNL A   1      41.607  27.222  28.352  1.00  0.00     0.074 A 
ATOM     47  C   UNL A   1      40.312  27.107  28.987  1.00  0.00     0.031 C 
ATOM     48  C   UNL A   1      43.370  33.233  29.791  1.00  0.00     0.029 A 
ATOM     49  C   UNL A   1      44.135  32.235  29.046  1.00  0.00     0.049 A 
ATOM     50  H   UNL A   1      43.527  30.312  28.525  1.00  0.00     0.167 HD
ATOM     51  C   UNL A   1      42.192  26.242  27.624  1.00  0.00     0.037 A 
ATOM     52  C   UNL A   1      45.380  32.398  28.556  1.00  0.00     0.037 A 
ATOM     53  C   UNL A   1      43.478  26.361  26.988  1.00  0.00     0.049 A 
ATOM     54  C   UNL A   1      46.040  31.260  27.815  1.00  0.00     0.074 A 
ATOM     55  C   UNL A   1      44.140  25.434  26.202  1.00  0.00     0.029 A 
ATOM     56  N   UNL A   1      44.302  27.474  27.074  1.00  0.00    -0.354 N 
ATOM     57  N   UNL A   1      45.568  30.073  27.521  1.00  0.00    -0.248 NA
ATOM     58  C   UNL A   1      47.413  31.488  27.337  1.00  0.00     0.031 C 
ATOM     59  C   UNL A   1      45.392  25.958  25.867  1.00  0.00     0.029 A 
ATOM     60  C   UNL A   1      45.482  27.241  26.384  1.00  0.00     0.049 A 
ATOM     61  H   UNL A   1      44.082  28.305  27.554  1.00  0.00     0.167 HD
ATOM     62  C   UNL A   1      46.563  29.432  26.793  1.00  0.00     0.074 A 
ATOM     63  C   UNL A   1      47.663  30.365  26.681  1.00  0.00     0.031 C 
ATOM     64  C   UNL A   1      46.565  28.183  26.263  1.00  0.00     0.037 A 
BRANCH  51  65
ATOM     65  C   UNL A   1      41.464  24.935  27.499  1.00  0.00     0.064 A 
ATOM     66  C   UNL A   1      40.344  24.787  26.666  1.00  0.00     0.173 A 
ATOM     67  C   UNL A   1      41.926  23.801  28.183  1.00  0.00     0.173 A 
ATOM     68  F   UNL A   1      39.853  25.843  26.000  1.00  0.00    -0.203 F 
ATOM     69  C   UNL A   1      39.702  23.558  26.541  1.00  0.00     0.198 A 
ATOM     70  C   UNL A   1      41.301  22.566  28.031  1.00  0.00     0.198 A 
ATOM     71  F   UNL A   1      42.996  23.886  28.988  1.00  0.00    -0.203 F 
ATOM     72  F   UNL A   1      38.608  23.449  25.775  1.00  0.00    -0.200 F 
ATOM     73  C   UNL A   1      40.187  22.447  27.216  1.00  0.00     0.200 A 
ATOM     74  F   UNL A   1      41.781  21.491  28.672  1.00  0.00    -0.200 F 
ATOM     75  F   UNL A   1      39.576  21.262  27.084  1.00  0.00    -0.200 F 
ENDBRANCH  51  65
BRANCH  52  76
ATOM     76  C   UNL A   1      46.103  33.683  28.754  1.00  0.00     0.064 A 
ATOM     77  C   UNL A   1      46.864  33.913  29.910  1.00  0.00     0.173 A 
ATOM     78  C   UNL A   1      46.010  34.725  27.820  1.00  0.00     0.173 A 
ATOM     79  F   UNL A   1      46.959  32.961  30.850  1.00  0.00    -0.203 F 
ATOM     80  C   UNL A   1      47.478  35.144  30.136  1.00  0.00     0.198 A 
ATOM     81  C   UNL A   1      46.652  35.944  28.031  1.00  0.00     0.198 A 
ATOM     82  F   UNL A   1      45.289  34.561  26.700  1.00  0.00    -0.203 F 
ATOM     83  F   UNL A   1      48.142  35.358  31.279  1.00  0.00    -0.200 F 
ATOM     84  C   UNL A   1      47.375  36.157  29.194  1.00  0.00     0.200 A 
ATOM     85  F   UNL A   1      46.557  36.917  27.114  1.00  0.00    -0.200 F 
ATOM     86  F   UNL A   1      47.960  37.342  29.415  1.00  0.00    -0.200 F 
ENDBRANCH  52  76
BRANCH  64  87
ATOM     87  C   UNL A   1      47.769  27.767  25.465  1.00  0.00     0.064 A 
ATOM     88  C   UNL A   1      48.935  27.282  26.077  1.00  0.00     0.173 A 
ATOM     89  C   UNL A   1      47.737  27.812  24.063  1.00  0.00     0.173 A 
ATOM     90  F   UNL A   1      49.023  27.229  27.416  1.00  0.00    -0.203 F 
ATOM     91  C   UNL A   1      50.033  26.888  25.317  1.00  0.00     0.198 A 
ATOM     92  C   UNL A   1      48.824  27.383  23.305  1.00  0.00     0.198 A 
ATOM     93  F   UNL A   1      46.645  28.257  23.424  1.00  0.00    -0.203 F 
ATOM     94  F   UNL A   1      51.154  26.478  25.925  1.00  0.00    -0.200 F 
ATOM     95  C   UNL A   1      49.973  26.930  23.932  1.00  0.00     0.200 A 
ATOM     96  F   UNL A   1      48.756  27.407  21.965  1.00  0.00    -0.200 F 
ATOM     97  F   UNL A   1      51.028  26.540  23.202  1.00  0.00    -0.200 F 
ENDBRANCH  64  87
ENDBRANCH  38  39
ENDBRANCH  31  33
ENDBRANCH  30  31
ENDBRANCH  29  30
ENDBRANCH  28  29
ENDBRANCH  27  28
ENDBRANCH  26  27
ENDBRANCH  25  26
ENDBRANCH  24  25
ENDBRANCH   1  24
TORSDOF 24
ENDMDL
MODEL 3
REMARK VINA RESULT:      -8.4      3.379      8.089
REMARK SMILES CC(C)N(CCC#N)C(=O)c1ccncc1/C=C/C(=O)OCCOCCOCCOC(=O)c1ccc(-c2c3nc(c(-c4c(F)c(F)c(F)c(F)c4F)c4ccc([nH]4)c(-c4c(F)c(F)c(F)c(F)c4F)c4nc(c(-c5c(F)c(F)c(F)c(F)c5F)c5ccc2[nH]5)C=C4)C=C3)cc1
REMARK SMILES IDX 23 1 22 2 21 3 19 4 20 5 18 6 17 7 16 8 11 9 12 10 13 11
REMARK SMILES IDX 15 12 14 13 9 14 10 15 4 16 2 17 1 18 3 19 5 20 6 21 7 22
REMARK SMILES IDX 8 23 24 24 25 25 26 26 27 27 28 28 29 29 30 30 31 31 32 32
REMARK SMILES IDX 33 33 34 34 95 35 35 36 94 37 36 38 37 39 38 40 88 41 39 42
REMARK SMILES IDX 93 43 87 44 89 45 40 46 92 47 86 48 85 49 41 51 73 52 53 53
REMARK SMILES IDX 72 54 54 55 57 56 71 57 90 58 55 59 56 60 70 62 91 63 58 64
REMARK SMILES IDX 42 65 43 66 51 67 44 68 45 69 49 70 52 71 46 72 47 73 50 74
REMARK SMILES IDX 48 75 74 76 75 77 83 78 76 79 77 80 81 81 84 82 78 83 79 84
REMARK SMILES IDX 82 85 80 86 59 87 60 88 68 89 61 90 62 91 66 92 69 93 63 94
REMARK SMILES IDX 64 95 67 96 65 97
REMARK H PARENT 89 50 57 61
REMARK Flexibility Score: inf
ROOT
ATOM      1  C   UNL A   1      35.263  33.125  28.086  1.00  0.00     0.202 C 
ENDROOT
BRANCH   1   2
ATOM      2  C   UNL A   1      34.688  31.729  28.397  1.00  0.00     0.261 C 
BRANCH   2   3
ATOM      3  O   UNL A   1      34.190  30.985  27.286  1.00  0.00    -0.460 OA
BRANCH   3   4
ATOM      4  C   UNL A   1      34.532  29.673  27.213  1.00  0.00     0.330 C 
ATOM      5  O   UNL A   1      35.452  29.125  27.800  1.00  0.00    -0.247 OA
BRANCH   4   6
ATOM      6  C   UNL A   1      33.459  28.910  26.519  1.00  0.00     0.094 C 
ATOM      7  C   UNL A   1      33.256  29.043  25.196  1.00  0.00     0.018 C 
BRANCH   7   8
ATOM      8  C   UNL A   1      32.001  28.777  24.439  1.00  0.00     0.006 A 
ATOM      9  C   UNL A   1      31.900  27.841  23.365  1.00  0.00     0.050 A 
ATOM     10  C   UNL A   1      30.909  28.074  22.404  1.00  0.00     0.034 A 
ATOM     11  C   UNL A   1      29.924  29.020  22.642  1.00  0.00     0.112 A 
ATOM     12  C   UNL A   1      30.934  29.675  24.582  1.00  0.00     0.119 A 
ATOM     13  N   UNL A   1      29.896  29.807  23.725  1.00  0.00    -0.264 NA
BRANCH   9  14
ATOM     14  C   UNL A   1      32.796  26.614  23.291  1.00  0.00     0.254 C 
ATOM     15  O   UNL A   1      34.010  26.820  23.243  1.00  0.00    -0.269 OA
BRANCH  14  16
ATOM     16  N   UNL A   1      32.356  25.254  23.326  1.00  0.00    -0.335 N 
BRANCH  16  17
ATOM     17  C   UNL A   1      32.461  24.495  22.041  1.00  0.00     0.079 C 
ATOM     18  C   UNL A   1      32.622  25.387  20.798  1.00  0.00     0.031 C 
ATOM     19  C   UNL A   1      33.529  23.399  22.084  1.00  0.00     0.031 C 
ENDBRANCH  16  17
BRANCH  16  20
ATOM     20  C   UNL A   1      31.921  24.449  24.501  1.00  0.00     0.135 C 
BRANCH  20  21
ATOM     21  C   UNL A   1      31.317  25.190  25.708  1.00  0.00     0.141 C 
BRANCH  21  22
ATOM     22  C   UNL A   1      30.482  24.243  26.554  1.00  0.00     0.064 C 
ATOM     23  N   UNL A   1      29.789  23.457  27.257  1.00  0.00    -0.198 NA
ENDBRANCH  21  22
ENDBRANCH  20  21
ENDBRANCH  16  20
ENDBRANCH  14  16
ENDBRANCH   9  14
ENDBRANCH   7   8
ENDBRANCH   4   6
ENDBRANCH   3   4
ENDBRANCH   2   3
ENDBRANCH   1   2
BRANCH   1  24
ATOM     24  O   UNL A   1      35.102  34.269  28.913  1.00  0.00    -0.376 OA
BRANCH  24  25
ATOM     25  C   UNL A   1      34.151  34.286  29.957  1.00  0.00     0.188 C 
BRANCH  25  26
ATOM     26  C   UNL A   1      34.614  34.211  31.423  1.00  0.00     0.188 C 
BRANCH  26  27
ATOM     27  O   UNL A   1      35.979  33.979  31.661  1.00  0.00    -0.376 OA
BRANCH  27  28
ATOM     28  C   UNL A   1      36.526  32.685  31.483  1.00  0.00     0.202 C 
BRANCH  28  29
ATOM     29  C   UNL A   1      35.848  31.345  31.845  1.00  0.00     0.261 C 
BRANCH  29  30
ATOM     30  O   UNL A   1      36.450  30.128  31.395  1.00  0.00    -0.460 OA
BRANCH  30  31
ATOM     31  C   UNL A   1      37.456  29.649  32.169  1.00  0.00     0.338 C 
ATOM     32  O   UNL A   1      37.364  28.934  33.149  1.00  0.00    -0.246 OA
BRANCH  31  33
ATOM     33  C   UNL A   1      38.744  30.000  31.544  1.00  0.00     0.060 A 
ATOM     34  C   UNL A   1      39.837  30.296  32.371  1.00  0.00     0.016 A 
ATOM     35  C   UNL A   1      38.858  30.089  30.156  1.00  0.00     0.016 A 
ATOM     36  C   UNL A   1      41.048  30.699  31.808  1.00  0.00     0.010 A 
ATOM     37  C   UNL A   1      40.068  30.510  29.595  1.00  0.00     0.010 A 
ATOM     38  C   UNL A   1      41.160  30.843  30.418  1.00  0.00    -0.014 A 
BRANCH  38  39
ATOM     39  C   UNL A   1      42.363  31.484  29.831  1.00  0.00     0.031 A 
ATOM     40  C   UNL A   1      43.520  30.614  29.422  1.00  0.00     0.074 A 
ATOM     41  C   UNL A   1      42.429  32.816  29.661  1.00  0.00     0.049 A 
ATOM     42  N   UNL A   1      44.695  30.954  28.954  1.00  0.00    -0.248 NA
ATOM     43  C   UNL A   1      43.326  29.162  29.563  1.00  0.00     0.031 C 
ATOM     44  C   UNL A   1      41.363  33.763  29.978  1.00  0.00     0.029 A 
ATOM     45  N   UNL A   1      43.451  33.604  29.188  1.00  0.00    -0.354 N 
ATOM     46  C   UNL A   1      45.382  29.763  28.758  1.00  0.00     0.074 A 
ATOM     47  C   UNL A   1      44.504  28.693  29.181  1.00  0.00     0.031 C 
ATOM     48  C   UNL A   1      41.789  35.008  29.700  1.00  0.00     0.029 A 
ATOM     49  C   UNL A   1      43.169  34.948  29.223  1.00  0.00     0.049 A 
ATOM     50  H   UNL A   1      44.302  33.240  28.856  1.00  0.00     0.167 HD
ATOM     51  C   UNL A   1      46.630  29.580  28.266  1.00  0.00     0.037 A 
ATOM     52  C   UNL A   1      43.950  36.007  28.928  1.00  0.00     0.037 A 
ATOM     53  C   UNL A   1      47.499  30.646  27.841  1.00  0.00     0.049 A 
ATOM     54  C   UNL A   1      45.365  35.776  28.456  1.00  0.00     0.074 A 
ATOM     55  C   UNL A   1      48.769  30.558  27.298  1.00  0.00     0.029 A 
ATOM     56  N   UNL A   1      47.191  31.996  27.921  1.00  0.00    -0.354 N 
ATOM     57  N   UNL A   1      45.996  34.648  28.239  1.00  0.00    -0.248 NA
ATOM     58  C   UNL A   1      46.177  36.973  28.186  1.00  0.00     0.031 C 
ATOM     59  C   UNL A   1      49.255  31.855  27.111  1.00  0.00     0.029 A 
ATOM     60  C   UNL A   1      48.262  32.751  27.470  1.00  0.00     0.049 A 
ATOM     61  H   UNL A   1      46.339  32.363  28.249  1.00  0.00     0.167 HD
ATOM     62  C   UNL A   1      47.258  34.996  27.772  1.00  0.00     0.074 A 
ATOM     63  C   UNL A   1      47.300  36.441  27.726  1.00  0.00     0.031 C 
ATOM     64  C   UNL A   1      48.288  34.191  27.411  1.00  0.00     0.037 A 
BRANCH  51  65
ATOM     65  C   UNL A   1      47.151  28.174  28.188  1.00  0.00     0.064 A 
ATOM     66  C   UNL A   1      47.030  27.403  27.023  1.00  0.00     0.173 A 
ATOM     67  C   UNL A   1      47.827  27.610  29.281  1.00  0.00     0.173 A 
ATOM     68  F   UNL A   1      46.381  27.889  25.954  1.00  0.00    -0.203 F 
ATOM     69  C   UNL A   1      47.548  26.111  26.962  1.00  0.00     0.198 A 
ATOM     70  C   UNL A   1      48.372  26.331  29.205  1.00  0.00     0.198 A 
ATOM     71  F   UNL A   1      47.976  28.307  30.418  1.00  0.00    -0.203 F 
ATOM     72  F   UNL A   1      47.383  25.376  25.854  1.00  0.00    -0.200 F 
ATOM     73  C   UNL A   1      48.226  25.581  28.049  1.00  0.00     0.200 A 
ATOM     74  F   UNL A   1      49.040  25.827  30.253  1.00  0.00    -0.200 F 
ATOM     75  F   UNL A   1      48.737  24.344  27.985  1.00  0.00    -0.200 F 
ENDBRANCH  51  65
BRANCH  52  76
ATOM     76  C   UNL A   1      43.426  37.392  29.080  1.00  0.00     0.064 A 
ATOM     77  C   UNL A   1      43.698  38.145  30.231  1.00  0.00     0.173 A 
ATOM     78  C   UNL A   1      42.605  37.972  28.102  1.00  0.00     0.173 A 
ATOM     79  F   UNL A   1      44.453  37.623  31.210  1.00  0.00    -0.203 F 
ATOM     80  C   UNL A   1      43.145  39.412  30.411  1.00  0.00     0.198 A 
ATOM     81  C   UNL A   1      42.079  39.253  28.269  1.00  0.00     0.198 A 
ATOM     82  F   UNL A   1      42.306  37.292  26.985  1.00  0.00    -0.203 F 
ATOM     83  F   UNL A   1      43.368  40.081  31.550  1.00  0.00    -0.200 F 
ATOM     84  C   UNL A   1      42.340  39.966  29.428  1.00  0.00     0.200 A 
ATOM     85  F   UNL A   1      41.308  39.787  27.312  1.00  0.00    -0.200 F 
ATOM     86  F   UNL A   1      41.803  41.181  29.605  1.00  0.00    -0.200 F 
ENDBRANCH  52  76
BRANCH  64  87
ATOM     87  C   UNL A   1      49.533  34.847  26.882  1.00  0.00     0.064 A 
ATOM     88  C   UNL A   1      50.671  35.035  27.680  1.00  0.00     0.173 A 
ATOM     89  C   UNL A   1      49.601  35.254  25.540  1.00  0.00     0.173 A 
ATOM     90  F   UNL A   1      50.656  34.675  28.973  1.00  0.00    -0.203 F 
ATOM     91  C   UNL A   1      51.819  35.631  27.163  1.00  0.00     0.198 A 
ATOM     92  C   UNL A   1      50.762  35.818  25.017  1.00  0.00     0.198 A 
ATOM     93  F   UNL A   1      48.546  35.089  24.728  1.00  0.00    -0.203 F 
ATOM     94  F   UNL A   1      52.875  35.848  27.959  1.00  0.00    -0.200 F 
ATOM     95  C   UNL A   1      51.866  36.014  25.831  1.00  0.00     0.200 A 
ATOM     96  F   UNL A   1      50.811  36.168  23.724  1.00  0.00    -0.200 F 
ATOM     97  F   UNL A   1      52.976  36.579  25.333  1.00  0.00    -0.200 F 
ENDBRANCH  64  87
ENDBRANCH  38  39
ENDBRANCH  31  33
ENDBRANCH  30  31
ENDBRANCH  29  30
ENDBRANCH  28  29
ENDBRANCH  27  28
ENDBRANCH  26  27
ENDBRANCH  25  26
ENDBRANCH  24  25
ENDBRANCH   1  24
TORSDOF 24
ENDMDL
