MODEL 1
REMARK VINA RESULT:     -11.2      0.000      0.000
REMARK SMILES C[C@H](c1ccncc1)[N@H+]1[C@@H]2CC[C@H]1C[C@H](CC(=O)OCCOCCOCCOC(=O)c1ccc(-c3c4nc(c(-c5c(F)c(F)c(F)c(F)c5F)c5ccc([nH]5)c(-c5c(F)c(F)c(F)c(F)c5F)c5nc(c(-c6c(F)c(F)c(F)c(F)c6F)c6ccc3[nH]6)C=C5)C=C4)cc1)C2
REMARK SMILES IDX 23 1 22 2 21 3 20 4 19 5 17 6 18 7 16 8 15 9 9 10 10 11
REMARK SMILES IDX 13 12 11 14 94 15 12 16 14 17 2 18 1 19 3 20 4 21 8 22 5 23
REMARK SMILES IDX 7 24 6 25 24 26 25 27 26 28 27 29 28 30 29 31 30 32 31 33
REMARK SMILES IDX 32 34 93 35 33 36 92 37 34 38 35 39 36 40 86 41 37 42 91 43
REMARK SMILES IDX 85 44 87 45 38 46 90 47 84 48 83 49 39 51 71 52 51 53 70 54
REMARK SMILES IDX 52 55 55 56 69 57 88 58 53 59 54 60 68 62 89 63 56 64 40 65
REMARK SMILES IDX 41 66 49 67 42 68 43 69 47 70 50 71 44 72 45 73 48 74 46 75
REMARK SMILES IDX 72 76 73 77 81 78 74 79 75 80 79 81 82 82 76 83 77 84 80 85
REMARK SMILES IDX 78 86 57 87 58 88 66 89 59 90 60 91 64 92 67 93 61 94 62 95
REMARK SMILES IDX 65 96 63 97
REMARK H PARENT 9 13 87 50 55 61
REMARK Flexibility Score: inf
ROOT
ATOM      1  C   UNL A   1      35.141  22.114  26.132  1.00  0.00     0.188 C 
ENDROOT
BRANCH   1   2
ATOM      2  O   UNL A   1      34.641  21.618  27.359  1.00  0.00    -0.376 OA
BRANCH   2   3
ATOM      3  C   UNL A   1      33.408  22.172  27.822  1.00  0.00     0.202 C 
BRANCH   3   4
ATOM      4  C   UNL A   1      32.431  22.686  26.758  1.00  0.00     0.261 C 
BRANCH   4   5
ATOM      5  O   UNL A   1      31.422  23.521  27.359  1.00  0.00    -0.463 OA
BRANCH   5   6
ATOM      6  C   UNL A   1      30.572  24.128  26.502  1.00  0.00     0.306 C 
ATOM      7  O   UNL A   1      29.622  24.830  26.841  1.00  0.00    -0.252 OA
BRANCH   6   8
ATOM      8  C   UNL A   1      31.003  24.044  25.053  1.00  0.00     0.126 C 
BRANCH   8   9
ATOM      9  C   UNL A   1      31.468  25.273  24.240  1.00  0.00     0.012 C 
ATOM     10  N   UNL A   1      32.700  27.839  25.000  1.00  0.00    -0.324 N 
ATOM     11  C   UNL A   1      33.516  26.874  24.277  1.00  0.00     0.185 C 
ATOM     12  C   UNL A   1      31.440  27.874  24.261  1.00  0.00     0.185 C 
ATOM     13  H   UNL A   1      33.156  28.751  25.011  1.00  0.00     0.349 HD
ATOM     14  C   UNL A   1      33.312  27.322  22.825  1.00  0.00     0.071 C 
ATOM     15  C   UNL A   1      32.991  25.455  24.488  1.00  0.00     0.069 C 
ATOM     16  C   UNL A   1      31.954  28.020  22.823  1.00  0.00     0.071 C 
ATOM     17  C   UNL A   1      30.640  26.565  24.408  1.00  0.00     0.069 C 
BRANCH  10  18
ATOM     18  C   UNL A   1      32.745  27.980  26.464  1.00  0.00     0.212 C 
ATOM     19  C   UNL A   1      31.403  27.787  27.197  1.00  0.00     0.081 C 
BRANCH  18  20
ATOM     20  C   UNL A   1      33.517  29.179  27.014  1.00  0.00     0.012 A 
ATOM     21  C   UNL A   1      32.929  30.427  27.251  1.00  0.00     0.030 A 
ATOM     22  C   UNL A   1      34.897  29.064  27.237  1.00  0.00     0.030 A 
ATOM     23  C   UNL A   1      33.739  31.494  27.627  1.00  0.00     0.111 A 
ATOM     24  C   UNL A   1      35.619  30.184  27.623  1.00  0.00     0.111 A 
ATOM     25  N   UNL A   1      35.073  31.402  27.808  1.00  0.00    -0.265 NA
ENDBRANCH  18  20
ENDBRANCH  10  18
ENDBRANCH   8   9
ENDBRANCH   6   8
ENDBRANCH   5   6
ENDBRANCH   4   5
ENDBRANCH   3   4
ENDBRANCH   2   3
ENDBRANCH   1   2
BRANCH   1  26
ATOM     26  C   UNL A   1      35.942  21.140  25.271  1.00  0.00     0.188 C 
BRANCH  26  27
ATOM     27  O   UNL A   1      37.361  21.133  25.297  1.00  0.00    -0.376 OA
BRANCH  27  28
ATOM     28  C   UNL A   1      38.023  19.913  24.959  1.00  0.00     0.202 C 
BRANCH  28  29
ATOM     29  C   UNL A   1      39.264  19.433  25.752  1.00  0.00     0.261 C 
BRANCH  29  30
ATOM     30  O   UNL A   1      40.304  20.397  25.938  1.00  0.00    -0.460 OA
BRANCH  30  31
ATOM     31  C   UNL A   1      40.779  20.493  27.207  1.00  0.00     0.338 C 
ATOM     32  O   UNL A   1      41.097  19.576  27.935  1.00  0.00    -0.246 OA
BRANCH  31  33
ATOM     33  C   UNL A   1      41.086  21.926  27.483  1.00  0.00     0.060 A 
ATOM     34  C   UNL A   1      40.362  22.891  26.768  1.00  0.00     0.016 A 
ATOM     35  C   UNL A   1      41.970  22.328  28.489  1.00  0.00     0.016 A 
ATOM     36  C   UNL A   1      40.530  24.252  27.043  1.00  0.00     0.010 A 
ATOM     37  C   UNL A   1      42.154  23.692  28.750  1.00  0.00     0.010 A 
ATOM     38  C   UNL A   1      41.454  24.663  28.011  1.00  0.00    -0.014 A 
BRANCH  38  39
ATOM     39  C   UNL A   1      41.855  26.093  28.099  1.00  0.00     0.031 A 
ATOM     40  C   UNL A   1      43.175  26.492  27.496  1.00  0.00     0.074 A 
ATOM     41  C   UNL A   1      41.082  27.027  28.683  1.00  0.00     0.049 A 
ATOM     42  N   UNL A   1      43.786  27.648  27.508  1.00  0.00    -0.248 NA
ATOM     43  C   UNL A   1      43.905  25.432  26.781  1.00  0.00     0.031 C 
ATOM     44  C   UNL A   1      39.761  26.800  29.260  1.00  0.00     0.029 A 
ATOM     45  N   UNL A   1      41.317  28.366  28.893  1.00  0.00    -0.354 N 
ATOM     46  C   UNL A   1      44.973  27.454  26.814  1.00  0.00     0.074 A 
ATOM     47  C   UNL A   1      45.011  26.062  26.420  1.00  0.00     0.031 C 
ATOM     48  C   UNL A   1      39.306  27.958  29.775  1.00  0.00     0.029 A 
ATOM     49  C   UNL A   1      40.321  28.998  29.598  1.00  0.00     0.049 A 
ATOM     50  H   UNL A   1      42.123  28.830  28.570  1.00  0.00     0.167 HD
ATOM     51  C   UNL A   1      45.943  28.351  26.523  1.00  0.00     0.037 A 
ATOM     52  C   UNL A   1      40.250  30.261  30.070  1.00  0.00     0.037 A 
ATOM     53  C   UNL A   1      45.917  29.735  26.917  1.00  0.00     0.049 A 
ATOM     54  C   UNL A   1      41.392  31.219  29.819  1.00  0.00     0.074 A 
ATOM     55  C   UNL A   1      46.850  30.722  26.656  1.00  0.00     0.029 A 
ATOM     56  N   UNL A   1      44.911  30.324  27.668  1.00  0.00    -0.354 N 
ATOM     57  N   UNL A   1      42.500  31.036  29.143  1.00  0.00    -0.248 NA
ATOM     58  C   UNL A   1      41.269  32.565  30.402  1.00  0.00     0.031 C 
ATOM     59  C   UNL A   1      46.441  31.893  27.302  1.00  0.00     0.029 A 
ATOM     60  C   UNL A   1      45.219  31.654  27.909  1.00  0.00     0.049 A 
ATOM     61  H   UNL A   1      44.099  29.865  27.984  1.00  0.00     0.167 HD
ATOM     62  C   UNL A   1      43.188  32.244  29.194  1.00  0.00     0.074 A 
ATOM     63  C   UNL A   1      42.365  33.160  29.954  1.00  0.00     0.031 C 
ATOM     64  C   UNL A   1      44.392  32.564  28.660  1.00  0.00     0.037 A 
BRANCH  51  65
ATOM     65  C   UNL A   1      47.139  27.851  25.768  1.00  0.00     0.064 A 
ATOM     66  C   UNL A   1      47.169  27.818  24.366  1.00  0.00     0.173 A 
ATOM     67  C   UNL A   1      48.282  27.420  26.458  1.00  0.00     0.173 A 
ATOM     68  F   UNL A   1      46.096  28.202  23.658  1.00  0.00    -0.203 F 
ATOM     69  C   UNL A   1      48.286  27.344  23.684  1.00  0.00     0.198 A 
ATOM     70  C   UNL A   1      49.410  26.979  25.774  1.00  0.00     0.198 A 
ATOM     71  F   UNL A   1      48.307  27.433  27.800  1.00  0.00    -0.203 F 
ATOM     72  F   UNL A   1      48.271  27.269  22.346  1.00  0.00    -0.200 F 
ATOM     73  C   UNL A   1      49.408  26.932  24.388  1.00  0.00     0.200 A 
ATOM     74  F   UNL A   1      50.497  26.594  26.455  1.00  0.00    -0.200 F 
ATOM     75  F   UNL A   1      50.486  26.482  23.730  1.00  0.00    -0.200 F 
ENDBRANCH  51  65
BRANCH  52  76
ATOM     76  C   UNL A   1      39.068  30.702  30.861  1.00  0.00     0.064 A 
ATOM     77  C   UNL A   1      38.047  31.464  30.276  1.00  0.00     0.173 A 
ATOM     78  C   UNL A   1      38.959  30.414  32.230  1.00  0.00     0.173 A 
ATOM     79  F   UNL A   1      38.121  31.798  28.979  1.00  0.00    -0.203 F 
ATOM     80  C   UNL A   1      36.976  31.938  31.032  1.00  0.00     0.198 A 
ATOM     81  C   UNL A   1      37.872  30.861  32.978  1.00  0.00     0.198 A 
ATOM     82  F   UNL A   1      39.914  29.699  32.844  1.00  0.00    -0.203 F 
ATOM     83  F   UNL A   1      36.046  32.715  30.459  1.00  0.00    -0.200 F 
ATOM     84  C   UNL A   1      36.886  31.631  32.381  1.00  0.00     0.200 A 
ATOM     85  F   UNL A   1      37.786  30.555  34.280  1.00  0.00    -0.200 F 
ATOM     86  F   UNL A   1      35.858  32.088  33.108  1.00  0.00    -0.200 F 
ENDBRANCH  52  76
BRANCH  64  87
ATOM     87  C   UNL A   1      44.885  33.974  28.835  1.00  0.00     0.064 A 
ATOM     88  C   UNL A   1      44.495  35.008  27.970  1.00  0.00     0.173 A 
ATOM     89  C   UNL A   1      45.722  34.307  29.913  1.00  0.00     0.173 A 
ATOM     90  F   UNL A   1      43.707  34.746  26.916  1.00  0.00    -0.203 F 
ATOM     91  C   UNL A   1      44.946  36.313  28.162  1.00  0.00     0.198 A 
ATOM     92  C   UNL A   1      46.141  35.618  30.122  1.00  0.00     0.198 A 
ATOM     93  F   UNL A   1      46.117  33.360  30.778  1.00  0.00    -0.203 F 
ATOM     94  F   UNL A   1      44.600  37.273  27.294  1.00  0.00    -0.200 F 
ATOM     95  C   UNL A   1      45.760  36.618  29.242  1.00  0.00     0.200 A 
ATOM     96  F   UNL A   1      46.913  35.913  31.177  1.00  0.00    -0.200 F 
ATOM     97  F   UNL A   1      46.184  37.876  29.431  1.00  0.00    -0.200 F 
ENDBRANCH  64  87
ENDBRANCH  38  39
ENDBRANCH  31  33
ENDBRANCH  30  31
ENDBRANCH  29  30
ENDBRANCH  28  29
ENDBRANCH  27  28
ENDBRANCH  26  27
ENDBRANCH   1  26
TORSDOF 20
ENDMDL
MODEL 2
REMARK VINA RESULT:     -11.0      1.635      2.875
REMARK SMILES C[C@H](c1ccncc1)[N@H+]1[C@@H]2CC[C@H]1C[C@H](CC(=O)OCCOCCOCCOC(=O)c1ccc(-c3c4nc(c(-c5c(F)c(F)c(F)c(F)c5F)c5ccc([nH]5)c(-c5c(F)c(F)c(F)c(F)c5F)c5nc(c(-c6c(F)c(F)c(F)c(F)c6F)c6ccc3[nH]6)C=C5)C=C4)cc1)C2
REMARK SMILES IDX 23 1 22 2 21 3 20 4 19 5 17 6 18 7 16 8 15 9 9 10 10 11
REMARK SMILES IDX 13 12 11 14 94 15 12 16 14 17 2 18 1 19 3 20 4 21 8 22 5 23
REMARK SMILES IDX 7 24 6 25 24 26 25 27 26 28 27 29 28 30 29 31 30 32 31 33
REMARK SMILES IDX 32 34 93 35 33 36 92 37 34 38 35 39 36 40 86 41 37 42 91 43
REMARK SMILES IDX 85 44 87 45 38 46 90 47 84 48 83 49 39 51 71 52 51 53 70 54
REMARK SMILES IDX 52 55 55 56 69 57 88 58 53 59 54 60 68 62 89 63 56 64 40 65
REMARK SMILES IDX 41 66 49 67 42 68 43 69 47 70 50 71 44 72 45 73 48 74 46 75
REMARK SMILES IDX 72 76 73 77 81 78 74 79 75 80 79 81 82 82 76 83 77 84 80 85
REMARK SMILES IDX 78 86 57 87 58 88 66 89 59 90 60 91 64 92 67 93 61 94 62 95
REMARK SMILES IDX 65 96 63 97
REMARK H PARENT 9 13 87 50 55 61
REMARK Flexibility Score: inf
ROOT
ATOM      1  C   UNL A   1      36.321  23.580  25.732  1.00  0.00     0.188 C 
ENDROOT
BRANCH   1   2
ATOM      2  O   UNL A   1      35.177  22.757  25.600  1.00  0.00    -0.376 OA
BRANCH   2   3
ATOM      3  C   UNL A   1      34.711  22.108  26.784  1.00  0.00     0.202 C 
BRANCH   3   4
ATOM      4  C   UNL A   1      33.200  21.877  26.904  1.00  0.00     0.261 C 
BRANCH   4   5
ATOM      5  O   UNL A   1      32.577  22.966  27.612  1.00  0.00    -0.463 OA
BRANCH   5   6
ATOM      6  C   UNL A   1      31.591  23.611  26.951  1.00  0.00     0.306 C 
ATOM      7  O   UNL A   1      30.399  23.551  27.244  1.00  0.00    -0.252 OA
BRANCH   6   8
ATOM      8  C   UNL A   1      32.093  24.600  25.920  1.00  0.00     0.126 C 
BRANCH   8   9
ATOM      9  C   UNL A   1      32.517  26.043  26.274  1.00  0.00     0.012 C 
ATOM     10  N   UNL A   1      32.103  28.643  24.952  1.00  0.00    -0.324 N 
ATOM     11  C   UNL A   1      31.403  28.391  26.203  1.00  0.00     0.185 C 
ATOM     12  C   UNL A   1      33.476  28.215  25.211  1.00  0.00     0.185 C 
ATOM     13  H   UNL A   1      32.055  29.633  24.712  1.00  0.00     0.349 HD
ATOM     14  C   UNL A   1      32.376  28.988  27.227  1.00  0.00     0.071 C 
ATOM     15  C   UNL A   1      31.225  26.892  26.431  1.00  0.00     0.069 C 
ATOM     16  C   UNL A   1      33.743  28.908  26.554  1.00  0.00     0.071 C 
ATOM     17  C   UNL A   1      33.591  26.687  25.371  1.00  0.00     0.069 C 
BRANCH  10  18
ATOM     18  C   UNL A   1      31.469  28.461  23.635  1.00  0.00     0.212 C 
ATOM     19  C   UNL A   1      32.292  28.943  22.424  1.00  0.00     0.081 C 
BRANCH  18  20
ATOM     20  C   UNL A   1      30.004  28.875  23.517  1.00  0.00     0.012 A 
ATOM     21  C   UNL A   1      28.957  27.959  23.357  1.00  0.00     0.030 A 
ATOM     22  C   UNL A   1      29.674  30.239  23.501  1.00  0.00     0.030 A 
ATOM     23  C   UNL A   1      27.671  28.437  23.126  1.00  0.00     0.111 A 
ATOM     24  C   UNL A   1      28.359  30.618  23.276  1.00  0.00     0.111 A 
ATOM     25  N   UNL A   1      27.351  29.746  23.073  1.00  0.00    -0.265 NA
ENDBRANCH  18  20
ENDBRANCH  10  18
ENDBRANCH   8   9
ENDBRANCH   6   8
ENDBRANCH   5   6
ENDBRANCH   4   5
ENDBRANCH   3   4
ENDBRANCH   2   3
ENDBRANCH   1   2
BRANCH   1  26
ATOM     26  C   UNL A   1      37.667  22.950  25.377  1.00  0.00     0.188 C 
BRANCH  26  27
ATOM     27  O   UNL A   1      38.115  21.768  26.021  1.00  0.00    -0.376 OA
BRANCH  27  28
ATOM     28  C   UNL A   1      38.018  20.541  25.294  1.00  0.00     0.202 C 
BRANCH  28  29
ATOM     29  C   UNL A   1      39.139  19.475  25.374  1.00  0.00     0.261 C 
BRANCH  29  30
ATOM     30  O   UNL A   1      39.973  19.526  26.534  1.00  0.00    -0.460 OA
BRANCH  30  31
ATOM     31  C   UNL A   1      41.306  19.581  26.282  1.00  0.00     0.338 C 
ATOM     32  O   UNL A   1      41.992  18.703  25.803  1.00  0.00    -0.246 OA
BRANCH  31  33
ATOM     33  C   UNL A   1      41.756  20.993  26.457  1.00  0.00     0.060 A 
ATOM     34  C   UNL A   1      42.072  21.413  27.757  1.00  0.00     0.016 A 
ATOM     35  C   UNL A   1      41.976  21.855  25.377  1.00  0.00     0.016 A 
ATOM     36  C   UNL A   1      42.589  22.692  27.983  1.00  0.00     0.010 A 
ATOM     37  C   UNL A   1      42.475  23.144  25.606  1.00  0.00     0.010 A 
ATOM     38  C   UNL A   1      42.761  23.580  26.913  1.00  0.00    -0.014 A 
BRANCH  38  39
ATOM     39  C   UNL A   1      43.021  25.020  27.173  1.00  0.00     0.031 A 
ATOM     40  C   UNL A   1      44.374  25.568  26.806  1.00  0.00     0.074 A 
ATOM     41  C   UNL A   1      42.097  25.838  27.709  1.00  0.00     0.049 A 
ATOM     42  N   UNL A   1      44.876  26.760  27.003  1.00  0.00    -0.248 NA
ATOM     43  C   UNL A   1      45.286  24.634  26.125  1.00  0.00     0.031 C 
ATOM     44  C   UNL A   1      40.731  25.463  28.064  1.00  0.00     0.029 A 
ATOM     45  N   UNL A   1      42.184  27.166  28.059  1.00  0.00    -0.354 N 
ATOM     46  C   UNL A   1      46.161  26.717  26.479  1.00  0.00     0.074 A 
ATOM     47  C   UNL A   1      46.373  25.374  25.984  1.00  0.00     0.031 C 
ATOM     48  C   UNL A   1      40.111  26.532  28.598  1.00  0.00     0.029 A 
ATOM     49  C   UNL A   1      41.048  27.656  28.658  1.00  0.00     0.049 A 
ATOM     50  H   UNL A   1      42.985  27.715  27.897  1.00  0.00     0.167 HD
ATOM     51  C   UNL A   1      47.082  27.705  26.408  1.00  0.00     0.037 A 
ATOM     52  C   UNL A   1      40.804  28.861  29.213  1.00  0.00     0.037 A 
ATOM     53  C   UNL A   1      46.883  29.042  26.903  1.00  0.00     0.049 A 
ATOM     54  C   UNL A   1      41.883  29.920  29.213  1.00  0.00     0.074 A 
ATOM     55  C   UNL A   1      47.756  30.114  26.863  1.00  0.00     0.029 A 
ATOM     56  N   UNL A   1      45.735  29.484  27.541  1.00  0.00    -0.354 N 
ATOM     57  N   UNL A   1      43.088  29.880  28.696  1.00  0.00    -0.248 NA
ATOM     58  C   UNL A   1      41.565  31.194  29.877  1.00  0.00     0.031 C 
ATOM     59  C   UNL A   1      47.161  31.188  27.533  1.00  0.00     0.029 A 
ATOM     60  C   UNL A   1      45.890  30.805  27.931  1.00  0.00     0.049 A 
ATOM     61  H   UNL A   1      44.928  28.940  27.696  1.00  0.00     0.167 HD
ATOM     62  C   UNL A   1      43.655  31.125  28.945  1.00  0.00     0.074 A 
ATOM     63  C   UNL A   1      42.659  31.906  29.645  1.00  0.00     0.031 C 
ATOM     64  C   UNL A   1      44.891  31.580  28.622  1.00  0.00     0.037 A 
BRANCH  51  65
ATOM     65  C   UNL A   1      48.412  27.365  25.800  1.00  0.00     0.064 A 
ATOM     66  C   UNL A   1      49.498  26.945  26.582  1.00  0.00     0.173 A 
ATOM     67  C   UNL A   1      48.594  27.439  24.410  1.00  0.00     0.173 A 
ATOM     68  F   UNL A   1      49.382  26.875  27.917  1.00  0.00    -0.203 F 
ATOM     69  C   UNL A   1      50.725  26.641  25.999  1.00  0.00     0.198 A 
ATOM     70  C   UNL A   1      49.811  27.102  23.828  1.00  0.00     0.198 A 
ATOM     71  F   UNL A   1      47.586  27.833  23.616  1.00  0.00    -0.203 F 
ATOM     72  F   UNL A   1      51.765  26.296  26.771  1.00  0.00    -0.200 F 
ATOM     73  C   UNL A   1      50.878  26.712  24.622  1.00  0.00     0.200 A 
ATOM     74  F   UNL A   1      49.953  27.158  22.496  1.00  0.00    -0.200 F 
ATOM     75  F   UNL A   1      52.058  26.412  24.062  1.00  0.00    -0.200 F 
ENDBRANCH  51  65
BRANCH  52  76
ATOM     76  C   UNL A   1      39.488  29.141  29.853  1.00  0.00     0.064 A 
ATOM     77  C   UNL A   1      38.426  29.690  29.120  1.00  0.00     0.173 A 
ATOM     78  C   UNL A   1      39.281  28.911  31.222  1.00  0.00     0.173 A 
ATOM     79  F   UNL A   1      38.585  29.962  27.816  1.00  0.00    -0.203 F 
ATOM     80  C   UNL A   1      37.219  30.018  29.733  1.00  0.00     0.198 A 
ATOM     81  C   UNL A   1      38.063  29.210  31.828  1.00  0.00     0.198 A 
ATOM     82  F   UNL A   1      40.267  28.399  31.974  1.00  0.00    -0.203 F 
ATOM     83  F   UNL A   1      36.243  30.598  29.021  1.00  0.00    -0.200 F 
ATOM     84  C   UNL A   1      37.035  29.772  31.086  1.00  0.00     0.200 A 
ATOM     85  F   UNL A   1      37.888  28.964  33.134  1.00  0.00    -0.200 F 
ATOM     86  F   UNL A   1      35.875  30.089  31.676  1.00  0.00    -0.200 F 
ENDBRANCH  52  76
BRANCH  64  87
ATOM     87  C   UNL A   1      45.232  33.000  28.981  1.00  0.00     0.064 A 
ATOM     88  C   UNL A   1      44.904  34.076  28.142  1.00  0.00     0.173 A 
ATOM     89  C   UNL A   1      45.854  33.295  30.206  1.00  0.00     0.173 A 
ATOM     90  F   UNL A   1      44.320  33.853  26.955  1.00  0.00    -0.203 F 
ATOM     91  C   UNL A   1      45.209  35.387  28.503  1.00  0.00     0.198 A 
ATOM     92  C   UNL A   1      46.125  34.609  30.579  1.00  0.00     0.198 A 
ATOM     93  F   UNL A   1      46.181  32.306  31.053  1.00  0.00    -0.203 F 
ATOM     94  F   UNL A   1      44.930  36.393  27.662  1.00  0.00    -0.200 F 
ATOM     95  C   UNL A   1      45.811  35.652  29.723  1.00  0.00     0.200 A 
ATOM     96  F   UNL A   1      46.690  34.864  31.766  1.00  0.00    -0.200 F 
ATOM     97  F   UNL A   1      46.094  36.916  30.073  1.00  0.00    -0.200 F 
ENDBRANCH  64  87
ENDBRANCH  38  39
ENDBRANCH  31  33
ENDBRANCH  30  31
ENDBRANCH  29  30
ENDBRANCH  28  29
ENDBRANCH  27  28
ENDBRANCH  26  27
ENDBRANCH   1  26
TORSDOF 20
ENDMDL
MODEL 3
REMARK VINA RESULT:     -11.0      2.164      7.505
REMARK SMILES C[C@H](c1ccncc1)[N@H+]1[C@@H]2CC[C@H]1C[C@H](CC(=O)OCCOCCOCCOC(=O)c1ccc(-c3c4nc(c(-c5c(F)c(F)c(F)c(F)c5F)c5ccc([nH]5)c(-c5c(F)c(F)c(F)c(F)c5F)c5nc(c(-c6c(F)c(F)c(F)c(F)c6F)c6ccc3[nH]6)C=C5)C=C4)cc1)C2
REMARK SMILES IDX 23 1 22 2 21 3 20 4 19 5 17 6 18 7 16 8 15 9 9 10 10 11
REMARK SMILES IDX 13 12 11 14 94 15 12 16 14 17 2 18 1 19 3 20 4 21 8 22 5 23
REMARK SMILES IDX 7 24 6 25 24 26 25 27 26 28 27 29 28 30 29 31 30 32 31 33
REMARK SMILES IDX 32 34 93 35 33 36 92 37 34 38 35 39 36 40 86 41 37 42 91 43
REMARK SMILES IDX 85 44 87 45 38 46 90 47 84 48 83 49 39 51 71 52 51 53 70 54
REMARK SMILES IDX 52 55 55 56 69 57 88 58 53 59 54 60 68 62 89 63 56 64 40 65
REMARK SMILES IDX 41 66 49 67 42 68 43 69 47 70 50 71 44 72 45 73 48 74 46 75
REMARK SMILES IDX 72 76 73 77 81 78 74 79 75 80 79 81 82 82 76 83 77 84 80 85
REMARK SMILES IDX 78 86 57 87 58 88 66 89 59 90 60 91 64 92 67 93 61 94 62 95
REMARK SMILES IDX 65 96 63 97
REMARK H PARENT 9 13 87 50 55 61
REMARK Flexibility Score: inf
ROOT
ATOM      1  C   UNL A   1      35.376  22.499  24.377  1.00  0.00     0.188 C 
ENDROOT
BRANCH   1   2
ATOM      2  O   UNL A   1      34.844  21.627  25.356  1.00  0.00    -0.376 OA
BRANCH   2   3
ATOM      3  C   UNL A   1      33.677  20.887  24.993  1.00  0.00     0.202 C 
BRANCH   3   4
ATOM      4  C   UNL A   1      32.345  21.346  25.598  1.00  0.00     0.261 C 
BRANCH   4   5
ATOM      5  O   UNL A   1      32.571  22.299  26.654  1.00  0.00    -0.463 OA
BRANCH   5   6
ATOM      6  C   UNL A   1      31.816  23.419  26.610  1.00  0.00     0.306 C 
ATOM      7  O   UNL A   1      30.867  23.651  27.354  1.00  0.00    -0.252 OA
BRANCH   6   8
ATOM      8  C   UNL A   1      32.363  24.487  25.686  1.00  0.00     0.126 C 
BRANCH   8   9
ATOM      9  C   UNL A   1      32.676  25.926  26.153  1.00  0.00     0.012 C 
ATOM     10  N   UNL A   1      32.057  28.582  25.038  1.00  0.00    -0.324 N 
ATOM     11  C   UNL A   1      31.383  28.179  26.264  1.00  0.00     0.185 C 
ATOM     12  C   UNL A   1      33.460  28.243  25.267  1.00  0.00     0.185 C 
ATOM     13  H   UNL A   1      31.932  29.581  24.877  1.00  0.00     0.349 HD
ATOM     14  C   UNL A   1      32.310  28.767  27.335  1.00  0.00     0.071 C 
ATOM     15  C   UNL A   1      31.322  26.657  26.373  1.00  0.00     0.069 C 
ATOM     16  C   UNL A   1      33.677  28.846  26.661  1.00  0.00     0.071 C 
ATOM     17  C   UNL A   1      33.693  26.720  25.307  1.00  0.00     0.069 C 
BRANCH  10  18
ATOM     18  C   UNL A   1      31.435  28.456  23.710  1.00  0.00     0.212 C 
ATOM     19  C   UNL A   1      32.337  28.814  22.512  1.00  0.00     0.081 C 
BRANCH  18  20
ATOM     20  C   UNL A   1      30.033  29.043  23.552  1.00  0.00     0.012 A 
ATOM     21  C   UNL A   1      28.933  28.295  23.116  1.00  0.00     0.030 A 
ATOM     22  C   UNL A   1      29.831  30.411  23.786  1.00  0.00     0.030 A 
ATOM     23  C   UNL A   1      27.727  28.946  22.876  1.00  0.00     0.111 A 
ATOM     24  C   UNL A   1      28.586  30.968  23.529  1.00  0.00     0.111 A 
ATOM     25  N   UNL A   1      27.533  30.268  23.064  1.00  0.00    -0.265 NA
ENDBRANCH  18  20
ENDBRANCH  10  18
ENDBRANCH   8   9
ENDBRANCH   6   8
ENDBRANCH   5   6
ENDBRANCH   4   5
ENDBRANCH   3   4
ENDBRANCH   2   3
ENDBRANCH   1   2
BRANCH   1  26
ATOM     26  C   UNL A   1      36.813  22.238  23.930  1.00  0.00     0.188 C 
BRANCH  26  27
ATOM     27  O   UNL A   1      37.653  21.346  24.645  1.00  0.00    -0.376 OA
BRANCH  27  28
ATOM     28  C   UNL A   1      38.535  21.906  25.620  1.00  0.00     0.202 C 
BRANCH  28  29
ATOM     29  C   UNL A   1      39.519  21.011  26.414  1.00  0.00     0.261 C 
BRANCH  29  30
ATOM     30  O   UNL A   1      40.165  19.975  25.671  1.00  0.00    -0.460 OA
BRANCH  30  31
ATOM     31  C   UNL A   1      41.444  19.710  26.045  1.00  0.00     0.338 C 
ATOM     32  O   UNL A   1      42.034  18.658  25.923  1.00  0.00    -0.246 OA
BRANCH  31  33
ATOM     33  C   UNL A   1      42.100  21.001  26.409  1.00  0.00     0.060 A 
ATOM     34  C   UNL A   1      42.264  21.279  27.773  1.00  0.00     0.016 A 
ATOM     35  C   UNL A   1      42.645  21.865  25.454  1.00  0.00     0.016 A 
ATOM     36  C   UNL A   1      42.953  22.424  28.185  1.00  0.00     0.010 A 
ATOM     37  C   UNL A   1      43.318  23.022  25.867  1.00  0.00     0.010 A 
ATOM     38  C   UNL A   1      43.454  23.322  27.235  1.00  0.00    -0.014 A 
BRANCH  38  39
ATOM     39  C   UNL A   1      43.917  24.671  27.655  1.00  0.00     0.031 A 
ATOM     40  C   UNL A   1      42.871  25.696  28.003  1.00  0.00     0.074 A 
ATOM     41  C   UNL A   1      45.220  24.996  27.744  1.00  0.00     0.049 A 
ATOM     42  N   UNL A   1      43.008  26.958  28.319  1.00  0.00    -0.248 NA
ATOM     43  C   UNL A   1      41.476  25.227  27.986  1.00  0.00     0.031 C 
ATOM     44  C   UNL A   1      46.340  24.095  27.492  1.00  0.00     0.029 A 
ATOM     45  N   UNL A   1      45.815  26.194  28.063  1.00  0.00    -0.354 N 
ATOM     46  C   UNL A   1      41.721  27.435  28.530  1.00  0.00     0.074 A 
ATOM     47  C   UNL A   1      40.814  26.335  28.276  1.00  0.00     0.031 C 
ATOM     48  C   UNL A   1      47.490  24.776  27.651  1.00  0.00     0.029 A 
ATOM     49  C   UNL A   1      47.186  26.170  27.977  1.00  0.00     0.049 A 
ATOM     50  H   UNL A   1      45.307  26.994  28.329  1.00  0.00     0.167 HD
ATOM     51  C   UNL A   1      41.325  28.672  28.907  1.00  0.00     0.037 A 
ATOM     52  C   UNL A   1      48.088  27.165  28.118  1.00  0.00     0.037 A 
ATOM     53  C   UNL A   1      42.219  29.773  29.154  1.00  0.00     0.049 A 
ATOM     54  C   UNL A   1      47.616  28.564  28.441  1.00  0.00     0.074 A 
ATOM     55  C   UNL A   1      41.909  31.060  29.554  1.00  0.00     0.029 A 
ATOM     56  N   UNL A   1      43.596  29.719  29.013  1.00  0.00    -0.354 N 
ATOM     57  N   UNL A   1      46.400  29.002  28.661  1.00  0.00    -0.248 NA
ATOM     58  C   UNL A   1      48.649  29.609  28.533  1.00  0.00     0.031 C 
ATOM     59  C   UNL A   1      43.093  31.804  29.592  1.00  0.00     0.029 A 
ATOM     60  C   UNL A   1      44.148  30.962  29.284  1.00  0.00     0.049 A 
ATOM     61  H   UNL A   1      44.107  28.917  28.757  1.00  0.00     0.167 HD
ATOM     62  C   UNL A   1      46.524  30.359  28.946  1.00  0.00     0.074 A 
ATOM     63  C   UNL A   1      47.936  30.669  28.887  1.00  0.00     0.031 C 
ATOM     64  C   UNL A   1      45.556  31.264  29.231  1.00  0.00     0.037 A 
BRANCH  51  65
ATOM     65  C   UNL A   1      39.850  28.913  29.041  1.00  0.00     0.064 A 
ATOM     66  C   UNL A   1      39.059  29.291  27.945  1.00  0.00     0.173 A 
ATOM     67  C   UNL A   1      39.214  28.738  30.280  1.00  0.00     0.173 A 
ATOM     68  F   UNL A   1      39.620  29.488  26.743  1.00  0.00    -0.203 F 
ATOM     69  C   UNL A   1      37.693  29.516  28.092  1.00  0.00     0.198 A 
ATOM     70  C   UNL A   1      37.843  28.931  30.415  1.00  0.00     0.198 A 
ATOM     71  F   UNL A   1      39.924  28.375  31.359  1.00  0.00    -0.203 F 
ATOM     72  F   UNL A   1      36.968  29.931  27.044  1.00  0.00    -0.200 F 
ATOM     73  C   UNL A   1      37.085  29.328  29.325  1.00  0.00     0.200 A 
ATOM     74  F   UNL A   1      37.255  28.736  31.604  1.00  0.00    -0.200 F 
ATOM     75  F   UNL A   1      35.769  29.538  29.462  1.00  0.00    -0.200 F 
ENDBRANCH  51  65
BRANCH  52  76
ATOM     76  C   UNL A   1      49.540  26.895  27.925  1.00  0.00     0.064 A 
ATOM     77  C   UNL A   1      50.111  26.878  26.644  1.00  0.00     0.173 A 
ATOM     78  C   UNL A   1      50.376  26.600  29.012  1.00  0.00     0.173 A 
ATOM     79  F   UNL A   1      49.346  27.117  25.568  1.00  0.00    -0.203 F 
ATOM     80  C   UNL A   1      51.453  26.556  26.457  1.00  0.00     0.198 A 
ATOM     81  C   UNL A   1      51.726  26.309  28.827  1.00  0.00     0.198 A 
ATOM     82  F   UNL A   1      49.880  26.590  30.258  1.00  0.00    -0.203 F 
ATOM     83  F   UNL A   1      51.958  26.487  25.216  1.00  0.00    -0.200 F 
ATOM     84  C   UNL A   1      52.262  26.277  27.548  1.00  0.00     0.200 A 
ATOM     85  F   UNL A   1      52.505  26.048  29.886  1.00  0.00    -0.200 F 
ATOM     86  F   UNL A   1      53.552  25.966  27.368  1.00  0.00    -0.200 F 
ENDBRANCH  52  76
BRANCH  64  87
ATOM     87  C   UNL A   1      45.982  32.672  29.543  1.00  0.00     0.064 A 
ATOM     88  C   UNL A   1      46.324  33.071  30.844  1.00  0.00     0.173 A 
ATOM     89  C   UNL A   1      46.096  33.625  28.518  1.00  0.00     0.173 A 
ATOM     90  F   UNL A   1      46.222  32.206  31.865  1.00  0.00    -0.203 F 
ATOM     91  C   UNL A   1      46.737  34.375  31.111  1.00  0.00     0.198 A 
ATOM     92  C   UNL A   1      46.542  34.917  28.782  1.00  0.00     0.198 A 
ATOM     93  F   UNL A   1      45.792  33.296  27.253  1.00  0.00    -0.203 F 
ATOM     94  F   UNL A   1      47.010  34.745  32.369  1.00  0.00    -0.200 F 
ATOM     95  C   UNL A   1      46.854  35.293  30.078  1.00  0.00     0.200 A 
ATOM     96  F   UNL A   1      46.672  35.797  27.780  1.00  0.00    -0.200 F 
ATOM     97  F   UNL A   1      47.262  36.545  30.335  1.00  0.00    -0.200 F 
ENDBRANCH  64  87
ENDBRANCH  38  39
ENDBRANCH  31  33
ENDBRANCH  30  31
ENDBRANCH  29  30
ENDBRANCH  28  29
ENDBRANCH  27  28
ENDBRANCH  26  27
ENDBRANCH   1  26
TORSDOF 20
ENDMDL
