MODEL 1
REMARK VINA RESULT:      -8.4      0.000      0.000
REMARK SMILES Cc1csc([C@@H](C)NC(=O)NC[C@H](CC(C)C)C(=O)OCCOCCOCCOC(=O)c2ccc(-c3c4nc(c(-c5c(F)c(F)c(F)c(F)c5F)c5ccc([nH]5)c(-c5c(F)c(F)c(F)c(F)c5F)c5nc(c(-c6c(F)c(F)c(F)c(F)c6F)c6ccc3[nH]6)C=C5)C=C4)cc2)n1
REMARK SMILES IDX 24 1 23 2 22 3 21 4 20 5 18 6 19 7 13 8 12 9 11 10 8 11 9 12
REMARK SMILES IDX 10 14 6 16 7 17 5 18 1 19 2 20 3 21 95 22 4 23 14 24 15 25
REMARK SMILES IDX 16 26 17 27 25 28 26 29 27 30 28 31 29 32 30 33 31 34 32 35
REMARK SMILES IDX 33 36 94 37 34 38 93 39 35 40 36 41 37 42 87 43 38 44 92 45
REMARK SMILES IDX 86 46 88 47 39 48 91 49 85 50 84 51 40 53 72 54 52 55 71 56
REMARK SMILES IDX 53 57 56 58 70 59 89 60 54 61 55 62 69 64 90 65 57 66 41 67
REMARK SMILES IDX 42 68 50 69 43 70 44 71 48 72 51 73 45 74 46 75 49 76 47 77
REMARK SMILES IDX 73 78 74 79 82 80 75 81 76 82 80 83 83 84 77 85 78 86 81 87
REMARK SMILES IDX 79 88 58 89 59 90 67 91 60 92 61 93 65 94 68 95 62 96 63 97
REMARK SMILES IDX 66 98 64 99
REMARK H PARENT 8 13 11 15 88 52 56 63
REMARK Flexibility Score: inf
ROOT
ATOM      1  C   UNL A   1      42.935  23.678  25.995  1.00  0.00     0.188 C 
ENDROOT
BRANCH   1   2
ATOM      2  O   UNL A   1      43.987  24.246  25.233  1.00  0.00    -0.376 OA
BRANCH   2   3
ATOM      3  C   UNL A   1      44.798  23.382  24.449  1.00  0.00     0.202 C 
BRANCH   3   4
ATOM      4  C   UNL A   1      46.301  23.305  24.752  1.00  0.00     0.261 C 
BRANCH   4   5
ATOM      5  O   UNL A   1      47.126  24.451  24.399  1.00  0.00    -0.463 OA
BRANCH   5   6
ATOM      6  C   UNL A   1      47.555  25.218  25.433  1.00  0.00     0.310 C 
ATOM      7  O   UNL A   1      47.268  24.988  26.607  1.00  0.00    -0.252 OA
BRANCH   6   8
ATOM      8  C   UNL A   1      48.409  26.440  25.090  1.00  0.00     0.119 C 
BRANCH   8   9
ATOM      9  C   UNL A   1      47.564  27.483  24.334  1.00  0.00     0.133 C 
BRANCH   9  10
ATOM     10  N   UNL A   1      46.129  27.361  24.516  1.00  0.00    -0.337 N 
ATOM     11  N   UNL A   1      45.335  29.121  25.880  1.00  0.00    -0.329 N 
ATOM     12  C   UNL A   1      45.165  28.016  25.162  1.00  0.00     0.315 C 
ATOM     13  H   UNL A   1      44.495  29.433  26.289  1.00  0.00     0.166 HD
ATOM     14  O   UNL A   1      44.026  27.550  25.086  1.00  0.00    -0.249 OA
ATOM     15  H   UNL A   1      45.770  26.583  24.030  1.00  0.00     0.165 HD
BRANCH  11  16
ATOM     16  C   UNL A   1      46.458  29.979  26.210  1.00  0.00     0.140 C 
ATOM     17  C   UNL A   1      47.098  29.494  27.511  1.00  0.00     0.039 C 
BRANCH  16  18
ATOM     18  C   UNL A   1      45.987  31.397  26.374  1.00  0.00     0.115 A 
ATOM     19  C   UNL A   1      43.722  33.975  25.326  1.00  0.00     0.067 C 
ATOM     20  C   UNL A   1      44.768  33.220  26.054  1.00  0.00     0.049 A 
ATOM     21  C   UNL A   1      45.444  33.605  27.194  1.00  0.00     0.090 A 
ATOM     22  N   UNL A   1      45.109  31.972  25.575  1.00  0.00    -0.244 NA
ATOM     23  S   UNL A   1      46.506  32.362  27.699  1.00  0.00    -0.125 S 
ENDBRANCH  16  18
ENDBRANCH  11  16
ENDBRANCH   9  10
ENDBRANCH   8   9
BRANCH   8  24
ATOM     24  C   UNL A   1      49.854  26.308  24.547  1.00  0.00     0.020 C 
BRANCH  24  25
ATOM     25  C   UNL A   1      50.940  26.600  25.621  1.00  0.00    -0.017 C 
ATOM     26  C   UNL A   1      50.386  27.134  26.946  1.00  0.00     0.007 C 
ATOM     27  C   UNL A   1      51.745  25.332  25.932  1.00  0.00     0.007 C 
ENDBRANCH  24  25
ENDBRANCH   8  24
ENDBRANCH   6   8
ENDBRANCH   5   6
ENDBRANCH   4   5
ENDBRANCH   3   4
ENDBRANCH   2   3
ENDBRANCH   1   2
BRANCH   1  28
ATOM     28  C   UNL A   1      42.236  22.428  25.455  1.00  0.00     0.188 C 
BRANCH  28  29
ATOM     29  O   UNL A   1      42.281  21.293  26.292  1.00  0.00    -0.376 OA
BRANCH  29  30
ATOM     30  C   UNL A   1      41.031  20.816  26.773  1.00  0.00     0.202 C 
BRANCH  30  31
ATOM     31  C   UNL A   1      39.774  21.536  26.254  1.00  0.00     0.261 C 
BRANCH  31  32
ATOM     32  O   UNL A   1      39.297  22.636  27.061  1.00  0.00    -0.460 OA
BRANCH  32  33
ATOM     33  C   UNL A   1      38.863  23.743  26.424  1.00  0.00     0.338 C 
ATOM     34  O   UNL A   1      38.020  23.795  25.529  1.00  0.00    -0.246 OA
BRANCH  33  35
ATOM     35  C   UNL A   1      39.358  24.923  27.167  1.00  0.00     0.060 A 
ATOM     36  C   UNL A   1      39.024  25.048  28.523  1.00  0.00     0.016 A 
ATOM     37  C   UNL A   1      40.174  25.879  26.565  1.00  0.00     0.016 A 
ATOM     38  C   UNL A   1      39.520  26.098  29.292  1.00  0.00     0.010 A 
ATOM     39  C   UNL A   1      40.632  26.966  27.323  1.00  0.00     0.010 A 
ATOM     40  C   UNL A   1      40.303  27.087  28.687  1.00  0.00    -0.014 A 
BRANCH  40  41
ATOM     41  C   UNL A   1      40.615  28.334  29.430  1.00  0.00     0.031 A 
ATOM     42  C   UNL A   1      41.979  28.473  30.043  1.00  0.00     0.074 A 
ATOM     43  C   UNL A   1      39.730  29.342  29.530  1.00  0.00     0.049 A 
ATOM     44  N   UNL A   1      42.441  29.390  30.853  1.00  0.00    -0.248 NA
ATOM     45  C   UNL A   1      42.957  27.434  29.687  1.00  0.00     0.031 C 
ATOM     46  C   UNL A   1      38.415  29.381  28.895  1.00  0.00     0.029 A 
ATOM     47  N   UNL A   1      39.809  30.530  30.217  1.00  0.00    -0.354 N 
ATOM     48  C   UNL A   1      43.753  29.022  31.125  1.00  0.00     0.074 A 
ATOM     49  C   UNL A   1      44.011  27.798  30.399  1.00  0.00     0.031 C 
ATOM     50  C   UNL A   1      37.800  30.527  29.239  1.00  0.00     0.029 A 
ATOM     51  C   UNL A   1      38.655  31.274  30.160  1.00  0.00     0.049 A 
ATOM     52  H   UNL A   1      40.615  30.820  30.701  1.00  0.00     0.167 HD
ATOM     53  C   UNL A   1      44.656  29.649  31.915  1.00  0.00     0.037 A 
ATOM     54  C   UNL A   1      38.314  32.402  30.816  1.00  0.00     0.037 A 
ATOM     55  C   UNL A   1      44.398  30.872  32.627  1.00  0.00     0.049 A 
ATOM     56  C   UNL A   1      39.298  33.024  31.778  1.00  0.00     0.074 A 
ATOM     57  C   UNL A   1      45.248  31.587  33.452  1.00  0.00     0.029 A 
ATOM     58  N   UNL A   1      43.195  31.562  32.597  1.00  0.00    -0.354 N 
ATOM     59  N   UNL A   1      40.525  32.657  32.062  1.00  0.00    -0.248 NA
ATOM     60  C   UNL A   1      38.843  34.208  32.522  1.00  0.00     0.031 C 
ATOM     61  C   UNL A   1      44.540  32.680  33.964  1.00  0.00     0.029 A 
ATOM     62  C   UNL A   1      43.268  32.677  33.415  1.00  0.00     0.049 A 
ATOM     63  H   UNL A   1      42.405  31.297  32.071  1.00  0.00     0.167 HD
ATOM     64  C   UNL A   1      40.992  33.570  33.001  1.00  0.00     0.074 A 
ATOM     65  C   UNL A   1      39.924  34.521  33.222  1.00  0.00     0.031 C 
ATOM     66  C   UNL A   1      42.195  33.614  33.626  1.00  0.00     0.037 A 
BRANCH  53  67
ATOM     67  C   UNL A   1      45.991  28.988  32.094  1.00  0.00     0.064 A 
ATOM     68  C   UNL A   1      47.117  29.377  31.354  1.00  0.00     0.173 A 
ATOM     69  C   UNL A   1      46.147  27.960  33.036  1.00  0.00     0.173 A 
ATOM     70  F   UNL A   1      47.018  30.342  30.427  1.00  0.00    -0.203 F 
ATOM     71  C   UNL A   1      48.344  28.742  31.533  1.00  0.00     0.198 A 
ATOM     72  C   UNL A   1      47.381  27.348  33.233  1.00  0.00     0.198 A 
ATOM     73  F   UNL A   1      45.100  27.551  33.769  1.00  0.00    -0.203 F 
ATOM     74  F   UNL A   1      49.396  29.095  30.781  1.00  0.00    -0.200 F 
ATOM     75  C   UNL A   1      48.477  27.734  32.477  1.00  0.00     0.200 A 
ATOM     76  F   UNL A   1      47.508  26.380  34.152  1.00  0.00    -0.200 F 
ATOM     77  F   UNL A   1      49.659  27.127  32.651  1.00  0.00    -0.200 F 
ENDBRANCH  53  67
BRANCH  54  78
ATOM     78  C   UNL A   1      36.959  32.992  30.640  1.00  0.00     0.064 A 
ATOM     79  C   UNL A   1      36.647  33.776  29.521  1.00  0.00     0.173 A 
ATOM     80  C   UNL A   1      35.957  32.810  31.606  1.00  0.00     0.173 A 
ATOM     81  F   UNL A   1      37.580  34.010  28.587  1.00  0.00    -0.203 F 
ATOM     82  C   UNL A   1      35.391  34.365  29.382  1.00  0.00     0.198 A 
ATOM     83  C   UNL A   1      34.692  33.374  31.451  1.00  0.00     0.198 A 
ATOM     84  F   UNL A   1      36.206  32.081  32.704  1.00  0.00    -0.203 F 
ATOM     85  F   UNL A   1      35.137  35.152  28.327  1.00  0.00    -0.200 F 
ATOM     86  C   UNL A   1      34.413  34.159  30.342  1.00  0.00     0.200 A 
ATOM     87  F   UNL A   1      33.749  33.165  32.379  1.00  0.00    -0.200 F 
ATOM     88  F   UNL A   1      33.206  34.723  30.206  1.00  0.00    -0.200 F 
ENDBRANCH  54  78
BRANCH  66  89
ATOM     89  C   UNL A   1      42.429  34.737  34.595  1.00  0.00     0.064 A 
ATOM     90  C   UNL A   1      42.235  34.570  35.974  1.00  0.00     0.173 A 
ATOM     91  C   UNL A   1      42.898  35.980  34.144  1.00  0.00     0.173 A 
ATOM     92  F   UNL A   1      41.775  33.405  36.455  1.00  0.00    -0.203 F 
ATOM     93  C   UNL A   1      42.480  35.613  36.863  1.00  0.00     0.198 A 
ATOM     94  C   UNL A   1      43.171  37.012  35.038  1.00  0.00     0.198 A 
ATOM     95  F   UNL A   1      43.107  36.190  32.835  1.00  0.00    -0.203 F 
ATOM     96  F   UNL A   1      42.245  35.446  38.172  1.00  0.00    -0.200 F 
ATOM     97  C   UNL A   1      42.955  36.831  36.396  1.00  0.00     0.200 A 
ATOM     98  F   UNL A   1      43.643  38.182  34.587  1.00  0.00    -0.200 F 
ATOM     99  F   UNL A   1      43.199  37.830  37.254  1.00  0.00    -0.200 F 
ENDBRANCH  66  89
ENDBRANCH  40  41
ENDBRANCH  33  35
ENDBRANCH  32  33
ENDBRANCH  31  32
ENDBRANCH  30  31
ENDBRANCH  29  30
ENDBRANCH  28  29
ENDBRANCH   1  28
TORSDOF 23
ENDMDL
MODEL 2
REMARK VINA RESULT:      -8.0      2.315      3.682
REMARK SMILES Cc1csc([C@@H](C)NC(=O)NC[C@H](CC(C)C)C(=O)OCCOCCOCCOC(=O)c2ccc(-c3c4nc(c(-c5c(F)c(F)c(F)c(F)c5F)c5ccc([nH]5)c(-c5c(F)c(F)c(F)c(F)c5F)c5nc(c(-c6c(F)c(F)c(F)c(F)c6F)c6ccc3[nH]6)C=C5)C=C4)cc2)n1
REMARK SMILES IDX 24 1 23 2 22 3 21 4 20 5 18 6 19 7 13 8 12 9 11 10 8 11 9 12
REMARK SMILES IDX 10 14 6 16 7 17 5 18 1 19 2 20 3 21 95 22 4 23 14 24 15 25
REMARK SMILES IDX 16 26 17 27 25 28 26 29 27 30 28 31 29 32 30 33 31 34 32 35
REMARK SMILES IDX 33 36 94 37 34 38 93 39 35 40 36 41 37 42 87 43 38 44 92 45
REMARK SMILES IDX 86 46 88 47 39 48 91 49 85 50 84 51 40 53 72 54 52 55 71 56
REMARK SMILES IDX 53 57 56 58 70 59 89 60 54 61 55 62 69 64 90 65 57 66 41 67
REMARK SMILES IDX 42 68 50 69 43 70 44 71 48 72 51 73 45 74 46 75 49 76 47 77
REMARK SMILES IDX 73 78 74 79 82 80 75 81 76 82 80 83 83 84 77 85 78 86 81 87
REMARK SMILES IDX 79 88 58 89 59 90 67 91 60 92 61 93 65 94 68 95 62 96 63 97
REMARK SMILES IDX 66 98 64 99
REMARK H PARENT 8 13 11 15 88 52 56 63
REMARK Flexibility Score: inf
ROOT
ATOM      1  C   UNL A   1      43.222  23.407  26.157  1.00  0.00     0.188 C 
ENDROOT
BRANCH   1   2
ATOM      2  O   UNL A   1      44.506  23.985  26.325  1.00  0.00    -0.376 OA
BRANCH   2   3
ATOM      3  C   UNL A   1      45.311  23.544  27.410  1.00  0.00     0.202 C 
BRANCH   3   4
ATOM      4  C   UNL A   1      46.136  24.581  28.186  1.00  0.00     0.261 C 
BRANCH   4   5
ATOM      5  O   UNL A   1      47.530  24.760  27.811  1.00  0.00    -0.463 OA
BRANCH   5   6
ATOM      6  C   UNL A   1      47.809  25.850  27.052  1.00  0.00     0.310 C 
ATOM      7  O   UNL A   1      46.996  26.750  26.841  1.00  0.00    -0.252 OA
BRANCH   6   8
ATOM      8  C   UNL A   1      49.197  25.923  26.415  1.00  0.00     0.119 C 
BRANCH   8   9
ATOM      9  C   UNL A   1      49.086  25.797  24.884  1.00  0.00     0.133 C 
BRANCH   9  10
ATOM     10  N   UNL A   1      48.112  26.675  24.264  1.00  0.00    -0.337 N 
ATOM     11  N   UNL A   1      49.053  27.707  22.357  1.00  0.00    -0.329 N 
ATOM     12  C   UNL A   1      48.062  27.497  23.216  1.00  0.00     0.315 C 
ATOM     13  H   UNL A   1      48.813  28.367  21.665  1.00  0.00     0.166 HD
ATOM     14  O   UNL A   1      47.008  28.112  23.040  1.00  0.00    -0.249 OA
ATOM     15  H   UNL A   1      47.254  26.659  24.748  1.00  0.00     0.165 HD
BRANCH  11  16
ATOM     16  C   UNL A   1      50.403  27.202  22.190  1.00  0.00     0.140 C 
ATOM     17  C   UNL A   1      51.355  28.008  23.075  1.00  0.00     0.039 C 
BRANCH  16  18
ATOM     18  C   UNL A   1      50.820  27.326  20.751  1.00  0.00     0.115 A 
ATOM     19  C   UNL A   1      52.306  29.357  18.194  1.00  0.00     0.067 C 
ATOM     20  C   UNL A   1      51.696  28.221  18.923  1.00  0.00     0.049 A 
ATOM     21  C   UNL A   1      51.528  26.926  18.474  1.00  0.00     0.090 A 
ATOM     22  N   UNL A   1      51.258  28.447  20.211  1.00  0.00    -0.244 NA
ATOM     23  S   UNL A   1      50.839  25.960  19.707  1.00  0.00    -0.125 S 
ENDBRANCH  16  18
ENDBRANCH  11  16
ENDBRANCH   9  10
ENDBRANCH   8   9
BRANCH   8  24
ATOM     24  C   UNL A   1      50.415  25.171  27.009  1.00  0.00     0.020 C 
BRANCH  24  25
ATOM     25  C   UNL A   1      51.756  25.939  26.829  1.00  0.00    -0.017 C 
ATOM     26  C   UNL A   1      52.534  25.558  25.565  1.00  0.00     0.007 C 
ATOM     27  C   UNL A   1      51.506  27.452  26.782  1.00  0.00     0.007 C 
ENDBRANCH  24  25
ENDBRANCH   8  24
ENDBRANCH   6   8
ENDBRANCH   5   6
ENDBRANCH   4   5
ENDBRANCH   3   4
ENDBRANCH   2   3
ENDBRANCH   1   2
BRANCH   1  28
ATOM     28  C   UNL A   1      43.124  22.030  25.494  1.00  0.00     0.188 C 
BRANCH  28  29
ATOM     29  O   UNL A   1      43.206  20.925  26.368  1.00  0.00    -0.376 OA
BRANCH  29  30
ATOM     30  C   UNL A   1      41.973  20.315  26.727  1.00  0.00     0.202 C 
BRANCH  30  31
ATOM     31  C   UNL A   1      40.695  20.960  26.162  1.00  0.00     0.261 C 
BRANCH  31  32
ATOM     32  O   UNL A   1      40.067  21.957  26.998  1.00  0.00    -0.460 OA
BRANCH  32  33
ATOM     33  C   UNL A   1      39.244  22.847  26.408  1.00  0.00     0.338 C 
ATOM     34  O   UNL A   1      38.295  22.595  25.667  1.00  0.00    -0.246 OA
BRANCH  33  35
ATOM     35  C   UNL A   1      39.490  24.173  27.019  1.00  0.00     0.060 A 
ATOM     36  C   UNL A   1      40.098  25.167  26.239  1.00  0.00     0.016 A 
ATOM     37  C   UNL A   1      39.096  24.463  28.324  1.00  0.00     0.016 A 
ATOM     38  C   UNL A   1      40.288  26.455  26.735  1.00  0.00     0.010 A 
ATOM     39  C   UNL A   1      39.335  25.742  28.845  1.00  0.00     0.010 A 
ATOM     40  C   UNL A   1      39.938  26.743  28.058  1.00  0.00    -0.014 A 
BRANCH  40  41
ATOM     41  C   UNL A   1      40.374  28.024  28.671  1.00  0.00     0.031 A 
ATOM     42  C   UNL A   1      41.821  28.177  29.042  1.00  0.00     0.074 A 
ATOM     43  C   UNL A   1      39.522  29.048  28.860  1.00  0.00     0.049 A 
ATOM     44  N   UNL A   1      42.415  29.129  29.713  1.00  0.00    -0.248 NA
ATOM     45  C   UNL A   1      42.722  27.107  28.586  1.00  0.00     0.031 C 
ATOM     46  C   UNL A   1      38.121  29.070  28.450  1.00  0.00     0.029 A 
ATOM     47  N   UNL A   1      39.719  30.269  29.459  1.00  0.00    -0.354 N 
ATOM     48  C   UNL A   1      43.752  28.758  29.785  1.00  0.00     0.074 A 
ATOM     49  C   UNL A   1      43.882  27.494  29.093  1.00  0.00     0.031 C 
ATOM     50  C   UNL A   1      37.576  30.241  28.827  1.00  0.00     0.029 A 
ATOM     51  C   UNL A   1      38.575  31.024  29.553  1.00  0.00     0.049 A 
ATOM     52  H   UNL A   1      40.595  30.573  29.787  1.00  0.00     0.167 HD
ATOM     53  C   UNL A   1      44.776  29.414  30.380  1.00  0.00     0.037 A 
ATOM     54  C   UNL A   1      38.352  32.190  30.194  1.00  0.00     0.037 A 
ATOM     55  C   UNL A   1      44.645  30.676  31.057  1.00  0.00     0.049 A 
ATOM     56  C   UNL A   1      39.485  32.848  30.945  1.00  0.00     0.074 A 
ATOM     57  C   UNL A   1      45.623  31.422  31.691  1.00  0.00     0.029 A 
ATOM     58  N   UNL A   1      43.457  31.379  31.188  1.00  0.00    -0.354 N 
ATOM     59  N   UNL A   1      40.740  32.480  31.042  1.00  0.00    -0.248 NA
ATOM     60  C   UNL A   1      39.164  34.076  31.688  1.00  0.00     0.031 C 
ATOM     61  C   UNL A   1      45.015  32.550  32.252  1.00  0.00     0.029 A 
ATOM     62  C   UNL A   1      43.669  32.535  31.921  1.00  0.00     0.049 A 
ATOM     63  H   UNL A   1      42.590  31.098  30.815  1.00  0.00     0.167 HD
ATOM     64  C   UNL A   1      41.359  33.435  31.840  1.00  0.00     0.074 A 
ATOM     65  C   UNL A   1      40.348  34.411  32.183  1.00  0.00     0.031 C 
ATOM     66  C   UNL A   1      42.650  33.496  32.256  1.00  0.00     0.037 A 
BRANCH  53  67
ATOM     67  C   UNL A   1      46.120  28.746  30.372  1.00  0.00     0.064 A 
ATOM     68  C   UNL A   1      46.449  27.728  31.279  1.00  0.00     0.173 A 
ATOM     69  C   UNL A   1      47.087  29.122  29.427  1.00  0.00     0.173 A 
ATOM     70  F   UNL A   1      45.567  27.345  32.215  1.00  0.00    -0.203 F 
ATOM     71  C   UNL A   1      47.706  27.129  31.256  1.00  0.00     0.198 A 
ATOM     72  C   UNL A   1      48.332  28.501  29.388  1.00  0.00     0.198 A 
ATOM     73  F   UNL A   1      46.822  30.091  28.538  1.00  0.00    -0.203 F 
ATOM     74  F   UNL A   1      48.018  26.194  32.164  1.00  0.00    -0.200 F 
ATOM     75  C   UNL A   1      48.643  27.510  30.307  1.00  0.00     0.200 A 
ATOM     76  F   UNL A   1      49.232  28.866  28.464  1.00  0.00    -0.200 F 
ATOM     77  F   UNL A   1      49.851  26.931  30.284  1.00  0.00    -0.200 F 
ENDBRANCH  53  67
BRANCH  54  78
ATOM     78  C   UNL A   1      36.989  32.787  30.212  1.00  0.00     0.064 A 
ATOM     79  C   UNL A   1      36.557  33.644  29.190  1.00  0.00     0.173 A 
ATOM     80  C   UNL A   1      36.102  32.539  31.271  1.00  0.00     0.173 A 
ATOM     81  F   UNL A   1      37.380  33.942  28.174  1.00  0.00    -0.203 F 
ATOM     82  C   UNL A   1      35.298  34.239  29.234  1.00  0.00     0.198 A 
ATOM     83  C   UNL A   1      34.831  33.110  31.298  1.00  0.00     0.198 A 
ATOM     84  F   UNL A   1      36.469  31.739  32.283  1.00  0.00    -0.203 F 
ATOM     85  F   UNL A   1      34.930  35.094  28.269  1.00  0.00    -0.200 F 
ATOM     86  C   UNL A   1      34.433  33.967  30.283  1.00  0.00     0.200 A 
ATOM     87  F   UNL A   1      33.997  32.838  32.310  1.00  0.00    -0.200 F 
ATOM     88  F   UNL A   1      33.221  34.537  30.322  1.00  0.00    -0.200 F 
ENDBRANCH  54  78
BRANCH  66  89
ATOM     89  C   UNL A   1      43.046  34.666  33.110  1.00  0.00     0.064 A 
ATOM     90  C   UNL A   1      43.396  35.901  32.545  1.00  0.00     0.173 A 
ATOM     91  C   UNL A   1      43.031  34.564  34.509  1.00  0.00     0.173 A 
ATOM     92  F   UNL A   1      43.440  36.048  31.212  1.00  0.00    -0.203 F 
ATOM     93  C   UNL A   1      43.738  36.985  33.351  1.00  0.00     0.198 A 
ATOM     94  C   UNL A   1      43.343  35.658  35.312  1.00  0.00     0.198 A 
ATOM     95  F   UNL A   1      42.696  33.406  35.099  1.00  0.00    -0.203 F 
ATOM     96  F   UNL A   1      44.113  38.143  32.790  1.00  0.00    -0.200 F 
ATOM     97  C   UNL A   1      43.704  36.865  34.733  1.00  0.00     0.200 A 
ATOM     98  F   UNL A   1      43.296  35.544  36.646  1.00  0.00    -0.200 F 
ATOM     99  F   UNL A   1      44.024  37.911  35.506  1.00  0.00    -0.200 F 
ENDBRANCH  66  89
ENDBRANCH  40  41
ENDBRANCH  33  35
ENDBRANCH  32  33
ENDBRANCH  31  32
ENDBRANCH  30  31
ENDBRANCH  29  30
ENDBRANCH  28  29
ENDBRANCH   1  28
TORSDOF 23
ENDMDL
MODEL 3
REMARK VINA RESULT:      -7.9      4.189      8.263
REMARK SMILES Cc1csc([C@@H](C)NC(=O)NC[C@H](CC(C)C)C(=O)OCCOCCOCCOC(=O)c2ccc(-c3c4nc(c(-c5c(F)c(F)c(F)c(F)c5F)c5ccc([nH]5)c(-c5c(F)c(F)c(F)c(F)c5F)c5nc(c(-c6c(F)c(F)c(F)c(F)c6F)c6ccc3[nH]6)C=C5)C=C4)cc2)n1
REMARK SMILES IDX 24 1 23 2 22 3 21 4 20 5 18 6 19 7 13 8 12 9 11 10 8 11 9 12
REMARK SMILES IDX 10 14 6 16 7 17 5 18 1 19 2 20 3 21 95 22 4 23 14 24 15 25
REMARK SMILES IDX 16 26 17 27 25 28 26 29 27 30 28 31 29 32 30 33 31 34 32 35
REMARK SMILES IDX 33 36 94 37 34 38 93 39 35 40 36 41 37 42 87 43 38 44 92 45
REMARK SMILES IDX 86 46 88 47 39 48 91 49 85 50 84 51 40 53 72 54 52 55 71 56
REMARK SMILES IDX 53 57 56 58 70 59 89 60 54 61 55 62 69 64 90 65 57 66 41 67
REMARK SMILES IDX 42 68 50 69 43 70 44 71 48 72 51 73 45 74 46 75 49 76 47 77
REMARK SMILES IDX 73 78 74 79 82 80 75 81 76 82 80 83 83 84 77 85 78 86 81 87
REMARK SMILES IDX 79 88 58 89 59 90 67 91 60 92 61 93 65 94 68 95 62 96 63 97
REMARK SMILES IDX 66 98 64 99
REMARK H PARENT 8 13 11 15 88 52 56 63
REMARK Flexibility Score: inf
ROOT
ATOM      1  C   UNL A   1      39.622  21.413  26.147  1.00  0.00     0.188 C 
ENDROOT
BRANCH   1   2
ATOM      2  O   UNL A   1      39.028  22.585  26.679  1.00  0.00    -0.376 OA
BRANCH   2   3
ATOM      3  C   UNL A   1      38.037  23.252  25.907  1.00  0.00     0.202 C 
BRANCH   3   4
ATOM      4  C   UNL A   1      36.675  22.572  25.710  1.00  0.00     0.261 C 
BRANCH   4   5
ATOM      5  O   UNL A   1      35.524  23.143  26.394  1.00  0.00    -0.463 OA
BRANCH   5   6
ATOM      6  C   UNL A   1      34.318  22.941  25.804  1.00  0.00     0.310 C 
ATOM      7  O   UNL A   1      33.950  21.845  25.383  1.00  0.00    -0.252 OA
BRANCH   6   8
ATOM      8  C   UNL A   1      33.407  24.158  25.640  1.00  0.00     0.119 C 
BRANCH   8   9
ATOM      9  C   UNL A   1      34.245  25.408  25.309  1.00  0.00     0.133 C 
BRANCH   9  10
ATOM     10  N   UNL A   1      33.685  26.270  24.285  1.00  0.00    -0.337 N 
ATOM     11  N   UNL A   1      32.692  28.169  25.283  1.00  0.00    -0.329 N 
ATOM     12  C   UNL A   1      33.021  27.423  24.233  1.00  0.00     0.315 C 
ATOM     13  H   UNL A   1      32.187  28.974  25.025  1.00  0.00     0.166 HD
ATOM     14  O   UNL A   1      32.682  27.822  23.116  1.00  0.00    -0.249 OA
ATOM     15  H   UNL A   1      33.838  25.903  23.384  1.00  0.00     0.165 HD
BRANCH  11  16
ATOM     16  C   UNL A   1      32.897  28.085  26.717  1.00  0.00     0.140 C 
ATOM     17  C   UNL A   1      31.558  28.283  27.430  1.00  0.00     0.039 C 
BRANCH  16  18
ATOM     18  C   UNL A   1      33.868  29.144  27.157  1.00  0.00     0.115 A 
ATOM     19  C   UNL A   1      37.282  30.049  27.787  1.00  0.00     0.067 C 
ATOM     20  C   UNL A   1      35.811  30.103  27.620  1.00  0.00     0.049 A 
ATOM     21  C   UNL A   1      35.000  31.219  27.666  1.00  0.00     0.090 A 
ATOM     22  N   UNL A   1      35.151  28.920  27.362  1.00  0.00    -0.244 NA
ATOM     23  S   UNL A   1      33.377  30.782  27.344  1.00  0.00    -0.125 S 
ENDBRANCH  16  18
ENDBRANCH  11  16
ENDBRANCH   9  10
ENDBRANCH   8   9
BRANCH   8  24
ATOM     24  C   UNL A   1      32.232  24.443  26.610  1.00  0.00     0.020 C 
BRANCH  24  25
ATOM     25  C   UNL A   1      30.844  24.072  26.014  1.00  0.00    -0.017 C 
ATOM     26  C   UNL A   1      30.722  24.317  24.506  1.00  0.00     0.007 C 
ATOM     27  C   UNL A   1      30.527  22.593  26.270  1.00  0.00     0.007 C 
ENDBRANCH  24  25
ENDBRANCH   8  24
ENDBRANCH   6   8
ENDBRANCH   5   6
ENDBRANCH   4   5
ENDBRANCH   3   4
ENDBRANCH   2   3
ENDBRANCH   1   2
BRANCH   1  28
ATOM     28  C   UNL A   1      41.140  21.250  26.258  1.00  0.00     0.188 C 
BRANCH  28  29
ATOM     29  O   UNL A   1      41.835  22.357  26.790  1.00  0.00    -0.376 OA
BRANCH  29  30
ATOM     30  C   UNL A   1      42.374  23.273  25.847  1.00  0.00     0.202 C 
BRANCH  30  31
ATOM     31  C   UNL A   1      43.552  22.771  24.993  1.00  0.00     0.261 C 
BRANCH  31  32
ATOM     32  O   UNL A   1      44.514  23.771  24.590  1.00  0.00    -0.460 OA
BRANCH  32  33
ATOM     33  C   UNL A   1      45.517  24.061  25.442  1.00  0.00     0.338 C 
ATOM     34  O   UNL A   1      46.606  23.496  25.518  1.00  0.00    -0.246 OA
BRANCH  33  35
ATOM     35  C   UNL A   1      45.207  25.356  26.089  1.00  0.00     0.060 A 
ATOM     36  C   UNL A   1      44.855  26.443  25.277  1.00  0.00     0.016 A 
ATOM     37  C   UNL A   1      45.217  25.504  27.475  1.00  0.00     0.016 A 
ATOM     38  C   UNL A   1      44.483  27.665  25.832  1.00  0.00     0.010 A 
ATOM     39  C   UNL A   1      44.895  26.748  28.035  1.00  0.00     0.010 A 
ATOM     40  C   UNL A   1      44.533  27.837  27.219  1.00  0.00    -0.014 A 
BRANCH  40  41
ATOM     41  C   UNL A   1      44.393  29.198  27.796  1.00  0.00     0.031 A 
ATOM     42  C   UNL A   1      45.540  30.156  27.642  1.00  0.00     0.074 A 
ATOM     43  C   UNL A   1      43.264  29.598  28.409  1.00  0.00     0.049 A 
ATOM     44  N   UNL A   1      45.719  31.337  28.174  1.00  0.00    -0.248 NA
ATOM     45  C   UNL A   1      46.633  29.719  26.759  1.00  0.00     0.031 C 
ATOM     46  C   UNL A   1      42.043  28.807  28.534  1.00  0.00     0.029 A 
ATOM     47  N   UNL A   1      42.971  30.777  29.051  1.00  0.00    -0.354 N 
ATOM     48  C   UNL A   1      46.956  31.771  27.714  1.00  0.00     0.074 A 
ATOM     49  C   UNL A   1      47.485  30.726  26.864  1.00  0.00     0.031 C 
ATOM     50  C   UNL A   1      41.135  29.516  29.230  1.00  0.00     0.029 A 
ATOM     51  C   UNL A   1      41.732  30.785  29.646  1.00  0.00     0.049 A 
ATOM     52  H   UNL A   1      43.588  31.543  29.081  1.00  0.00     0.167 HD
ATOM     53  C   UNL A   1      47.593  32.935  27.983  1.00  0.00     0.037 A 
ATOM     54  C   UNL A   1      41.168  31.691  30.469  1.00  0.00     0.037 A 
ATOM     55  C   UNL A   1      47.058  33.975  28.820  1.00  0.00     0.049 A 
ATOM     56  C   UNL A   1      41.943  32.932  30.844  1.00  0.00     0.074 A 
ATOM     57  C   UNL A   1      47.625  35.193  29.154  1.00  0.00     0.029 A 
ATOM     58  N   UNL A   1      45.828  33.918  29.458  1.00  0.00    -0.354 N 
ATOM     59  N   UNL A   1      43.125  33.326  30.437  1.00  0.00    -0.248 NA
ATOM     60  C   UNL A   1      41.308  33.846  31.806  1.00  0.00     0.031 C 
ATOM     61  C   UNL A   1      46.761  35.848  30.037  1.00  0.00     0.029 A 
ATOM     62  C   UNL A   1      45.631  35.064  30.210  1.00  0.00     0.049 A 
ATOM     63  H   UNL A   1      45.188  33.173  29.387  1.00  0.00     0.167 HD
ATOM     64  C   UNL A   1      43.369  34.535  31.078  1.00  0.00     0.074 A 
ATOM     65  C   UNL A   1      42.202  34.822  31.884  1.00  0.00     0.031 C 
ATOM     66  C   UNL A   1      44.463  35.334  31.008  1.00  0.00     0.037 A 
BRANCH  53  67
ATOM     67  C   UNL A   1      48.967  33.118  27.408  1.00  0.00     0.064 A 
ATOM     68  C   UNL A   1      49.180  33.773  26.187  1.00  0.00     0.173 A 
ATOM     69  C   UNL A   1      50.089  32.642  28.103  1.00  0.00     0.173 A 
ATOM     70  F   UNL A   1      48.139  34.229  25.473  1.00  0.00    -0.203 F 
ATOM     71  C   UNL A   1      50.465  33.923  25.670  1.00  0.00     0.198 A 
ATOM     72  C   UNL A   1      51.374  32.819  27.599  1.00  0.00     0.198 A 
ATOM     73  F   UNL A   1      49.939  32.007  29.276  1.00  0.00    -0.203 F 
ATOM     74  F   UNL A   1      50.642  34.508  24.478  1.00  0.00    -0.200 F 
ATOM     75  C   UNL A   1      51.561  33.453  26.380  1.00  0.00     0.200 A 
ATOM     76  F   UNL A   1      52.431  32.372  28.290  1.00  0.00    -0.200 F 
ATOM     77  F   UNL A   1      52.796  33.602  25.884  1.00  0.00    -0.200 F 
ENDBRANCH  53  67
BRANCH  54  78
ATOM     78  C   UNL A   1      39.821  31.440  31.051  1.00  0.00     0.064 A 
ATOM     79  C   UNL A   1      38.665  31.971  30.463  1.00  0.00     0.173 A 
ATOM     80  C   UNL A   1      39.667  30.690  32.228  1.00  0.00     0.173 A 
ATOM     81  F   UNL A   1      38.761  32.725  29.359  1.00  0.00    -0.203 F 
ATOM     82  C   UNL A   1      37.409  31.773  31.037  1.00  0.00     0.198 A 
ATOM     83  C   UNL A   1      38.409  30.467  32.783  1.00  0.00     0.198 A 
ATOM     84  F   UNL A   1      40.742  30.171  32.839  1.00  0.00    -0.203 F 
ATOM     85  F   UNL A   1      36.326  32.335  30.482  1.00  0.00    -0.200 F 
ATOM     86  C   UNL A   1      37.281  31.016  32.191  1.00  0.00     0.200 A 
ATOM     87  F   UNL A   1      38.290  29.728  33.894  1.00  0.00    -0.200 F 
ATOM     88  F   UNL A   1      36.074  30.824  32.740  1.00  0.00    -0.200 F 
ENDBRANCH  54  78
BRANCH  66  89
ATOM     89  C   UNL A   1      44.443  36.605  31.809  1.00  0.00     0.064 A 
ATOM     90  C   UNL A   1      43.953  37.804  31.269  1.00  0.00     0.173 A 
ATOM     91  C   UNL A   1      44.874  36.613  33.144  1.00  0.00     0.173 A 
ATOM     92  F   UNL A   1      43.542  37.853  29.993  1.00  0.00    -0.203 F 
ATOM     93  C   UNL A   1      43.917  38.969  32.031  1.00  0.00     0.198 A 
ATOM     94  C   UNL A   1      44.808  37.772  33.912  1.00  0.00     0.198 A 
ATOM     95  F   UNL A   1      45.344  35.491  33.710  1.00  0.00    -0.203 F 
ATOM     96  F   UNL A   1      43.487  40.114  31.482  1.00  0.00    -0.200 F 
ATOM     97  C   UNL A   1      44.337  38.951  33.354  1.00  0.00     0.200 A 
ATOM     98  F   UNL A   1      45.200  37.749  35.193  1.00  0.00    -0.200 F 
ATOM     99  F   UNL A   1      44.293  40.071  34.088  1.00  0.00    -0.200 F 
ENDBRANCH  66  89
ENDBRANCH  40  41
ENDBRANCH  33  35
ENDBRANCH  32  33
ENDBRANCH  31  32
ENDBRANCH  30  31
ENDBRANCH  29  30
ENDBRANCH  28  29
ENDBRANCH   1  28
TORSDOF 23
ENDMDL
