MODEL 1
REMARK VINA RESULT:     -10.5      0.000      0.000
REMARK SMILES CC(C)(C(=O)OCCOCCOCCOC(=O)c1ccc(-c2c3nc(c(-c4c(F)c(F)c(F)c(F)c4F)c4ccc([nH]4)c(-c4c(F)c(F)c(F)c(F)c4F)c4nc(c(-c5c(F)c(F)c(F)c(F)c5F)c5ccc2[nH]5)C=C4)C=C3)cc1)n1nnnc1C(F)(F)C(F)F
REMARK SMILES IDX 10 1 9 2 8 3 7 4 6 5 4 6 5 7 2 8 1 9 3 10 81 11 82 12 85 13
REMARK SMILES IDX 83 14 84 15 86 16 87 17 88 18 89 19 90 20 91 21 11 22 12 23
REMARK SMILES IDX 13 24 14 25 15 26 16 27 17 28 18 29 19 30 80 31 20 32 79 33
REMARK SMILES IDX 21 34 22 35 23 36 73 37 24 38 78 39 72 40 74 41 25 42 77 43
REMARK SMILES IDX 71 44 70 45 26 47 58 48 38 49 57 50 39 51 42 52 56 53 75 54
REMARK SMILES IDX 40 55 41 56 55 58 76 59 43 60 27 61 28 62 36 63 29 64 30 65
REMARK SMILES IDX 34 66 37 67 31 68 32 69 35 70 33 71 59 72 60 73 68 74 61 75
REMARK SMILES IDX 62 76 66 77 69 78 63 79 64 80 67 81 65 82 44 83 45 84 53 85
REMARK SMILES IDX 46 86 47 87 51 88 54 89 48 90 49 91 52 92 50 93
REMARK H PARENT 74 46 42 57
REMARK Flexibility Score: inf
ROOT
ATOM      1  C   UNL A   1      39.148  22.272  26.209  1.00  0.00     0.188 C 
ENDROOT
BRANCH   1   2
ATOM      2  O   UNL A   1      37.884  21.827  25.736  1.00  0.00    -0.376 OA
BRANCH   2   3
ATOM      3  C   UNL A   1      37.044  22.819  25.154  1.00  0.00     0.202 C 
BRANCH   3   4
ATOM      4  C   UNL A   1      35.628  22.930  25.738  1.00  0.00     0.261 C 
BRANCH   4   5
ATOM      5  O   UNL A   1      34.832  24.000  25.179  1.00  0.00    -0.461 OA
BRANCH   5   6
ATOM      6  C   UNL A   1      33.473  23.875  25.304  1.00  0.00     0.333 C 
ATOM      7  O   UNL A   1      32.908  23.784  26.388  1.00  0.00    -0.249 OA
BRANCH   6   8
ATOM      8  C   UNL A   1      32.732  23.843  23.927  1.00  0.00     0.158 C 
ATOM      9  C   UNL A   1      33.170  22.600  23.157  1.00  0.00     0.049 C 
ATOM     10  C   UNL A   1      31.240  23.633  24.277  1.00  0.00     0.049 C 
BRANCH   8  11
ATOM     11  N   UNL A   1      32.874  25.140  23.237  1.00  0.00    -0.207 N 
ATOM     12  N   UNL A   1      33.544  25.059  22.055  1.00  0.00    -0.044 NA
ATOM     13  C   UNL A   1      32.615  26.493  23.468  1.00  0.00     0.228 A 
ATOM     14  N   UNL A   1      33.655  26.273  21.573  1.00  0.00    -0.024 NA
ATOM     15  N   UNL A   1      33.082  27.156  22.410  1.00  0.00    -0.107 NA
BRANCH  13  16
ATOM     16  C   UNL A   1      32.049  27.320  24.587  1.00  0.00     0.367 C 
ATOM     17  F   UNL A   1      31.694  28.561  24.136  1.00  0.00    -0.191 F 
ATOM     18  F   UNL A   1      30.833  26.738  24.922  1.00  0.00    -0.191 F 
BRANCH  16  19
ATOM     19  C   UNL A   1      32.744  27.460  25.925  1.00  0.00     0.419 C 
ATOM     20  F   UNL A   1      32.099  26.764  26.893  1.00  0.00    -0.203 F 
ATOM     21  F   UNL A   1      34.022  27.018  25.887  1.00  0.00    -0.203 F 
ENDBRANCH  16  19
ENDBRANCH  13  16
ENDBRANCH   8  11
ENDBRANCH   6   8
ENDBRANCH   5   6
ENDBRANCH   4   5
ENDBRANCH   3   4
ENDBRANCH   2   3
ENDBRANCH   1   2
BRANCH   1  22
ATOM     22  C   UNL A   1      40.200  21.189  26.402  1.00  0.00     0.188 C 
BRANCH  22  23
ATOM     23  O   UNL A   1      41.311  21.213  25.529  1.00  0.00    -0.376 OA
BRANCH  23  24
ATOM     24  C   UNL A   1      42.553  20.742  26.062  1.00  0.00     0.202 C 
BRANCH  24  25
ATOM     25  C   UNL A   1      43.930  21.377  25.706  1.00  0.00     0.261 C 
BRANCH  25  26
ATOM     26  O   UNL A   1      44.280  22.657  26.277  1.00  0.00    -0.460 OA
BRANCH  26  27
ATOM     27  C   UNL A   1      43.991  23.764  25.551  1.00  0.00     0.338 C 
ATOM     28  O   UNL A   1      44.168  23.900  24.357  1.00  0.00    -0.246 OA
BRANCH  27  29
ATOM     29  C   UNL A   1      43.156  24.696  26.374  1.00  0.00     0.060 A 
ATOM     30  C   UNL A   1      43.600  26.021  26.478  1.00  0.00     0.016 A 
ATOM     31  C   UNL A   1      41.981  24.323  27.030  1.00  0.00     0.016 A 
ATOM     32  C   UNL A   1      42.929  26.956  27.266  1.00  0.00     0.010 A 
ATOM     33  C   UNL A   1      41.321  25.256  27.856  1.00  0.00     0.010 A 
ATOM     34  C   UNL A   1      41.817  26.568  28.016  1.00  0.00    -0.014 A 
BRANCH  34  35
ATOM     35  C   UNL A   1      41.364  27.455  29.129  1.00  0.00     0.031 A 
ATOM     36  C   UNL A   1      42.174  27.469  30.404  1.00  0.00     0.074 A 
ATOM     37  C   UNL A   1      40.349  28.330  28.998  1.00  0.00     0.049 A 
ATOM     38  N   UNL A   1      41.962  28.104  31.530  1.00  0.00    -0.248 NA
ATOM     39  C   UNL A   1      43.402  26.659  30.398  1.00  0.00     0.031 C 
ATOM     40  C   UNL A   1      39.558  28.538  27.788  1.00  0.00     0.029 A 
ATOM     41  N   UNL A   1      39.821  29.225  29.901  1.00  0.00    -0.354 N 
ATOM     42  C   UNL A   1      43.008  27.745  32.371  1.00  0.00     0.074 A 
ATOM     43  C   UNL A   1      43.845  26.824  31.635  1.00  0.00     0.031 C 
ATOM     44  C   UNL A   1      38.646  29.498  28.023  1.00  0.00     0.029 A 
ATOM     45  C   UNL A   1      38.751  29.937  29.415  1.00  0.00     0.049 A 
ATOM     46  H   UNL A   1      40.176  29.343  30.813  1.00  0.00     0.167 HD
ATOM     47  C   UNL A   1      43.255  28.147  33.642  1.00  0.00     0.037 A 
ATOM     48  C   UNL A   1      37.933  30.818  30.027  1.00  0.00     0.037 A 
ATOM     49  C   UNL A   1      42.447  29.089  34.372  1.00  0.00     0.049 A 
ATOM     50  C   UNL A   1      38.159  31.163  31.480  1.00  0.00     0.074 A 
ATOM     51  C   UNL A   1      42.618  29.549  35.666  1.00  0.00     0.029 A 
ATOM     52  N   UNL A   1      41.317  29.717  33.871  1.00  0.00    -0.354 N 
ATOM     53  N   UNL A   1      39.119  30.782  32.288  1.00  0.00    -0.248 NA
ATOM     54  C   UNL A   1      37.177  32.061  32.109  1.00  0.00     0.031 C 
ATOM     55  C   UNL A   1      41.555  30.406  35.970  1.00  0.00     0.029 A 
ATOM     56  C   UNL A   1      40.762  30.537  34.842  1.00  0.00     0.049 A 
ATOM     57  H   UNL A   1      40.962  29.598  32.961  1.00  0.00     0.167 HD
ATOM     58  C   UNL A   1      38.878  31.420  33.501  1.00  0.00     0.074 A 
ATOM     59  C   UNL A   1      37.688  32.222  33.321  1.00  0.00     0.031 C 
ATOM     60  C   UNL A   1      39.584  31.347  34.657  1.00  0.00     0.037 A 
BRANCH  47  61
ATOM     61  C   UNL A   1      44.424  27.518  34.348  1.00  0.00     0.064 A 
ATOM     62  C   UNL A   1      45.701  28.097  34.352  1.00  0.00     0.173 A 
ATOM     63  C   UNL A   1      44.250  26.310  35.044  1.00  0.00     0.173 A 
ATOM     64  F   UNL A   1      45.926  29.241  33.689  1.00  0.00    -0.203 F 
ATOM     65  C   UNL A   1      46.768  27.473  34.994  1.00  0.00     0.198 A 
ATOM     66  C   UNL A   1      45.311  25.709  35.716  1.00  0.00     0.198 A 
ATOM     67  F   UNL A   1      43.050  25.714  35.078  1.00  0.00    -0.203 F 
ATOM     68  F   UNL A   1      47.994  28.012  34.930  1.00  0.00    -0.200 F 
ATOM     69  C   UNL A   1      46.572  26.285  35.680  1.00  0.00     0.200 A 
ATOM     70  F   UNL A   1      45.114  24.568  36.391  1.00  0.00    -0.200 F 
ATOM     71  F   UNL A   1      47.599  25.687  36.299  1.00  0.00    -0.200 F 
ENDBRANCH  47  61
BRANCH  48  72
ATOM     72  C   UNL A   1      36.787  31.417  29.289  1.00  0.00     0.064 A 
ATOM     73  C   UNL A   1      36.757  32.784  28.972  1.00  0.00     0.173 A 
ATOM     74  C   UNL A   1      35.671  30.645  28.932  1.00  0.00     0.173 A 
ATOM     75  F   UNL A   1      37.778  33.577  29.331  1.00  0.00    -0.203 F 
ATOM     76  C   UNL A   1      35.650  33.355  28.345  1.00  0.00     0.198 A 
ATOM     77  C   UNL A   1      34.580  31.211  28.275  1.00  0.00     0.198 A 
ATOM     78  F   UNL A   1      35.635  29.338  29.230  1.00  0.00    -0.203 F 
ATOM     79  F   UNL A   1      35.621  34.676  28.115  1.00  0.00    -0.200 F 
ATOM     80  C   UNL A   1      34.566  32.568  27.990  1.00  0.00     0.200 A 
ATOM     81  F   UNL A   1      33.535  30.445  27.934  1.00  0.00    -0.200 F 
ATOM     82  F   UNL A   1      33.501  33.118  27.393  1.00  0.00    -0.200 F 
ENDBRANCH  48  72
BRANCH  60  83
ATOM     83  C   UNL A   1      39.127  32.199  35.809  1.00  0.00     0.064 A 
ATOM     84  C   UNL A   1      39.547  33.528  35.966  1.00  0.00     0.173 A 
ATOM     85  C   UNL A   1      38.228  31.684  36.758  1.00  0.00     0.173 A 
ATOM     86  F   UNL A   1      40.413  34.070  35.096  1.00  0.00    -0.203 F 
ATOM     87  C   UNL A   1      39.113  34.297  37.045  1.00  0.00     0.198 A 
ATOM     88  C   UNL A   1      37.767  32.466  37.814  1.00  0.00     0.198 A 
ATOM     89  F   UNL A   1      37.782  30.422  36.652  1.00  0.00    -0.203 F 
ATOM     90  F   UNL A   1      39.573  35.545  37.204  1.00  0.00    -0.200 F 
ATOM     91  C   UNL A   1      38.219  33.767  37.963  1.00  0.00     0.200 A 
ATOM     92  F   UNL A   1      36.888  31.958  38.689  1.00  0.00    -0.200 F 
ATOM     93  F   UNL A   1      37.798  34.510  38.996  1.00  0.00    -0.200 F 
ENDBRANCH  60  83
ENDBRANCH  34  35
ENDBRANCH  27  29
ENDBRANCH  26  27
ENDBRANCH  25  26
ENDBRANCH  24  25
ENDBRANCH  23  24
ENDBRANCH  22  23
ENDBRANCH   1  22
TORSDOF 20
ENDMDL
MODEL 2
REMARK VINA RESULT:     -10.4      1.230      2.241
REMARK SMILES CC(C)(C(=O)OCCOCCOCCOC(=O)c1ccc(-c2c3nc(c(-c4c(F)c(F)c(F)c(F)c4F)c4ccc([nH]4)c(-c4c(F)c(F)c(F)c(F)c4F)c4nc(c(-c5c(F)c(F)c(F)c(F)c5F)c5ccc2[nH]5)C=C4)C=C3)cc1)n1nnnc1C(F)(F)C(F)F
REMARK SMILES IDX 10 1 9 2 8 3 7 4 6 5 4 6 5 7 2 8 1 9 3 10 81 11 82 12 85 13
REMARK SMILES IDX 83 14 84 15 86 16 87 17 88 18 89 19 90 20 91 21 11 22 12 23
REMARK SMILES IDX 13 24 14 25 15 26 16 27 17 28 18 29 19 30 80 31 20 32 79 33
REMARK SMILES IDX 21 34 22 35 23 36 73 37 24 38 78 39 72 40 74 41 25 42 77 43
REMARK SMILES IDX 71 44 70 45 26 47 58 48 38 49 57 50 39 51 42 52 56 53 75 54
REMARK SMILES IDX 40 55 41 56 55 58 76 59 43 60 27 61 28 62 36 63 29 64 30 65
REMARK SMILES IDX 34 66 37 67 31 68 32 69 35 70 33 71 59 72 60 73 68 74 61 75
REMARK SMILES IDX 62 76 66 77 69 78 63 79 64 80 67 81 65 82 44 83 45 84 53 85
REMARK SMILES IDX 46 86 47 87 51 88 54 89 48 90 49 91 52 92 50 93
REMARK H PARENT 74 46 42 57
REMARK Flexibility Score: inf
ROOT
ATOM      1  C   UNL A   1      39.144  21.797  26.144  1.00  0.00     0.188 C 
ENDROOT
BRANCH   1   2
ATOM      2  O   UNL A   1      38.291  21.815  25.007  1.00  0.00    -0.376 OA
BRANCH   2   3
ATOM      3  C   UNL A   1      37.194  22.722  25.057  1.00  0.00     0.202 C 
BRANCH   3   4
ATOM      4  C   UNL A   1      36.091  22.390  26.071  1.00  0.00     0.261 C 
BRANCH   4   5
ATOM      5  O   UNL A   1      34.943  23.268  26.016  1.00  0.00    -0.461 OA
BRANCH   5   6
ATOM      6  C   UNL A   1      33.886  22.838  25.258  1.00  0.00     0.333 C 
ATOM      7  O   UNL A   1      34.021  22.347  24.142  1.00  0.00    -0.249 OA
BRANCH   6   8
ATOM      8  C   UNL A   1      32.503  23.058  25.954  1.00  0.00     0.158 C 
ATOM      9  C   UNL A   1      31.503  22.048  25.402  1.00  0.00     0.049 C 
ATOM     10  C   UNL A   1      32.733  22.676  27.436  1.00  0.00     0.049 C 
BRANCH   8  11
ATOM     11  N   UNL A   1      32.118  24.482  25.892  1.00  0.00    -0.207 N 
ATOM     12  N   UNL A   1      31.183  24.835  26.816  1.00  0.00    -0.044 NA
ATOM     13  C   UNL A   1      32.344  25.604  25.092  1.00  0.00     0.228 A 
ATOM     14  N   UNL A   1      30.884  26.096  26.622  1.00  0.00    -0.024 NA
ATOM     15  N   UNL A   1      31.592  26.585  25.589  1.00  0.00    -0.107 NA
BRANCH  13  16
ATOM     16  C   UNL A   1      33.120  25.913  23.842  1.00  0.00     0.367 C 
ATOM     17  F   UNL A   1      33.390  27.252  23.764  1.00  0.00    -0.191 F 
ATOM     18  F   UNL A   1      34.373  25.340  24.011  1.00  0.00    -0.191 F 
BRANCH  16  19
ATOM     19  C   UNL A   1      32.693  25.414  22.478  1.00  0.00     0.419 C 
ATOM     20  F   UNL A   1      32.274  24.126  22.532  1.00  0.00    -0.203 F 
ATOM     21  F   UNL A   1      31.687  26.150  21.955  1.00  0.00    -0.203 F 
ENDBRANCH  16  19
ENDBRANCH  13  16
ENDBRANCH   8  11
ENDBRANCH   6   8
ENDBRANCH   5   6
ENDBRANCH   4   5
ENDBRANCH   3   4
ENDBRANCH   2   3
ENDBRANCH   1   2
BRANCH   1  22
ATOM     22  C   UNL A   1      39.997  20.548  26.310  1.00  0.00     0.188 C 
BRANCH  22  23
ATOM     23  O   UNL A   1      41.252  20.708  26.938  1.00  0.00    -0.376 OA
BRANCH  23  24
ATOM     24  C   UNL A   1      42.406  20.407  26.147  1.00  0.00     0.202 C 
BRANCH  24  25
ATOM     25  C   UNL A   1      43.402  21.494  25.642  1.00  0.00     0.261 C 
BRANCH  25  26
ATOM     26  O   UNL A   1      42.891  22.615  24.887  1.00  0.00    -0.460 OA
BRANCH  26  27
ATOM     27  C   UNL A   1      43.552  23.792  24.995  1.00  0.00     0.338 C 
ATOM     28  O   UNL A   1      44.503  24.141  24.324  1.00  0.00    -0.246 OA
BRANCH  27  29
ATOM     29  C   UNL A   1      42.768  24.726  25.864  1.00  0.00     0.060 A 
ATOM     30  C   UNL A   1      43.235  26.045  25.961  1.00  0.00     0.016 A 
ATOM     31  C   UNL A   1      41.621  24.363  26.570  1.00  0.00     0.016 A 
ATOM     32  C   UNL A   1      42.614  26.980  26.787  1.00  0.00     0.010 A 
ATOM     33  C   UNL A   1      41.012  25.296  27.435  1.00  0.00     0.010 A 
ATOM     34  C   UNL A   1      41.533  26.599  27.584  1.00  0.00    -0.014 A 
BRANCH  34  35
ATOM     35  C   UNL A   1      41.144  27.480  28.726  1.00  0.00     0.031 A 
ATOM     36  C   UNL A   1      42.004  27.460  29.967  1.00  0.00     0.074 A 
ATOM     37  C   UNL A   1      40.144  28.379  28.646  1.00  0.00     0.049 A 
ATOM     38  N   UNL A   1      41.850  28.084  31.109  1.00  0.00    -0.248 NA
ATOM     39  C   UNL A   1      43.212  26.624  29.902  1.00  0.00     0.031 C 
ATOM     40  C   UNL A   1      39.311  28.621  27.471  1.00  0.00     0.029 A 
ATOM     41  N   UNL A   1      39.672  29.273  29.581  1.00  0.00    -0.354 N 
ATOM     42  C   UNL A   1      42.921  27.692  31.904  1.00  0.00     0.074 A 
ATOM     43  C   UNL A   1      43.707  26.763  31.122  1.00  0.00     0.031 C 
ATOM     44  C   UNL A   1      38.430  29.597  27.755  1.00  0.00     0.029 A 
ATOM     45  C   UNL A   1      38.600  30.015  29.147  1.00  0.00     0.049 A 
ATOM     46  H   UNL A   1      40.066  29.371  30.479  1.00  0.00     0.167 HD
ATOM     47  C   UNL A   1      43.227  28.070  33.168  1.00  0.00     0.037 A 
ATOM     48  C   UNL A   1      37.827  30.905  29.802  1.00  0.00     0.037 A 
ATOM     49  C   UNL A   1      42.470  29.020  33.942  1.00  0.00     0.049 A 
ATOM     50  C   UNL A   1      38.117  31.225  31.250  1.00  0.00     0.074 A 
ATOM     51  C   UNL A   1      42.701  29.459  35.233  1.00  0.00     0.029 A 
ATOM     52  N   UNL A   1      41.335  29.679  33.494  1.00  0.00    -0.354 N 
ATOM     53  N   UNL A   1      39.100  30.812  32.014  1.00  0.00    -0.248 NA
ATOM     54  C   UNL A   1      37.181  32.136  31.928  1.00  0.00     0.031 C 
ATOM     55  C   UNL A   1      41.671  30.335  35.591  1.00  0.00     0.029 A 
ATOM     56  C   UNL A   1      40.837  30.498  34.497  1.00  0.00     0.049 A 
ATOM     57  H   UNL A   1      40.941  29.580  32.597  1.00  0.00     0.167 HD
ATOM     58  C   UNL A   1      38.922  31.439  33.243  1.00  0.00     0.074 A 
ATOM     59  C   UNL A   1      37.743  32.269  33.121  1.00  0.00     0.031 C 
ATOM     60  C   UNL A   1      39.671  31.336  34.369  1.00  0.00     0.037 A 
BRANCH  47  61
ATOM     61  C   UNL A   1      44.408  27.406  33.820  1.00  0.00     0.064 A 
ATOM     62  C   UNL A   1      44.325  26.138  34.412  1.00  0.00     0.173 A 
ATOM     63  C   UNL A   1      45.652  28.058  33.839  1.00  0.00     0.173 A 
ATOM     64  F   UNL A   1      43.158  25.478  34.436  1.00  0.00    -0.203 F 
ATOM     65  C   UNL A   1      45.433  25.564  35.032  1.00  0.00     0.198 A 
ATOM     66  C   UNL A   1      46.766  27.465  34.426  1.00  0.00     0.198 A 
ATOM     67  F   UNL A   1      45.790  29.271  33.284  1.00  0.00    -0.203 F 
ATOM     68  F   UNL A   1      45.315  24.379  35.648  1.00  0.00    -0.200 F 
ATOM     69  C   UNL A   1      46.652  26.223  35.032  1.00  0.00     0.200 A 
ATOM     70  F   UNL A   1      47.947  28.098  34.412  1.00  0.00    -0.200 F 
ATOM     71  F   UNL A   1      47.717  25.668  35.627  1.00  0.00    -0.200 F 
ENDBRANCH  47  61
BRANCH  48  72
ATOM     72  C   UNL A   1      36.666  31.539  29.118  1.00  0.00     0.064 A 
ATOM     73  C   UNL A   1      36.661  32.906  28.805  1.00  0.00     0.173 A 
ATOM     74  C   UNL A   1      35.512  30.800  28.812  1.00  0.00     0.173 A 
ATOM     75  F   UNL A   1      37.720  33.669  29.117  1.00  0.00    -0.203 F 
ATOM     76  C   UNL A   1      35.544  33.511  28.229  1.00  0.00     0.198 A 
ATOM     77  C   UNL A   1      34.409  31.399  28.206  1.00  0.00     0.198 A 
ATOM     78  F   UNL A   1      35.452  29.494  29.110  1.00  0.00    -0.203 F 
ATOM     79  F   UNL A   1      35.542  34.833  28.002  1.00  0.00    -0.200 F 
ATOM     80  C   UNL A   1      34.422  32.756  27.924  1.00  0.00     0.200 A 
ATOM     81  F   UNL A   1      33.328  30.664  27.912  1.00  0.00    -0.200 F 
ATOM     82  F   UNL A   1      33.347  33.339  27.377  1.00  0.00    -0.200 F 
ENDBRANCH  48  72
BRANCH  60  83
ATOM     83  C   UNL A   1      39.279  32.181  35.549  1.00  0.00     0.064 A 
ATOM     84  C   UNL A   1      38.458  31.693  36.576  1.00  0.00     0.173 A 
ATOM     85  C   UNL A   1      39.760  33.496  35.669  1.00  0.00     0.173 A 
ATOM     86  F   UNL A   1      37.961  30.448  36.511  1.00  0.00    -0.203 F 
ATOM     87  C   UNL A   1      38.104  32.498  37.659  1.00  0.00     0.198 A 
ATOM     88  C   UNL A   1      39.435  34.285  36.770  1.00  0.00     0.198 A 
ATOM     89  F   UNL A   1      40.559  34.013  34.723  1.00  0.00    -0.203 F 
ATOM     90  F   UNL A   1      37.272  32.027  38.597  1.00  0.00    -0.200 F 
ATOM     91  C   UNL A   1      38.599  33.789  37.757  1.00  0.00     0.200 A 
ATOM     92  F   UNL A   1      39.930  35.526  36.873  1.00  0.00    -0.200 F 
ATOM     93  F   UNL A   1      38.263  34.559  38.802  1.00  0.00    -0.200 F 
ENDBRANCH  60  83
ENDBRANCH  34  35
ENDBRANCH  27  29
ENDBRANCH  26  27
ENDBRANCH  25  26
ENDBRANCH  24  25
ENDBRANCH  23  24
ENDBRANCH  22  23
ENDBRANCH   1  22
TORSDOF 20
ENDMDL
MODEL 3
REMARK VINA RESULT:     -10.3      4.530      8.625
REMARK SMILES CC(C)(C(=O)OCCOCCOCCOC(=O)c1ccc(-c2c3nc(c(-c4c(F)c(F)c(F)c(F)c4F)c4ccc([nH]4)c(-c4c(F)c(F)c(F)c(F)c4F)c4nc(c(-c5c(F)c(F)c(F)c(F)c5F)c5ccc2[nH]5)C=C4)C=C3)cc1)n1nnnc1C(F)(F)C(F)F
REMARK SMILES IDX 10 1 9 2 8 3 7 4 6 5 4 6 5 7 2 8 1 9 3 10 81 11 82 12 85 13
REMARK SMILES IDX 83 14 84 15 86 16 87 17 88 18 89 19 90 20 91 21 11 22 12 23
REMARK SMILES IDX 13 24 14 25 15 26 16 27 17 28 18 29 19 30 80 31 20 32 79 33
REMARK SMILES IDX 21 34 22 35 23 36 73 37 24 38 78 39 72 40 74 41 25 42 77 43
REMARK SMILES IDX 71 44 70 45 26 47 58 48 38 49 57 50 39 51 42 52 56 53 75 54
REMARK SMILES IDX 40 55 41 56 55 58 76 59 43 60 27 61 28 62 36 63 29 64 30 65
REMARK SMILES IDX 34 66 37 67 31 68 32 69 35 70 33 71 59 72 60 73 68 74 61 75
REMARK SMILES IDX 62 76 66 77 69 78 63 79 64 80 67 81 65 82 44 83 45 84 53 85
REMARK SMILES IDX 46 86 47 87 51 88 54 89 48 90 49 91 52 92 50 93
REMARK H PARENT 74 46 42 57
REMARK Flexibility Score: inf
ROOT
ATOM      1  C   UNL A   1      33.173  22.635  27.627  1.00  0.00     0.188 C 
ENDROOT
BRANCH   1   2
ATOM      2  O   UNL A   1      31.770  22.754  27.829  1.00  0.00    -0.376 OA
BRANCH   2   3
ATOM      3  C   UNL A   1      31.056  23.511  26.857  1.00  0.00     0.202 C 
BRANCH   3   4
ATOM      4  C   UNL A   1      31.875  24.545  26.072  1.00  0.00     0.261 C 
BRANCH   4   5
ATOM      5  O   UNL A   1      31.551  24.623  24.666  1.00  0.00    -0.461 OA
BRANCH   5   6
ATOM      6  C   UNL A   1      30.831  25.719  24.268  1.00  0.00     0.333 C 
ATOM      7  O   UNL A   1      29.696  25.954  24.669  1.00  0.00    -0.249 OA
BRANCH   6   8
ATOM      8  C   UNL A   1      31.599  26.619  23.245  1.00  0.00     0.158 C 
ATOM      9  C   UNL A   1      33.091  26.566  23.560  1.00  0.00     0.049 C 
ATOM     10  C   UNL A   1      31.420  25.916  21.878  1.00  0.00     0.049 C 
BRANCH   8  11
ATOM     11  N   UNL A   1      30.979  27.956  23.170  1.00  0.00    -0.207 N 
ATOM     12  N   UNL A   1      30.331  28.191  21.996  1.00  0.00    -0.044 NA
ATOM     13  C   UNL A   1      30.926  29.139  23.910  1.00  0.00     0.228 A 
ATOM     14  N   UNL A   1      29.878  29.420  22.028  1.00  0.00    -0.024 NA
ATOM     15  N   UNL A   1      30.215  30.007  23.190  1.00  0.00    -0.107 NA
BRANCH  13  16
ATOM     16  C   UNL A   1      31.513  29.648  25.196  1.00  0.00     0.367 C 
ATOM     17  F   UNL A   1      30.980  30.866  25.518  1.00  0.00    -0.191 F 
ATOM     18  F   UNL A   1      31.035  28.812  26.198  1.00  0.00    -0.191 F 
BRANCH  16  19
ATOM     19  C   UNL A   1      33.004  29.677  25.453  1.00  0.00     0.419 C 
ATOM     20  F   UNL A   1      33.353  30.737  26.223  1.00  0.00    -0.203 F 
ATOM     21  F   UNL A   1      33.439  28.559  26.078  1.00  0.00    -0.203 F 
ENDBRANCH  16  19
ENDBRANCH  13  16
ENDBRANCH   8  11
ENDBRANCH   6   8
ENDBRANCH   5   6
ENDBRANCH   4   5
ENDBRANCH   3   4
ENDBRANCH   2   3
ENDBRANCH   1   2
BRANCH   1  22
ATOM     22  C   UNL A   1      33.601  21.689  26.515  1.00  0.00     0.188 C 
BRANCH  22  23
ATOM     23  O   UNL A   1      34.960  21.302  26.493  1.00  0.00    -0.376 OA
BRANCH  23  24
ATOM     24  C   UNL A   1      35.544  21.090  25.203  1.00  0.00     0.202 C 
BRANCH  24  25
ATOM     25  C   UNL A   1      36.982  20.528  25.000  1.00  0.00     0.261 C 
BRANCH  25  26
ATOM     26  O   UNL A   1      38.107  21.430  25.101  1.00  0.00    -0.460 OA
BRANCH  26  27
ATOM     27  C   UNL A   1      39.101  21.092  25.956  1.00  0.00     0.338 C 
ATOM     28  O   UNL A   1      39.620  19.998  26.051  1.00  0.00    -0.246 OA
BRANCH  27  29
ATOM     29  C   UNL A   1      39.672  22.332  26.572  1.00  0.00     0.060 A 
ATOM     30  C   UNL A   1      39.165  23.558  26.117  1.00  0.00     0.016 A 
ATOM     31  C   UNL A   1      40.664  22.334  27.554  1.00  0.00     0.016 A 
ATOM     32  C   UNL A   1      39.667  24.773  26.581  1.00  0.00     0.010 A 
ATOM     33  C   UNL A   1      41.199  23.561  27.999  1.00  0.00     0.010 A 
ATOM     34  C   UNL A   1      40.735  24.789  27.480  1.00  0.00    -0.014 A 
BRANCH  34  35
ATOM     35  C   UNL A   1      41.500  26.060  27.655  1.00  0.00     0.031 A 
ATOM     36  C   UNL A   1      40.867  27.168  28.463  1.00  0.00     0.074 A 
ATOM     37  C   UNL A   1      42.771  26.211  27.235  1.00  0.00     0.049 A 
ATOM     38  N   UNL A   1      41.296  28.381  28.712  1.00  0.00    -0.248 NA
ATOM     39  C   UNL A   1      39.572  26.854  29.085  1.00  0.00     0.031 C 
ATOM     40  C   UNL A   1      43.571  25.189  26.564  1.00  0.00     0.029 A 
ATOM     41  N   UNL A   1      43.620  27.291  27.331  1.00  0.00    -0.354 N 
ATOM     42  C   UNL A   1      40.312  28.980  29.490  1.00  0.00     0.074 A 
ATOM     43  C   UNL A   1      39.256  28.006  29.657  1.00  0.00     0.031 C 
ATOM     44  C   UNL A   1      44.792  25.690  26.309  1.00  0.00     0.029 A 
ATOM     45  C   UNL A   1      44.847  27.084  26.749  1.00  0.00     0.049 A 
ATOM     46  H   UNL A   1      43.370  28.134  27.775  1.00  0.00     0.167 HD
ATOM     47  C   UNL A   1      40.288  30.226  30.020  1.00  0.00     0.037 A 
ATOM     48  C   UNL A   1      45.884  27.928  26.566  1.00  0.00     0.037 A 
ATOM     49  C   UNL A   1      41.349  31.191  29.888  1.00  0.00     0.049 A 
ATOM     50  C   UNL A   1      45.787  29.351  27.065  1.00  0.00     0.074 A 
ATOM     51  C   UNL A   1      41.408  32.481  30.386  1.00  0.00     0.029 A 
ATOM     52  N   UNL A   1      42.538  30.971  29.209  1.00  0.00    -0.354 N 
ATOM     53  N   UNL A   1      44.833  29.929  27.755  1.00  0.00    -0.248 NA
ATOM     54  C   UNL A   1      46.917  30.241  26.753  1.00  0.00     0.031 C 
ATOM     55  C   UNL A   1      42.604  33.063  29.955  1.00  0.00     0.029 A 
ATOM     56  C   UNL A   1      43.324  32.113  29.250  1.00  0.00     0.049 A 
ATOM     57  H   UNL A   1      42.787  30.128  28.765  1.00  0.00     0.167 HD
ATOM     58  C   UNL A   1      45.263  31.232  27.988  1.00  0.00     0.074 A 
ATOM     59  C   UNL A   1      46.568  31.356  27.378  1.00  0.00     0.031 C 
ATOM     60  C   UNL A   1      44.631  32.232  28.653  1.00  0.00     0.037 A 
BRANCH  47  61
ATOM     61  C   UNL A   1      39.040  30.641  30.749  1.00  0.00     0.064 A 
ATOM     62  C   UNL A   1      37.924  31.174  30.086  1.00  0.00     0.173 A 
ATOM     63  C   UNL A   1      38.962  30.488  32.143  1.00  0.00     0.173 A 
ATOM     64  F   UNL A   1      37.951  31.357  28.758  1.00  0.00    -0.203 F 
ATOM     65  C   UNL A   1      36.794  31.574  30.795  1.00  0.00     0.198 A 
ATOM     66  C   UNL A   1      37.816  30.853  32.843  1.00  0.00     0.198 A 
ATOM     67  F   UNL A   1      39.997  29.979  32.827  1.00  0.00    -0.203 F 
ATOM     68  F   UNL A   1      35.766  32.141  30.150  1.00  0.00    -0.200 F 
ATOM     69  C   UNL A   1      36.738  31.407  32.170  1.00  0.00     0.200 A 
ATOM     70  F   UNL A   1      37.759  30.677  34.170  1.00  0.00    -0.200 F 
ATOM     71  F   UNL A   1      35.649  31.791  32.851  1.00  0.00    -0.200 F 
ENDBRANCH  47  61
BRANCH  48  72
ATOM     72  C   UNL A   1      47.101  27.475  25.838  1.00  0.00     0.064 A 
ATOM     73  C   UNL A   1      48.193  26.916  26.519  1.00  0.00     0.173 A 
ATOM     74  C   UNL A   1      47.221  27.644  24.449  1.00  0.00     0.173 A 
ATOM     75  F   UNL A   1      48.149  26.775  27.852  1.00  0.00    -0.203 F 
ATOM     76  C   UNL A   1      49.360  26.560  25.843  1.00  0.00     0.198 A 
ATOM     77  C   UNL A   1      48.375  27.256  23.771  1.00  0.00     0.198 A 
ATOM     78  F   UNL A   1      46.219  28.195  23.751  1.00  0.00    -0.203 F 
ATOM     79  F   UNL A   1      50.412  26.089  26.529  1.00  0.00    -0.200 F 
ATOM     80  C   UNL A   1      49.447  26.723  24.469  1.00  0.00     0.200 A 
ATOM     81  F   UNL A   1      48.454  27.415  22.443  1.00  0.00    -0.200 F 
ATOM     82  F   UNL A   1      50.571  26.386  23.822  1.00  0.00    -0.200 F 
ENDBRANCH  48  72
BRANCH  60  83
ATOM     83  C   UNL A   1      45.360  33.537  28.809  1.00  0.00     0.064 A 
ATOM     84  C   UNL A   1      45.214  34.587  27.891  1.00  0.00     0.173 A 
ATOM     85  C   UNL A   1      46.198  33.752  29.915  1.00  0.00     0.173 A 
ATOM     86  F   UNL A   1      44.434  34.436  26.809  1.00  0.00    -0.203 F 
ATOM     87  C   UNL A   1      45.904  35.787  28.054  1.00  0.00     0.198 A 
ATOM     88  C   UNL A   1      46.858  34.966  30.095  1.00  0.00     0.198 A 
ATOM     89  F   UNL A   1      46.368  32.788  30.834  1.00  0.00    -0.203 F 
ATOM     90  F   UNL A   1      45.792  36.754  27.132  1.00  0.00    -0.200 F 
ATOM     91  C   UNL A   1      46.719  35.977  29.159  1.00  0.00     0.200 A 
ATOM     92  F   UNL A   1      47.630  35.154  31.175  1.00  0.00    -0.200 F 
ATOM     93  F   UNL A   1      47.377  37.134  29.318  1.00  0.00    -0.200 F 
ENDBRANCH  60  83
ENDBRANCH  34  35
ENDBRANCH  27  29
ENDBRANCH  26  27
ENDBRANCH  25  26
ENDBRANCH  24  25
ENDBRANCH  23  24
ENDBRANCH  22  23
ENDBRANCH   1  22
TORSDOF 20
ENDMDL
