MODEL 1
REMARK VINA RESULT:     -11.6      0.000      0.000
REMARK SMILES C[C@@H]1[C@@H](C(=O)OCCOCCOCCOC(=O)c2ccc(-c3c4nc(c(-c5c(F)c(F)c(F)c(F)c5F)c5ccc([nH]5)c(-c5c(F)c(F)c(F)c(F)c5F)c5nc(c(-c6c(F)c(F)c(F)c(F)c6F)c6ccc3[nH]6)C=C5)C=C4)cc2)CCN1c1ccc(C(F)(F)F)cc1C#N
REMARK SMILES IDX 10 1 9 2 8 3 7 4 6 5 4 6 5 7 3 8 1 9 2 10 83 11 81 12 82 13
REMARK SMILES IDX 84 14 85 15 93 16 86 17 92 18 87 19 94 20 95 21 88 22 89 23
REMARK SMILES IDX 90 24 91 25 11 26 12 27 13 28 14 29 15 30 16 31 17 32 18 33
REMARK SMILES IDX 19 34 80 35 20 36 79 37 21 38 22 39 23 40 73 41 24 42 78 43
REMARK SMILES IDX 72 44 74 45 25 46 77 47 71 48 70 49 26 51 58 52 38 53 57 54
REMARK SMILES IDX 39 55 42 56 56 57 75 58 40 59 41 60 55 62 76 63 43 64 27 65
REMARK SMILES IDX 28 66 36 67 29 68 30 69 34 70 37 71 31 72 32 73 35 74 33 75
REMARK SMILES IDX 59 76 60 77 68 78 61 79 62 80 66 81 69 82 63 83 64 84 67 85
REMARK SMILES IDX 65 86 44 87 45 88 53 89 46 90 47 91 51 92 54 93 48 94 49 95
REMARK SMILES IDX 52 96 50 97
REMARK H PARENT 74 50 42 61
REMARK Flexibility Score: inf
ROOT
ATOM      1  C   UNL A   1      30.248  28.517  23.023  1.00  0.00     0.188 C 
ENDROOT
BRANCH   1   2
ATOM      2  O   UNL A   1      30.520  27.572  22.006  1.00  0.00    -0.376 OA
BRANCH   2   3
ATOM      3  C   UNL A   1      31.637  26.699  22.087  1.00  0.00     0.202 C 
BRANCH   3   4
ATOM      4  C   UNL A   1      31.537  25.223  22.509  1.00  0.00     0.261 C 
BRANCH   4   5
ATOM      5  O   UNL A   1      30.751  24.957  23.676  1.00  0.00    -0.463 OA
BRANCH   5   6
ATOM      6  C   UNL A   1      31.246  23.990  24.494  1.00  0.00     0.311 C 
ATOM      7  O   UNL A   1      30.701  22.914  24.692  1.00  0.00    -0.252 OA
BRANCH   6   8
ATOM      8  C   UNL A   1      32.604  24.394  25.039  1.00  0.00     0.123 C 
ATOM      9  C   UNL A   1      35.007  24.258  24.249  1.00  0.00     0.032 C 
ATOM     10  C   UNL A   1      33.696  23.490  24.443  1.00  0.00     0.093 C 
ATOM     11  N   UNL A   1      33.861  22.440  25.465  1.00  0.00    -0.367 N 
ATOM     12  C   UNL A   1      32.721  24.206  26.537  1.00  0.00     0.039 C 
ATOM     13  C   UNL A   1      33.048  22.728  26.657  1.00  0.00     0.118 C 
BRANCH  11  14
ATOM     14  C   UNL A   1      33.940  21.118  25.038  1.00  0.00     0.055 A 
ATOM     15  C   UNL A   1      32.785  20.417  24.648  1.00  0.00     0.028 A 
ATOM     16  C   UNL A   1      35.164  20.427  24.996  1.00  0.00     0.076 A 
ATOM     17  C   UNL A   1      32.823  19.068  24.297  1.00  0.00     0.015 A 
ATOM     18  C   UNL A   1      35.204  19.067  24.642  1.00  0.00     0.034 A 
ATOM     19  C   UNL A   1      34.032  18.369  24.314  1.00  0.00     0.057 A 
BRANCH  16  20
ATOM     20  C   UNL A   1      36.399  21.071  25.345  1.00  0.00     0.101 C 
ATOM     21  N   UNL A   1      37.373  21.643  25.623  1.00  0.00    -0.192 NA
ENDBRANCH  16  20
BRANCH  19  22
ATOM     22  C   UNL A   1      34.046  16.892  24.020  1.00  0.00     0.416 C 
ATOM     23  F   UNL A   1      34.363  16.630  22.723  1.00  0.00    -0.166 F 
ATOM     24  F   UNL A   1      34.957  16.218  24.773  1.00  0.00    -0.166 F 
ATOM     25  F   UNL A   1      32.848  16.285  24.244  1.00  0.00    -0.166 F 
ENDBRANCH  19  22
ENDBRANCH  11  14
ENDBRANCH   6   8
ENDBRANCH   5   6
ENDBRANCH   4   5
ENDBRANCH   3   4
ENDBRANCH   2   3
ENDBRANCH   1   2
BRANCH   1  26
ATOM     26  C   UNL A   1      31.308  28.849  24.091  1.00  0.00     0.188 C 
BRANCH  26  27
ATOM     27  O   UNL A   1      31.321  28.033  25.231  1.00  0.00    -0.376 OA
BRANCH  27  28
ATOM     28  C   UNL A   1      31.666  28.609  26.480  1.00  0.00     0.202 C 
BRANCH  28  29
ATOM     29  C   UNL A   1      31.768  30.126  26.781  1.00  0.00     0.261 C 
BRANCH  29  30
ATOM     30  O   UNL A   1      32.943  30.845  26.375  1.00  0.00    -0.460 OA
BRANCH  30  31
ATOM     31  C   UNL A   1      33.369  31.819  27.221  1.00  0.00     0.338 C 
ATOM     32  O   UNL A   1      32.737  32.785  27.611  1.00  0.00    -0.246 OA
BRANCH  31  33
ATOM     33  C   UNL A   1      34.677  31.431  27.794  1.00  0.00     0.060 A 
ATOM     34  C   UNL A   1      34.927  30.081  28.091  1.00  0.00     0.016 A 
ATOM     35  C   UNL A   1      35.633  32.402  28.082  1.00  0.00     0.016 A 
ATOM     36  C   UNL A   1      36.135  29.700  28.681  1.00  0.00     0.010 A 
ATOM     37  C   UNL A   1      36.829  32.022  28.702  1.00  0.00     0.010 A 
ATOM     38  C   UNL A   1      37.077  30.675  29.028  1.00  0.00    -0.014 A 
BRANCH  38  39
ATOM     39  C   UNL A   1      38.239  30.329  29.887  1.00  0.00     0.031 A 
ATOM     40  C   UNL A   1      39.255  29.353  29.357  1.00  0.00     0.074 A 
ATOM     41  C   UNL A   1      38.392  30.857  31.114  1.00  0.00     0.049 A 
ATOM     42  N   UNL A   1      40.282  28.807  29.958  1.00  0.00    -0.248 NA
ATOM     43  C   UNL A   1      39.082  28.930  27.959  1.00  0.00     0.031 C 
ATOM     44  C   UNL A   1      37.513  31.852  31.724  1.00  0.00     0.029 A 
ATOM     45  N   UNL A   1      39.340  30.609  32.077  1.00  0.00    -0.354 N 
ATOM     46  C   UNL A   1      40.869  27.973  29.016  1.00  0.00     0.074 A 
ATOM     47  C   UNL A   1      40.066  28.056  27.816  1.00  0.00     0.031 C 
ATOM     48  C   UNL A   1      37.954  32.117  32.966  1.00  0.00     0.029 A 
ATOM     49  C   UNL A   1      39.118  31.281  33.255  1.00  0.00     0.049 A 
ATOM     50  H   UNL A   1      40.108  30.008  31.937  1.00  0.00     0.167 HD
ATOM     51  C   UNL A   1      41.984  27.212  29.138  1.00  0.00     0.037 A 
ATOM     52  C   UNL A   1      39.763  31.202  34.436  1.00  0.00     0.037 A 
ATOM     53  C   UNL A   1      42.778  27.124  30.336  1.00  0.00     0.049 A 
ATOM     54  C   UNL A   1      40.940  30.266  34.579  1.00  0.00     0.074 A 
ATOM     55  C   UNL A   1      43.926  26.383  30.557  1.00  0.00     0.029 A 
ATOM     56  N   UNL A   1      42.501  27.794  31.519  1.00  0.00    -0.354 N 
ATOM     57  N   UNL A   1      41.500  29.491  33.682  1.00  0.00    -0.248 NA
ATOM     58  C   UNL A   1      41.576  30.198  35.903  1.00  0.00     0.031 C 
ATOM     59  C   UNL A   1      44.307  26.555  31.891  1.00  0.00     0.029 A 
ATOM     60  C   UNL A   1      43.440  27.461  32.481  1.00  0.00     0.049 A 
ATOM     61  H   UNL A   1      41.749  28.414  31.653  1.00  0.00     0.167 HD
ATOM     62  C   UNL A   1      42.573  28.879  34.319  1.00  0.00     0.074 A 
ATOM     63  C   UNL A   1      42.595  29.382  35.675  1.00  0.00     0.031 C 
ATOM     64  C   UNL A   1      43.464  27.982  33.824  1.00  0.00     0.037 A 
BRANCH  51  65
ATOM     65  C   UNL A   1      42.399  26.392  27.949  1.00  0.00     0.064 A 
ATOM     66  C   UNL A   1      43.325  26.868  27.009  1.00  0.00     0.173 A 
ATOM     67  C   UNL A   1      41.893  25.095  27.770  1.00  0.00     0.173 A 
ATOM     68  F   UNL A   1      43.831  28.106  27.125  1.00  0.00    -0.203 F 
ATOM     69  C   UNL A   1      43.707  26.088  25.921  1.00  0.00     0.198 A 
ATOM     70  C   UNL A   1      42.304  24.305  26.701  1.00  0.00     0.198 A 
ATOM     71  F   UNL A   1      41.008  24.587  28.642  1.00  0.00    -0.203 F 
ATOM     72  F   UNL A   1      44.554  26.584  25.008  1.00  0.00    -0.200 F 
ATOM     73  C   UNL A   1      43.204  24.805  25.772  1.00  0.00     0.200 A 
ATOM     74  F   UNL A   1      41.828  23.059  26.568  1.00  0.00    -0.200 F 
ATOM     75  F   UNL A   1      43.581  24.052  24.729  1.00  0.00    -0.200 F 
ENDBRANCH  51  65
BRANCH  52  76
ATOM     76  C   UNL A   1      39.306  32.014  35.599  1.00  0.00     0.064 A 
ATOM     77  C   UNL A   1      39.859  33.276  35.859  1.00  0.00     0.173 A 
ATOM     78  C   UNL A   1      38.350  31.525  36.503  1.00  0.00     0.173 A 
ATOM     79  F   UNL A   1      40.798  33.776  35.043  1.00  0.00    -0.203 F 
ATOM     80  C   UNL A   1      39.497  34.004  36.992  1.00  0.00     0.198 A 
ATOM     81  C   UNL A   1      37.963  32.270  37.616  1.00  0.00     0.198 A 
ATOM     82  F   UNL A   1      37.794  30.321  36.308  1.00  0.00    -0.203 F 
ATOM     83  F   UNL A   1      40.092  35.176  37.250  1.00  0.00    -0.200 F 
ATOM     84  C   UNL A   1      38.545  33.503  37.866  1.00  0.00     0.200 A 
ATOM     85  F   UNL A   1      37.034  31.785  38.452  1.00  0.00    -0.200 F 
ATOM     86  F   UNL A   1      38.201  34.199  38.958  1.00  0.00    -0.200 F 
ENDBRANCH  52  76
BRANCH  64  87
ATOM     87  C   UNL A   1      44.575  27.529  34.731  1.00  0.00     0.064 A 
ATOM     88  C   UNL A   1      45.738  28.290  34.924  1.00  0.00     0.173 A 
ATOM     89  C   UNL A   1      44.451  26.332  35.456  1.00  0.00     0.173 A 
ATOM     90  F   UNL A   1      45.914  29.437  34.249  1.00  0.00    -0.203 F 
ATOM     91  C   UNL A   1      46.747  27.855  35.781  1.00  0.00     0.198 A 
ATOM     92  C   UNL A   1      45.444  25.919  36.341  1.00  0.00     0.198 A 
ATOM     93  F   UNL A   1      43.356  25.569  35.320  1.00  0.00    -0.203 F 
ATOM     94  F   UNL A   1      47.872  28.572  35.906  1.00  0.00    -0.200 F 
ATOM     95  C   UNL A   1      46.595  26.675  36.495  1.00  0.00     0.200 A 
ATOM     96  F   UNL A   1      45.285  24.790  37.044  1.00  0.00    -0.200 F 
ATOM     97  F   UNL A   1      47.562  26.265  37.328  1.00  0.00    -0.200 F 
ENDBRANCH  64  87
ENDBRANCH  38  39
ENDBRANCH  31  33
ENDBRANCH  30  31
ENDBRANCH  29  30
ENDBRANCH  28  29
ENDBRANCH  27  28
ENDBRANCH  26  27
ENDBRANCH   1  26
TORSDOF 20
ENDMDL
MODEL 2
REMARK VINA RESULT:     -11.3      5.157      8.410
REMARK SMILES C[C@@H]1[C@@H](C(=O)OCCOCCOCCOC(=O)c2ccc(-c3c4nc(c(-c5c(F)c(F)c(F)c(F)c5F)c5ccc([nH]5)c(-c5c(F)c(F)c(F)c(F)c5F)c5nc(c(-c6c(F)c(F)c(F)c(F)c6F)c6ccc3[nH]6)C=C5)C=C4)cc2)CCN1c1ccc(C(F)(F)F)cc1C#N
REMARK SMILES IDX 10 1 9 2 8 3 7 4 6 5 4 6 5 7 3 8 1 9 2 10 83 11 81 12 82 13
REMARK SMILES IDX 84 14 85 15 93 16 86 17 92 18 87 19 94 20 95 21 88 22 89 23
REMARK SMILES IDX 90 24 91 25 11 26 12 27 13 28 14 29 15 30 16 31 17 32 18 33
REMARK SMILES IDX 19 34 80 35 20 36 79 37 21 38 22 39 23 40 73 41 24 42 78 43
REMARK SMILES IDX 72 44 74 45 25 46 77 47 71 48 70 49 26 51 58 52 38 53 57 54
REMARK SMILES IDX 39 55 42 56 56 57 75 58 40 59 41 60 55 62 76 63 43 64 27 65
REMARK SMILES IDX 28 66 36 67 29 68 30 69 34 70 37 71 31 72 32 73 35 74 33 75
REMARK SMILES IDX 59 76 60 77 68 78 61 79 62 80 66 81 69 82 63 83 64 84 67 85
REMARK SMILES IDX 65 86 44 87 45 88 53 89 46 90 47 91 51 92 54 93 48 94 49 95
REMARK SMILES IDX 52 96 50 97
REMARK H PARENT 74 50 42 61
REMARK Flexibility Score: inf
ROOT
ATOM      1  C   UNL A   1      35.171  20.558  24.854  1.00  0.00     0.188 C 
ENDROOT
BRANCH   1   2
ATOM      2  O   UNL A   1      34.044  20.717  25.694  1.00  0.00    -0.376 OA
BRANCH   2   3
ATOM      3  C   UNL A   1      34.117  21.467  26.898  1.00  0.00     0.202 C 
BRANCH   3   4
ATOM      4  C   UNL A   1      33.727  22.951  27.002  1.00  0.00     0.261 C 
BRANCH   4   5
ATOM      5  O   UNL A   1      32.685  23.388  26.123  1.00  0.00    -0.463 OA
BRANCH   5   6
ATOM      6  C   UNL A   1      32.255  24.662  26.330  1.00  0.00     0.311 C 
ATOM      7  O   UNL A   1      31.139  24.951  26.737  1.00  0.00    -0.252 OA
BRANCH   6   8
ATOM      8  C   UNL A   1      33.378  25.653  26.083  1.00  0.00     0.123 C 
ATOM      9  C   UNL A   1      33.786  28.110  26.543  1.00  0.00     0.032 C 
ATOM     10  C   UNL A   1      32.807  27.075  25.979  1.00  0.00     0.093 C 
ATOM     11  N   UNL A   1      32.638  27.267  24.526  1.00  0.00    -0.367 N 
ATOM     12  C   UNL A   1      34.091  25.423  24.767  1.00  0.00     0.039 C 
ATOM     13  C   UNL A   1      33.179  26.123  23.774  1.00  0.00     0.118 C 
BRANCH  11  14
ATOM     14  C   UNL A   1      31.451  27.836  24.075  1.00  0.00     0.055 A 
ATOM     15  C   UNL A   1      31.245  29.226  24.148  1.00  0.00     0.028 A 
ATOM     16  C   UNL A   1      30.409  27.052  23.550  1.00  0.00     0.076 A 
ATOM     17  C   UNL A   1      30.034  29.813  23.782  1.00  0.00     0.015 A 
ATOM     18  C   UNL A   1      29.187  27.644  23.180  1.00  0.00     0.034 A 
ATOM     19  C   UNL A   1      28.981  29.024  23.317  1.00  0.00     0.057 A 
BRANCH  16  20
ATOM     20  C   UNL A   1      30.541  25.630  23.406  1.00  0.00     0.101 C 
ATOM     21  N   UNL A   1      30.599  24.471  23.317  1.00  0.00    -0.192 NA
ENDBRANCH  16  20
BRANCH  19  22
ATOM     22  C   UNL A   1      27.649  29.659  23.011  1.00  0.00     0.416 C 
ATOM     23  F   UNL A   1      27.476  30.833  23.678  1.00  0.00    -0.166 F 
ATOM     24  F   UNL A   1      27.500  29.951  21.691  1.00  0.00    -0.166 F 
ATOM     25  F   UNL A   1      26.587  28.876  23.347  1.00  0.00    -0.166 F 
ENDBRANCH  19  22
ENDBRANCH  11  14
ENDBRANCH   6   8
ENDBRANCH   5   6
ENDBRANCH   4   5
ENDBRANCH   3   4
ENDBRANCH   2   3
ENDBRANCH   1   2
BRANCH   1  26
ATOM     26  C   UNL A   1      36.299  21.608  24.848  1.00  0.00     0.188 C 
BRANCH  26  27
ATOM     27  O   UNL A   1      37.496  21.242  25.479  1.00  0.00    -0.376 OA
BRANCH  27  28
ATOM     28  C   UNL A   1      38.160  20.065  25.054  1.00  0.00     0.202 C 
BRANCH  28  29
ATOM     29  C   UNL A   1      39.367  19.398  25.764  1.00  0.00     0.261 C 
BRANCH  29  30
ATOM     30  O   UNL A   1      40.617  20.102  25.835  1.00  0.00    -0.460 OA
BRANCH  30  31
ATOM     31  C   UNL A   1      41.144  20.258  27.077  1.00  0.00     0.338 C 
ATOM     32  O   UNL A   1      41.614  19.391  27.793  1.00  0.00    -0.246 OA
BRANCH  31  33
ATOM     33  C   UNL A   1      41.270  21.701  27.377  1.00  0.00     0.060 A 
ATOM     34  C   UNL A   1      40.639  22.637  26.542  1.00  0.00     0.016 A 
ATOM     35  C   UNL A   1      42.049  22.130  28.450  1.00  0.00     0.016 A 
ATOM     36  C   UNL A   1      40.788  24.007  26.775  1.00  0.00     0.010 A 
ATOM     37  C   UNL A   1      42.223  23.503  28.663  1.00  0.00     0.010 A 
ATOM     38  C   UNL A   1      41.616  24.448  27.814  1.00  0.00    -0.014 A 
BRANCH  38  39
ATOM     39  C   UNL A   1      41.998  25.880  27.917  1.00  0.00     0.031 A 
ATOM     40  C   UNL A   1      43.335  26.305  27.372  1.00  0.00     0.074 A 
ATOM     41  C   UNL A   1      41.186  26.788  28.487  1.00  0.00     0.049 A 
ATOM     42  N   UNL A   1      43.939  27.464  27.449  1.00  0.00    -0.248 NA
ATOM     43  C   UNL A   1      44.097  25.276  26.647  1.00  0.00     0.031 C 
ATOM     44  C   UNL A   1      39.847  26.521  29.004  1.00  0.00     0.029 A 
ATOM     45  N   UNL A   1      41.387  28.124  28.743  1.00  0.00    -0.354 N 
ATOM     46  C   UNL A   1      45.152  27.301  26.792  1.00  0.00     0.074 A 
ATOM     47  C   UNL A   1      45.215  25.924  26.354  1.00  0.00     0.031 C 
ATOM     48  C   UNL A   1      39.351  27.654  29.532  1.00  0.00     0.029 A 
ATOM     49  C   UNL A   1      40.354  28.714  29.429  1.00  0.00     0.049 A 
ATOM     50  H   UNL A   1      42.194  28.612  28.460  1.00  0.00     0.167 HD
ATOM     51  C   UNL A   1      46.122  28.219  26.567  1.00  0.00     0.037 A 
ATOM     52  C   UNL A   1      40.247  29.956  29.943  1.00  0.00     0.037 A 
ATOM     53  C   UNL A   1      46.062  29.587  27.012  1.00  0.00     0.049 A 
ATOM     54  C   UNL A   1      41.389  30.931  29.770  1.00  0.00     0.074 A 
ATOM     55  C   UNL A   1      46.993  30.595  26.831  1.00  0.00     0.029 A 
ATOM     56  N   UNL A   1      45.013  30.138  27.734  1.00  0.00    -0.354 N 
ATOM     57  N   UNL A   1      42.526  30.776  29.136  1.00  0.00    -0.248 NA
ATOM     58  C   UNL A   1      41.226  32.257  30.385  1.00  0.00     0.031 C 
ATOM     59  C   UNL A   1      46.538  31.736  27.497  1.00  0.00     0.029 A 
ATOM     60  C   UNL A   1      45.289  31.463  28.030  1.00  0.00     0.049 A 
ATOM     61  H   UNL A   1      44.195  29.658  27.996  1.00  0.00     0.167 HD
ATOM     62  C   UNL A   1      43.192  31.992  29.241  1.00  0.00     0.074 A 
ATOM     63  C   UNL A   1      42.327  32.879  29.988  1.00  0.00     0.031 C 
ATOM     64  C   UNL A   1      44.411  32.344  28.758  1.00  0.00     0.037 A 
BRANCH  51  65
ATOM     65  C   UNL A   1      47.349  27.767  25.826  1.00  0.00     0.064 A 
ATOM     66  C   UNL A   1      48.483  27.286  26.499  1.00  0.00     0.173 A 
ATOM     67  C   UNL A   1      47.375  27.777  24.424  1.00  0.00     0.173 A 
ATOM     68  F   UNL A   1      48.516  27.267  27.840  1.00  0.00    -0.203 F 
ATOM     69  C   UNL A   1      49.606  26.859  25.795  1.00  0.00     0.198 A 
ATOM     70  C   UNL A   1      48.486  27.316  23.723  1.00  0.00     0.198 A 
ATOM     71  F   UNL A   1      46.317  28.221  23.729  1.00  0.00    -0.203 F 
ATOM     72  F   UNL A   1      50.696  26.452  26.460  1.00  0.00    -0.200 F 
ATOM     73  C   UNL A   1      49.604  26.865  24.409  1.00  0.00     0.200 A 
ATOM     74  F   UNL A   1      48.476  27.308  22.382  1.00  0.00    -0.200 F 
ATOM     75  F   UNL A   1      50.682  26.444  23.733  1.00  0.00    -0.200 F 
ENDBRANCH  51  65
BRANCH  52  76
ATOM     76  C   UNL A   1      39.025  30.359  30.692  1.00  0.00     0.064 A 
ATOM     77  C   UNL A   1      37.954  30.990  30.041  1.00  0.00     0.173 A 
ATOM     78  C   UNL A   1      38.922  30.174  32.080  1.00  0.00     0.173 A 
ATOM     79  F   UNL A   1      38.015  31.219  28.721  1.00  0.00    -0.203 F 
ATOM     80  C   UNL A   1      36.844  31.445  30.751  1.00  0.00     0.198 A 
ATOM     81  C   UNL A   1      37.795  30.597  32.783  1.00  0.00     0.198 A 
ATOM     82  F   UNL A   1      39.919  29.583  32.755  1.00  0.00    -0.203 F 
ATOM     83  F   UNL A   1      35.868  32.104  30.113  1.00  0.00    -0.200 F 
ATOM     84  C   UNL A   1      36.763  31.243  32.120  1.00  0.00     0.200 A 
ATOM     85  F   UNL A   1      37.717  30.389  34.105  1.00  0.00    -0.200 F 
ATOM     86  F   UNL A   1      35.699  31.685  32.804  1.00  0.00    -0.200 F 
ENDBRANCH  52  76
BRANCH  64  87
ATOM     87  C   UNL A   1      44.862  33.764  28.968  1.00  0.00     0.064 A 
ATOM     88  C   UNL A   1      45.630  34.146  30.078  1.00  0.00     0.173 A 
ATOM     89  C   UNL A   1      44.555  34.750  28.016  1.00  0.00     0.173 A 
ATOM     90  F   UNL A   1      45.943  33.247  31.024  1.00  0.00    -0.203 F 
ATOM     91  C   UNL A   1      46.047  35.465  30.243  1.00  0.00     0.198 A 
ATOM     92  C   UNL A   1      45.006  36.059  28.164  1.00  0.00     0.198 A 
ATOM     93  F   UNL A   1      43.833  34.440  26.929  1.00  0.00    -0.203 F 
ATOM     94  F   UNL A   1      46.733  35.817  31.339  1.00  0.00    -0.200 F 
ATOM     95  C   UNL A   1      45.742  36.418  29.282  1.00  0.00     0.200 A 
ATOM     96  F   UNL A   1      44.727  36.973  27.224  1.00  0.00    -0.200 F 
ATOM     97  F   UNL A   1      46.155  37.684  29.436  1.00  0.00    -0.200 F 
ENDBRANCH  64  87
ENDBRANCH  38  39
ENDBRANCH  31  33
ENDBRANCH  30  31
ENDBRANCH  29  30
ENDBRANCH  28  29
ENDBRANCH  27  28
ENDBRANCH  26  27
ENDBRANCH   1  26
TORSDOF 20
ENDMDL
MODEL 3
REMARK VINA RESULT:     -11.1      5.315      8.646
REMARK SMILES C[C@@H]1[C@@H](C(=O)OCCOCCOCCOC(=O)c2ccc(-c3c4nc(c(-c5c(F)c(F)c(F)c(F)c5F)c5ccc([nH]5)c(-c5c(F)c(F)c(F)c(F)c5F)c5nc(c(-c6c(F)c(F)c(F)c(F)c6F)c6ccc3[nH]6)C=C5)C=C4)cc2)CCN1c1ccc(C(F)(F)F)cc1C#N
REMARK SMILES IDX 10 1 9 2 8 3 7 4 6 5 4 6 5 7 3 8 1 9 2 10 83 11 81 12 82 13
REMARK SMILES IDX 84 14 85 15 93 16 86 17 92 18 87 19 94 20 95 21 88 22 89 23
REMARK SMILES IDX 90 24 91 25 11 26 12 27 13 28 14 29 15 30 16 31 17 32 18 33
REMARK SMILES IDX 19 34 80 35 20 36 79 37 21 38 22 39 23 40 73 41 24 42 78 43
REMARK SMILES IDX 72 44 74 45 25 46 77 47 71 48 70 49 26 51 58 52 38 53 57 54
REMARK SMILES IDX 39 55 42 56 56 57 75 58 40 59 41 60 55 62 76 63 43 64 27 65
REMARK SMILES IDX 28 66 36 67 29 68 30 69 34 70 37 71 31 72 32 73 35 74 33 75
REMARK SMILES IDX 59 76 60 77 68 78 61 79 62 80 66 81 69 82 63 83 64 84 67 85
REMARK SMILES IDX 65 86 44 87 45 88 53 89 46 90 47 91 51 92 54 93 48 94 49 95
REMARK SMILES IDX 52 96 50 97
REMARK H PARENT 74 50 42 61
REMARK Flexibility Score: inf
ROOT
ATOM      1  C   UNL A   1      35.225  21.209  24.650  1.00  0.00     0.188 C 
ENDROOT
BRANCH   1   2
ATOM      2  O   UNL A   1      34.128  21.600  25.453  1.00  0.00    -0.376 OA
BRANCH   2   3
ATOM      3  C   UNL A   1      34.262  22.596  26.456  1.00  0.00     0.202 C 
BRANCH   3   4
ATOM      4  C   UNL A   1      33.933  24.081  26.231  1.00  0.00     0.261 C 
BRANCH   4   5
ATOM      5  O   UNL A   1      33.225  24.390  25.026  1.00  0.00    -0.463 OA
BRANCH   5   6
ATOM      6  C   UNL A   1      32.332  25.410  25.128  1.00  0.00     0.311 C 
ATOM      7  O   UNL A   1      31.245  25.430  24.568  1.00  0.00    -0.252 OA
BRANCH   6   8
ATOM      8  C   UNL A   1      32.828  26.458  26.108  1.00  0.00     0.123 C 
ATOM      9  C   UNL A   1      31.774  28.079  27.744  1.00  0.00     0.032 C 
ATOM     10  C   UNL A   1      31.750  27.535  26.313  1.00  0.00     0.093 C 
ATOM     11  N   UNL A   1      32.137  28.588  25.355  1.00  0.00    -0.367 N 
ATOM     12  C   UNL A   1      34.039  27.214  25.603  1.00  0.00     0.039 C 
ATOM     13  C   UNL A   1      33.416  28.267  24.704  1.00  0.00     0.118 C 
BRANCH  11  14
ATOM     14  C   UNL A   1      31.137  29.162  24.575  1.00  0.00     0.055 A 
ATOM     15  C   UNL A   1      30.576  28.460  23.493  1.00  0.00     0.028 A 
ATOM     16  C   UNL A   1      30.663  30.463  24.821  1.00  0.00     0.076 A 
ATOM     17  C   UNL A   1      29.635  29.042  22.644  1.00  0.00     0.015 A 
ATOM     18  C   UNL A   1      29.714  31.050  23.966  1.00  0.00     0.034 A 
ATOM     19  C   UNL A   1      29.211  30.355  22.856  1.00  0.00     0.057 A 
BRANCH  16  20
ATOM     20  C   UNL A   1      31.153  31.241  25.923  1.00  0.00     0.101 C 
ATOM     21  N   UNL A   1      31.514  31.914  26.801  1.00  0.00    -0.192 NA
ENDBRANCH  16  20
BRANCH  19  22
ATOM     22  C   UNL A   1      28.263  31.002  21.880  1.00  0.00     0.416 C 
ATOM     23  F   UNL A   1      28.881  31.352  20.719  1.00  0.00    -0.166 F 
ATOM     24  F   UNL A   1      27.236  30.182  21.527  1.00  0.00    -0.166 F 
ATOM     25  F   UNL A   1      27.690  32.140  22.358  1.00  0.00    -0.166 F 
ENDBRANCH  19  22
ENDBRANCH  11  14
ENDBRANCH   6   8
ENDBRANCH   5   6
ENDBRANCH   4   5
ENDBRANCH   3   4
ENDBRANCH   2   3
ENDBRANCH   1   2
BRANCH   1  26
ATOM     26  C   UNL A   1      36.563  21.971  24.724  1.00  0.00     0.188 C 
BRANCH  26  27
ATOM     27  O   UNL A   1      37.573  21.383  25.499  1.00  0.00    -0.376 OA
BRANCH  27  28
ATOM     28  C   UNL A   1      38.090  20.123  25.107  1.00  0.00     0.202 C 
BRANCH  28  29
ATOM     29  C   UNL A   1      39.250  19.364  25.800  1.00  0.00     0.261 C 
BRANCH  29  30
ATOM     30  O   UNL A   1      40.563  19.946  25.812  1.00  0.00    -0.460 OA
BRANCH  30  31
ATOM     31  C   UNL A   1      41.128  20.120  27.035  1.00  0.00     0.338 C 
ATOM     32  O   UNL A   1      41.633  19.265  27.741  1.00  0.00    -0.246 OA
BRANCH  31  33
ATOM     33  C   UNL A   1      41.244  21.568  27.319  1.00  0.00     0.060 A 
ATOM     34  C   UNL A   1      40.695  22.493  26.416  1.00  0.00     0.016 A 
ATOM     35  C   UNL A   1      41.933  22.009  28.446  1.00  0.00     0.016 A 
ATOM     36  C   UNL A   1      40.839  23.866  26.637  1.00  0.00     0.010 A 
ATOM     37  C   UNL A   1      42.103  23.383  28.649  1.00  0.00     0.010 A 
ATOM     38  C   UNL A   1      41.580  24.319  27.735  1.00  0.00    -0.014 A 
BRANCH  38  39
ATOM     39  C   UNL A   1      41.967  25.749  27.844  1.00  0.00     0.031 A 
ATOM     40  C   UNL A   1      43.300  26.174  27.288  1.00  0.00     0.074 A 
ATOM     41  C   UNL A   1      41.164  26.655  28.430  1.00  0.00     0.049 A 
ATOM     42  N   UNL A   1      43.907  27.331  27.368  1.00  0.00    -0.248 NA
ATOM     43  C   UNL A   1      44.051  25.149  26.546  1.00  0.00     0.031 C 
ATOM     44  C   UNL A   1      39.830  26.388  28.960  1.00  0.00     0.029 A 
ATOM     45  N   UNL A   1      41.371  27.987  28.694  1.00  0.00    -0.354 N 
ATOM     46  C   UNL A   1      45.112  27.169  26.696  1.00  0.00     0.074 A 
ATOM     47  C   UNL A   1      45.167  25.796  26.246  1.00  0.00     0.031 C 
ATOM     48  C   UNL A   1      39.343  27.517  29.502  1.00  0.00     0.029 A 
ATOM     49  C   UNL A   1      40.348  28.575  29.396  1.00  0.00     0.049 A 
ATOM     50  H   UNL A   1      42.177  28.476  28.407  1.00  0.00     0.167 HD
ATOM     51  C   UNL A   1      46.083  28.087  26.467  1.00  0.00     0.037 A 
ATOM     52  C   UNL A   1      40.251  29.814  29.921  1.00  0.00     0.037 A 
ATOM     53  C   UNL A   1      46.031  29.452  26.923  1.00  0.00     0.049 A 
ATOM     54  C   UNL A   1      41.393  30.786  29.743  1.00  0.00     0.074 A 
ATOM     55  C   UNL A   1      46.964  30.458  26.740  1.00  0.00     0.029 A 
ATOM     56  N   UNL A   1      44.993  30.000  27.661  1.00  0.00    -0.354 N 
ATOM     57  N   UNL A   1      42.522  30.634  29.096  1.00  0.00    -0.248 NA
ATOM     58  C   UNL A   1      41.241  32.108  30.370  1.00  0.00     0.031 C 
ATOM     59  C   UNL A   1      46.519  31.596  27.420  1.00  0.00     0.029 A 
ATOM     60  C   UNL A   1      45.275  31.322  27.964  1.00  0.00     0.049 A 
ATOM     61  H   UNL A   1      44.175  29.520  27.928  1.00  0.00     0.167 HD
ATOM     62  C   UNL A   1      43.193  31.847  29.202  1.00  0.00     0.074 A 
ATOM     63  C   UNL A   1      42.339  32.730  29.966  1.00  0.00     0.031 C 
ATOM     64  C   UNL A   1      44.408  32.199  28.709  1.00  0.00     0.037 A 
BRANCH  51  65
ATOM     65  C   UNL A   1      47.300  27.637  25.709  1.00  0.00     0.064 A 
ATOM     66  C   UNL A   1      47.387  27.755  24.314  1.00  0.00     0.173 A 
ATOM     67  C   UNL A   1      48.410  27.118  26.393  1.00  0.00     0.173 A 
ATOM     68  F   UNL A   1      46.349  28.231  23.609  1.00  0.00    -0.203 F 
ATOM     69  C   UNL A   1      48.528  27.344  23.630  1.00  0.00     0.198 A 
ATOM     70  C   UNL A   1      49.563  26.742  25.709  1.00  0.00     0.198 A 
ATOM     71  F   UNL A   1      48.384  26.989  27.728  1.00  0.00    -0.203 F 
ATOM     72  F   UNL A   1      48.568  27.417  22.292  1.00  0.00    -0.200 F 
ATOM     73  C   UNL A   1      49.618  26.847  24.328  1.00  0.00     0.200 A 
ATOM     74  F   UNL A   1      50.622  26.277  26.388  1.00  0.00    -0.200 F 
ATOM     75  F   UNL A   1      50.720  26.461  23.668  1.00  0.00    -0.200 F 
ENDBRANCH  51  65
BRANCH  52  76
ATOM     76  C   UNL A   1      39.037  30.215  30.687  1.00  0.00     0.064 A 
ATOM     77  C   UNL A   1      37.953  30.835  30.049  1.00  0.00     0.173 A 
ATOM     78  C   UNL A   1      38.957  30.036  32.077  1.00  0.00     0.173 A 
ATOM     79  F   UNL A   1      37.993  31.057  28.727  1.00  0.00    -0.203 F 
ATOM     80  C   UNL A   1      36.852  31.288  30.773  1.00  0.00     0.198 A 
ATOM     81  C   UNL A   1      37.839  30.457  32.795  1.00  0.00     0.198 A 
ATOM     82  F   UNL A   1      39.968  29.455  32.739  1.00  0.00    -0.203 F 
ATOM     83  F   UNL A   1      35.863  31.938  30.146  1.00  0.00    -0.200 F 
ATOM     84  C   UNL A   1      36.793  31.094  32.145  1.00  0.00     0.200 A 
ATOM     85  F   UNL A   1      37.782  30.257  34.119  1.00  0.00    -0.200 F 
ATOM     86  F   UNL A   1      35.737  31.534  32.842  1.00  0.00    -0.200 F 
ENDBRANCH  52  76
BRANCH  64  87
ATOM     87  C   UNL A   1      44.864  33.616  28.925  1.00  0.00     0.064 A 
ATOM     88  C   UNL A   1      44.533  34.650  28.036  1.00  0.00     0.173 A 
ATOM     89  C   UNL A   1      45.609  33.952  30.068  1.00  0.00     0.173 A 
ATOM     90  F   UNL A   1      43.833  34.385  26.922  1.00  0.00    -0.203 F 
ATOM     91  C   UNL A   1      44.957  35.957  28.266  1.00  0.00     0.198 A 
ATOM     92  C   UNL A   1      45.997  35.266  30.315  1.00  0.00     0.198 A 
ATOM     93  F   UNL A   1      45.945  33.007  30.958  1.00  0.00    -0.203 F 
ATOM     94  F   UNL A   1      44.675  36.917  27.374  1.00  0.00    -0.200 F 
ATOM     95  C   UNL A   1      45.680  36.266  29.408  1.00  0.00     0.200 A 
ATOM     96  F   UNL A   1      46.678  35.564  31.430  1.00  0.00    -0.200 F 
ATOM     97  F   UNL A   1      46.075  37.526  29.633  1.00  0.00    -0.200 F 
ENDBRANCH  64  87
ENDBRANCH  38  39
ENDBRANCH  31  33
ENDBRANCH  30  31
ENDBRANCH  29  30
ENDBRANCH  28  29
ENDBRANCH  27  28
ENDBRANCH  26  27
ENDBRANCH   1  26
TORSDOF 20
ENDMDL
