MODEL 1
REMARK VINA RESULT:     -10.6      0.000      0.000
REMARK SMILES CSc1nc2ccccc2c(=O)n1CC(=O)OCCOCCOCCOC(=O)c1ccc(-c2c3nc(c(-c4c(F)c(F)c(F)c(F)c4F)c4ccc([nH]4)c(-c4c(F)c(F)c(F)c(F)c4F)c4nc(c(-c5c(F)c(F)c(F)c(F)c5F)c5ccc2[nH]5)C=C4)C=C3)cc1
REMARK SMILES IDX 21 1 20 2 19 3 18 4 17 5 15 6 16 7 14 8 13 9 3 10 4 11 5 12
REMARK SMILES IDX 11 13 6 14 10 15 12 16 7 17 9 18 8 19 2 20 1 21 22 22 23 23
REMARK SMILES IDX 24 24 25 25 26 26 27 27 28 28 29 29 30 30 91 31 31 32 90 33
REMARK SMILES IDX 32 34 33 35 34 36 84 37 35 38 89 39 83 40 85 41 36 42 88 43
REMARK SMILES IDX 82 44 81 45 37 47 69 48 49 49 68 50 50 51 53 52 67 53 86 54
REMARK SMILES IDX 51 55 52 56 66 58 87 59 54 60 38 61 39 62 47 63 40 64 41 65
REMARK SMILES IDX 45 66 48 67 42 68 43 69 46 70 44 71 70 72 71 73 79 74 72 75
REMARK SMILES IDX 73 76 77 77 80 78 74 79 75 80 78 81 76 82 55 83 56 84 64 85
REMARK SMILES IDX 57 86 58 87 62 88 65 89 59 90 60 91 63 92 61 93
REMARK H PARENT 85 46 53 57
REMARK Flexibility Score: inf
ROOT
ATOM      1  C   UNL A   1      33.071  20.124  24.100  1.00  0.00     0.188 C 
ENDROOT
BRANCH   1   2
ATOM      2  O   UNL A   1      32.018  20.932  23.573  1.00  0.00    -0.376 OA
BRANCH   2   3
ATOM      3  C   UNL A   1      32.339  22.000  22.694  1.00  0.00     0.202 C 
BRANCH   3   4
ATOM      4  C   UNL A   1      31.733  23.355  23.064  1.00  0.00     0.261 C 
BRANCH   4   5
ATOM      5  O   UNL A   1      32.239  23.870  24.312  1.00  0.00    -0.462 OA
BRANCH   5   6
ATOM      6  C   UNL A   1      31.318  24.091  25.283  1.00  0.00     0.326 C 
ATOM      7  O   UNL A   1      30.678  23.212  25.852  1.00  0.00    -0.250 OA
BRANCH   6   8
ATOM      8  C   UNL A   1      31.241  25.546  25.741  1.00  0.00     0.250 C 
BRANCH   8   9
ATOM      9  N   UNL A   1      31.030  26.624  24.763  1.00  0.00    -0.276 N 
ATOM     10  C   UNL A   1      32.058  27.345  24.179  1.00  0.00     0.171 A 
ATOM     11  N   UNL A   1      31.888  28.260  23.279  1.00  0.00    -0.224 NA
ATOM     12  C   UNL A   1      30.585  28.606  22.902  1.00  0.00     0.079 A 
ATOM     13  C   UNL A   1      29.729  26.789  24.292  1.00  0.00     0.262 A 
ATOM     14  C   UNL A   1      30.375  29.715  22.074  1.00  0.00     0.029 A 
ATOM     15  C   UNL A   1      29.479  27.915  23.375  1.00  0.00     0.066 A 
ATOM     16  O   UNL A   1      28.791  26.057  24.600  1.00  0.00    -0.269 OA
ATOM     17  C   UNL A   1      29.079  30.144  21.762  1.00  0.00     0.002 A 
ATOM     18  C   UNL A   1      28.178  28.318  23.041  1.00  0.00     0.016 A 
ATOM     19  C   UNL A   1      27.979  29.448  22.252  1.00  0.00     0.001 A 
BRANCH  10  20
ATOM     20  S   UNL A   1      33.706  27.114  24.726  1.00  0.00    -0.091 SA
ATOM     21  C   UNL A   1      33.973  28.541  25.791  1.00  0.00     0.094 C 
ENDBRANCH  10  20
ENDBRANCH   8   9
ENDBRANCH   6   8
ENDBRANCH   5   6
ENDBRANCH   4   5
ENDBRANCH   3   4
ENDBRANCH   2   3
ENDBRANCH   1   2
BRANCH   1  22
ATOM     22  C   UNL A   1      33.930  20.640  25.265  1.00  0.00     0.188 C 
BRANCH  22  23
ATOM     23  O   UNL A   1      35.213  21.065  24.830  1.00  0.00    -0.376 OA
BRANCH  23  24
ATOM     24  C   UNL A   1      36.243  20.105  25.002  1.00  0.00     0.202 C 
BRANCH  24  25
ATOM     25  C   UNL A   1      37.609  20.740  24.735  1.00  0.00     0.261 C 
BRANCH  25  26
ATOM     26  O   UNL A   1      38.089  21.596  25.790  1.00  0.00    -0.460 OA
BRANCH  26  27
ATOM     27  C   UNL A   1      39.342  21.367  26.242  1.00  0.00     0.338 C 
ATOM     28  O   UNL A   1      39.987  20.342  26.128  1.00  0.00    -0.246 OA
BRANCH  27  29
ATOM     29  C   UNL A   1      39.878  22.641  26.772  1.00  0.00     0.060 A 
ATOM     30  C   UNL A   1      40.792  22.658  27.824  1.00  0.00     0.016 A 
ATOM     31  C   UNL A   1      39.466  23.843  26.187  1.00  0.00     0.016 A 
ATOM     32  C   UNL A   1      41.311  23.881  28.263  1.00  0.00     0.010 A 
ATOM     33  C   UNL A   1      39.982  25.064  26.623  1.00  0.00     0.010 A 
ATOM     34  C   UNL A   1      40.926  25.091  27.654  1.00  0.00    -0.014 A 
BRANCH  34  35
ATOM     35  C   UNL A   1      41.642  26.345  27.992  1.00  0.00     0.031 A 
ATOM     36  C   UNL A   1      43.029  26.629  27.511  1.00  0.00     0.074 A 
ATOM     37  C   UNL A   1      41.004  27.242  28.767  1.00  0.00     0.049 A 
ATOM     38  N   UNL A   1      43.694  27.757  27.554  1.00  0.00    -0.248 NA
ATOM     39  C   UNL A   1      43.778  25.510  26.925  1.00  0.00     0.031 C 
ATOM     40  C   UNL A   1      39.693  27.030  29.381  1.00  0.00     0.029 A 
ATOM     41  N   UNL A   1      41.357  28.509  29.156  1.00  0.00    -0.354 N 
ATOM     42  C   UNL A   1      44.926  27.495  26.973  1.00  0.00     0.074 A 
ATOM     43  C   UNL A   1      44.941  26.085  26.643  1.00  0.00     0.031 C 
ATOM     44  C   UNL A   1      39.328  28.147  30.027  1.00  0.00     0.029 A 
ATOM     45  C   UNL A   1      40.380  29.149  29.876  1.00  0.00     0.049 A 
ATOM     46  H   UNL A   1      42.226  28.919  28.939  1.00  0.00     0.167 HD
ATOM     47  C   UNL A   1      45.934  28.365  26.718  1.00  0.00     0.037 A 
ATOM     48  C   UNL A   1      40.320  30.413  30.337  1.00  0.00     0.037 A 
ATOM     49  C   UNL A   1      45.908  29.764  27.066  1.00  0.00     0.049 A 
ATOM     50  C   UNL A   1      41.441  31.363  30.030  1.00  0.00     0.074 A 
ATOM     51  C   UNL A   1      46.837  30.744  26.765  1.00  0.00     0.029 A 
ATOM     52  N   UNL A   1      44.911  30.376  27.813  1.00  0.00    -0.354 N 
ATOM     53  N   UNL A   1      42.536  31.150  29.342  1.00  0.00    -0.248 NA
ATOM     54  C   UNL A   1      41.314  32.731  30.550  1.00  0.00     0.031 C 
ATOM     55  C   UNL A   1      46.434  31.935  27.380  1.00  0.00     0.029 A 
ATOM     56  C   UNL A   1      45.225  31.710  28.019  1.00  0.00     0.049 A 
ATOM     57  H   UNL A   1      44.100  29.928  28.146  1.00  0.00     0.167 HD
ATOM     58  C   UNL A   1      43.223  32.355  29.333  1.00  0.00     0.074 A 
ATOM     59  C   UNL A   1      42.413  33.303  30.071  1.00  0.00     0.031 C 
ATOM     60  C   UNL A   1      44.420  32.644  28.766  1.00  0.00     0.037 A 
BRANCH  47  61
ATOM     61  C   UNL A   1      47.149  27.844  26.006  1.00  0.00     0.064 A 
ATOM     62  C   UNL A   1      47.191  27.761  24.605  1.00  0.00     0.173 A 
ATOM     63  C   UNL A   1      48.314  27.515  26.717  1.00  0.00     0.173 A 
ATOM     64  F   UNL A   1      46.107  28.068  23.878  1.00  0.00    -0.203 F 
ATOM     65  C   UNL A   1      48.346  27.350  23.945  1.00  0.00     0.198 A 
ATOM     66  C   UNL A   1      49.476  27.131  26.051  1.00  0.00     0.198 A 
ATOM     67  F   UNL A   1      48.334  27.593  28.055  1.00  0.00    -0.203 F 
ATOM     68  F   UNL A   1      48.354  27.253  22.608  1.00  0.00    -0.200 F 
ATOM     69  C   UNL A   1      49.490  27.044  24.668  1.00  0.00     0.200 A 
ATOM     70  F   UNL A   1      50.585  26.853  26.749  1.00  0.00    -0.200 F 
ATOM     71  F   UNL A   1      50.607  26.667  24.029  1.00  0.00    -0.200 F 
ENDBRANCH  47  61
BRANCH  48  72
ATOM     72  C   UNL A   1      39.105  30.854  31.066  1.00  0.00     0.064 A 
ATOM     73  C   UNL A   1      37.963  31.274  30.371  1.00  0.00     0.173 A 
ATOM     74  C   UNL A   1      39.034  30.791  32.466  1.00  0.00     0.173 A 
ATOM     75  F   UNL A   1      37.989  31.359  29.033  1.00  0.00    -0.203 F 
ATOM     76  C   UNL A   1      36.794  31.614  31.048  1.00  0.00     0.198 A 
ATOM     77  C   UNL A   1      37.858  31.109  33.140  1.00  0.00     0.198 A 
ATOM     78  F   UNL A   1      40.099  30.384  33.174  1.00  0.00    -0.203 F 
ATOM     79  F   UNL A   1      35.722  32.027  30.361  1.00  0.00    -0.200 F 
ATOM     80  C   UNL A   1      36.740  31.520  32.431  1.00  0.00     0.200 A 
ATOM     81  F   UNL A   1      37.803  30.999  34.474  1.00  0.00    -0.200 F 
ATOM     82  F   UNL A   1      35.608  31.825  33.080  1.00  0.00    -0.200 F 
ENDBRANCH  48  72
BRANCH  60  83
ATOM     83  C   UNL A   1      44.948  34.040  28.927  1.00  0.00     0.064 A 
ATOM     84  C   UNL A   1      44.599  35.058  28.029  1.00  0.00     0.173 A 
ATOM     85  C   UNL A   1      45.734  34.383  30.038  1.00  0.00     0.173 A 
ATOM     86  F   UNL A   1      43.861  34.778  26.944  1.00  0.00    -0.203 F 
ATOM     87  C   UNL A   1      45.021  36.369  28.234  1.00  0.00     0.198 A 
ATOM     88  C   UNL A   1      46.132  35.699  30.253  1.00  0.00     0.198 A 
ATOM     89  F   UNL A   1      46.091  33.447  30.930  1.00  0.00    -0.203 F 
ATOM     90  F   UNL A   1      44.697  37.323  27.349  1.00  0.00    -0.200 F 
ATOM     91  C   UNL A   1      45.777  36.691  29.351  1.00  0.00     0.200 A 
ATOM     92  F   UNL A   1      46.851  36.011  31.341  1.00  0.00    -0.200 F 
ATOM     93  F   UNL A   1      46.164  37.957  29.559  1.00  0.00    -0.200 F 
ENDBRANCH  60  83
ENDBRANCH  34  35
ENDBRANCH  27  29
ENDBRANCH  26  27
ENDBRANCH  25  26
ENDBRANCH  24  25
ENDBRANCH  23  24
ENDBRANCH  22  23
ENDBRANCH   1  22
TORSDOF 19
ENDMDL
MODEL 2
REMARK VINA RESULT:     -10.6      4.797     10.386
REMARK SMILES CSc1nc2ccccc2c(=O)n1CC(=O)OCCOCCOCCOC(=O)c1ccc(-c2c3nc(c(-c4c(F)c(F)c(F)c(F)c4F)c4ccc([nH]4)c(-c4c(F)c(F)c(F)c(F)c4F)c4nc(c(-c5c(F)c(F)c(F)c(F)c5F)c5ccc2[nH]5)C=C4)C=C3)cc1
REMARK SMILES IDX 21 1 20 2 19 3 18 4 17 5 15 6 16 7 14 8 13 9 3 10 4 11 5 12
REMARK SMILES IDX 11 13 6 14 10 15 12 16 7 17 9 18 8 19 2 20 1 21 22 22 23 23
REMARK SMILES IDX 24 24 25 25 26 26 27 27 28 28 29 29 30 30 91 31 31 32 90 33
REMARK SMILES IDX 32 34 33 35 34 36 84 37 35 38 89 39 83 40 85 41 36 42 88 43
REMARK SMILES IDX 82 44 81 45 37 47 69 48 49 49 68 50 50 51 53 52 67 53 86 54
REMARK SMILES IDX 51 55 52 56 66 58 87 59 54 60 38 61 39 62 47 63 40 64 41 65
REMARK SMILES IDX 45 66 48 67 42 68 43 69 46 70 44 71 70 72 71 73 79 74 72 75
REMARK SMILES IDX 73 76 77 77 80 78 74 79 75 80 78 81 76 82 55 83 56 84 64 85
REMARK SMILES IDX 57 86 58 87 62 88 65 89 59 90 60 91 63 92 61 93
REMARK H PARENT 85 46 53 57
REMARK Flexibility Score: inf
ROOT
ATOM      1  C   UNL A   1      34.170  29.181  26.744  1.00  0.00     0.188 C 
ENDROOT
BRANCH   1   2
ATOM      2  O   UNL A   1      33.558  28.397  25.720  1.00  0.00    -0.376 OA
BRANCH   2   3
ATOM      3  C   UNL A   1      32.801  27.253  26.085  1.00  0.00     0.202 C 
BRANCH   3   4
ATOM      4  C   UNL A   1      31.508  27.046  25.294  1.00  0.00     0.261 C 
BRANCH   4   5
ATOM      5  O   UNL A   1      31.107  25.662  25.234  1.00  0.00    -0.462 OA
BRANCH   5   6
ATOM      6  C   UNL A   1      30.349  25.306  24.167  1.00  0.00     0.326 C 
ATOM      7  O   UNL A   1      29.378  25.936  23.759  1.00  0.00    -0.250 OA
BRANCH   6   8
ATOM      8  C   UNL A   1      30.899  24.112  23.390  1.00  0.00     0.250 C 
BRANCH   8   9
ATOM      9  N   UNL A   1      32.341  23.819  23.399  1.00  0.00    -0.276 N 
ATOM     10  C   UNL A   1      33.274  24.524  22.657  1.00  0.00     0.171 A 
ATOM     11  N   UNL A   1      34.550  24.309  22.695  1.00  0.00    -0.224 NA
ATOM     12  C   UNL A   1      35.037  23.259  23.482  1.00  0.00     0.079 A 
ATOM     13  C   UNL A   1      32.781  22.891  24.340  1.00  0.00     0.262 A 
ATOM     14  C   UNL A   1      36.385  22.894  23.391  1.00  0.00     0.029 A 
ATOM     15  C   UNL A   1      34.206  22.520  24.311  1.00  0.00     0.066 A 
ATOM     16  O   UNL A   1      32.050  22.369  25.179  1.00  0.00    -0.269 OA
ATOM     17  C   UNL A   1      36.878  21.785  24.090  1.00  0.00     0.002 A 
ATOM     18  C   UNL A   1      34.698  21.428  25.040  1.00  0.00     0.016 A 
ATOM     19  C   UNL A   1      36.031  21.047  24.910  1.00  0.00     0.001 A 
BRANCH  10  20
ATOM     20  S   UNL A   1      32.740  25.730  21.502  1.00  0.00    -0.091 SA
ATOM     21  C   UNL A   1      33.447  27.248  22.161  1.00  0.00     0.094 C 
ENDBRANCH  10  20
ENDBRANCH   8   9
ENDBRANCH   6   8
ENDBRANCH   5   6
ENDBRANCH   4   5
ENDBRANCH   3   4
ENDBRANCH   2   3
ENDBRANCH   1   2
BRANCH   1  22
ATOM     22  C   UNL A   1      33.501  30.477  27.229  1.00  0.00     0.188 C 
BRANCH  22  23
ATOM     23  O   UNL A   1      32.219  30.662  26.647  1.00  0.00    -0.376 OA
BRANCH  23  24
ATOM     24  C   UNL A   1      31.688  31.970  26.792  1.00  0.00     0.202 C 
BRANCH  24  25
ATOM     25  C   UNL A   1      32.752  32.913  27.354  1.00  0.00     0.261 C 
BRANCH  25  26
ATOM     26  O   UNL A   1      32.338  33.661  28.514  1.00  0.00    -0.460 OA
BRANCH  26  27
ATOM     27  C   UNL A   1      33.041  34.778  28.807  1.00  0.00     0.338 C 
ATOM     28  O   UNL A   1      32.690  35.930  28.642  1.00  0.00    -0.246 OA
BRANCH  27  29
ATOM     29  C   UNL A   1      34.272  34.370  29.520  1.00  0.00     0.060 A 
ATOM     30  C   UNL A   1      34.214  33.791  30.786  1.00  0.00     0.016 A 
ATOM     31  C   UNL A   1      35.509  34.559  28.896  1.00  0.00     0.016 A 
ATOM     32  C   UNL A   1      35.398  33.375  31.406  1.00  0.00     0.010 A 
ATOM     33  C   UNL A   1      36.691  34.145  29.512  1.00  0.00     0.010 A 
ATOM     34  C   UNL A   1      36.642  33.530  30.766  1.00  0.00    -0.014 A 
BRANCH  34  35
ATOM     35  C   UNL A   1      37.851  32.896  31.347  1.00  0.00     0.031 A 
ATOM     36  C   UNL A   1      38.459  33.360  32.633  1.00  0.00     0.074 A 
ATOM     37  C   UNL A   1      38.408  31.873  30.672  1.00  0.00     0.049 A 
ATOM     38  N   UNL A   1      39.381  32.777  33.358  1.00  0.00    -0.248 NA
ATOM     39  C   UNL A   1      37.995  34.647  33.168  1.00  0.00     0.031 C 
ATOM     40  C   UNL A   1      37.967  31.401  29.360  1.00  0.00     0.029 A 
ATOM     41  N   UNL A   1      39.446  31.037  31.000  1.00  0.00    -0.354 N 
ATOM     42  C   UNL A   1      39.586  33.606  34.451  1.00  0.00     0.074 A 
ATOM     43  C   UNL A   1      38.738  34.765  34.261  1.00  0.00     0.031 C 
ATOM     44  C   UNL A   1      38.694  30.329  29.014  1.00  0.00     0.029 A 
ATOM     45  C   UNL A   1      39.653  30.041  30.078  1.00  0.00     0.049 A 
ATOM     46  H   UNL A   1      39.987  31.142  31.815  1.00  0.00     0.167 HD
ATOM     47  C   UNL A   1      40.389  33.396  35.522  1.00  0.00     0.037 A 
ATOM     48  C   UNL A   1      40.497  28.993  30.099  1.00  0.00     0.037 A 
ATOM     49  C   UNL A   1      41.238  32.242  35.689  1.00  0.00     0.049 A 
ATOM     50  C   UNL A   1      41.367  28.772  31.303  1.00  0.00     0.074 A 
ATOM     51  C   UNL A   1      42.014  31.894  36.780  1.00  0.00     0.029 A 
ATOM     52  N   UNL A   1      41.439  31.262  34.727  1.00  0.00    -0.354 N 
ATOM     53  N   UNL A   1      41.442  29.476  32.406  1.00  0.00    -0.248 NA
ATOM     54  C   UNL A   1      42.260  27.606  31.273  1.00  0.00     0.031 C 
ATOM     55  C   UNL A   1      42.731  30.736  36.456  1.00  0.00     0.029 A 
ATOM     56  C   UNL A   1      42.360  30.332  35.184  1.00  0.00     0.049 A 
ATOM     57  H   UNL A   1      40.993  31.232  33.850  1.00  0.00     0.167 HD
ATOM     58  C   UNL A   1      42.376  28.836  33.206  1.00  0.00     0.074 A 
ATOM     59  C   UNL A   1      42.831  27.674  32.470  1.00  0.00     0.031 C 
ATOM     60  C   UNL A   1      42.818  29.185  34.439  1.00  0.00     0.037 A 
BRANCH  47  61
ATOM     61  C   UNL A   1      40.380  34.421  36.620  1.00  0.00     0.064 A 
ATOM     62  C   UNL A   1      39.474  34.332  37.689  1.00  0.00     0.173 A 
ATOM     63  C   UNL A   1      41.339  35.444  36.658  1.00  0.00     0.173 A 
ATOM     64  F   UNL A   1      38.539  33.371  37.704  1.00  0.00    -0.203 F 
ATOM     65  C   UNL A   1      39.518  35.240  38.744  1.00  0.00     0.198 A 
ATOM     66  C   UNL A   1      41.397  36.333  37.729  1.00  0.00     0.198 A 
ATOM     67  F   UNL A   1      42.239  35.564  35.671  1.00  0.00    -0.203 F 
ATOM     68  F   UNL A   1      38.626  35.151  39.741  1.00  0.00    -0.200 F 
ATOM     69  C   UNL A   1      40.485  36.234  38.768  1.00  0.00     0.200 A 
ATOM     70  F   UNL A   1      42.344  37.282  37.759  1.00  0.00    -0.200 F 
ATOM     71  F   UNL A   1      40.538  37.095  39.794  1.00  0.00    -0.200 F 
ENDBRANCH  47  61
BRANCH  48  72
ATOM     72  C   UNL A   1      40.483  28.037  28.964  1.00  0.00     0.064 A 
ATOM     73  C   UNL A   1      39.685  26.887  29.005  1.00  0.00     0.173 A 
ATOM     74  C   UNL A   1      41.206  28.293  27.789  1.00  0.00     0.173 A 
ATOM     75  F   UNL A   1      38.986  26.596  30.112  1.00  0.00    -0.203 F 
ATOM     76  C   UNL A   1      39.608  26.027  27.911  1.00  0.00     0.198 A 
ATOM     77  C   UNL A   1      41.109  27.446  26.689  1.00  0.00     0.198 A 
ATOM     78  F   UNL A   1      41.975  29.388  27.699  1.00  0.00    -0.203 F 
ATOM     79  F   UNL A   1      38.849  24.925  27.981  1.00  0.00    -0.200 F 
ATOM     80  C   UNL A   1      40.311  26.313  26.751  1.00  0.00     0.200 A 
ATOM     81  F   UNL A   1      41.775  27.735  25.562  1.00  0.00    -0.200 F 
ATOM     82  F   UNL A   1      40.218  25.499  25.691  1.00  0.00    -0.200 F 
ENDBRANCH  48  72
BRANCH  60  83
ATOM     83  C   UNL A   1      43.860  28.315  35.079  1.00  0.00     0.064 A 
ATOM     84  C   UNL A   1      43.503  27.226  35.885  1.00  0.00     0.173 A 
ATOM     85  C   UNL A   1      45.223  28.516  34.809  1.00  0.00     0.173 A 
ATOM     86  F   UNL A   1      42.215  27.000  36.184  1.00  0.00    -0.203 F 
ATOM     87  C   UNL A   1      44.473  26.371  36.404  1.00  0.00     0.198 A 
ATOM     88  C   UNL A   1      46.187  27.645  35.307  1.00  0.00     0.198 A 
ATOM     89  F   UNL A   1      45.616  29.541  34.038  1.00  0.00    -0.203 F 
ATOM     90  F   UNL A   1      44.111  25.350  37.194  1.00  0.00    -0.200 F 
ATOM     91  C   UNL A   1      45.812  26.574  36.105  1.00  0.00     0.200 A 
ATOM     92  F   UNL A   1      47.479  27.834  35.005  1.00  0.00    -0.200 F 
ATOM     93  F   UNL A   1      46.742  25.737  36.586  1.00  0.00    -0.200 F 
ENDBRANCH  60  83
ENDBRANCH  34  35
ENDBRANCH  27  29
ENDBRANCH  26  27
ENDBRANCH  25  26
ENDBRANCH  24  25
ENDBRANCH  23  24
ENDBRANCH  22  23
ENDBRANCH   1  22
TORSDOF 19
ENDMDL
MODEL 3
REMARK VINA RESULT:     -10.5      4.955      8.880
REMARK SMILES CSc1nc2ccccc2c(=O)n1CC(=O)OCCOCCOCCOC(=O)c1ccc(-c2c3nc(c(-c4c(F)c(F)c(F)c(F)c4F)c4ccc([nH]4)c(-c4c(F)c(F)c(F)c(F)c4F)c4nc(c(-c5c(F)c(F)c(F)c(F)c5F)c5ccc2[nH]5)C=C4)C=C3)cc1
REMARK SMILES IDX 21 1 20 2 19 3 18 4 17 5 15 6 16 7 14 8 13 9 3 10 4 11 5 12
REMARK SMILES IDX 11 13 6 14 10 15 12 16 7 17 9 18 8 19 2 20 1 21 22 22 23 23
REMARK SMILES IDX 24 24 25 25 26 26 27 27 28 28 29 29 30 30 91 31 31 32 90 33
REMARK SMILES IDX 32 34 33 35 34 36 84 37 35 38 89 39 83 40 85 41 36 42 88 43
REMARK SMILES IDX 82 44 81 45 37 47 69 48 49 49 68 50 50 51 53 52 67 53 86 54
REMARK SMILES IDX 51 55 52 56 66 58 87 59 54 60 38 61 39 62 47 63 40 64 41 65
REMARK SMILES IDX 45 66 48 67 42 68 43 69 46 70 44 71 70 72 71 73 79 74 72 75
REMARK SMILES IDX 73 76 77 77 80 78 74 79 75 80 78 81 76 82 55 83 56 84 64 85
REMARK SMILES IDX 57 86 58 87 62 88 65 89 59 90 60 91 63 92 61 93
REMARK H PARENT 85 46 53 57
REMARK Flexibility Score: inf
ROOT
ATOM      1  C   UNL A   1      32.355  29.213  27.309  1.00  0.00     0.188 C 
ENDROOT
BRANCH   1   2
ATOM      2  O   UNL A   1      31.516  28.458  26.434  1.00  0.00    -0.376 OA
BRANCH   2   3
ATOM      3  C   UNL A   1      32.042  27.301  25.800  1.00  0.00     0.202 C 
BRANCH   3   4
ATOM      4  C   UNL A   1      31.819  25.987  26.551  1.00  0.00     0.261 C 
BRANCH   4   5
ATOM      5  O   UNL A   1      30.595  25.328  26.170  1.00  0.00    -0.462 OA
BRANCH   5   6
ATOM      6  C   UNL A   1      30.559  23.985  26.353  1.00  0.00     0.326 C 
ATOM      7  O   UNL A   1      30.124  23.428  27.356  1.00  0.00    -0.250 OA
BRANCH   6   8
ATOM      8  C   UNL A   1      30.970  23.182  25.120  1.00  0.00     0.250 C 
BRANCH   8   9
ATOM      9  N   UNL A   1      32.380  23.131  24.702  1.00  0.00    -0.276 N 
ATOM     10  C   UNL A   1      32.918  23.935  23.711  1.00  0.00     0.171 A 
ATOM     11  N   UNL A   1      34.166  23.936  23.369  1.00  0.00    -0.224 NA
ATOM     12  C   UNL A   1      35.038  23.028  23.983  1.00  0.00     0.079 A 
ATOM     13  C   UNL A   1      33.230  22.344  25.477  1.00  0.00     0.262 A 
ATOM     14  C   UNL A   1      36.343  22.885  23.498  1.00  0.00     0.029 A 
ATOM     15  C   UNL A   1      34.627  22.213  25.027  1.00  0.00     0.066 A 
ATOM     16  O   UNL A   1      32.879  21.760  26.499  1.00  0.00    -0.269 OA
ATOM     17  C   UNL A   1      37.204  21.915  24.026  1.00  0.00     0.002 A 
ATOM     18  C   UNL A   1      35.493  21.261  25.584  1.00  0.00     0.016 A 
ATOM     19  C   UNL A   1      36.775  21.097  25.066  1.00  0.00     0.001 A 
BRANCH  10  20
ATOM     20  S   UNL A   1      31.868  24.967  22.759  1.00  0.00    -0.091 SA
ATOM     21  C   UNL A   1      33.024  26.134  22.022  1.00  0.00     0.094 C 
ENDBRANCH  10  20
ENDBRANCH   8   9
ENDBRANCH   6   8
ENDBRANCH   5   6
ENDBRANCH   4   5
ENDBRANCH   3   4
ENDBRANCH   2   3
ENDBRANCH   1   2
BRANCH   1  22
ATOM     22  C   UNL A   1      32.721  30.665  26.966  1.00  0.00     0.188 C 
BRANCH  22  23
ATOM     23  O   UNL A   1      31.682  31.320  26.254  1.00  0.00    -0.376 OA
BRANCH  23  24
ATOM     24  C   UNL A   1      31.454  32.664  26.647  1.00  0.00     0.202 C 
BRANCH  24  25
ATOM     25  C   UNL A   1      32.668  33.209  27.400  1.00  0.00     0.261 C 
BRANCH  25  26
ATOM     26  O   UNL A   1      32.354  34.161  28.436  1.00  0.00    -0.460 OA
BRANCH  26  27
ATOM     27  C   UNL A   1      33.282  35.109  28.698  1.00  0.00     0.338 C 
ATOM     28  O   UNL A   1      33.217  36.293  28.428  1.00  0.00    -0.246 OA
BRANCH  27  29
ATOM     29  C   UNL A   1      34.345  34.494  29.523  1.00  0.00     0.060 A 
ATOM     30  C   UNL A   1      34.050  33.875  30.736  1.00  0.00     0.016 A 
ATOM     31  C   UNL A   1      35.664  34.525  29.060  1.00  0.00     0.016 A 
ATOM     32  C   UNL A   1      35.077  33.263  31.463  1.00  0.00     0.010 A 
ATOM     33  C   UNL A   1      36.691  33.916  29.783  1.00  0.00     0.010 A 
ATOM     34  C   UNL A   1      36.400  33.261  30.983  1.00  0.00    -0.014 A 
BRANCH  34  35
ATOM     35  C   UNL A   1      37.427  32.432  31.660  1.00  0.00     0.031 A 
ATOM     36  C   UNL A   1      38.066  31.251  30.999  1.00  0.00     0.074 A 
ATOM     37  C   UNL A   1      37.777  32.767  32.916  1.00  0.00     0.049 A 
ATOM     38  N   UNL A   1      39.114  30.566  31.385  1.00  0.00    -0.248 NA
ATOM     39  C   UNL A   1      37.447  30.760  29.761  1.00  0.00     0.031 C 
ATOM     40  C   UNL A   1      37.149  33.831  33.700  1.00  0.00     0.029 A 
ATOM     41  N   UNL A   1      38.748  32.266  33.745  1.00  0.00    -0.354 N 
ATOM     42  C   UNL A   1      39.301  29.584  30.424  1.00  0.00     0.074 A 
ATOM     43  C   UNL A   1      38.220  29.722  29.469  1.00  0.00     0.031 C 
ATOM     44  C   UNL A   1      37.783  33.939  34.876  1.00  0.00     0.029 A 
ATOM     45  C   UNL A   1      38.857  32.950  34.930  1.00  0.00     0.049 A 
ATOM     46  H   UNL A   1      39.311  31.494  33.512  1.00  0.00     0.167 HD
ATOM     47  C   UNL A   1      40.302  28.674  30.341  1.00  0.00     0.037 A 
ATOM     48  C   UNL A   1      39.743  32.821  35.935  1.00  0.00     0.037 A 
ATOM     49  C   UNL A   1      41.363  28.542  31.308  1.00  0.00     0.049 A 
ATOM     50  C   UNL A   1      40.852  31.816  35.815  1.00  0.00     0.074 A 
ATOM     51  C   UNL A   1      42.473  27.716  31.262  1.00  0.00     0.029 A 
ATOM     52  N   UNL A   1      41.433  29.237  32.507  1.00  0.00    -0.354 N 
ATOM     53  N   UNL A   1      41.117  30.995  34.828  1.00  0.00    -0.248 NA
ATOM     54  C   UNL A   1      41.794  31.727  36.939  1.00  0.00     0.031 C 
ATOM     55  C   UNL A   1      43.182  27.868  32.459  1.00  0.00     0.029 A 
ATOM     56  C   UNL A   1      42.544  28.828  33.228  1.00  0.00     0.049 A 
ATOM     57  H   UNL A   1      40.788  29.921  32.801  1.00  0.00     0.167 HD
ATOM     58  C   UNL A   1      42.258  30.302  35.202  1.00  0.00     0.074 A 
ATOM     59  C   UNL A   1      42.649  30.811  36.501  1.00  0.00     0.031 C 
ATOM     60  C   UNL A   1      42.919  29.329  34.527  1.00  0.00     0.037 A 
BRANCH  47  61
ATOM     61  C   UNL A   1      40.322  27.757  29.152  1.00  0.00     0.064 A 
ATOM     62  C   UNL A   1      39.553  26.583  29.126  1.00  0.00     0.173 A 
ATOM     63  C   UNL A   1      41.038  28.096  27.993  1.00  0.00     0.173 A 
ATOM     64  F   UNL A   1      38.847  26.215  30.206  1.00  0.00    -0.203 F 
ATOM     65  C   UNL A   1      39.515  25.775  27.993  1.00  0.00     0.198 A 
ATOM     66  C   UNL A   1      40.976  27.298  26.853  1.00  0.00     0.198 A 
ATOM     67  F   UNL A   1      41.776  29.215  27.958  1.00  0.00    -0.203 F 
ATOM     68  F   UNL A   1      38.793  24.644  28.002  1.00  0.00    -0.200 F 
ATOM     69  C   UNL A   1      40.219  26.137  26.854  1.00  0.00     0.200 A 
ATOM     70  F   UNL A   1      41.642  27.660  25.747  1.00  0.00    -0.200 F 
ATOM     71  F   UNL A   1      40.166  25.368  25.758  1.00  0.00    -0.200 F 
ENDBRANCH  47  61
BRANCH  48  72
ATOM     72  C   UNL A   1      39.645  33.734  37.100  1.00  0.00     0.064 A 
ATOM     73  C   UNL A   1      40.257  34.995  37.078  1.00  0.00     0.173 A 
ATOM     74  C   UNL A   1      38.876  33.399  38.226  1.00  0.00     0.173 A 
ATOM     75  F   UNL A   1      41.010  35.353  36.027  1.00  0.00    -0.203 F 
ATOM     76  C   UNL A   1      40.103  35.887  38.136  1.00  0.00     0.198 A 
ATOM     77  C   UNL A   1      38.704  34.301  39.271  1.00  0.00     0.198 A 
ATOM     78  F   UNL A   1      38.262  32.208  38.287  1.00  0.00    -0.203 F 
ATOM     79  F   UNL A   1      40.711  37.080  38.096  1.00  0.00    -0.200 F 
ATOM     80  C   UNL A   1      39.318  35.544  39.226  1.00  0.00     0.200 A 
ATOM     81  F   UNL A   1      37.929  33.974  40.315  1.00  0.00    -0.200 F 
ATOM     82  F   UNL A   1      39.151  36.412  40.233  1.00  0.00    -0.200 F 
ENDBRANCH  48  72
BRANCH  60  83
ATOM     83  C   UNL A   1      44.130  28.729  35.179  1.00  0.00     0.064 A 
ATOM     84  C   UNL A   1      44.032  27.583  35.981  1.00  0.00     0.173 A 
ATOM     85  C   UNL A   1      45.409  29.248  34.926  1.00  0.00     0.173 A 
ATOM     86  F   UNL A   1      42.831  27.057  36.264  1.00  0.00    -0.203 F 
ATOM     87  C   UNL A   1      45.170  26.981  36.511  1.00  0.00     0.198 A 
ATOM     88  C   UNL A   1      46.546  28.628  35.435  1.00  0.00     0.198 A 
ATOM     89  F   UNL A   1      45.557  30.339  34.160  1.00  0.00    -0.203 F 
ATOM     90  F   UNL A   1      45.052  25.901  37.296  1.00  0.00    -0.200 F 
ATOM     91  C   UNL A   1      46.427  27.497  36.228  1.00  0.00     0.200 A 
ATOM     92  F   UNL A   1      47.761  29.119  35.150  1.00  0.00    -0.200 F 
ATOM     93  F   UNL A   1      47.523  26.903  36.720  1.00  0.00    -0.200 F 
ENDBRANCH  60  83
ENDBRANCH  34  35
ENDBRANCH  27  29
ENDBRANCH  26  27
ENDBRANCH  25  26
ENDBRANCH  24  25
ENDBRANCH  23  24
ENDBRANCH  22  23
ENDBRANCH   1  22
TORSDOF 19
ENDMDL
