MODEL 1
REMARK VINA RESULT:     -12.2      0.000      0.000
REMARK SMILES O=C(OCCOCCOCCOC(=O)c1nnn(-c2cccc(C(F)(F)F)c2)c1[C@@H]1COc2ccccc2O1)c1ccc(-c2c3nc(c(-c4c(F)c(F)c(F)c(F)c4F)c4ccc([nH]4)c(-c4c(F)c(F)c(F)c(F)c4F)c4nc(c(-c5c(F)c(F)c(F)c(F)c5F)c5ccc2[nH]5)C=C4)C=C3)cc1
REMARK SMILES IDX 7 1 6 2 5 3 4 4 3 5 2 6 1 7 40 8 41 9 102 10 42 11 101 12
REMARK SMILES IDX 43 13 44 14 45 15 95 16 46 17 100 18 94 19 96 20 47 21 99 22
REMARK SMILES IDX 93 23 92 24 48 26 80 27 60 28 79 29 61 30 64 31 78 32 97 33
REMARK SMILES IDX 62 34 63 35 77 37 98 38 65 39 49 40 50 41 58 42 51 43 52 44
REMARK SMILES IDX 56 45 59 46 53 47 54 48 57 49 55 50 81 51 82 52 90 53 83 54
REMARK SMILES IDX 84 55 88 56 91 57 85 58 86 59 89 60 87 61 66 62 67 63 75 64
REMARK SMILES IDX 68 65 69 66 73 67 76 68 70 69 71 70 74 71 72 72 8 73 9 74
REMARK SMILES IDX 10 75 11 76 12 77 13 78 14 79 15 80 16 81 29 82 17 83 18 84
REMARK SMILES IDX 30 85 31 86 39 87 32 88 38 89 33 90 37 91 34 92 36 93 35 94
REMARK SMILES IDX 19 95 20 96 28 97 21 98 23 99 22 100 24 101 25 102 26 103
REMARK SMILES IDX 27 104
REMARK H PARENT 96 25 64 36
REMARK Flexibility Score: inf
ROOT
ATOM      1  C   UNL A   1      33.252  33.732  27.867  1.00  0.00     0.188 C 
ENDROOT
BRANCH   1   2
ATOM      2  O   UNL A   1      32.464  34.446  28.813  1.00  0.00    -0.376 OA
BRANCH   2   3
ATOM      3  C   UNL A   1      33.137  35.431  29.583  1.00  0.00     0.202 C 
BRANCH   3   4
ATOM      4  C   UNL A   1      33.812  34.921  30.861  1.00  0.00     0.261 C 
BRANCH   4   5
ATOM      5  O   UNL A   1      34.917  34.026  30.660  1.00  0.00    -0.460 OA
BRANCH   5   6
ATOM      6  C   UNL A   1      35.007  32.719  30.977  1.00  0.00     0.338 C 
ATOM      7  O   UNL A   1      34.320  32.241  31.873  1.00  0.00    -0.246 OA
BRANCH   6   8
ATOM      8  C   UNL A   1      36.127  31.913  30.446  1.00  0.00     0.060 A 
ATOM      9  C   UNL A   1      36.202  30.525  30.569  1.00  0.00     0.016 A 
ATOM     10  C   UNL A   1      37.212  32.631  29.909  1.00  0.00     0.016 A 
ATOM     11  C   UNL A   1      37.369  29.862  30.234  1.00  0.00     0.010 A 
ATOM     12  C   UNL A   1      38.394  31.976  29.597  1.00  0.00     0.010 A 
ATOM     13  C   UNL A   1      38.483  30.605  29.848  1.00  0.00    -0.014 A 
BRANCH  13  14
ATOM     14  C   UNL A   1      39.777  29.949  30.005  1.00  0.00     0.031 A 
ATOM     15  C   UNL A   1      40.405  29.913  31.353  1.00  0.00     0.074 A 
ATOM     16  C   UNL A   1      40.324  29.363  28.919  1.00  0.00     0.049 A 
ATOM     17  N   UNL A   1      41.624  30.206  31.690  1.00  0.00    -0.248 NA
ATOM     18  C   UNL A   1      39.552  29.517  32.484  1.00  0.00     0.031 C 
ATOM     19  C   UNL A   1      39.693  29.144  27.609  1.00  0.00     0.029 A 
ATOM     20  N   UNL A   1      41.518  28.723  28.795  1.00  0.00    -0.354 N 
ATOM     21  C   UNL A   1      41.739  29.877  33.040  1.00  0.00     0.074 A 
ATOM     22  C   UNL A   1      40.416  29.540  33.498  1.00  0.00     0.031 C 
ATOM     23  C   UNL A   1      40.395  28.216  26.930  1.00  0.00     0.029 A 
ATOM     24  C   UNL A   1      41.575  27.874  27.702  1.00  0.00     0.049 A 
ATOM     25  H   UNL A   1      42.267  28.849  29.420  1.00  0.00     0.167 HD
ATOM     26  C   UNL A   1      42.940  29.717  33.662  1.00  0.00     0.037 A 
ATOM     27  C   UNL A   1      42.458  26.868  27.508  1.00  0.00     0.037 A 
ATOM     28  C   UNL A   1      44.007  30.407  33.000  1.00  0.00     0.049 A 
ATOM     29  C   UNL A   1      43.629  27.119  28.380  1.00  0.00     0.074 A 
ATOM     30  C   UNL A   1      44.286  31.733  32.730  1.00  0.00     0.029 A 
ATOM     31  N   UNL A   1      44.903  29.690  32.250  1.00  0.00    -0.354 N 
ATOM     32  N   UNL A   1      44.464  28.110  28.220  1.00  0.00    -0.248 NA
ATOM     33  C   UNL A   1      43.640  26.503  29.699  1.00  0.00     0.031 C 
ATOM     34  C   UNL A   1      44.979  31.723  31.484  1.00  0.00     0.029 A 
ATOM     35  C   UNL A   1      45.083  30.391  31.085  1.00  0.00     0.049 A 
ATOM     36  H   UNL A   1      45.332  28.839  32.497  1.00  0.00     0.167 HD
ATOM     37  C   UNL A   1      44.814  28.494  29.507  1.00  0.00     0.074 A 
ATOM     38  C   UNL A   1      44.358  27.408  30.367  1.00  0.00     0.031 C 
ATOM     39  C   UNL A   1      45.192  29.776  29.785  1.00  0.00     0.037 A 
BRANCH  26  40
ATOM     40  C   UNL A   1      43.179  28.685  34.731  1.00  0.00     0.064 A 
ATOM     41  C   UNL A   1      43.695  29.060  35.985  1.00  0.00     0.173 A 
ATOM     42  C   UNL A   1      43.176  27.301  34.456  1.00  0.00     0.173 A 
ATOM     43  F   UNL A   1      43.785  30.355  36.326  1.00  0.00    -0.203 F 
ATOM     44  C   UNL A   1      44.200  28.115  36.883  1.00  0.00     0.198 A 
ATOM     45  C   UNL A   1      43.633  26.358  35.374  1.00  0.00     0.198 A 
ATOM     46  F   UNL A   1      42.827  26.825  33.252  1.00  0.00    -0.203 F 
ATOM     47  F   UNL A   1      44.772  28.522  38.026  1.00  0.00    -0.200 F 
ATOM     48  C   UNL A   1      44.168  26.767  36.579  1.00  0.00     0.200 A 
ATOM     49  F   UNL A   1      43.616  25.058  35.049  1.00  0.00    -0.200 F 
ATOM     50  F   UNL A   1      44.692  25.865  37.418  1.00  0.00    -0.200 F 
ENDBRANCH  26  40
BRANCH  27  51
ATOM     51  C   UNL A   1      42.137  25.554  26.908  1.00  0.00     0.064 A 
ATOM     52  C   UNL A   1      42.850  25.055  25.811  1.00  0.00     0.173 A 
ATOM     53  C   UNL A   1      41.249  24.657  27.541  1.00  0.00     0.173 A 
ATOM     54  F   UNL A   1      43.760  25.823  25.196  1.00  0.00    -0.203 F 
ATOM     55  C   UNL A   1      42.674  23.741  25.364  1.00  0.00     0.198 A 
ATOM     56  C   UNL A   1      41.060  23.354  27.084  1.00  0.00     0.198 A 
ATOM     57  F   UNL A   1      40.609  24.999  28.669  1.00  0.00    -0.203 F 
ATOM     58  F   UNL A   1      43.405  23.280  24.339  1.00  0.00    -0.200 F 
ATOM     59  C   UNL A   1      41.778  22.893  25.999  1.00  0.00     0.200 A 
ATOM     60  F   UNL A   1      40.219  22.537  27.733  1.00  0.00    -0.200 F 
ATOM     61  F   UNL A   1      41.637  21.624  25.592  1.00  0.00    -0.200 F 
ENDBRANCH  27  51
BRANCH  39  62
ATOM     62  C   UNL A   1      45.431  30.695  28.622  1.00  0.00     0.064 A 
ATOM     63  C   UNL A   1      44.412  31.474  28.048  1.00  0.00     0.173 A 
ATOM     64  C   UNL A   1      46.741  30.922  28.184  1.00  0.00     0.173 A 
ATOM     65  F   UNL A   1      43.156  31.401  28.505  1.00  0.00    -0.203 F 
ATOM     66  C   UNL A   1      44.684  32.400  27.045  1.00  0.00     0.198 A 
ATOM     67  C   UNL A   1      47.016  31.873  27.205  1.00  0.00     0.198 A 
ATOM     68  F   UNL A   1      47.763  30.262  28.751  1.00  0.00    -0.203 F 
ATOM     69  F   UNL A   1      43.690  33.128  26.514  1.00  0.00    -0.200 F 
ATOM     70  C   UNL A   1      45.988  32.603  26.628  1.00  0.00     0.200 A 
ATOM     71  F   UNL A   1      48.286  32.111  26.844  1.00  0.00    -0.200 F 
ATOM     72  F   UNL A   1      46.259  33.528  25.696  1.00  0.00    -0.200 F 
ENDBRANCH  39  62
ENDBRANCH  13  14
ENDBRANCH   6   8
ENDBRANCH   5   6
ENDBRANCH   4   5
ENDBRANCH   3   4
ENDBRANCH   2   3
ENDBRANCH   1   2
BRANCH   1  73
ATOM     73  C   UNL A   1      33.258  32.193  28.005  1.00  0.00     0.188 C 
BRANCH  73  74
ATOM     74  O   UNL A   1      34.128  31.353  27.252  1.00  0.00    -0.376 OA
BRANCH  74  75
ATOM     75  C   UNL A   1      33.687  30.084  26.809  1.00  0.00     0.202 C 
BRANCH  75  76
ATOM     76  C   UNL A   1      32.200  30.070  26.427  1.00  0.00     0.261 C 
BRANCH  76  77
ATOM     77  O   UNL A   1      31.721  28.800  25.954  1.00  0.00    -0.458 OA
BRANCH  77  78
ATOM     78  C   UNL A   1      31.405  27.892  26.927  1.00  0.00     0.361 C 
ATOM     79  O   UNL A   1      31.142  28.187  28.089  1.00  0.00    -0.244 OA
BRANCH  78  80
ATOM     80  C   UNL A   1      31.387  26.517  26.441  1.00  0.00     0.198 A 
ATOM     81  N   UNL A   1      30.231  25.773  26.474  1.00  0.00    -0.122 NA
ATOM     82  C   UNL A   1      32.383  25.752  25.838  1.00  0.00     0.123 A 
ATOM     83  N   UNL A   1      30.483  24.583  25.951  1.00  0.00    -0.061 NA
ATOM     84  N   UNL A   1      31.822  24.484  25.798  1.00  0.00    -0.213 N 
BRANCH  82  85
ATOM     85  C   UNL A   1      33.712  26.117  25.244  1.00  0.00     0.262 C 
ATOM     86  C   UNL A   1      33.748  25.989  23.713  1.00  0.00     0.281 C 
ATOM     87  O   UNL A   1      34.770  25.417  25.904  1.00  0.00    -0.477 OA
ATOM     88  O   UNL A   1      33.823  24.628  23.282  1.00  0.00    -0.485 OA
ATOM     89  C   UNL A   1      35.341  24.413  25.164  1.00  0.00     0.162 A 
ATOM     90  C   UNL A   1      34.861  24.000  23.918  1.00  0.00     0.161 A 
ATOM     91  C   UNL A   1      36.401  23.732  25.757  1.00  0.00     0.050 A 
ATOM     92  C   UNL A   1      35.392  22.869  23.300  1.00  0.00     0.050 A 
ATOM     93  C   UNL A   1      36.953  22.616  25.126  1.00  0.00     0.004 A 
ATOM     94  C   UNL A   1      36.439  22.176  23.905  1.00  0.00     0.004 A 
ENDBRANCH  82  85
BRANCH  84  95
ATOM     95  C   UNL A   1      32.422  23.243  26.085  1.00  0.00     0.067 A 
ATOM     96  C   UNL A   1      33.151  23.079  27.263  1.00  0.00     0.028 A 
ATOM     97  C   UNL A   1      32.341  22.216  25.134  1.00  0.00     0.041 A 
ATOM     98  C   UNL A   1      33.731  21.839  27.531  1.00  0.00     0.003 A 
ATOM     99  C   UNL A   1      32.977  20.991  25.374  1.00  0.00     0.058 A 
ATOM    100  C   UNL A   1      33.643  20.802  26.596  1.00  0.00     0.013 A 
BRANCH  99 101
ATOM    101  C   UNL A   1      32.942  19.891  24.343  1.00  0.00     0.416 C 
ATOM    102  F   UNL A   1      34.161  19.314  24.150  1.00  0.00    -0.166 F 
ATOM    103  F   UNL A   1      32.098  18.880  24.687  1.00  0.00    -0.166 F 
ATOM    104  F   UNL A   1      32.535  20.314  23.113  1.00  0.00    -0.166 F 
ENDBRANCH  99 101
ENDBRANCH  84  95
ENDBRANCH  78  80
ENDBRANCH  77  78
ENDBRANCH  76  77
ENDBRANCH  75  76
ENDBRANCH  74  75
ENDBRANCH  73  74
ENDBRANCH   1  73
TORSDOF 20
ENDMDL
MODEL 2
REMARK VINA RESULT:     -12.2      2.042      2.839
REMARK SMILES O=C(OCCOCCOCCOC(=O)c1nnn(-c2cccc(C(F)(F)F)c2)c1[C@@H]1COc2ccccc2O1)c1ccc(-c2c3nc(c(-c4c(F)c(F)c(F)c(F)c4F)c4ccc([nH]4)c(-c4c(F)c(F)c(F)c(F)c4F)c4nc(c(-c5c(F)c(F)c(F)c(F)c5F)c5ccc2[nH]5)C=C4)C=C3)cc1
REMARK SMILES IDX 7 1 6 2 5 3 4 4 3 5 2 6 1 7 40 8 41 9 102 10 42 11 101 12
REMARK SMILES IDX 43 13 44 14 45 15 95 16 46 17 100 18 94 19 96 20 47 21 99 22
REMARK SMILES IDX 93 23 92 24 48 26 80 27 60 28 79 29 61 30 64 31 78 32 97 33
REMARK SMILES IDX 62 34 63 35 77 37 98 38 65 39 49 40 50 41 58 42 51 43 52 44
REMARK SMILES IDX 56 45 59 46 53 47 54 48 57 49 55 50 81 51 82 52 90 53 83 54
REMARK SMILES IDX 84 55 88 56 91 57 85 58 86 59 89 60 87 61 66 62 67 63 75 64
REMARK SMILES IDX 68 65 69 66 73 67 76 68 70 69 71 70 74 71 72 72 8 73 9 74
REMARK SMILES IDX 10 75 11 76 12 77 13 78 14 79 15 80 16 81 29 82 17 83 18 84
REMARK SMILES IDX 30 85 31 86 39 87 32 88 38 89 33 90 37 91 34 92 36 93 35 94
REMARK SMILES IDX 19 95 20 96 28 97 21 98 23 99 22 100 24 101 25 102 26 103
REMARK SMILES IDX 27 104
REMARK H PARENT 96 25 64 36
REMARK Flexibility Score: inf
ROOT
ATOM      1  C   UNL A   1      34.794  32.830  28.202  1.00  0.00     0.188 C 
ENDROOT
BRANCH   1   2
ATOM      2  O   UNL A   1      34.352  34.037  27.590  1.00  0.00    -0.376 OA
BRANCH   2   3
ATOM      3  C   UNL A   1      34.427  35.213  28.382  1.00  0.00     0.202 C 
BRANCH   3   4
ATOM      4  C   UNL A   1      33.192  35.508  29.241  1.00  0.00     0.261 C 
BRANCH   4   5
ATOM      5  O   UNL A   1      33.076  34.728  30.442  1.00  0.00    -0.460 OA
BRANCH   5   6
ATOM      6  C   UNL A   1      33.562  35.000  31.669  1.00  0.00     0.338 C 
ATOM      7  O   UNL A   1      33.170  35.976  32.299  1.00  0.00    -0.246 OA
BRANCH   6   8
ATOM      8  C   UNL A   1      34.768  34.293  32.151  1.00  0.00     0.060 A 
ATOM      9  C   UNL A   1      35.899  34.948  32.640  1.00  0.00     0.016 A 
ATOM     10  C   UNL A   1      34.786  32.897  31.972  1.00  0.00     0.016 A 
ATOM     11  C   UNL A   1      37.062  34.237  32.879  1.00  0.00     0.010 A 
ATOM     12  C   UNL A   1      35.955  32.183  32.184  1.00  0.00     0.010 A 
ATOM     13  C   UNL A   1      37.107  32.882  32.554  1.00  0.00    -0.014 A 
BRANCH  13  14
ATOM     14  C   UNL A   1      38.434  32.319  32.335  1.00  0.00     0.031 A 
ATOM     15  C   UNL A   1      39.377  32.236  33.484  1.00  0.00     0.074 A 
ATOM     16  C   UNL A   1      38.730  31.855  31.103  1.00  0.00     0.049 A 
ATOM     17  N   UNL A   1      40.622  32.598  33.541  1.00  0.00    -0.248 NA
ATOM     18  C   UNL A   1      38.853  31.697  34.748  1.00  0.00     0.031 C 
ATOM     19  C   UNL A   1      37.808  31.681  29.970  1.00  0.00     0.029 A 
ATOM     20  N   UNL A   1      39.890  31.319  30.638  1.00  0.00    -0.354 N 
ATOM     21  C   UNL A   1      41.086  32.184  34.788  1.00  0.00     0.074 A 
ATOM     22  C   UNL A   1      39.938  31.714  35.522  1.00  0.00     0.031 C 
ATOM     23  C   UNL A   1      38.373  30.860  29.063  1.00  0.00     0.029 A 
ATOM     24  C   UNL A   1      39.724  30.557  29.494  1.00  0.00     0.049 A 
ATOM     25  H   UNL A   1      40.762  31.458  31.073  1.00  0.00     0.167 HD
ATOM     26  C   UNL A   1      42.410  32.073  35.086  1.00  0.00     0.037 A 
ATOM     27  C   UNL A   1      40.589  29.638  29.006  1.00  0.00     0.037 A 
ATOM     28  C   UNL A   1      43.240  32.889  34.249  1.00  0.00     0.049 A 
ATOM     29  C   UNL A   1      41.922  29.916  29.588  1.00  0.00     0.074 A 
ATOM     30  C   UNL A   1      43.367  34.248  34.037  1.00  0.00     0.029 A 
ATOM     31  N   UNL A   1      43.962  32.298  33.244  1.00  0.00    -0.354 N 
ATOM     32  N   UNL A   1      42.633  30.978  29.318  1.00  0.00    -0.248 NA
ATOM     33  C   UNL A   1      42.294  29.211  30.806  1.00  0.00     0.031 C 
ATOM     34  C   UNL A   1      43.730  34.380  32.664  1.00  0.00     0.029 A 
ATOM     35  C   UNL A   1      43.809  33.091  32.136  1.00  0.00     0.049 A 
ATOM     36  H   UNL A   1      44.487  31.467  33.306  1.00  0.00     0.167 HD
ATOM     37  C   UNL A   1      43.268  31.295  30.510  1.00  0.00     0.074 A 
ATOM     38  C   UNL A   1      43.101  30.119  31.358  1.00  0.00     0.031 C 
ATOM     39  C   UNL A   1      43.628  32.579  30.800  1.00  0.00     0.037 A 
BRANCH  26  40
ATOM     40  C   UNL A   1      42.965  30.990  35.971  1.00  0.00     0.064 A 
ATOM     41  C   UNL A   1      43.750  31.314  37.093  1.00  0.00     0.173 A 
ATOM     42  C   UNL A   1      42.976  29.633  35.584  1.00  0.00     0.173 A 
ATOM     43  F   UNL A   1      43.844  32.585  37.515  1.00  0.00    -0.203 F 
ATOM     44  C   UNL A   1      44.514  30.351  37.757  1.00  0.00     0.198 A 
ATOM     45  C   UNL A   1      43.700  28.666  36.279  1.00  0.00     0.198 A 
ATOM     46  F   UNL A   1      42.372  29.218  34.462  1.00  0.00    -0.203 F 
ATOM     47  F   UNL A   1      45.324  30.719  38.761  1.00  0.00    -0.200 F 
ATOM     48  C   UNL A   1      44.488  29.029  37.351  1.00  0.00     0.200 A 
ATOM     49  F   UNL A   1      43.680  27.395  35.854  1.00  0.00    -0.200 F 
ATOM     50  F   UNL A   1      45.255  28.114  37.957  1.00  0.00    -0.200 F 
ENDBRANCH  26  40
BRANCH  27  51
ATOM     51  C   UNL A   1      40.205  28.349  28.389  1.00  0.00     0.064 A 
ATOM     52  C   UNL A   1      40.663  27.979  27.118  1.00  0.00     0.173 A 
ATOM     53  C   UNL A   1      39.543  27.348  29.133  1.00  0.00     0.173 A 
ATOM     54  F   UNL A   1      41.358  28.851  26.375  1.00  0.00    -0.203 F 
ATOM     55  C   UNL A   1      40.457  26.690  26.615  1.00  0.00     0.198 A 
ATOM     56  C   UNL A   1      39.321  26.070  28.624  1.00  0.00     0.198 A 
ATOM     57  F   UNL A   1      39.171  27.564  30.403  1.00  0.00    -0.203 F 
ATOM     58  F   UNL A   1      40.948  26.355  25.414  1.00  0.00    -0.200 F 
ATOM     59  C   UNL A   1      39.784  25.738  27.368  1.00  0.00     0.200 A 
ATOM     60  F   UNL A   1      38.703  25.152  29.381  1.00  0.00    -0.200 F 
ATOM     61  F   UNL A   1      39.619  24.493  26.900  1.00  0.00    -0.200 F 
ENDBRANCH  27  51
BRANCH  39  62
ATOM     62  C   UNL A   1      43.520  33.594  29.699  1.00  0.00     0.064 A 
ATOM     63  C   UNL A   1      42.346  34.328  29.456  1.00  0.00     0.173 A 
ATOM     64  C   UNL A   1      44.666  33.955  28.982  1.00  0.00     0.173 A 
ATOM     65  F   UNL A   1      41.247  34.123  30.191  1.00  0.00    -0.203 F 
ATOM     66  C   UNL A   1      42.308  35.341  28.501  1.00  0.00     0.198 A 
ATOM     67  C   UNL A   1      44.636  34.992  28.052  1.00  0.00     0.198 A 
ATOM     68  F   UNL A   1      45.834  33.341  29.228  1.00  0.00    -0.203 F 
ATOM     69  F   UNL A   1      41.172  36.023  28.290  1.00  0.00    -0.200 F 
ATOM     70  C   UNL A   1      43.456  35.676  27.804  1.00  0.00     0.200 A 
ATOM     71  F   UNL A   1      45.762  35.355  27.421  1.00  0.00    -0.200 F 
ATOM     72  F   UNL A   1      43.434  36.683  26.919  1.00  0.00    -0.200 F 
ENDBRANCH  39  62
ENDBRANCH  13  14
ENDBRANCH   6   8
ENDBRANCH   5   6
ENDBRANCH   4   5
ENDBRANCH   3   4
ENDBRANCH   2   3
ENDBRANCH   1   2
BRANCH   1  73
ATOM     73  C   UNL A   1      34.039  31.543  27.798  1.00  0.00     0.188 C 
BRANCH  73  74
ATOM     74  O   UNL A   1      34.701  30.380  27.310  1.00  0.00    -0.376 OA
BRANCH  74  75
ATOM     75  C   UNL A   1      33.968  29.365  26.653  1.00  0.00     0.202 C 
BRANCH  75  76
ATOM     76  C   UNL A   1      32.546  29.805  26.277  1.00  0.00     0.261 C 
BRANCH  76  77
ATOM     77  O   UNL A   1      31.674  28.729  25.891  1.00  0.00    -0.458 OA
BRANCH  77  78
ATOM     78  C   UNL A   1      31.384  27.825  26.877  1.00  0.00     0.361 C 
ATOM     79  O   UNL A   1      31.131  28.126  28.039  1.00  0.00    -0.244 OA
BRANCH  78  80
ATOM     80  C   UNL A   1      31.381  26.445  26.403  1.00  0.00     0.198 A 
ATOM     81  N   UNL A   1      30.235  25.686  26.451  1.00  0.00    -0.122 NA
ATOM     82  C   UNL A   1      32.384  25.688  25.802  1.00  0.00     0.123 A 
ATOM     83  N   UNL A   1      30.499  24.495  25.938  1.00  0.00    -0.061 NA
ATOM     84  N   UNL A   1      31.838  24.412  25.776  1.00  0.00    -0.213 N 
BRANCH  82  85
ATOM     85  C   UNL A   1      33.703  26.065  25.195  1.00  0.00     0.262 C 
ATOM     86  C   UNL A   1      33.733  25.919  23.666  1.00  0.00     0.281 C 
ATOM     87  O   UNL A   1      34.776  25.388  25.857  1.00  0.00    -0.477 OA
ATOM     88  O   UNL A   1      33.825  24.554  23.250  1.00  0.00    -0.485 OA
ATOM     89  C   UNL A   1      35.356  24.383  25.127  1.00  0.00     0.162 A 
ATOM     90  C   UNL A   1      34.876  23.948  23.888  1.00  0.00     0.161 A 
ATOM     91  C   UNL A   1      36.430  23.725  25.721  1.00  0.00     0.050 A 
ATOM     92  C   UNL A   1      35.419  22.818  23.281  1.00  0.00     0.050 A 
ATOM     93  C   UNL A   1      36.994  22.609  25.101  1.00  0.00     0.004 A 
ATOM     94  C   UNL A   1      36.479  22.147  23.888  1.00  0.00     0.004 A 
ENDBRANCH  82  85
BRANCH  84  95
ATOM     95  C   UNL A   1      32.456  23.182  26.071  1.00  0.00     0.067 A 
ATOM     96  C   UNL A   1      33.194  23.038  27.246  1.00  0.00     0.028 A 
ATOM     97  C   UNL A   1      32.385  22.146  25.129  1.00  0.00     0.041 A 
ATOM     98  C   UNL A   1      33.791  21.808  27.522  1.00  0.00     0.003 A 
ATOM     99  C   UNL A   1      33.039  20.932  25.376  1.00  0.00     0.058 A 
ATOM    100  C   UNL A   1      33.713  20.762  26.597  1.00  0.00     0.013 A 
BRANCH  99 101
ATOM    101  C   UNL A   1      33.014  19.823  24.354  1.00  0.00     0.416 C 
ATOM    102  F   UNL A   1      32.629  20.254  23.121  1.00  0.00    -0.166 F 
ATOM    103  F   UNL A   1      34.234  19.241  24.185  1.00  0.00    -0.166 F 
ATOM    104  F   UNL A   1      32.161  18.810  24.676  1.00  0.00    -0.166 F 
ENDBRANCH  99 101
ENDBRANCH  84  95
ENDBRANCH  78  80
ENDBRANCH  77  78
ENDBRANCH  76  77
ENDBRANCH  75  76
ENDBRANCH  74  75
ENDBRANCH  73  74
ENDBRANCH   1  73
TORSDOF 20
ENDMDL
MODEL 3
REMARK VINA RESULT:     -12.1      3.582      8.978
REMARK SMILES O=C(OCCOCCOCCOC(=O)c1nnn(-c2cccc(C(F)(F)F)c2)c1[C@@H]1COc2ccccc2O1)c1ccc(-c2c3nc(c(-c4c(F)c(F)c(F)c(F)c4F)c4ccc([nH]4)c(-c4c(F)c(F)c(F)c(F)c4F)c4nc(c(-c5c(F)c(F)c(F)c(F)c5F)c5ccc2[nH]5)C=C4)C=C3)cc1
REMARK SMILES IDX 7 1 6 2 5 3 4 4 3 5 2 6 1 7 40 8 41 9 102 10 42 11 101 12
REMARK SMILES IDX 43 13 44 14 45 15 95 16 46 17 100 18 94 19 96 20 47 21 99 22
REMARK SMILES IDX 93 23 92 24 48 26 80 27 60 28 79 29 61 30 64 31 78 32 97 33
REMARK SMILES IDX 62 34 63 35 77 37 98 38 65 39 49 40 50 41 58 42 51 43 52 44
REMARK SMILES IDX 56 45 59 46 53 47 54 48 57 49 55 50 81 51 82 52 90 53 83 54
REMARK SMILES IDX 84 55 88 56 91 57 85 58 86 59 89 60 87 61 66 62 67 63 75 64
REMARK SMILES IDX 68 65 69 66 73 67 76 68 70 69 71 70 74 71 72 72 8 73 9 74
REMARK SMILES IDX 10 75 11 76 12 77 13 78 14 79 15 80 16 81 29 82 17 83 18 84
REMARK SMILES IDX 30 85 31 86 39 87 32 88 38 89 33 90 37 91 34 92 36 93 35 94
REMARK SMILES IDX 19 95 20 96 28 97 21 98 23 99 22 100 24 101 25 102 26 103
REMARK SMILES IDX 27 104
REMARK H PARENT 96 25 64 36
REMARK Flexibility Score: inf
ROOT
ATOM      1  C   UNL A   1      40.576  21.587  27.483  1.00  0.00     0.188 C 
ENDROOT
BRANCH   1   2
ATOM      2  O   UNL A   1      40.697  20.170  27.417  1.00  0.00    -0.376 OA
BRANCH   2   3
ATOM      3  C   UNL A   1      41.998  19.635  27.611  1.00  0.00     0.202 C 
BRANCH   3   4
ATOM      4  C   UNL A   1      42.674  19.075  26.354  1.00  0.00     0.261 C 
BRANCH   4   5
ATOM      5  O   UNL A   1      42.755  19.980  25.242  1.00  0.00    -0.460 OA
BRANCH   5   6
ATOM      6  C   UNL A   1      43.849  20.559  24.710  1.00  0.00     0.338 C 
ATOM      7  O   UNL A   1      44.649  19.906  24.049  1.00  0.00    -0.246 OA
BRANCH   6   8
ATOM      8  C   UNL A   1      44.247  21.914  25.149  1.00  0.00     0.060 A 
ATOM      9  C   UNL A   1      45.249  22.156  26.088  1.00  0.00     0.016 A 
ATOM     10  C   UNL A   1      43.464  22.980  24.666  1.00  0.00     0.016 A 
ATOM     11  C   UNL A   1      45.426  23.428  26.602  1.00  0.00     0.010 A 
ATOM     12  C   UNL A   1      43.617  24.252  25.196  1.00  0.00     0.010 A 
ATOM     13  C   UNL A   1      44.543  24.440  26.224  1.00  0.00    -0.014 A 
BRANCH  13  14
ATOM     14  C   UNL A   1      44.439  25.573  27.137  1.00  0.00     0.031 A 
ATOM     15  C   UNL A   1      45.533  26.581  27.158  1.00  0.00     0.074 A 
ATOM     16  C   UNL A   1      43.324  25.676  27.891  1.00  0.00     0.049 A 
ATOM     17  N   UNL A   1      46.155  27.083  28.182  1.00  0.00    -0.248 NA
ATOM     18  C   UNL A   1      46.014  27.081  25.862  1.00  0.00     0.031 C 
ATOM     19  C   UNL A   1      42.097  24.873  27.785  1.00  0.00     0.029 A 
ATOM     20  N   UNL A   1      43.001  26.607  28.828  1.00  0.00    -0.354 N 
ATOM     21  C   UNL A   1      46.989  28.078  27.674  1.00  0.00     0.074 A 
ATOM     22  C   UNL A   1      46.928  27.976  26.238  1.00  0.00     0.031 C 
ATOM     23  C   UNL A   1      41.097  25.507  28.429  1.00  0.00     0.029 A 
ATOM     24  C   UNL A   1      41.642  26.681  29.084  1.00  0.00     0.049 A 
ATOM     25  H   UNL A   1      43.667  27.173  29.281  1.00  0.00     0.167 HD
ATOM     26  C   UNL A   1      47.538  29.052  28.451  1.00  0.00     0.037 A 
ATOM     27  C   UNL A   1      40.988  27.705  29.679  1.00  0.00     0.037 A 
ATOM     28  C   UNL A   1      47.630  28.676  29.832  1.00  0.00     0.049 A 
ATOM     29  C   UNL A   1      41.982  28.496  30.441  1.00  0.00     0.074 A 
ATOM     30  C   UNL A   1      48.306  27.693  30.527  1.00  0.00     0.029 A 
ATOM     31  N   UNL A   1      46.738  29.204  30.729  1.00  0.00    -0.354 N 
ATOM     32  N   UNL A   1      42.613  28.060  31.498  1.00  0.00    -0.248 NA
ATOM     33  C   UNL A   1      42.595  29.638  29.777  1.00  0.00     0.031 C 
ATOM     34  C   UNL A   1      47.457  27.357  31.621  1.00  0.00     0.029 A 
ATOM     35  C   UNL A   1      46.325  28.166  31.523  1.00  0.00     0.049 A 
ATOM     36  H   UNL A   1      46.451  30.144  30.791  1.00  0.00     0.167 HD
ATOM     37  C   UNL A   1      43.884  28.607  31.407  1.00  0.00     0.074 A 
ATOM     38  C   UNL A   1      43.783  29.645  30.387  1.00  0.00     0.031 C 
ATOM     39  C   UNL A   1      44.964  27.985  31.965  1.00  0.00     0.037 A 
BRANCH  26  40
ATOM     40  C   UNL A   1      47.731  30.467  27.980  1.00  0.00     0.064 A 
ATOM     41  C   UNL A   1      46.628  31.252  27.597  1.00  0.00     0.173 A 
ATOM     42  C   UNL A   1      49.000  30.979  27.633  1.00  0.00     0.173 A 
ATOM     43  F   UNL A   1      45.376  30.833  27.839  1.00  0.00    -0.203 F 
ATOM     44  C   UNL A   1      46.787  32.446  26.888  1.00  0.00     0.198 A 
ATOM     45  C   UNL A   1      49.157  32.195  26.970  1.00  0.00     0.198 A 
ATOM     46  F   UNL A   1      50.121  30.270  27.831  1.00  0.00    -0.203 F 
ATOM     47  F   UNL A   1      45.707  33.113  26.456  1.00  0.00    -0.200 F 
ATOM     48  C   UNL A   1      48.050  32.917  26.576  1.00  0.00     0.200 A 
ATOM     49  F   UNL A   1      50.389  32.621  26.657  1.00  0.00    -0.200 F 
ATOM     50  F   UNL A   1      48.203  34.036  25.858  1.00  0.00    -0.200 F 
ENDBRANCH  26  40
BRANCH  27  51
ATOM     51  C   UNL A   1      39.652  28.207  29.287  1.00  0.00     0.064 A 
ATOM     52  C   UNL A   1      38.607  28.311  30.214  1.00  0.00     0.173 A 
ATOM     53  C   UNL A   1      39.434  28.803  28.026  1.00  0.00     0.173 A 
ATOM     54  F   UNL A   1      38.760  27.829  31.455  1.00  0.00    -0.203 F 
ATOM     55  C   UNL A   1      37.409  28.957  29.892  1.00  0.00     0.198 A 
ATOM     56  C   UNL A   1      38.234  29.430  27.699  1.00  0.00     0.198 A 
ATOM     57  F   UNL A   1      40.414  28.862  27.112  1.00  0.00    -0.203 F 
ATOM     58  F   UNL A   1      36.446  29.078  30.816  1.00  0.00    -0.200 F 
ATOM     59  C   UNL A   1      37.223  29.514  28.634  1.00  0.00     0.200 A 
ATOM     60  F   UNL A   1      38.086  29.996  26.492  1.00  0.00    -0.200 F 
ATOM     61  F   UNL A   1      36.089  30.164  28.339  1.00  0.00    -0.200 F 
ENDBRANCH  27  51
BRANCH  39  62
ATOM     62  C   UNL A   1      44.698  26.814  32.866  1.00  0.00     0.064 A 
ATOM     63  C   UNL A   1      44.585  25.497  32.388  1.00  0.00     0.173 A 
ATOM     64  C   UNL A   1      44.724  26.996  34.254  1.00  0.00     0.173 A 
ATOM     65  F   UNL A   1      44.679  25.235  31.079  1.00  0.00    -0.203 F 
ATOM     66  C   UNL A   1      44.450  24.418  33.258  1.00  0.00     0.198 A 
ATOM     67  C   UNL A   1      44.624  25.912  35.123  1.00  0.00     0.198 A 
ATOM     68  F   UNL A   1      44.908  28.222  34.768  1.00  0.00    -0.203 F 
ATOM     69  F   UNL A   1      44.342  23.172  32.772  1.00  0.00    -0.200 F 
ATOM     70  C   UNL A   1      44.476  24.627  34.626  1.00  0.00     0.200 A 
ATOM     71  F   UNL A   1      44.709  26.109  36.447  1.00  0.00    -0.200 F 
ATOM     72  F   UNL A   1      44.395  23.584  35.465  1.00  0.00    -0.200 F 
ENDBRANCH  39  62
ENDBRANCH  13  14
ENDBRANCH   6   8
ENDBRANCH   5   6
ENDBRANCH   4   5
ENDBRANCH   3   4
ENDBRANCH   2   3
ENDBRANCH   1   2
BRANCH   1  73
ATOM     73  C   UNL A   1      39.644  22.243  26.438  1.00  0.00     0.188 C 
BRANCH  73  74
ATOM     74  O   UNL A   1      38.630  21.521  25.747  1.00  0.00    -0.376 OA
BRANCH  74  75
ATOM     75  C   UNL A   1      37.400  22.144  25.430  1.00  0.00     0.202 C 
BRANCH  75  76
ATOM     76  C   UNL A   1      36.383  21.175  24.812  1.00  0.00     0.261 C 
BRANCH  76  77
ATOM     77  O   UNL A   1      35.104  21.159  25.467  1.00  0.00    -0.458 OA
BRANCH  77  78
ATOM     78  C   UNL A   1      34.061  20.701  24.708  1.00  0.00     0.361 C 
ATOM     79  O   UNL A   1      33.866  19.519  24.442  1.00  0.00    -0.244 OA
BRANCH  78  80
ATOM     80  C   UNL A   1      33.173  21.766  24.256  1.00  0.00     0.198 A 
ATOM     81  N   UNL A   1      32.345  21.581  23.173  1.00  0.00    -0.122 NA
ATOM     82  C   UNL A   1      32.929  23.032  24.783  1.00  0.00     0.123 A 
ATOM     83  N   UNL A   1      31.632  22.683  22.998  1.00  0.00    -0.061 NA
ATOM     84  N   UNL A   1      32.153  23.635  23.803  1.00  0.00    -0.213 N 
BRANCH  82  85
ATOM     85  C   UNL A   1      33.268  23.654  26.106  1.00  0.00     0.262 C 
ATOM     86  C   UNL A   1      32.063  23.761  27.053  1.00  0.00     0.281 C 
ATOM     87  O   UNL A   1      33.963  24.890  25.920  1.00  0.00    -0.477 OA
ATOM     88  O   UNL A   1      31.169  24.814  26.681  1.00  0.00    -0.485 OA
ATOM     89  C   UNL A   1      33.228  26.010  26.210  1.00  0.00     0.162 A 
ATOM     90  C   UNL A   1      31.869  25.982  26.535  1.00  0.00     0.161 A 
ATOM     91  C   UNL A   1      33.882  27.233  26.078  1.00  0.00     0.050 A 
ATOM     92  C   UNL A   1      31.151  27.170  26.660  1.00  0.00     0.050 A 
ATOM     93  C   UNL A   1      33.171  28.424  26.229  1.00  0.00     0.004 A 
ATOM     94  C   UNL A   1      31.803  28.393  26.506  1.00  0.00     0.004 A 
ENDBRANCH  82  85
BRANCH  84  95
ATOM     95  C   UNL A   1      32.232  24.946  23.297  1.00  0.00     0.067 A 
ATOM     96  C   UNL A   1      33.448  25.435  22.818  1.00  0.00     0.028 A 
ATOM     97  C   UNL A   1      31.097  25.766  23.362  1.00  0.00     0.041 A 
ATOM     98  C   UNL A   1      33.502  26.734  22.314  1.00  0.00     0.003 A 
ATOM     99  C   UNL A   1      31.168  27.093  22.916  1.00  0.00     0.058 A 
ATOM    100  C   UNL A   1      32.371  27.556  22.359  1.00  0.00     0.013 A 
BRANCH  99 101
ATOM    101  C   UNL A   1      29.972  28.005  23.022  1.00  0.00     0.416 C 
ATOM    102  F   UNL A   1      30.136  28.978  23.960  1.00  0.00    -0.166 F 
ATOM    103  F   UNL A   1      29.702  28.650  21.854  1.00  0.00    -0.166 F 
ATOM    104  F   UNL A   1      28.823  27.354  23.361  1.00  0.00    -0.166 F 
ENDBRANCH  99 101
ENDBRANCH  84  95
ENDBRANCH  78  80
ENDBRANCH  77  78
ENDBRANCH  76  77
ENDBRANCH  75  76
ENDBRANCH  74  75
ENDBRANCH  73  74
ENDBRANCH   1  73
TORSDOF 20
ENDMDL
