MODEL 1
REMARK VINA RESULT:     -11.1      0.000      0.000
REMARK SMILES Cc1ncccc1C(=O)Nc1ccccc1C(=O)OCCOCCOCCOC(=O)c1ccc(-c2c3nc(c(-c4c(F)c(F)c(F)c(F)c4F)c4ccc([nH]4)c(-c4c(F)c(F)c(F)c(F)c4F)c4nc(c(-c5c(F)c(F)c(F)c(F)c5F)c5ccc2[nH]5)C=C4)C=C3)cc1
REMARK SMILES IDX 23 1 22 2 21 3 20 4 19 5 17 6 18 7 16 8 11 9 12 10 13 11
REMARK SMILES IDX 15 12 14 13 10 14 8 15 9 16 7 18 1 19 2 20 3 21 4 22 6 23
REMARK SMILES IDX 5 24 24 25 25 26 26 27 27 28 28 29 29 30 30 31 31 32 32 33
REMARK SMILES IDX 93 34 33 35 92 36 34 37 35 38 36 39 86 40 37 41 91 42 85 43
REMARK SMILES IDX 87 44 38 45 90 46 84 47 83 48 39 50 71 51 51 52 70 53 52 54
REMARK SMILES IDX 55 55 69 56 88 57 53 58 54 59 68 61 89 62 56 63 40 64 41 65
REMARK SMILES IDX 49 66 42 67 43 68 47 69 50 70 44 71 45 72 48 73 46 74 72 75
REMARK SMILES IDX 73 76 81 77 74 78 75 79 79 80 82 81 76 82 77 83 80 84 78 85
REMARK SMILES IDX 57 86 58 87 66 88 59 89 60 90 64 91 67 92 61 93 62 94 65 95
REMARK SMILES IDX 63 96
REMARK H PARENT 10 17 87 49 55 60
REMARK Flexibility Score: inf
ROOT
ATOM      1  C   UNL A   1      33.306  20.287  25.367  1.00  0.00     0.188 C 
ENDROOT
BRANCH   1   2
ATOM      2  O   UNL A   1      32.154  20.014  24.605  1.00  0.00    -0.376 OA
BRANCH   2   3
ATOM      3  C   UNL A   1      32.198  20.148  23.197  1.00  0.00     0.202 C 
BRANCH   3   4
ATOM      4  C   UNL A   1      31.959  21.471  22.467  1.00  0.00     0.261 C 
BRANCH   4   5
ATOM      5  O   UNL A   1      32.297  22.685  23.155  1.00  0.00    -0.460 OA
BRANCH   5   6
ATOM      6  C   UNL A   1      33.389  23.338  22.672  1.00  0.00     0.340 C 
ATOM      7  O   UNL A   1      33.440  23.962  21.623  1.00  0.00    -0.246 OA
BRANCH   6   8
ATOM      8  C   UNL A   1      34.489  23.393  23.669  1.00  0.00     0.083 A 
ATOM      9  C   UNL A   1      34.373  23.765  25.018  1.00  0.00     0.056 A 
ATOM     10  C   UNL A   1      35.555  23.922  25.772  1.00  0.00     0.027 A 
ATOM     11  C   UNL A   1      36.809  23.606  25.243  1.00  0.00     0.002 A 
ATOM     12  C   UNL A   1      35.766  23.091  23.143  1.00  0.00     0.018 A 
ATOM     13  C   UNL A   1      36.913  23.176  23.929  1.00  0.00     0.001 A 
BRANCH   9  14
ATOM     14  N   UNL A   1      33.200  23.943  25.775  1.00  0.00    -0.321 N 
ATOM     15  C   UNL A   1      32.411  25.024  26.084  1.00  0.00     0.257 C 
ATOM     16  O   UNL A   1      31.486  24.853  26.883  1.00  0.00    -0.269 OA
ATOM     17  H   UNL A   1      32.871  23.105  26.173  1.00  0.00     0.170 HD
BRANCH  15  18
ATOM     18  C   UNL A   1      32.582  26.376  25.510  1.00  0.00     0.061 A 
ATOM     19  C   UNL A   1      30.930  26.171  23.556  1.00  0.00     0.067 C 
ATOM     20  C   UNL A   1      31.984  26.877  24.352  1.00  0.00     0.050 A 
ATOM     21  N   UNL A   1      32.347  28.080  23.825  1.00  0.00    -0.261 NA
ATOM     22  C   UNL A   1      33.278  28.813  24.474  1.00  0.00     0.111 A 
ATOM     23  C   UNL A   1      33.451  27.221  26.219  1.00  0.00     0.017 A 
ATOM     24  C   UNL A   1      33.826  28.447  25.685  1.00  0.00     0.021 A 
ENDBRANCH  15  18
ENDBRANCH   9  14
ENDBRANCH   6   8
ENDBRANCH   5   6
ENDBRANCH   4   5
ENDBRANCH   3   4
ENDBRANCH   2   3
ENDBRANCH   1   2
BRANCH   1  25
ATOM     25  C   UNL A   1      34.628  19.573  25.006  1.00  0.00     0.188 C 
BRANCH  25  26
ATOM     26  O   UNL A   1      35.872  20.178  25.276  1.00  0.00    -0.376 OA
BRANCH  26  27
ATOM     27  C   UNL A   1      37.040  19.672  24.653  1.00  0.00     0.202 C 
BRANCH  27  28
ATOM     28  C   UNL A   1      38.402  19.581  25.369  1.00  0.00     0.261 C 
BRANCH  28  29
ATOM     29  O   UNL A   1      38.969  20.812  25.845  1.00  0.00    -0.460 OA
BRANCH  29  30
ATOM     30  C   UNL A   1      40.140  20.698  26.530  1.00  0.00     0.338 C 
ATOM     31  O   UNL A   1      40.864  19.730  26.592  1.00  0.00    -0.246 OA
BRANCH  30  32
ATOM     32  C   UNL A   1      40.545  22.040  27.022  1.00  0.00     0.060 A 
ATOM     33  C   UNL A   1      39.993  23.176  26.403  1.00  0.00     0.016 A 
ATOM     34  C   UNL A   1      41.450  22.183  28.072  1.00  0.00     0.016 A 
ATOM     35  C   UNL A   1      40.371  24.456  26.809  1.00  0.00     0.010 A 
ATOM     36  C   UNL A   1      41.858  23.467  28.452  1.00  0.00     0.010 A 
ATOM     37  C   UNL A   1      41.352  24.606  27.795  1.00  0.00    -0.014 A 
BRANCH  37  38
ATOM     38  C   UNL A   1      42.054  25.907  27.935  1.00  0.00     0.031 A 
ATOM     39  C   UNL A   1      41.343  27.004  28.683  1.00  0.00     0.074 A 
ATOM     40  C   UNL A   1      43.284  26.123  27.440  1.00  0.00     0.049 A 
ATOM     41  N   UNL A   1      41.690  28.251  28.876  1.00  0.00    -0.248 NA
ATOM     42  C   UNL A   1      40.055  26.635  29.295  1.00  0.00     0.031 C 
ATOM     43  C   UNL A   1      44.111  25.134  26.756  1.00  0.00     0.029 A 
ATOM     44  N   UNL A   1      44.047  27.267  27.433  1.00  0.00    -0.354 N 
ATOM     45  C   UNL A   1      40.659  28.815  29.615  1.00  0.00     0.074 A 
ATOM     46  C   UNL A   1      39.659  27.789  29.806  1.00  0.00     0.031 C 
ATOM     47  C   UNL A   1      45.265  25.718  26.382  1.00  0.00     0.029 A 
ATOM     48  C   UNL A   1      45.239  27.130  26.766  1.00  0.00     0.049 A 
ATOM     49  H   UNL A   1      43.764  28.105  27.864  1.00  0.00     0.167 HD
ATOM     50  C   UNL A   1      40.555  30.075  30.101  1.00  0.00     0.037 A 
ATOM     51  C   UNL A   1      46.185  28.048  26.481  1.00  0.00     0.037 A 
ATOM     52  C   UNL A   1      41.541  31.102  29.899  1.00  0.00     0.049 A 
ATOM     53  C   UNL A   1      46.000  29.476  26.938  1.00  0.00     0.074 A 
ATOM     54  C   UNL A   1      41.529  32.411  30.345  1.00  0.00     0.029 A 
ATOM     55  N   UNL A   1      42.714  30.936  29.176  1.00  0.00    -0.354 N 
ATOM     56  N   UNL A   1      45.029  30.005  27.643  1.00  0.00    -0.248 NA
ATOM     57  C   UNL A   1      47.049  30.434  26.556  1.00  0.00     0.031 C 
ATOM     58  C   UNL A   1      42.664  33.055  29.841  1.00  0.00     0.029 A 
ATOM     59  C   UNL A   1      43.421  32.128  29.142  1.00  0.00     0.049 A 
ATOM     60  H   UNL A   1      43.002  30.096  28.751  1.00  0.00     0.167 HD
ATOM     61  C   UNL A   1      45.369  31.342  27.825  1.00  0.00     0.074 A 
ATOM     62  C   UNL A   1      46.639  31.541  27.160  1.00  0.00     0.031 C 
ATOM     63  C   UNL A   1      44.694  32.313  28.489  1.00  0.00     0.037 A 
BRANCH  50  64
ATOM     64  C   UNL A   1      39.304  30.413  30.862  1.00  0.00     0.064 A 
ATOM     65  C   UNL A   1      38.168  30.939  30.225  1.00  0.00     0.173 A 
ATOM     66  C   UNL A   1      39.245  30.221  32.250  1.00  0.00     0.173 A 
ATOM     67  F   UNL A   1      38.177  31.160  28.901  1.00  0.00    -0.203 F 
ATOM     68  C   UNL A   1      37.039  31.301  30.957  1.00  0.00     0.198 A 
ATOM     69  C   UNL A   1      38.101  30.549  32.973  1.00  0.00     0.198 A 
ATOM     70  F   UNL A   1      40.300  29.720  32.909  1.00  0.00    -0.203 F 
ATOM     71  F   UNL A   1      35.996  31.869  30.337  1.00  0.00    -0.200 F 
ATOM     72  C   UNL A   1      37.005  31.100  32.328  1.00  0.00     0.200 A 
ATOM     73  F   UNL A   1      38.064  30.339  34.296  1.00  0.00    -0.200 F 
ATOM     74  F   UNL A   1      35.918  31.450  33.030  1.00  0.00    -0.200 F 
ENDBRANCH  50  64
BRANCH  51  75
ATOM     75  C   UNL A   1      47.401  27.654  25.720  1.00  0.00     0.064 A 
ATOM     76  C   UNL A   1      48.564  27.243  26.386  1.00  0.00     0.173 A 
ATOM     77  C   UNL A   1      47.437  27.702  24.319  1.00  0.00     0.173 A 
ATOM     78  F   UNL A   1      48.592  27.213  27.728  1.00  0.00    -0.203 F 
ATOM     79  C   UNL A   1      49.720  26.910  25.683  1.00  0.00     0.198 A 
ATOM     80  C   UNL A   1      48.584  27.340  23.614  1.00  0.00     0.198 A 
ATOM     81  F   UNL A   1      46.355  28.098  23.632  1.00  0.00    -0.203 F 
ATOM     82  F   UNL A   1      50.833  26.569  26.347  1.00  0.00    -0.200 F 
ATOM     83  C   UNL A   1      49.726  26.951  24.296  1.00  0.00     0.200 A 
ATOM     84  F   UNL A   1      48.583  27.375  22.275  1.00  0.00    -0.200 F 
ATOM     85  F   UNL A   1      50.837  26.628  23.619  1.00  0.00    -0.200 F 
ENDBRANCH  51  75
BRANCH  63  86
ATOM     86  C   UNL A   1      45.337  33.670  28.589  1.00  0.00     0.064 A 
ATOM     87  C   UNL A   1      46.240  33.993  29.613  1.00  0.00     0.173 A 
ATOM     88  C   UNL A   1      45.079  34.645  27.612  1.00  0.00     0.173 A 
ATOM     89  F   UNL A   1      46.515  33.103  30.578  1.00  0.00    -0.203 F 
ATOM     90  C   UNL A   1      46.836  35.251  29.672  1.00  0.00     0.198 A 
ATOM     91  C   UNL A   1      45.705  35.889  27.655  1.00  0.00     0.198 A 
ATOM     92  F   UNL A   1      44.233  34.387  26.605  1.00  0.00    -0.203 F 
ATOM     93  F   UNL A   1      47.655  35.555  30.689  1.00  0.00    -0.200 F 
ATOM     94  C   UNL A   1      46.575  36.194  28.688  1.00  0.00     0.200 A 
ATOM     95  F   UNL A   1      45.465  36.790  26.693  1.00  0.00    -0.200 F 
ATOM     96  F   UNL A   1      47.157  37.400  28.742  1.00  0.00    -0.200 F 
ENDBRANCH  63  86
ENDBRANCH  37  38
ENDBRANCH  30  32
ENDBRANCH  29  30
ENDBRANCH  28  29
ENDBRANCH  27  28
ENDBRANCH  26  27
ENDBRANCH  25  26
ENDBRANCH   1  25
TORSDOF 19
ENDMDL
MODEL 2
REMARK VINA RESULT:     -10.7      1.476      7.700
REMARK SMILES Cc1ncccc1C(=O)Nc1ccccc1C(=O)OCCOCCOCCOC(=O)c1ccc(-c2c3nc(c(-c4c(F)c(F)c(F)c(F)c4F)c4ccc([nH]4)c(-c4c(F)c(F)c(F)c(F)c4F)c4nc(c(-c5c(F)c(F)c(F)c(F)c5F)c5ccc2[nH]5)C=C4)C=C3)cc1
REMARK SMILES IDX 23 1 22 2 21 3 20 4 19 5 17 6 18 7 16 8 11 9 12 10 13 11
REMARK SMILES IDX 15 12 14 13 10 14 8 15 9 16 7 18 1 19 2 20 3 21 4 22 6 23
REMARK SMILES IDX 5 24 24 25 25 26 26 27 27 28 28 29 29 30 30 31 31 32 32 33
REMARK SMILES IDX 93 34 33 35 92 36 34 37 35 38 36 39 86 40 37 41 91 42 85 43
REMARK SMILES IDX 87 44 38 45 90 46 84 47 83 48 39 50 71 51 51 52 70 53 52 54
REMARK SMILES IDX 55 55 69 56 88 57 53 58 54 59 68 61 89 62 56 63 40 64 41 65
REMARK SMILES IDX 49 66 42 67 43 68 47 69 50 70 44 71 45 72 48 73 46 74 72 75
REMARK SMILES IDX 73 76 81 77 74 78 75 79 79 80 82 81 76 82 77 83 80 84 78 85
REMARK SMILES IDX 57 86 58 87 66 88 59 89 60 90 64 91 67 92 61 93 62 94 65 95
REMARK SMILES IDX 63 96
REMARK H PARENT 10 17 87 49 55 60
REMARK Flexibility Score: inf
ROOT
ATOM      1  C   UNL A   1      35.154  21.487  24.958  1.00  0.00     0.188 C 
ENDROOT
BRANCH   1   2
ATOM      2  O   UNL A   1      33.859  22.039  24.898  1.00  0.00    -0.376 OA
BRANCH   2   3
ATOM      3  C   UNL A   1      33.626  23.194  24.115  1.00  0.00     0.202 C 
BRANCH   3   4
ATOM      4  C   UNL A   1      33.242  24.551  24.707  1.00  0.00     0.261 C 
BRANCH   4   5
ATOM      5  O   UNL A   1      31.847  24.889  24.755  1.00  0.00    -0.460 OA
BRANCH   5   6
ATOM      6  C   UNL A   1      31.426  25.440  25.927  1.00  0.00     0.340 C 
ATOM      7  O   UNL A   1      31.067  24.821  26.916  1.00  0.00    -0.246 OA
BRANCH   6   8
ATOM      8  C   UNL A   1      31.644  26.909  25.959  1.00  0.00     0.083 A 
ATOM      9  C   UNL A   1      31.989  27.725  24.869  1.00  0.00     0.056 A 
ATOM     10  C   UNL A   1      32.320  29.073  25.122  1.00  0.00     0.027 A 
ATOM     11  C   UNL A   1      32.200  29.630  26.397  1.00  0.00     0.002 A 
ATOM     12  C   UNL A   1      31.540  27.484  27.246  1.00  0.00     0.018 A 
ATOM     13  C   UNL A   1      31.795  28.837  27.460  1.00  0.00     0.001 A 
BRANCH   9  14
ATOM     14  N   UNL A   1      31.986  27.398  23.500  1.00  0.00    -0.321 N 
ATOM     15  C   UNL A   1      31.104  27.601  22.467  1.00  0.00     0.257 C 
ATOM     16  O   UNL A   1      31.362  27.080  21.379  1.00  0.00    -0.269 OA
ATOM     17  H   UNL A   1      32.796  26.914  23.221  1.00  0.00     0.170 HD
BRANCH  15  18
ATOM     18  C   UNL A   1      29.878  28.420  22.563  1.00  0.00     0.061 A 
ATOM     19  C   UNL A   1      28.418  26.767  23.876  1.00  0.00     0.067 C 
ATOM     20  C   UNL A   1      28.657  28.040  23.125  1.00  0.00     0.050 A 
ATOM     21  N   UNL A   1      27.544  28.817  23.004  1.00  0.00    -0.261 NA
ATOM     22  C   UNL A   1      27.650  30.000  22.361  1.00  0.00     0.111 A 
ATOM     23  C   UNL A   1      29.974  29.709  22.012  1.00  0.00     0.017 A 
ATOM     24  C   UNL A   1      28.842  30.504  21.886  1.00  0.00     0.021 A 
ENDBRANCH  15  18
ENDBRANCH   9  14
ENDBRANCH   6   8
ENDBRANCH   5   6
ENDBRANCH   4   5
ENDBRANCH   3   4
ENDBRANCH   2   3
ENDBRANCH   1   2
BRANCH   1  25
ATOM     25  C   UNL A   1      35.311  19.951  24.996  1.00  0.00     0.188 C 
BRANCH  25  26
ATOM     26  O   UNL A   1      36.585  19.353  24.911  1.00  0.00    -0.376 OA
BRANCH  26  27
ATOM     27  C   UNL A   1      37.741  20.164  25.033  1.00  0.00     0.202 C 
BRANCH  27  28
ATOM     28  C   UNL A   1      39.131  19.597  25.383  1.00  0.00     0.261 C 
BRANCH  28  29
ATOM     29  O   UNL A   1      39.695  19.990  26.643  1.00  0.00    -0.460 OA
BRANCH  29  30
ATOM     30  C   UNL A   1      41.000  20.374  26.615  1.00  0.00     0.338 C 
ATOM     31  O   UNL A   1      41.928  19.785  26.106  1.00  0.00    -0.246 OA
BRANCH  30  32
ATOM     32  C   UNL A   1      41.105  21.772  27.104  1.00  0.00     0.060 A 
ATOM     33  C   UNL A   1      40.301  22.756  26.501  1.00  0.00     0.016 A 
ATOM     34  C   UNL A   1      41.975  22.113  28.138  1.00  0.00     0.016 A 
ATOM     35  C   UNL A   1      40.391  24.088  26.905  1.00  0.00     0.010 A 
ATOM     36  C   UNL A   1      42.093  23.457  28.516  1.00  0.00     0.010 A 
ATOM     37  C   UNL A   1      41.332  24.454  27.874  1.00  0.00    -0.014 A 
BRANCH  37  38
ATOM     38  C   UNL A   1      41.728  25.878  28.006  1.00  0.00     0.031 A 
ATOM     39  C   UNL A   1      43.081  26.276  27.478  1.00  0.00     0.074 A 
ATOM     40  C   UNL A   1      40.926  26.805  28.557  1.00  0.00     0.049 A 
ATOM     41  N   UNL A   1      43.703  27.425  27.541  1.00  0.00    -0.248 NA
ATOM     42  C   UNL A   1      43.835  25.220  26.782  1.00  0.00     0.031 C 
ATOM     43  C   UNL A   1      39.571  26.575  29.047  1.00  0.00     0.029 A 
ATOM     44  N   UNL A   1      41.154  28.139  28.804  1.00  0.00    -0.354 N 
ATOM     45  C   UNL A   1      44.924  27.224  26.910  1.00  0.00     0.074 A 
ATOM     46  C   UNL A   1      44.970  25.838  26.502  1.00  0.00     0.031 C 
ATOM     47  C   UNL A   1      39.090  27.726  29.550  1.00  0.00     0.029 A 
ATOM     48  C   UNL A   1      40.117  28.763  29.452  1.00  0.00     0.049 A 
ATOM     49  H   UNL A   1      41.982  28.601  28.541  1.00  0.00     0.167 HD
ATOM     50  C   UNL A   1      45.917  28.116  26.680  1.00  0.00     0.037 A 
ATOM     51  C   UNL A   1      40.025  30.021  29.930  1.00  0.00     0.037 A 
ATOM     52  C   UNL A   1      45.880  29.491  27.099  1.00  0.00     0.049 A 
ATOM     53  C   UNL A   1      41.187  30.971  29.761  1.00  0.00     0.074 A 
ATOM     54  C   UNL A   1      46.835  30.475  26.920  1.00  0.00     0.029 A 
ATOM     55  N   UNL A   1      44.830  30.074  27.796  1.00  0.00    -0.354 N 
ATOM     56  N   UNL A   1      42.336  30.782  29.157  1.00  0.00    -0.248 NA
ATOM     57  C   UNL A   1      41.035  32.313  30.343  1.00  0.00     0.031 C 
ATOM     58  C   UNL A   1      46.392  31.636  27.562  1.00  0.00     0.029 A 
ATOM     59  C   UNL A   1      45.128  31.398  28.078  1.00  0.00     0.049 A 
ATOM     60  H   UNL A   1      43.998  29.615  28.052  1.00  0.00     0.167 HD
ATOM     61  C   UNL A   1      43.023  31.987  29.248  1.00  0.00     0.074 A 
ATOM     62  C   UNL A   1      42.159  32.904  29.963  1.00  0.00     0.031 C 
ATOM     63  C   UNL A   1      44.254  32.308  28.777  1.00  0.00     0.037 A 
BRANCH  50  64
ATOM     64  C   UNL A   1      47.144  27.607  25.979  1.00  0.00     0.064 A 
ATOM     65  C   UNL A   1      48.271  27.158  26.687  1.00  0.00     0.173 A 
ATOM     66  C   UNL A   1      47.199  27.579  24.577  1.00  0.00     0.173 A 
ATOM     67  F   UNL A   1      48.279  27.181  28.029  1.00  0.00    -0.203 F 
ATOM     68  C   UNL A   1      49.421  26.746  26.018  1.00  0.00     0.198 A 
ATOM     69  C   UNL A   1      48.337  27.129  23.912  1.00  0.00     0.198 A 
ATOM     70  F   UNL A   1      46.151  27.993  23.850  1.00  0.00    -0.203 F 
ATOM     71  F   UNL A   1      50.510  26.393  26.716  1.00  0.00    -0.200 F 
ATOM     72  C   UNL A   1      49.451  26.726  24.632  1.00  0.00     0.200 A 
ATOM     73  F   UNL A   1      48.358  27.096  22.572  1.00  0.00    -0.200 F 
ATOM     74  F   UNL A   1      50.558  26.330  23.990  1.00  0.00    -0.200 F 
ENDBRANCH  50  64
BRANCH  51  75
ATOM     75  C   UNL A   1      38.784  30.467  30.620  1.00  0.00     0.064 A 
ATOM     76  C   UNL A   1      37.695  30.965  29.891  1.00  0.00     0.173 A 
ATOM     77  C   UNL A   1      38.668  30.429  32.017  1.00  0.00     0.173 A 
ATOM     78  F   UNL A   1      37.770  31.055  28.554  1.00  0.00    -0.203 F 
ATOM     79  C   UNL A   1      36.545  31.421  30.532  1.00  0.00     0.198 A 
ATOM     80  C   UNL A   1      37.505  30.856  32.656  1.00  0.00     0.198 A 
ATOM     81  F   UNL A   1      39.684  29.970  32.763  1.00  0.00    -0.203 F 
ATOM     82  F   UNL A   1      35.540  31.940  29.813  1.00  0.00    -0.200 F 
ATOM     83  C   UNL A   1      36.449  31.359  31.914  1.00  0.00     0.200 A 
ATOM     84  F   UNL A   1      37.414  30.789  33.991  1.00  0.00    -0.200 F 
ATOM     85  F   UNL A   1      35.341  31.795  32.530  1.00  0.00    -0.200 F 
ENDBRANCH  51  75
BRANCH  63  86
ATOM     86  C   UNL A   1      44.726  33.725  28.959  1.00  0.00     0.064 A 
ATOM     87  C   UNL A   1      45.471  34.125  30.078  1.00  0.00     0.173 A 
ATOM     88  C   UNL A   1      44.468  34.686  27.967  1.00  0.00     0.173 A 
ATOM     89  F   UNL A   1      45.738  33.252  31.060  1.00  0.00    -0.203 F 
ATOM     90  C   UNL A   1      45.911  35.441  30.212  1.00  0.00     0.198 A 
ATOM     91  C   UNL A   1      44.941  35.990  28.088  1.00  0.00     0.198 A 
ATOM     92  F   UNL A   1      43.770  34.356  26.871  1.00  0.00    -0.203 F 
ATOM     93  F   UNL A   1      46.576  35.813  31.316  1.00  0.00    -0.200 F 
ATOM     94  C   UNL A   1      45.655  36.369  29.214  1.00  0.00     0.200 A 
ATOM     95  F   UNL A   1      44.707  36.879  27.114  1.00  0.00    -0.200 F 
ATOM     96  F   UNL A   1      46.088  37.630  29.341  1.00  0.00    -0.200 F 
ENDBRANCH  63  86
ENDBRANCH  37  38
ENDBRANCH  30  32
ENDBRANCH  29  30
ENDBRANCH  28  29
ENDBRANCH  27  28
ENDBRANCH  26  27
ENDBRANCH  25  26
ENDBRANCH   1  25
TORSDOF 19
ENDMDL
MODEL 3
REMARK VINA RESULT:     -10.6      4.556      7.362
REMARK SMILES Cc1ncccc1C(=O)Nc1ccccc1C(=O)OCCOCCOCCOC(=O)c1ccc(-c2c3nc(c(-c4c(F)c(F)c(F)c(F)c4F)c4ccc([nH]4)c(-c4c(F)c(F)c(F)c(F)c4F)c4nc(c(-c5c(F)c(F)c(F)c(F)c5F)c5ccc2[nH]5)C=C4)C=C3)cc1
REMARK SMILES IDX 23 1 22 2 21 3 20 4 19 5 17 6 18 7 16 8 11 9 12 10 13 11
REMARK SMILES IDX 15 12 14 13 10 14 8 15 9 16 7 18 1 19 2 20 3 21 4 22 6 23
REMARK SMILES IDX 5 24 24 25 25 26 26 27 27 28 28 29 29 30 30 31 31 32 32 33
REMARK SMILES IDX 93 34 33 35 92 36 34 37 35 38 36 39 86 40 37 41 91 42 85 43
REMARK SMILES IDX 87 44 38 45 90 46 84 47 83 48 39 50 71 51 51 52 70 53 52 54
REMARK SMILES IDX 55 55 69 56 88 57 53 58 54 59 68 61 89 62 56 63 40 64 41 65
REMARK SMILES IDX 49 66 42 67 43 68 47 69 50 70 44 71 45 72 48 73 46 74 72 75
REMARK SMILES IDX 73 76 81 77 74 78 75 79 79 80 82 81 76 82 77 83 80 84 78 85
REMARK SMILES IDX 57 86 58 87 66 88 59 89 60 90 64 91 67 92 61 93 62 94 65 95
REMARK SMILES IDX 63 96
REMARK H PARENT 10 17 87 49 55 60
REMARK Flexibility Score: inf
ROOT
ATOM      1  C   UNL A   1      40.598  20.293  26.210  1.00  0.00     0.188 C 
ENDROOT
BRANCH   1   2
ATOM      2  O   UNL A   1      40.206  21.571  25.765  1.00  0.00    -0.376 OA
BRANCH   2   3
ATOM      3  C   UNL A   1      39.410  22.389  26.600  1.00  0.00     0.202 C 
BRANCH   3   4
ATOM      4  C   UNL A   1      38.243  23.236  26.088  1.00  0.00     0.261 C 
BRANCH   4   5
ATOM      5  O   UNL A   1      37.223  22.576  25.323  1.00  0.00    -0.460 OA
BRANCH   5   6
ATOM      6  C   UNL A   1      36.046  23.254  25.224  1.00  0.00     0.340 C 
ATOM      7  O   UNL A   1      35.906  24.460  25.360  1.00  0.00    -0.246 OA
BRANCH   6   8
ATOM      8  C   UNL A   1      34.950  22.389  24.719  1.00  0.00     0.083 A 
ATOM      9  C   UNL A   1      34.028  22.714  23.711  1.00  0.00     0.056 A 
ATOM     10  C   UNL A   1      32.950  21.834  23.481  1.00  0.00     0.027 A 
ATOM     11  C   UNL A   1      32.849  20.610  24.146  1.00  0.00     0.002 A 
ATOM     12  C   UNL A   1      34.827  21.153  25.395  1.00  0.00     0.018 A 
ATOM     13  C   UNL A   1      33.798  20.262  25.096  1.00  0.00     0.001 A 
BRANCH   9  14
ATOM     14  N   UNL A   1      34.065  23.799  22.814  1.00  0.00    -0.321 N 
ATOM     15  C   UNL A   1      33.492  25.046  22.791  1.00  0.00     0.257 C 
ATOM     16  O   UNL A   1      33.646  25.733  21.778  1.00  0.00    -0.269 OA
ATOM     17  H   UNL A   1      34.628  23.623  22.026  1.00  0.00     0.170 HD
BRANCH  15  18
ATOM     18  C   UNL A   1      32.718  25.632  23.906  1.00  0.00     0.061 A 
ATOM     19  C   UNL A   1      30.489  24.427  23.497  1.00  0.00     0.067 C 
ATOM     20  C   UNL A   1      31.368  25.419  24.193  1.00  0.00     0.050 A 
ATOM     21  N   UNL A   1      30.719  26.145  25.147  1.00  0.00    -0.261 NA
ATOM     22  C   UNL A   1      31.422  27.057  25.853  1.00  0.00     0.111 A 
ATOM     23  C   UNL A   1      33.439  26.498  24.744  1.00  0.00     0.017 A 
ATOM     24  C   UNL A   1      32.782  27.241  25.716  1.00  0.00     0.021 A 
ENDBRANCH  15  18
ENDBRANCH   9  14
ENDBRANCH   6   8
ENDBRANCH   5   6
ENDBRANCH   4   5
ENDBRANCH   3   4
ENDBRANCH   2   3
ENDBRANCH   1   2
BRANCH   1  25
ATOM     25  C   UNL A   1      42.103  19.984  26.367  1.00  0.00     0.188 C 
BRANCH  25  26
ATOM     26  O   UNL A   1      42.974  20.054  25.261  1.00  0.00    -0.376 OA
BRANCH  26  27
ATOM     27  C   UNL A   1      44.125  20.877  25.334  1.00  0.00     0.202 C 
BRANCH  27  28
ATOM     28  C   UNL A   1      44.222  22.249  24.638  1.00  0.00     0.261 C 
BRANCH  28  29
ATOM     29  O   UNL A   1      43.415  23.308  25.174  1.00  0.00    -0.460 OA
BRANCH  29  30
ATOM     30  C   UNL A   1      44.020  24.524  25.269  1.00  0.00     0.338 C 
ATOM     31  O   UNL A   1      44.904  24.962  24.566  1.00  0.00    -0.246 OA
BRANCH  30  32
ATOM     32  C   UNL A   1      43.268  25.365  26.235  1.00  0.00     0.060 A 
ATOM     33  C   UNL A   1      43.679  26.696  26.428  1.00  0.00     0.016 A 
ATOM     34  C   UNL A   1      42.178  24.858  26.940  1.00  0.00     0.016 A 
ATOM     35  C   UNL A   1      43.023  27.512  27.350  1.00  0.00     0.010 A 
ATOM     36  C   UNL A   1      41.546  25.665  27.894  1.00  0.00     0.010 A 
ATOM     37  C   UNL A   1      41.992  26.980  28.132  1.00  0.00    -0.014 A 
BRANCH  37  38
ATOM     38  C   UNL A   1      41.582  27.680  29.375  1.00  0.00     0.031 A 
ATOM     39  C   UNL A   1      40.348  28.541  29.313  1.00  0.00     0.074 A 
ATOM     40  C   UNL A   1      42.256  27.558  30.532  1.00  0.00     0.049 A 
ATOM     41  N   UNL A   1      39.822  29.322  30.222  1.00  0.00    -0.248 NA
ATOM     42  C   UNL A   1      39.608  28.515  28.041  1.00  0.00     0.031 C 
ATOM     43  C   UNL A   1      43.422  26.709  30.750  1.00  0.00     0.029 A 
ATOM     44  N   UNL A   1      42.048  28.170  31.745  1.00  0.00    -0.354 N 
ATOM     45  C   UNL A   1      38.703  29.889  29.626  1.00  0.00     0.074 A 
ATOM     46  C   UNL A   1      38.645  29.392  28.269  1.00  0.00     0.031 C 
ATOM     47  C   UNL A   1      43.839  26.864  32.021  1.00  0.00     0.029 A 
ATOM     48  C   UNL A   1      42.991  27.850  32.691  1.00  0.00     0.049 A 
ATOM     49  H   UNL A   1      41.295  28.779  31.920  1.00  0.00     0.167 HD
ATOM     50  C   UNL A   1      37.797  30.742  30.160  1.00  0.00     0.037 A 
ATOM     51  C   UNL A   1      43.159  28.322  33.943  1.00  0.00     0.037 A 
ATOM     52  C   UNL A   1      37.861  31.249  31.505  1.00  0.00     0.049 A 
ATOM     53  C   UNL A   1      42.200  29.356  34.485  1.00  0.00     0.074 A 
ATOM     54  C   UNL A   1      36.997  32.121  32.141  1.00  0.00     0.029 A 
ATOM     55  N   UNL A   1      38.861  30.938  32.416  1.00  0.00    -0.354 N 
ATOM     56  N   UNL A   1      41.140  29.884  33.923  1.00  0.00    -0.248 NA
ATOM     57  C   UNL A   1      42.467  29.858  35.842  1.00  0.00     0.031 C 
ATOM     58  C   UNL A   1      37.505  32.387  33.417  1.00  0.00     0.029 A 
ATOM     59  C   UNL A   1      38.647  31.623  33.603  1.00  0.00     0.049 A 
ATOM     60  H   UNL A   1      39.610  30.323  32.246  1.00  0.00     0.167 HD
ATOM     61  C   UNL A   1      40.590  30.744  34.868  1.00  0.00     0.074 A 
ATOM     62  C   UNL A   1      41.433  30.664  36.042  1.00  0.00     0.031 C 
ATOM     63  C   UNL A   1      39.484  31.525  34.773  1.00  0.00     0.037 A 
BRANCH  50  64
ATOM     64  C   UNL A   1      36.685  31.207  29.264  1.00  0.00     0.064 A 
ATOM     65  C   UNL A   1      36.620  32.526  28.785  1.00  0.00     0.173 A 
ATOM     66  C   UNL A   1      35.661  30.325  28.889  1.00  0.00     0.173 A 
ATOM     67  F   UNL A   1      37.564  33.416  29.129  1.00  0.00    -0.203 F 
ATOM     68  C   UNL A   1      35.549  32.954  28.004  1.00  0.00     0.198 A 
ATOM     69  C   UNL A   1      34.612  30.746  28.076  1.00  0.00     0.198 A 
ATOM     70  F   UNL A   1      35.673  29.053  29.315  1.00  0.00    -0.203 F 
ATOM     71  F   UNL A   1      35.472  34.236  27.621  1.00  0.00    -0.200 F 
ATOM     72  C   UNL A   1      34.550  32.062  27.646  1.00  0.00     0.200 A 
ATOM     73  F   UNL A   1      33.655  29.879  27.718  1.00  0.00    -0.200 F 
ATOM     74  F   UNL A   1      33.520  32.476  26.895  1.00  0.00    -0.200 F 
ENDBRANCH  50  64
BRANCH  51  75
ATOM     75  C   UNL A   1      44.283  27.825  34.782  1.00  0.00     0.064 A 
ATOM     76  C   UNL A   1      45.535  28.454  34.752  1.00  0.00     0.173 A 
ATOM     77  C   UNL A   1      44.138  26.702  35.610  1.00  0.00     0.173 A 
ATOM     78  F   UNL A   1      45.734  29.511  33.950  1.00  0.00    -0.203 F 
ATOM     79  C   UNL A   1      46.604  27.971  35.505  1.00  0.00     0.198 A 
ATOM     80  C   UNL A   1      45.199  26.238  36.387  1.00  0.00     0.198 A 
ATOM     81  F   UNL A   1      42.964  26.057  35.668  1.00  0.00    -0.203 F 
ATOM     82  F   UNL A   1      47.803  28.562  35.419  1.00  0.00    -0.200 F 
ATOM     83  C   UNL A   1      46.432  26.868  36.328  1.00  0.00     0.200 A 
ATOM     84  F   UNL A   1      45.027  25.176  37.185  1.00  0.00    -0.200 F 
ATOM     85  F   UNL A   1      47.459  26.405  37.055  1.00  0.00    -0.200 F 
ENDBRANCH  51  75
BRANCH  63  86
ATOM     86  C   UNL A   1      39.076  32.312  35.989  1.00  0.00     0.064 A 
ATOM     87  C   UNL A   1      38.262  31.765  36.992  1.00  0.00     0.173 A 
ATOM     88  C   UNL A   1      39.552  33.620  36.173  1.00  0.00     0.173 A 
ATOM     89  F   UNL A   1      37.772  30.523  36.863  1.00  0.00    -0.203 F 
ATOM     90  C   UNL A   1      37.915  32.510  38.117  1.00  0.00     0.198 A 
ATOM     91  C   UNL A   1      39.231  34.348  37.317  1.00  0.00     0.198 A 
ATOM     92  F   UNL A   1      40.342  34.190  35.252  1.00  0.00    -0.203 F 
ATOM     93  F   UNL A   1      37.093  31.984  39.037  1.00  0.00    -0.200 F 
ATOM     94  C   UNL A   1      38.406  33.796  38.283  1.00  0.00     0.200 A 
ATOM     95  F   UNL A   1      39.723  35.583  37.482  1.00  0.00    -0.200 F 
ATOM     96  F   UNL A   1      38.078  34.506  39.371  1.00  0.00    -0.200 F 
ENDBRANCH  63  86
ENDBRANCH  37  38
ENDBRANCH  30  32
ENDBRANCH  29  30
ENDBRANCH  28  29
ENDBRANCH  27  28
ENDBRANCH  26  27
ENDBRANCH  25  26
ENDBRANCH   1  25
TORSDOF 19
ENDMDL
