MODEL 1
REMARK VINA RESULT:     -10.6      0.000      0.000
REMARK SMILES C[N@H+]([C@@H]1CCOC2(CCCC2)C1)C(C)(C)C(=O)OCCOCCOCCOC(=O)c1ccc(-c2c3nc(c(-c4c(F)c(F)c(F)c(F)c4F)c4ccc([nH]4)c(-c4c(F)c(F)c(F)c(F)c4F)c4nc(c(-c5c(F)c(F)c(F)c(F)c5F)c5ccc2[nH]5)C=C4)C=C3)cc1
REMARK SMILES IDX 22 1 21 2 20 3 19 4 18 5 16 6 17 7 13 8 14 9 15 10 2 11 1 12
REMARK SMILES IDX 3 14 4 15 12 16 5 17 7 18 6 19 8 20 11 21 9 22 10 23 23 24
REMARK SMILES IDX 24 25 25 26 26 27 27 28 28 29 29 30 30 31 31 32 92 33 32 34
REMARK SMILES IDX 91 35 33 36 34 37 35 38 85 39 36 40 90 41 84 42 86 43 37 44
REMARK SMILES IDX 89 45 83 46 82 47 38 49 70 50 50 51 69 52 51 53 54 54 68 55
REMARK SMILES IDX 87 56 52 57 53 58 67 60 88 61 55 62 39 63 40 64 48 65 41 66
REMARK SMILES IDX 42 67 46 68 49 69 43 70 44 71 47 72 45 73 71 74 72 75 80 76
REMARK SMILES IDX 73 77 74 78 78 79 81 80 75 81 76 82 79 83 77 84 56 85 57 86
REMARK SMILES IDX 65 87 58 88 59 89 63 90 66 91 60 92 61 93 64 94 62 95
REMARK H PARENT 2 13 86 48 54 59
REMARK Flexibility Score: inf
ROOT
ATOM      1  C   UNL A   1      35.105  31.337  28.182  1.00  0.00     0.188 C 
ENDROOT
BRANCH   1   2
ATOM      2  O   UNL A   1      33.952  30.715  27.644  1.00  0.00    -0.376 OA
BRANCH   2   3
ATOM      3  C   UNL A   1      34.189  29.516  26.924  1.00  0.00     0.202 C 
BRANCH   3   4
ATOM      4  C   UNL A   1      33.205  28.347  27.130  1.00  0.00     0.261 C 
BRANCH   4   5
ATOM      5  O   UNL A   1      32.968  27.398  26.073  1.00  0.00    -0.459 OA
BRANCH   5   6
ATOM      6  C   UNL A   1      31.691  26.978  25.864  1.00  0.00     0.367 C 
ATOM      7  O   UNL A   1      31.022  26.505  26.772  1.00  0.00    -0.245 OA
BRANCH   6   8
ATOM      8  C   UNL A   1      31.220  27.188  24.386  1.00  0.00     0.190 C 
ATOM      9  C   UNL A   1      31.255  28.729  24.160  1.00  0.00     0.092 C 
ATOM     10  C   UNL A   1      29.679  26.942  24.195  1.00  0.00     0.092 C 
BRANCH   8  11
ATOM     11  N   UNL A   1      32.013  26.339  23.406  1.00  0.00    -0.321 N 
ATOM     12  C   UNL A   1      32.893  27.048  22.465  1.00  0.00     0.333 C 
ATOM     13  H   UNL A   1      32.437  25.980  24.261  1.00  0.00     0.349 HD
BRANCH  11  14
ATOM     14  C   UNL A   1      31.603  25.034  22.806  1.00  0.00     0.189 C 
ATOM     15  C   UNL A   1      30.641  24.010  23.410  1.00  0.00     0.093 C 
ATOM     16  C   UNL A   1      32.860  24.150  22.610  1.00  0.00     0.100 C 
ATOM     17  C   UNL A   1      31.126  23.442  24.720  1.00  0.00     0.167 C 
ATOM     18  C   UNL A   1      33.474  23.834  23.976  1.00  0.00     0.074 C 
ATOM     19  O   UNL A   1      32.510  23.625  25.022  1.00  0.00    -0.375 OA
ATOM     20  C   UNL A   1      34.410  22.610  23.990  1.00  0.00     0.036 C 
ATOM     21  C   UNL A   1      34.429  24.982  24.376  1.00  0.00     0.036 C 
ATOM     22  C   UNL A   1      35.701  23.056  24.696  1.00  0.00     0.003 C 
ATOM     23  C   UNL A   1      35.364  24.362  25.382  1.00  0.00     0.003 C 
ENDBRANCH  11  14
ENDBRANCH   8  11
ENDBRANCH   6   8
ENDBRANCH   5   6
ENDBRANCH   4   5
ENDBRANCH   3   4
ENDBRANCH   2   3
ENDBRANCH   1   2
BRANCH   1  24
ATOM     24  C   UNL A   1      35.101  32.852  28.006  1.00  0.00     0.188 C 
BRANCH  24  25
ATOM     25  O   UNL A   1      34.516  33.709  28.967  1.00  0.00    -0.376 OA
BRANCH  25  26
ATOM     26  C   UNL A   1      34.264  35.047  28.573  1.00  0.00     0.202 C 
BRANCH  26  27
ATOM     27  C   UNL A   1      33.138  35.836  29.277  1.00  0.00     0.261 C 
BRANCH  27  28
ATOM     28  O   UNL A   1      32.471  35.180  30.375  1.00  0.00    -0.460 OA
BRANCH  28  29
ATOM     29  C   UNL A   1      32.679  35.713  31.612  1.00  0.00     0.338 C 
ATOM     30  O   UNL A   1      31.976  36.514  32.190  1.00  0.00    -0.246 OA
BRANCH  29  31
ATOM     31  C   UNL A   1      33.799  34.990  32.284  1.00  0.00     0.060 A 
ATOM     32  C   UNL A   1      35.082  35.572  32.289  1.00  0.00     0.016 A 
ATOM     33  C   UNL A   1      33.602  33.750  32.888  1.00  0.00     0.016 A 
ATOM     34  C   UNL A   1      36.164  34.919  32.882  1.00  0.00     0.010 A 
ATOM     35  C   UNL A   1      34.698  33.072  33.438  1.00  0.00     0.010 A 
ATOM     36  C   UNL A   1      35.988  33.638  33.413  1.00  0.00    -0.014 A 
BRANCH  36  37
ATOM     37  C   UNL A   1      37.166  32.786  33.727  1.00  0.00     0.031 A 
ATOM     38  C   UNL A   1      37.897  33.046  35.017  1.00  0.00     0.074 A 
ATOM     39  C   UNL A   1      37.600  31.821  32.897  1.00  0.00     0.049 A 
ATOM     40  N   UNL A   1      39.038  32.571  35.443  1.00  0.00    -0.248 NA
ATOM     41  C   UNL A   1      37.248  33.983  35.949  1.00  0.00     0.031 C 
ATOM     42  C   UNL A   1      36.950  31.412  31.656  1.00  0.00     0.029 A 
ATOM     43  N   UNL A   1      38.720  31.026  32.971  1.00  0.00    -0.354 N 
ATOM     44  C   UNL A   1      39.256  33.169  36.679  1.00  0.00     0.074 A 
ATOM     45  C   UNL A   1      38.139  34.054  36.925  1.00  0.00     0.031 C 
ATOM     46  C   UNL A   1      37.700  30.464  31.065  1.00  0.00     0.029 A 
ATOM     47  C   UNL A   1      38.905  30.235  31.864  1.00  0.00     0.049 A 
ATOM     48  H   UNL A   1      39.330  31.023  33.744  1.00  0.00     0.167 HD
ATOM     49  C   UNL A   1      40.295  32.998  37.530  1.00  0.00     0.037 A 
ATOM     50  C   UNL A   1      39.948  29.451  31.517  1.00  0.00     0.037 A 
ATOM     51  C   UNL A   1      41.406  32.117  37.284  1.00  0.00     0.049 A 
ATOM     52  C   UNL A   1      41.143  29.349  32.436  1.00  0.00     0.074 A 
ATOM     53  C   UNL A   1      42.499  31.864  38.092  1.00  0.00     0.029 A 
ATOM     54  N   UNL A   1      41.568  31.352  36.138  1.00  0.00    -0.354 N 
ATOM     55  N   UNL A   1      41.344  29.911  33.604  1.00  0.00    -0.248 NA
ATOM     56  C   UNL A   1      42.258  28.503  31.985  1.00  0.00     0.031 C 
ATOM     57  C   UNL A   1      43.356  30.995  37.408  1.00  0.00     0.029 A 
ATOM     58  C   UNL A   1      42.760  30.650  36.206  1.00  0.00     0.049 A 
ATOM     59  H   UNL A   1      40.931  31.313  35.389  1.00  0.00     0.167 HD
ATOM     60  C   UNL A   1      42.584  29.459  34.041  1.00  0.00     0.074 A 
ATOM     61  C   UNL A   1      43.088  28.569  33.017  1.00  0.00     0.031 C 
ATOM     62  C   UNL A   1      43.245  29.751  35.188  1.00  0.00     0.037 A 
BRANCH  49  63
ATOM     63  C   UNL A   1      40.300  33.811  38.791  1.00  0.00     0.064 A 
ATOM     64  C   UNL A   1      40.992  35.027  38.889  1.00  0.00     0.173 A 
ATOM     65  C   UNL A   1      39.574  33.379  39.913  1.00  0.00     0.173 A 
ATOM     66  F   UNL A   1      41.714  35.478  37.851  1.00  0.00    -0.203 F 
ATOM     67  C   UNL A   1      40.980  35.767  40.068  1.00  0.00     0.198 A 
ATOM     68  C   UNL A   1      39.535  34.138  41.078  1.00  0.00     0.198 A 
ATOM     69  F   UNL A   1      38.891  32.225  39.874  1.00  0.00    -0.203 F 
ATOM     70  F   UNL A   1      41.690  36.899  40.154  1.00  0.00    -0.200 F 
ATOM     71  C   UNL A   1      40.244  35.326  41.160  1.00  0.00     0.200 A 
ATOM     72  F   UNL A   1      38.811  33.718  42.125  1.00  0.00    -0.200 F 
ATOM     73  F   UNL A   1      40.226  36.044  42.290  1.00  0.00    -0.200 F 
ENDBRANCH  49  63
BRANCH  50  74
ATOM     74  C   UNL A   1      39.935  28.720  30.220  1.00  0.00     0.064 A 
ATOM     75  C   UNL A   1      39.364  27.444  30.116  1.00  0.00     0.173 A 
ATOM     76  C   UNL A   1      40.528  29.262  29.070  1.00  0.00     0.173 A 
ATOM     77  F   UNL A   1      38.814  26.866  31.194  1.00  0.00    -0.203 F 
ATOM     78  C   UNL A   1      39.404  26.730  28.919  1.00  0.00     0.198 A 
ATOM     79  C   UNL A   1      40.537  28.563  27.864  1.00  0.00     0.198 A 
ATOM     80  F   UNL A   1      41.097  30.476  29.114  1.00  0.00    -0.203 F 
ATOM     81  F   UNL A   1      38.900  25.490  28.863  1.00  0.00    -0.200 F 
ATOM     82  C   UNL A   1      39.984  27.293  27.792  1.00  0.00     0.200 A 
ATOM     83  F   UNL A   1      41.091  29.115  26.775  1.00  0.00    -0.200 F 
ATOM     84  F   UNL A   1      40.021  26.608  26.641  1.00  0.00    -0.200 F 
ENDBRANCH  50  74
BRANCH  62  85
ATOM     85  C   UNL A   1      44.560  29.064  35.437  1.00  0.00     0.064 A 
ATOM     86  C   UNL A   1      45.782  29.637  35.056  1.00  0.00     0.173 A 
ATOM     87  C   UNL A   1      44.597  27.841  36.127  1.00  0.00     0.173 A 
ATOM     88  F   UNL A   1      45.803  30.799  34.386  1.00  0.00    -0.203 F 
ATOM     89  C   UNL A   1      46.990  29.001  35.335  1.00  0.00     0.198 A 
ATOM     90  C   UNL A   1      45.808  27.225  36.434  1.00  0.00     0.198 A 
ATOM     91  F   UNL A   1      43.458  27.253  36.524  1.00  0.00    -0.203 F 
ATOM     92  F   UNL A   1      48.142  29.544  34.921  1.00  0.00    -0.200 F 
ATOM     93  C   UNL A   1      47.002  27.801  36.032  1.00  0.00     0.200 A 
ATOM     94  F   UNL A   1      45.817  26.076  37.124  1.00  0.00    -0.200 F 
ATOM     95  F   UNL A   1      48.166  27.199  36.312  1.00  0.00    -0.200 F 
ENDBRANCH  62  85
ENDBRANCH  36  37
ENDBRANCH  29  31
ENDBRANCH  28  29
ENDBRANCH  27  28
ENDBRANCH  26  27
ENDBRANCH  25  26
ENDBRANCH  24  25
ENDBRANCH   1  24
TORSDOF 19
ENDMDL
MODEL 2
REMARK VINA RESULT:     -10.4      6.797     12.464
REMARK SMILES C[N@H+]([C@@H]1CCOC2(CCCC2)C1)C(C)(C)C(=O)OCCOCCOCCOC(=O)c1ccc(-c2c3nc(c(-c4c(F)c(F)c(F)c(F)c4F)c4ccc([nH]4)c(-c4c(F)c(F)c(F)c(F)c4F)c4nc(c(-c5c(F)c(F)c(F)c(F)c5F)c5ccc2[nH]5)C=C4)C=C3)cc1
REMARK SMILES IDX 22 1 21 2 20 3 19 4 18 5 16 6 17 7 13 8 14 9 15 10 2 11 1 12
REMARK SMILES IDX 3 14 4 15 12 16 5 17 7 18 6 19 8 20 11 21 9 22 10 23 23 24
REMARK SMILES IDX 24 25 25 26 26 27 27 28 28 29 29 30 30 31 31 32 92 33 32 34
REMARK SMILES IDX 91 35 33 36 34 37 35 38 85 39 36 40 90 41 84 42 86 43 37 44
REMARK SMILES IDX 89 45 83 46 82 47 38 49 70 50 50 51 69 52 51 53 54 54 68 55
REMARK SMILES IDX 87 56 52 57 53 58 67 60 88 61 55 62 39 63 40 64 48 65 41 66
REMARK SMILES IDX 42 67 46 68 49 69 43 70 44 71 47 72 45 73 71 74 72 75 80 76
REMARK SMILES IDX 73 77 74 78 78 79 81 80 75 81 76 82 79 83 77 84 56 85 57 86
REMARK SMILES IDX 65 87 58 88 59 89 63 90 66 91 60 92 61 93 64 94 62 95
REMARK H PARENT 2 13 86 48 54 59
REMARK Flexibility Score: inf
ROOT
ATOM      1  C   UNL A   1      40.046  21.932  26.103  1.00  0.00     0.188 C 
ENDROOT
BRANCH   1   2
ATOM      2  O   UNL A   1      38.672  22.107  26.396  1.00  0.00    -0.376 OA
BRANCH   2   3
ATOM      3  C   UNL A   1      37.783  21.830  25.326  1.00  0.00     0.202 C 
BRANCH   3   4
ATOM      4  C   UNL A   1      36.354  21.372  25.679  1.00  0.00     0.261 C 
BRANCH   4   5
ATOM      5  O   UNL A   1      35.227  21.845  24.917  1.00  0.00    -0.459 OA
BRANCH   5   6
ATOM      6  C   UNL A   1      33.980  21.492  25.332  1.00  0.00     0.367 C 
ATOM      7  O   UNL A   1      33.552  20.360  25.162  1.00  0.00    -0.245 OA
BRANCH   6   8
ATOM      8  C   UNL A   1      33.220  22.669  26.032  1.00  0.00     0.190 C 
ATOM      9  C   UNL A   1      34.242  23.844  26.081  1.00  0.00     0.092 C 
ATOM     10  C   UNL A   1      33.027  22.440  27.575  1.00  0.00     0.092 C 
BRANCH   8  11
ATOM     11  N   UNL A   1      31.882  22.960  25.372  1.00  0.00    -0.321 N 
ATOM     12  C   UNL A   1      30.671  22.585  26.118  1.00  0.00     0.333 C 
ATOM     13  H   UNL A   1      32.199  23.926  25.452  1.00  0.00     0.349 HD
BRANCH  11  14
ATOM     14  C   UNL A   1      31.578  22.955  23.909  1.00  0.00     0.189 C 
ATOM     15  C   UNL A   1      32.585  23.064  22.763  1.00  0.00     0.093 C 
ATOM     16  C   UNL A   1      30.655  24.156  23.581  1.00  0.00     0.100 C 
ATOM     17  C   UNL A   1      33.349  24.365  22.768  1.00  0.00     0.167 C 
ATOM     18  C   UNL A   1      31.400  25.461  23.872  1.00  0.00     0.074 C 
ATOM     19  O   UNL A   1      32.801  25.425  23.554  1.00  0.00    -0.375 OA
ATOM     20  C   UNL A   1      30.820  26.701  23.164  1.00  0.00     0.036 C 
ATOM     21  C   UNL A   1      31.219  25.820  25.365  1.00  0.00     0.036 C 
ATOM     22  C   UNL A   1      30.666  27.786  24.243  1.00  0.00     0.003 C 
ATOM     23  C   UNL A   1      31.473  27.304  25.430  1.00  0.00     0.003 C 
ENDBRANCH  11  14
ENDBRANCH   8  11
ENDBRANCH   6   8
ENDBRANCH   5   6
ENDBRANCH   4   5
ENDBRANCH   3   4
ENDBRANCH   2   3
ENDBRANCH   1   2
BRANCH   1  24
ATOM     24  C   UNL A   1      40.546  20.524  26.410  1.00  0.00     0.188 C 
BRANCH  24  25
ATOM     25  O   UNL A   1      41.905  20.167  26.250  1.00  0.00    -0.376 OA
BRANCH  25  26
ATOM     26  C   UNL A   1      42.214  18.784  26.235  1.00  0.00     0.202 C 
BRANCH  26  27
ATOM     27  C   UNL A   1      43.629  18.337  25.807  1.00  0.00     0.261 C 
BRANCH  27  28
ATOM     28  O   UNL A   1      43.976  18.514  24.417  1.00  0.00    -0.460 OA
BRANCH  28  29
ATOM     29  C   UNL A   1      45.098  19.245  24.164  1.00  0.00     0.338 C 
ATOM     30  O   UNL A   1      46.048  18.915  23.487  1.00  0.00    -0.246 OA
BRANCH  29  31
ATOM     31  C   UNL A   1      44.904  20.641  24.655  1.00  0.00     0.060 A 
ATOM     32  C   UNL A   1      44.360  21.603  23.781  1.00  0.00     0.016 A 
ATOM     33  C   UNL A   1      45.266  21.011  25.949  1.00  0.00     0.016 A 
ATOM     34  C   UNL A   1      44.187  22.927  24.189  1.00  0.00     0.010 A 
ATOM     35  C   UNL A   1      45.138  22.351  26.340  1.00  0.00     0.010 A 
ATOM     36  C   UNL A   1      44.626  23.321  25.456  1.00  0.00    -0.014 A 
BRANCH  36  37
ATOM     37  C   UNL A   1      44.778  24.763  25.785  1.00  0.00     0.031 A 
ATOM     38  C   UNL A   1      46.139  25.383  25.611  1.00  0.00     0.074 A 
ATOM     39  C   UNL A   1      43.759  25.509  26.243  1.00  0.00     0.049 A 
ATOM     40  N   UNL A   1      46.577  26.557  25.983  1.00  0.00    -0.248 NA
ATOM     41  C   UNL A   1      47.144  24.552  24.928  1.00  0.00     0.031 C 
ATOM     42  C   UNL A   1      42.377  25.062  26.390  1.00  0.00     0.029 A 
ATOM     43  N   UNL A   1      43.745  26.808  26.698  1.00  0.00    -0.354 N 
ATOM     44  C   UNL A   1      47.914  26.596  25.603  1.00  0.00     0.074 A 
ATOM     45  C   UNL A   1      48.219  25.323  24.989  1.00  0.00     0.031 C 
ATOM     46  C   UNL A   1      41.654  26.058  26.933  1.00  0.00     0.029 A 
ATOM     47  C   UNL A   1      42.532  27.195  27.213  1.00  0.00     0.049 A 
ATOM     48  H   UNL A   1      44.528  27.402  26.657  1.00  0.00     0.167 HD
ATOM     49  C   UNL A   1      48.807  27.602  25.756  1.00  0.00     0.037 A 
ATOM     50  C   UNL A   1      42.185  28.320  27.874  1.00  0.00     0.037 A 
ATOM     51  C   UNL A   1      48.503  28.869  26.367  1.00  0.00     0.049 A 
ATOM     52  C   UNL A   1      43.222  29.391  28.120  1.00  0.00     0.074 A 
ATOM     53  C   UNL A   1      49.336  29.956  26.555  1.00  0.00     0.029 A 
ATOM     54  N   UNL A   1      47.269  29.212  26.899  1.00  0.00    -0.354 N 
ATOM     55  N   UNL A   1      44.482  29.428  27.757  1.00  0.00    -0.248 NA
ATOM     56  C   UNL A   1      42.787  30.578  28.872  1.00  0.00     0.031 C 
ATOM     57  C   UNL A   1      48.626  30.935  27.258  1.00  0.00     0.029 A 
ATOM     58  C   UNL A   1      47.329  30.485  27.443  1.00  0.00     0.049 A 
ATOM     59  H   UNL A   1      46.470  28.638  26.892  1.00  0.00     0.167 HD
ATOM     60  C   UNL A   1      44.976  30.649  28.201  1.00  0.00     0.074 A 
ATOM     61  C   UNL A   1      43.879  31.330  28.854  1.00  0.00     0.031 C 
ATOM     62  C   UNL A   1      46.225  31.163  28.076  1.00  0.00     0.037 A 
BRANCH  49  63
ATOM     63  C   UNL A   1      50.213  27.359  25.290  1.00  0.00     0.064 A 
ATOM     64  C   UNL A   1      50.586  27.504  23.945  1.00  0.00     0.173 A 
ATOM     65  C   UNL A   1      51.211  27.003  26.211  1.00  0.00     0.173 A 
ATOM     66  F   UNL A   1      49.668  27.828  23.021  1.00  0.00    -0.203 F 
ATOM     67  C   UNL A   1      51.897  27.276  23.536  1.00  0.00     0.198 A 
ATOM     68  C   UNL A   1      52.527  26.810  25.805  1.00  0.00     0.198 A 
ATOM     69  F   UNL A   1      50.910  26.853  27.510  1.00  0.00    -0.203 F 
ATOM     70  F   UNL A   1      52.219  27.370  22.239  1.00  0.00    -0.200 F 
ATOM     71  C   UNL A   1      52.869  26.937  24.467  1.00  0.00     0.200 A 
ATOM     72  F   UNL A   1      53.467  26.498  26.709  1.00  0.00    -0.200 F 
ATOM     73  F   UNL A   1      54.132  26.728  24.073  1.00  0.00    -0.200 F 
ENDBRANCH  49  63
BRANCH  50  74
ATOM     74  C   UNL A   1      40.798  28.489  28.386  1.00  0.00     0.064 A 
ATOM     75  C   UNL A   1      40.459  28.110  29.693  1.00  0.00     0.173 A 
ATOM     76  C   UNL A   1      39.773  28.992  27.571  1.00  0.00     0.173 A 
ATOM     77  F   UNL A   1      41.394  27.592  30.503  1.00  0.00    -0.203 F 
ATOM     78  C   UNL A   1      39.148  28.210  30.157  1.00  0.00     0.198 A 
ATOM     79  C   UNL A   1      38.469  29.124  28.046  1.00  0.00     0.198 A 
ATOM     80  F   UNL A   1      40.038  29.362  26.309  1.00  0.00    -0.203 F 
ATOM     81  F   UNL A   1      38.843  27.788  31.392  1.00  0.00    -0.200 F 
ATOM     82  C   UNL A   1      38.156  28.723  29.336  1.00  0.00     0.200 A 
ATOM     83  F   UNL A   1      37.516  29.629  27.251  1.00  0.00    -0.200 F 
ATOM     84  F   UNL A   1      36.896  28.819  29.782  1.00  0.00    -0.200 F 
ENDBRANCH  50  74
BRANCH  62  85
ATOM     85  C   UNL A   1      46.470  32.551  28.600  1.00  0.00     0.064 A 
ATOM     86  C   UNL A   1      46.930  32.782  29.905  1.00  0.00     0.173 A 
ATOM     87  C   UNL A   1      46.302  33.663  27.759  1.00  0.00     0.173 A 
ATOM     88  F   UNL A   1      47.098  31.756  30.753  1.00  0.00    -0.203 F 
ATOM     89  C   UNL A   1      47.190  34.075  30.355  1.00  0.00     0.198 A 
ATOM     90  C   UNL A   1      46.595  34.951  28.202  1.00  0.00     0.198 A 
ATOM     91  F   UNL A   1      45.873  33.500  26.498  1.00  0.00    -0.203 F 
ATOM     92  F   UNL A   1      47.585  34.275  31.619  1.00  0.00    -0.200 F 
ATOM     93  C   UNL A   1      47.033  35.156  29.500  1.00  0.00     0.200 A 
ATOM     94  F   UNL A   1      46.460  35.991  27.368  1.00  0.00    -0.200 F 
ATOM     95  F   UNL A   1      47.297  36.397  29.931  1.00  0.00    -0.200 F 
ENDBRANCH  62  85
ENDBRANCH  36  37
ENDBRANCH  29  31
ENDBRANCH  28  29
ENDBRANCH  27  28
ENDBRANCH  26  27
ENDBRANCH  25  26
ENDBRANCH  24  25
ENDBRANCH   1  24
TORSDOF 19
ENDMDL
MODEL 3
REMARK VINA RESULT:     -10.3      1.844      7.827
REMARK SMILES C[N@H+]([C@@H]1CCOC2(CCCC2)C1)C(C)(C)C(=O)OCCOCCOCCOC(=O)c1ccc(-c2c3nc(c(-c4c(F)c(F)c(F)c(F)c4F)c4ccc([nH]4)c(-c4c(F)c(F)c(F)c(F)c4F)c4nc(c(-c5c(F)c(F)c(F)c(F)c5F)c5ccc2[nH]5)C=C4)C=C3)cc1
REMARK SMILES IDX 22 1 21 2 20 3 19 4 18 5 16 6 17 7 13 8 14 9 15 10 2 11 1 12
REMARK SMILES IDX 3 14 4 15 12 16 5 17 7 18 6 19 8 20 11 21 9 22 10 23 23 24
REMARK SMILES IDX 24 25 25 26 26 27 27 28 28 29 29 30 30 31 31 32 92 33 32 34
REMARK SMILES IDX 91 35 33 36 34 37 35 38 85 39 36 40 90 41 84 42 86 43 37 44
REMARK SMILES IDX 89 45 83 46 82 47 38 49 70 50 50 51 69 52 51 53 54 54 68 55
REMARK SMILES IDX 87 56 52 57 53 58 67 60 88 61 55 62 39 63 40 64 48 65 41 66
REMARK SMILES IDX 42 67 46 68 49 69 43 70 44 71 47 72 45 73 71 74 72 75 80 76
REMARK SMILES IDX 73 77 74 78 78 79 81 80 75 81 76 82 79 83 77 84 56 85 57 86
REMARK SMILES IDX 65 87 58 88 59 89 63 90 66 91 60 92 61 93 64 94 62 95
REMARK H PARENT 2 13 86 48 54 59
REMARK Flexibility Score: inf
ROOT
ATOM      1  C   UNL A   1      32.147  29.216  24.906  1.00  0.00     0.188 C 
ENDROOT
BRANCH   1   2
ATOM      2  O   UNL A   1      31.389  28.020  24.909  1.00  0.00    -0.376 OA
BRANCH   2   3
ATOM      3  C   UNL A   1      31.219  27.412  26.179  1.00  0.00     0.202 C 
BRANCH   3   4
ATOM      4  C   UNL A   1      30.655  25.977  26.219  1.00  0.00     0.261 C 
BRANCH   4   5
ATOM      5  O   UNL A   1      31.307  24.960  27.002  1.00  0.00    -0.459 OA
BRANCH   5   6
ATOM      6  C   UNL A   1      30.981  23.661  26.763  1.00  0.00     0.367 C 
ATOM      7  O   UNL A   1      29.976  23.160  27.246  1.00  0.00    -0.245 OA
BRANCH   6   8
ATOM      8  C   UNL A   1      32.008  22.943  25.823  1.00  0.00     0.190 C 
ATOM      9  C   UNL A   1      31.705  23.485  24.395  1.00  0.00     0.092 C 
ATOM     10  C   UNL A   1      31.669  21.425  25.593  1.00  0.00     0.092 C 
BRANCH   8  11
ATOM     11  N   UNL A   1      33.438  23.093  26.317  1.00  0.00    -0.321 N 
ATOM     12  C   UNL A   1      33.721  22.658  27.693  1.00  0.00     0.333 C 
ATOM     13  H   UNL A   1      33.629  22.426  25.569  1.00  0.00     0.349 HD
BRANCH  11  14
ATOM     14  C   UNL A   1      34.423  24.144  25.922  1.00  0.00     0.189 C 
ATOM     15  C   UNL A   1      34.512  24.855  24.571  1.00  0.00     0.093 C 
ATOM     16  C   UNL A   1      35.855  23.559  26.022  1.00  0.00     0.100 C 
ATOM     17  C   UNL A   1      34.806  23.917  23.427  1.00  0.00     0.167 C 
ATOM     18  C   UNL A   1      36.005  22.415  25.017  1.00  0.00     0.074 C 
ATOM     19  O   UNL A   1      35.317  22.629  23.772  1.00  0.00    -0.375 OA
ATOM     20  C   UNL A   1      37.462  22.063  24.660  1.00  0.00     0.036 C 
ATOM     21  C   UNL A   1      35.500  21.106  25.667  1.00  0.00     0.036 C 
ATOM     22  C   UNL A   1      37.590  20.537  24.808  1.00  0.00     0.003 C 
ATOM     23  C   UNL A   1      36.173  20.010  24.881  1.00  0.00     0.003 C 
ENDBRANCH  11  14
ENDBRANCH   8  11
ENDBRANCH   6   8
ENDBRANCH   5   6
ENDBRANCH   4   5
ENDBRANCH   3   4
ENDBRANCH   2   3
ENDBRANCH   1   2
BRANCH   1  24
ATOM     24  C   UNL A   1      31.419  30.383  25.566  1.00  0.00     0.188 C 
BRANCH  24  25
ATOM     25  O   UNL A   1      31.975  31.079  26.664  1.00  0.00    -0.376 OA
BRANCH  25  26
ATOM     26  C   UNL A   1      31.643  32.451  26.797  1.00  0.00     0.202 C 
BRANCH  26  27
ATOM     27  C   UNL A   1      32.676  33.415  27.419  1.00  0.00     0.261 C 
BRANCH  27  28
ATOM     28  O   UNL A   1      32.157  34.508  28.206  1.00  0.00    -0.460 OA
BRANCH  28  29
ATOM     29  C   UNL A   1      33.080  35.327  28.783  1.00  0.00     0.338 C 
ATOM     30  O   UNL A   1      32.938  36.496  29.075  1.00  0.00    -0.246 OA
BRANCH  29  31
ATOM     31  C   UNL A   1      34.250  34.519  29.236  1.00  0.00     0.060 A 
ATOM     32  C   UNL A   1      34.082  33.611  30.300  1.00  0.00     0.016 A 
ATOM     33  C   UNL A   1      35.501  34.659  28.640  1.00  0.00     0.016 A 
ATOM     34  C   UNL A   1      35.155  32.854  30.774  1.00  0.00     0.010 A 
ATOM     35  C   UNL A   1      36.589  33.936  29.149  1.00  0.00     0.010 A 
ATOM     36  C   UNL A   1      36.430  33.053  30.235  1.00  0.00    -0.014 A 
BRANCH  36  37
ATOM     37  C   UNL A   1      37.633  32.534  30.939  1.00  0.00     0.031 A 
ATOM     38  C   UNL A   1      38.397  31.413  30.288  1.00  0.00     0.074 A 
ATOM     39  C   UNL A   1      38.037  33.017  32.126  1.00  0.00     0.049 A 
ATOM     40  N   UNL A   1      39.366  30.675  30.763  1.00  0.00    -0.248 NA
ATOM     41  C   UNL A   1      38.003  31.077  28.910  1.00  0.00     0.031 C 
ATOM     42  C   UNL A   1      37.439  34.145  32.834  1.00  0.00     0.029 A 
ATOM     43  N   UNL A   1      39.043  32.588  32.961  1.00  0.00    -0.354 N 
ATOM     44  C   UNL A   1      39.678  29.771  29.754  1.00  0.00     0.074 A 
ATOM     45  C   UNL A   1      38.786  30.042  28.649  1.00  0.00     0.031 C 
ATOM     46  C   UNL A   1      38.067  34.299  34.014  1.00  0.00     0.029 A 
ATOM     47  C   UNL A   1      39.079  33.253  34.163  1.00  0.00     0.049 A 
ATOM     48  H   UNL A   1      39.677  31.875  32.720  1.00  0.00     0.167 HD
ATOM     49  C   UNL A   1      40.623  28.801  29.751  1.00  0.00     0.037 A 
ATOM     50  C   UNL A   1      39.814  33.013  35.269  1.00  0.00     0.037 A 
ATOM     51  C   UNL A   1      41.511  28.532  30.851  1.00  0.00     0.049 A 
ATOM     52  C   UNL A   1      40.794  31.864  35.280  1.00  0.00     0.074 A 
ATOM     53  C   UNL A   1      42.510  27.580  30.937  1.00  0.00     0.029 A 
ATOM     54  N   UNL A   1      41.498  29.211  32.060  1.00  0.00    -0.354 N 
ATOM     55  N   UNL A   1      41.091  31.015  34.325  1.00  0.00    -0.248 NA
ATOM     56  C   UNL A   1      41.541  31.638  36.527  1.00  0.00     0.031 C 
ATOM     57  C   UNL A   1      43.060  27.639  32.222  1.00  0.00     0.029 A 
ATOM     58  C   UNL A   1      42.452  28.677  32.910  1.00  0.00     0.049 A 
ATOM     59  H   UNL A   1      40.899  29.961  32.282  1.00  0.00     0.167 HD
ATOM     60  C   UNL A   1      42.080  30.185  34.840  1.00  0.00     0.074 A 
ATOM     61  C   UNL A   1      42.340  30.634  36.191  1.00  0.00     0.031 C 
ATOM     62  C   UNL A   1      42.717  29.145  34.248  1.00  0.00     0.037 A 
BRANCH  49  63
ATOM     63  C   UNL A   1      40.718  27.929  28.532  1.00  0.00     0.064 A 
ATOM     64  C   UNL A   1      41.514  28.276  27.431  1.00  0.00     0.173 A 
ATOM     65  C   UNL A   1      40.023  26.711  28.480  1.00  0.00     0.173 A 
ATOM     66  F   UNL A   1      42.188  29.437  27.423  1.00  0.00    -0.203 F 
ATOM     67  C   UNL A   1      41.590  27.450  26.312  1.00  0.00     0.198 A 
ATOM     68  C   UNL A   1      40.128  25.871  27.376  1.00  0.00     0.198 A 
ATOM     69  F   UNL A   1      39.249  26.328  29.508  1.00  0.00    -0.203 F 
ATOM     70  F   UNL A   1      42.316  27.826  25.252  1.00  0.00    -0.200 F 
ATOM     71  C   UNL A   1      40.903  26.244  26.289  1.00  0.00     0.200 A 
ATOM     72  F   UNL A   1      39.477  24.699  27.363  1.00  0.00    -0.200 F 
ATOM     73  F   UNL A   1      40.985  25.446  25.216  1.00  0.00    -0.200 F 
ENDBRANCH  49  63
BRANCH  50  74
ATOM     74  C   UNL A   1      39.634  33.856  36.483  1.00  0.00     0.064 A 
ATOM     75  C   UNL A   1      40.310  35.076  36.623  1.00  0.00     0.173 A 
ATOM     76  C   UNL A   1      38.816  33.442  37.545  1.00  0.00     0.173 A 
ATOM     77  F   UNL A   1      41.131  35.502  35.651  1.00  0.00    -0.203 F 
ATOM     78  C   UNL A   1      40.192  35.838  37.784  1.00  0.00     0.198 A 
ATOM     79  C   UNL A   1      38.671  34.221  38.692  1.00  0.00     0.198 A 
ATOM     80  F   UNL A   1      38.152  32.279  37.469  1.00  0.00    -0.203 F 
ATOM     81  F   UNL A   1      40.894  36.973  37.913  1.00  0.00    -0.200 F 
ATOM     82  C   UNL A   1      39.367  35.414  38.815  1.00  0.00     0.200 A 
ATOM     83  F   UNL A   1      37.865  33.811  39.681  1.00  0.00    -0.200 F 
ATOM     84  F   UNL A   1      39.252  36.147  39.930  1.00  0.00    -0.200 F 
ENDBRANCH  50  74
BRANCH  62  85
ATOM     85  C   UNL A   1      43.803  28.451  35.024  1.00  0.00     0.064 A 
ATOM     86  C   UNL A   1      43.552  27.302  35.788  1.00  0.00     0.173 A 
ATOM     87  C   UNL A   1      45.128  28.909  34.948  1.00  0.00     0.173 A 
ATOM     88  F   UNL A   1      42.302  26.827  35.904  1.00  0.00    -0.203 F 
ATOM     89  C   UNL A   1      44.582  26.652  36.466  1.00  0.00     0.198 A 
ATOM     90  C   UNL A   1      46.160  28.237  35.598  1.00  0.00     0.198 A 
ATOM     91  F   UNL A   1      45.427  29.998  34.224  1.00  0.00    -0.203 F 
ATOM     92  F   UNL A   1      44.311  25.583  37.226  1.00  0.00    -0.200 F 
ATOM     93  C   UNL A   1      45.885  27.114  36.361  1.00  0.00     0.200 A 
ATOM     94  F   UNL A   1      47.421  28.675  35.481  1.00  0.00    -0.200 F 
ATOM     95  F   UNL A   1      46.876  26.479  37.002  1.00  0.00    -0.200 F 
ENDBRANCH  62  85
ENDBRANCH  36  37
ENDBRANCH  29  31
ENDBRANCH  28  29
ENDBRANCH  27  28
ENDBRANCH  26  27
ENDBRANCH  25  26
ENDBRANCH  24  25
ENDBRANCH   1  24
TORSDOF 19
ENDMDL
