MODEL 1
REMARK VINA RESULT:      -9.7      0.000      0.000
REMARK SMILES CCCCOc1ccc(-c2nc(C)c(C(=O)OCCOCCOCCOC(=O)c3ccc(-c4c5nc(c(-c6c(F)c(F)c(F)c(F)c6F)c6ccc([nH]6)c(-c6c(F)c(F)c(F)c(F)c6F)c6nc(c(-c7c(F)c(F)c(F)c(F)c7F)c7ccc4[nH]7)C=C6)C=C5)cc3)s2)cc1OC
REMARK SMILES IDX 20 1 19 2 18 3 17 4 15 5 16 6 14 7 10 8 11 9 92 10 12 11
REMARK SMILES IDX 13 12 9 13 6 14 7 15 94 16 8 17 93 18 5 19 4 20 3 21 2 22
REMARK SMILES IDX 1 23 95 24 96 25 21 26 22 27 23 28 24 29 25 30 26 31 27 32
REMARK SMILES IDX 28 33 29 34 30 35 91 36 31 37 90 38 32 39 33 40 34 41 84 42
REMARK SMILES IDX 35 43 89 44 83 45 85 46 36 47 88 48 82 49 81 50 37 52 69 53
REMARK SMILES IDX 49 54 68 55 50 56 53 57 67 58 86 59 51 60 52 61 66 63 87 64
REMARK SMILES IDX 54 65 38 66 39 67 47 68 40 69 41 70 45 71 48 72 42 73 43 74
REMARK SMILES IDX 46 75 44 76 70 77 71 78 79 79 72 80 73 81 77 82 80 83 74 84
REMARK SMILES IDX 75 85 78 86 76 87 55 88 56 89 64 90 57 91 58 92 62 93 65 94
REMARK SMILES IDX 59 95 60 96 63 97 61 98
REMARK H PARENT 85 51 53 62
REMARK Flexibility Score: inf
ROOT
ATOM      1  O   UNL A   1      29.904  31.500  24.990  1.00  0.00    -0.376 OA
ENDROOT
BRANCH   1   2
ATOM      2  C   UNL A   1      29.113  31.866  23.868  1.00  0.00     0.202 C 
BRANCH   2   3
ATOM      3  C   UNL A   1      27.729  31.224  23.742  1.00  0.00     0.261 C 
BRANCH   3   4
ATOM      4  O   UNL A   1      27.657  30.232  22.704  1.00  0.00    -0.459 OA
BRANCH   4   5
ATOM      5  C   UNL A   1      27.482  28.946  23.124  1.00  0.00     0.350 C 
ATOM      6  O   UNL A   1      26.396  28.461  23.419  1.00  0.00    -0.245 OA
BRANCH   5   7
ATOM      7  C   UNL A   1      28.727  28.212  23.056  1.00  0.00     0.135 A 
ATOM      8  C   UNL A   1      30.396  26.456  23.317  1.00  0.00     0.124 A 
ATOM      9  N   UNL A   1      30.884  27.435  22.587  1.00  0.00    -0.240 NA
ATOM     10  S   UNL A   1      28.805  26.712  23.899  1.00  0.00    -0.106 S 
ATOM     11  C   UNL A   1      29.934  28.440  22.409  1.00  0.00     0.064 A 
ATOM     12  C   UNL A   1      30.348  29.613  21.590  1.00  0.00     0.068 C 
BRANCH   8  13
ATOM     13  C   UNL A   1      31.114  25.232  23.684  1.00  0.00     0.014 A 
ATOM     14  C   UNL A   1      32.492  22.878  24.382  1.00  0.00     0.161 A 
ATOM     15  C   UNL A   1      32.692  23.474  23.130  1.00  0.00     0.051 A 
ATOM     16  C   UNL A   1      31.648  23.493  25.315  1.00  0.00     0.161 A 
ATOM     17  C   UNL A   1      31.996  24.634  22.778  1.00  0.00     0.015 A 
ATOM     18  C   UNL A   1      30.942  24.644  24.946  1.00  0.00     0.061 A 
BRANCH  14  19
ATOM     19  O   UNL A   1      33.152  21.726  24.710  1.00  0.00    -0.490 OA
BRANCH  19  20
ATOM     20  C   UNL A   1      34.564  21.877  24.908  1.00  0.00     0.230 C 
BRANCH  20  21
ATOM     21  C   UNL A   1      34.857  22.962  25.949  1.00  0.00     0.041 C 
BRANCH  21  22
ATOM     22  C   UNL A   1      35.887  24.012  25.524  1.00  0.00     0.000 C 
ATOM     23  C   UNL A   1      37.325  23.522  25.602  1.00  0.00     0.004 C 
ENDBRANCH  21  22
ENDBRANCH  20  21
ENDBRANCH  19  20
ENDBRANCH  14  19
BRANCH  16  24
ATOM     24  O   UNL A   1      31.352  23.055  26.579  1.00  0.00    -0.493 OA
ATOM     25  C   UNL A   1      29.973  22.893  26.889  1.00  0.00     0.278 C 
ENDBRANCH  16  24
ENDBRANCH   8  13
ENDBRANCH   5   7
ENDBRANCH   4   5
ENDBRANCH   3   4
ENDBRANCH   2   3
ENDBRANCH   1   2
BRANCH   1  26
ATOM     26  C   UNL A   1      31.053  30.680  24.809  1.00  0.00     0.188 C 
BRANCH  26  27
ATOM     27  C   UNL A   1      31.371  29.544  25.802  1.00  0.00     0.188 C 
BRANCH  27  28
ATOM     28  O   UNL A   1      32.360  28.628  25.364  1.00  0.00    -0.376 OA
BRANCH  28  29
ATOM     29  C   UNL A   1      33.676  28.860  25.852  1.00  0.00     0.202 C 
BRANCH  29  30
ATOM     30  C   UNL A   1      33.709  29.526  27.232  1.00  0.00     0.261 C 
BRANCH  30  31
ATOM     31  O   UNL A   1      34.320  30.827  27.255  1.00  0.00    -0.460 OA
BRANCH  31  32
ATOM     32  C   UNL A   1      34.927  31.187  28.407  1.00  0.00     0.338 C 
ATOM     33  O   UNL A   1      34.488  31.920  29.276  1.00  0.00    -0.246 OA
BRANCH  32  34
ATOM     34  C   UNL A   1      36.177  30.413  28.528  1.00  0.00     0.060 A 
ATOM     35  C   UNL A   1      36.436  29.732  29.724  1.00  0.00     0.016 A 
ATOM     36  C   UNL A   1      37.102  30.388  27.481  1.00  0.00     0.016 A 
ATOM     37  C   UNL A   1      37.648  29.060  29.891  1.00  0.00     0.010 A 
ATOM     38  C   UNL A   1      38.321  29.729  27.656  1.00  0.00     0.010 A 
ATOM     39  C   UNL A   1      38.615  29.095  28.877  1.00  0.00    -0.014 A 
BRANCH  39  40
ATOM     40  C   UNL A   1      40.004  28.667  29.171  1.00  0.00     0.031 A 
ATOM     41  C   UNL A   1      40.866  29.577  30.006  1.00  0.00     0.074 A 
ATOM     42  C   UNL A   1      40.493  27.496  28.728  1.00  0.00     0.049 A 
ATOM     43  N   UNL A   1      42.109  29.431  30.388  1.00  0.00    -0.248 NA
ATOM     44  C   UNL A   1      40.236  30.824  30.470  1.00  0.00     0.031 C 
ATOM     45  C   UNL A   1      39.756  26.516  27.934  1.00  0.00     0.029 A 
ATOM     46  N   UNL A   1      41.739  26.939  28.885  1.00  0.00    -0.354 N 
ATOM     47  C   UNL A   1      42.407  30.560  31.137  1.00  0.00     0.074 A 
ATOM     48  C   UNL A   1      41.230  31.401  31.128  1.00  0.00     0.031 C 
ATOM     49  C   UNL A   1      40.568  25.477  27.666  1.00  0.00     0.029 A 
ATOM     50  C   UNL A   1      41.884  25.730  28.252  1.00  0.00     0.049 A 
ATOM     51  H   UNL A   1      42.458  27.366  29.403  1.00  0.00     0.167 HD
ATOM     52  C   UNL A   1      43.554  30.867  31.788  1.00  0.00     0.037 A 
ATOM     53  C   UNL A   1      42.963  24.928  28.149  1.00  0.00     0.037 A 
ATOM     54  C   UNL A   1      44.730  30.040  31.793  1.00  0.00     0.049 A 
ATOM     55  C   UNL A   1      44.250  25.321  28.832  1.00  0.00     0.074 A 
ATOM     56  C   UNL A   1      45.941  30.264  32.426  1.00  0.00     0.029 A 
ATOM     57  N   UNL A   1      44.843  28.831  31.125  1.00  0.00    -0.354 N 
ATOM     58  N   UNL A   1      44.512  26.373  29.568  1.00  0.00    -0.248 NA
ATOM     59  C   UNL A   1      45.391  24.406  28.673  1.00  0.00     0.031 C 
ATOM     60  C   UNL A   1      46.800  29.207  32.107  1.00  0.00     0.029 A 
ATOM     61  C   UNL A   1      46.109  28.304  31.316  1.00  0.00     0.049 A 
ATOM     62  H   UNL A   1      44.130  28.409  30.594  1.00  0.00     0.167 HD
ATOM     63  C   UNL A   1      45.829  26.229  29.989  1.00  0.00     0.074 A 
ATOM     64  C   UNL A   1      46.312  24.985  29.430  1.00  0.00     0.031 C 
ATOM     65  C   UNL A   1      46.569  27.052  30.771  1.00  0.00     0.037 A 
BRANCH  52  66
ATOM     66  C   UNL A   1      43.592  32.168  32.532  1.00  0.00     0.064 A 
ATOM     67  C   UNL A   1      44.054  33.346  31.926  1.00  0.00     0.173 A 
ATOM     68  C   UNL A   1      43.148  32.242  33.860  1.00  0.00     0.173 A 
ATOM     69  F   UNL A   1      44.507  33.323  30.663  1.00  0.00    -0.203 F 
ATOM     70  C   UNL A   1      44.093  34.545  32.631  1.00  0.00     0.198 A 
ATOM     71  C   UNL A   1      43.163  33.449  34.553  1.00  0.00     0.198 A 
ATOM     72  F   UNL A   1      42.696  31.143  34.484  1.00  0.00    -0.203 F 
ATOM     73  F   UNL A   1      44.581  35.648  32.047  1.00  0.00    -0.200 F 
ATOM     74  C   UNL A   1      43.642  34.597  33.941  1.00  0.00     0.200 A 
ATOM     75  F   UNL A   1      42.719  33.499  35.817  1.00  0.00    -0.200 F 
ATOM     76  F   UNL A   1      43.677  35.753  34.618  1.00  0.00    -0.200 F 
ENDBRANCH  52  66
BRANCH  53  77
ATOM     77  C   UNL A   1      42.880  23.665  27.372  1.00  0.00     0.064 A 
ATOM     78  C   UNL A   1      42.408  22.484  27.962  1.00  0.00     0.173 A 
ATOM     79  C   UNL A   1      43.303  23.604  26.037  1.00  0.00     0.173 A 
ATOM     80  F   UNL A   1      42.021  22.485  29.246  1.00  0.00    -0.203 F 
ATOM     81  C   UNL A   1      42.382  21.285  27.250  1.00  0.00     0.198 A 
ATOM     82  C   UNL A   1      43.252  22.411  25.319  1.00  0.00     0.198 A 
ATOM     83  F   UNL A   1      43.772  24.704  25.430  1.00  0.00    -0.203 F 
ATOM     84  F   UNL A   1      41.973  20.160  27.854  1.00  0.00    -0.200 F 
ATOM     85  C   UNL A   1      42.799  21.251  25.928  1.00  0.00     0.200 A 
ATOM     86  F   UNL A   1      43.653  22.382  24.041  1.00  0.00    -0.200 F 
ATOM     87  F   UNL A   1      42.776  20.098  25.247  1.00  0.00    -0.200 F 
ENDBRANCH  53  77
BRANCH  65  88
ATOM     88  C   UNL A   1      47.962  26.614  31.117  1.00  0.00     0.064 A 
ATOM     89  C   UNL A   1      48.224  25.779  32.212  1.00  0.00     0.173 A 
ATOM     90  C   UNL A   1      49.044  26.995  30.307  1.00  0.00     0.173 A 
ATOM     91  F   UNL A   1      47.226  25.397  33.024  1.00  0.00    -0.203 F 
ATOM     92  C   UNL A   1      49.522  25.360  32.499  1.00  0.00     0.198 A 
ATOM     93  C   UNL A   1      50.335  26.551  30.580  1.00  0.00     0.198 A 
ATOM     94  F   UNL A   1      48.845  27.785  29.242  1.00  0.00    -0.203 F 
ATOM     95  F   UNL A   1      49.755  24.596  33.574  1.00  0.00    -0.200 F 
ATOM     96  C   UNL A   1      50.573  25.740  31.679  1.00  0.00     0.200 A 
ATOM     97  F   UNL A   1      51.348  26.909  29.779  1.00  0.00    -0.200 F 
ATOM     98  F   UNL A   1      51.819  25.329  31.951  1.00  0.00    -0.200 F 
ENDBRANCH  65  88
ENDBRANCH  39  40
ENDBRANCH  32  34
ENDBRANCH  31  32
ENDBRANCH  30  31
ENDBRANCH  29  30
ENDBRANCH  28  29
ENDBRANCH  27  28
ENDBRANCH  26  27
ENDBRANCH   1  26
TORSDOF 23
ENDMDL
MODEL 2
REMARK VINA RESULT:      -9.2      3.763      9.269
REMARK SMILES CCCCOc1ccc(-c2nc(C)c(C(=O)OCCOCCOCCOC(=O)c3ccc(-c4c5nc(c(-c6c(F)c(F)c(F)c(F)c6F)c6ccc([nH]6)c(-c6c(F)c(F)c(F)c(F)c6F)c6nc(c(-c7c(F)c(F)c(F)c(F)c7F)c7ccc4[nH]7)C=C6)C=C5)cc3)s2)cc1OC
REMARK SMILES IDX 20 1 19 2 18 3 17 4 15 5 16 6 14 7 10 8 11 9 92 10 12 11
REMARK SMILES IDX 13 12 9 13 6 14 7 15 94 16 8 17 93 18 5 19 4 20 3 21 2 22
REMARK SMILES IDX 1 23 95 24 96 25 21 26 22 27 23 28 24 29 25 30 26 31 27 32
REMARK SMILES IDX 28 33 29 34 30 35 91 36 31 37 90 38 32 39 33 40 34 41 84 42
REMARK SMILES IDX 35 43 89 44 83 45 85 46 36 47 88 48 82 49 81 50 37 52 69 53
REMARK SMILES IDX 49 54 68 55 50 56 53 57 67 58 86 59 51 60 52 61 66 63 87 64
REMARK SMILES IDX 54 65 38 66 39 67 47 68 40 69 41 70 45 71 48 72 42 73 43 74
REMARK SMILES IDX 46 75 44 76 70 77 71 78 79 79 72 80 73 81 77 82 80 83 74 84
REMARK SMILES IDX 75 85 78 86 76 87 55 88 56 89 64 90 57 91 58 92 62 93 65 94
REMARK SMILES IDX 59 95 60 96 63 97 61 98
REMARK H PARENT 85 51 53 62
REMARK Flexibility Score: inf
ROOT
ATOM      1  O   UNL A   1      32.200  28.422  24.604  1.00  0.00    -0.376 OA
ENDROOT
BRANCH   1   2
ATOM      2  C   UNL A   1      32.459  27.029  24.709  1.00  0.00     0.202 C 
BRANCH   2   3
ATOM      3  C   UNL A   1      32.710  26.461  26.108  1.00  0.00     0.261 C 
BRANCH   3   4
ATOM      4  O   UNL A   1      33.697  25.416  26.127  1.00  0.00    -0.459 OA
BRANCH   4   5
ATOM      5  C   UNL A   1      33.250  24.171  25.795  1.00  0.00     0.350 C 
ATOM      6  O   UNL A   1      32.068  23.848  25.778  1.00  0.00    -0.245 OA
BRANCH   5   7
ATOM      7  C   UNL A   1      34.345  23.335  25.353  1.00  0.00     0.135 A 
ATOM      8  C   UNL A   1      36.475  22.153  25.286  1.00  0.00     0.124 A 
ATOM      9  N   UNL A   1      35.744  21.823  24.244  1.00  0.00    -0.240 NA
ATOM     10  S   UNL A   1      35.767  23.319  26.323  1.00  0.00    -0.106 S 
ATOM     11  C   UNL A   1      34.512  22.473  24.277  1.00  0.00     0.064 A 
ATOM     12  C   UNL A   1      33.573  22.183  23.158  1.00  0.00     0.068 C 
BRANCH   8  13
ATOM     13  C   UNL A   1      37.817  21.644  25.579  1.00  0.00     0.014 A 
ATOM     14  C   UNL A   1      40.393  20.654  26.143  1.00  0.00     0.161 A 
ATOM     15  C   UNL A   1      39.425  19.826  25.561  1.00  0.00     0.051 A 
ATOM     16  C   UNL A   1      40.095  22.001  26.387  1.00  0.00     0.161 A 
ATOM     17  C   UNL A   1      38.141  20.313  25.295  1.00  0.00     0.015 A 
ATOM     18  C   UNL A   1      38.801  22.474  26.134  1.00  0.00     0.061 A 
BRANCH  14  19
ATOM     19  O   UNL A   1      41.637  20.166  26.430  1.00  0.00    -0.490 OA
BRANCH  19  20
ATOM     20  C   UNL A   1      41.937  18.897  25.834  1.00  0.00     0.230 C 
BRANCH  20  21
ATOM     21  C   UNL A   1      43.414  18.815  25.436  1.00  0.00     0.041 C 
BRANCH  21  22
ATOM     22  C   UNL A   1      44.125  20.164  25.292  1.00  0.00     0.000 C 
ATOM     23  C   UNL A   1      45.540  20.053  24.745  1.00  0.00     0.004 C 
ENDBRANCH  21  22
ENDBRANCH  20  21
ENDBRANCH  19  20
ENDBRANCH  14  19
BRANCH  16  24
ATOM     24  O   UNL A   1      40.922  22.946  26.936  1.00  0.00    -0.493 OA
ATOM     25  C   UNL A   1      41.578  22.589  28.148  1.00  0.00     0.278 C 
ENDBRANCH  16  24
ENDBRANCH   8  13
ENDBRANCH   5   7
ENDBRANCH   4   5
ENDBRANCH   3   4
ENDBRANCH   2   3
ENDBRANCH   1   2
BRANCH   1  26
ATOM     26  C   UNL A   1      33.075  29.354  25.229  1.00  0.00     0.188 C 
BRANCH  26  27
ATOM     27  C   UNL A   1      32.621  30.146  26.471  1.00  0.00     0.188 C 
BRANCH  27  28
ATOM     28  O   UNL A   1      33.592  30.255  27.498  1.00  0.00    -0.376 OA
BRANCH  28  29
ATOM     29  C   UNL A   1      34.072  31.568  27.758  1.00  0.00     0.202 C 
BRANCH  29  30
ATOM     30  C   UNL A   1      33.071  32.669  27.392  1.00  0.00     0.261 C 
BRANCH  30  31
ATOM     31  O   UNL A   1      32.613  33.457  28.504  1.00  0.00    -0.460 OA
BRANCH  31  32
ATOM     32  C   UNL A   1      33.300  34.590  28.763  1.00  0.00     0.338 C 
ATOM     33  O   UNL A   1      32.998  35.727  28.447  1.00  0.00    -0.246 OA
BRANCH  32  34
ATOM     34  C   UNL A   1      34.432  34.248  29.647  1.00  0.00     0.060 A 
ATOM     35  C   UNL A   1      35.735  34.511  29.206  1.00  0.00     0.016 A 
ATOM     36  C   UNL A   1      34.209  33.643  30.886  1.00  0.00     0.016 A 
ATOM     37  C   UNL A   1      36.824  34.124  29.989  1.00  0.00     0.010 A 
ATOM     38  C   UNL A   1      35.300  33.242  31.661  1.00  0.00     0.010 A 
ATOM     39  C   UNL A   1      36.612  33.445  31.198  1.00  0.00    -0.014 A 
BRANCH  39  40
ATOM     40  C   UNL A   1      37.745  32.757  31.862  1.00  0.00     0.031 A 
ATOM     41  C   UNL A   1      38.374  31.584  31.159  1.00  0.00     0.074 A 
ATOM     42  C   UNL A   1      38.222  33.165  33.050  1.00  0.00     0.049 A 
ATOM     43  N   UNL A   1      39.363  30.816  31.538  1.00  0.00    -0.248 NA
ATOM     44  C   UNL A   1      37.802  31.227  29.850  1.00  0.00     0.031 C 
ATOM     45  C   UNL A   1      37.721  34.300  33.821  1.00  0.00     0.029 A 
ATOM     46  N   UNL A   1      39.242  32.657  33.818  1.00  0.00    -0.354 N 
ATOM     47  C   UNL A   1      39.535  29.893  30.515  1.00  0.00     0.074 A 
ATOM     48  C   UNL A   1      38.527  30.171  29.516  1.00  0.00     0.031 C 
ATOM     49  C   UNL A   1      38.431  34.399  34.959  1.00  0.00     0.029 A 
ATOM     50  C   UNL A   1      39.422  33.323  35.005  1.00  0.00     0.049 A 
ATOM     51  H   UNL A   1      39.792  31.888  33.543  1.00  0.00     0.167 HD
ATOM     52  C   UNL A   1      40.459  28.909  30.409  1.00  0.00     0.037 A 
ATOM     53  C   UNL A   1      40.281  33.080  36.015  1.00  0.00     0.037 A 
ATOM     54  C   UNL A   1      41.457  28.623  31.402  1.00  0.00     0.049 A 
ATOM     55  C   UNL A   1      41.261  31.939  35.901  1.00  0.00     0.074 A 
ATOM     56  C   UNL A   1      42.439  27.647  31.384  1.00  0.00     0.029 A 
ATOM     57  N   UNL A   1      41.595  29.309  32.598  1.00  0.00    -0.354 N 
ATOM     58  N   UNL A   1      41.440  31.094  34.915  1.00  0.00    -0.248 NA
ATOM     59  C   UNL A   1      42.164  31.723  37.041  1.00  0.00     0.031 C 
ATOM     60  C   UNL A   1      43.147  27.719  32.588  1.00  0.00     0.029 A 
ATOM     61  C   UNL A   1      42.636  28.768  33.335  1.00  0.00     0.049 A 
ATOM     62  H   UNL A   1      41.037  30.068  32.882  1.00  0.00     0.167 HD
ATOM     63  C   UNL A   1      42.495  30.274  35.298  1.00  0.00     0.074 A 
ATOM     64  C   UNL A   1      42.921  30.726  36.606  1.00  0.00     0.031 C 
ATOM     65  C   UNL A   1      43.063  29.243  34.626  1.00  0.00     0.037 A 
BRANCH  52  66
ATOM     66  C   UNL A   1      40.412  28.056  29.176  1.00  0.00     0.064 A 
ATOM     67  C   UNL A   1      41.152  28.383  28.030  1.00  0.00     0.173 A 
ATOM     68  C   UNL A   1      39.631  26.892  29.146  1.00  0.00     0.173 A 
ATOM     69  F   UNL A   1      41.901  29.496  28.004  1.00  0.00    -0.203 F 
ATOM     70  C   UNL A   1      41.093  27.587  26.890  1.00  0.00     0.198 A 
ATOM     71  C   UNL A   1      39.595  26.084  28.012  1.00  0.00     0.198 A 
ATOM     72  F   UNL A   1      38.906  26.536  30.217  1.00  0.00    -0.203 F 
ATOM     73  F   UNL A   1      41.772  27.943  25.790  1.00  0.00    -0.200 F 
ATOM     74  C   UNL A   1      40.319  26.436  26.884  1.00  0.00     0.200 A 
ATOM     75  F   UNL A   1      38.854  24.968  28.011  1.00  0.00    -0.200 F 
ATOM     76  F   UNL A   1      40.265  25.670  25.786  1.00  0.00    -0.200 F 
ENDBRANCH  52  66
BRANCH  53  77
ATOM     77  C   UNL A   1      40.264  33.936  37.229  1.00  0.00     0.064 A 
ATOM     78  C   UNL A   1      41.140  35.024  37.358  1.00  0.00     0.173 A 
ATOM     79  C   UNL A   1      39.396  33.666  38.296  1.00  0.00     0.173 A 
ATOM     80  F   UNL A   1      42.010  35.304  36.377  1.00  0.00    -0.203 F 
ATOM     81  C   UNL A   1      41.162  35.794  38.520  1.00  0.00     0.198 A 
ATOM     82  C   UNL A   1      39.402  34.452  39.447  1.00  0.00     0.198 A 
ATOM     83  F   UNL A   1      38.545  32.631  38.224  1.00  0.00    -0.203 F 
ATOM     84  F   UNL A   1      42.045  36.796  38.639  1.00  0.00    -0.200 F 
ATOM     85  C   UNL A   1      40.290  35.511  39.561  1.00  0.00     0.200 A 
ATOM     86  F   UNL A   1      38.556  34.178  40.448  1.00  0.00    -0.200 F 
ATOM     87  F   UNL A   1      40.316  36.250  40.678  1.00  0.00    -0.200 F 
ENDBRANCH  53  77
BRANCH  65  88
ATOM     88  C   UNL A   1      44.240  28.563  35.262  1.00  0.00     0.064 A 
ATOM     89  C   UNL A   1      44.086  27.450  36.100  1.00  0.00     0.173 A 
ATOM     90  C   UNL A   1      45.544  29.003  34.985  1.00  0.00     0.173 A 
ATOM     91  F   UNL A   1      42.860  26.999  36.406  1.00  0.00    -0.203 F 
ATOM     92  C   UNL A   1      45.195  26.816  36.658  1.00  0.00     0.198 A 
ATOM     93  C   UNL A   1      46.650  28.350  35.521  1.00  0.00     0.198 A 
ATOM     94  F   UNL A   1      45.745  30.058  34.181  1.00  0.00    -0.203 F 
ATOM     95  F   UNL A   1      45.023  25.780  37.490  1.00  0.00    -0.200 F 
ATOM     96  C   UNL A   1      46.474  27.261  36.362  1.00  0.00     0.200 A 
ATOM     97  F   UNL A   1      47.887  28.774  35.224  1.00  0.00    -0.200 F 
ATOM     98  F   UNL A   1      47.539  26.645  36.892  1.00  0.00    -0.200 F 
ENDBRANCH  65  88
ENDBRANCH  39  40
ENDBRANCH  32  34
ENDBRANCH  31  32
ENDBRANCH  30  31
ENDBRANCH  29  30
ENDBRANCH  28  29
ENDBRANCH  27  28
ENDBRANCH  26  27
ENDBRANCH   1  26
TORSDOF 23
ENDMDL
MODEL 3
REMARK VINA RESULT:      -8.9      1.173      2.119
REMARK SMILES CCCCOc1ccc(-c2nc(C)c(C(=O)OCCOCCOCCOC(=O)c3ccc(-c4c5nc(c(-c6c(F)c(F)c(F)c(F)c6F)c6ccc([nH]6)c(-c6c(F)c(F)c(F)c(F)c6F)c6nc(c(-c7c(F)c(F)c(F)c(F)c7F)c7ccc4[nH]7)C=C6)C=C5)cc3)s2)cc1OC
REMARK SMILES IDX 20 1 19 2 18 3 17 4 15 5 16 6 14 7 10 8 11 9 92 10 12 11
REMARK SMILES IDX 13 12 9 13 6 14 7 15 94 16 8 17 93 18 5 19 4 20 3 21 2 22
REMARK SMILES IDX 1 23 95 24 96 25 21 26 22 27 23 28 24 29 25 30 26 31 27 32
REMARK SMILES IDX 28 33 29 34 30 35 91 36 31 37 90 38 32 39 33 40 34 41 84 42
REMARK SMILES IDX 35 43 89 44 83 45 85 46 36 47 88 48 82 49 81 50 37 52 69 53
REMARK SMILES IDX 49 54 68 55 50 56 53 57 67 58 86 59 51 60 52 61 66 63 87 64
REMARK SMILES IDX 54 65 38 66 39 67 47 68 40 69 41 70 45 71 48 72 42 73 43 74
REMARK SMILES IDX 46 75 44 76 70 77 71 78 79 79 72 80 73 81 77 82 80 83 74 84
REMARK SMILES IDX 75 85 78 86 76 87 55 88 56 89 64 90 57 91 58 92 62 93 65 94
REMARK SMILES IDX 59 95 60 96 63 97 61 98
REMARK H PARENT 85 51 53 62
REMARK Flexibility Score: inf
ROOT
ATOM      1  O   UNL A   1      30.845  31.591  25.829  1.00  0.00    -0.376 OA
ENDROOT
BRANCH   1   2
ATOM      2  C   UNL A   1      30.160  32.346  24.838  1.00  0.00     0.202 C 
BRANCH   2   3
ATOM      3  C   UNL A   1      29.010  31.659  24.098  1.00  0.00     0.261 C 
BRANCH   3   4
ATOM      4  O   UNL A   1      28.997  31.937  22.688  1.00  0.00    -0.459 OA
BRANCH   4   5
ATOM      5  C   UNL A   1      28.485  30.953  21.894  1.00  0.00     0.350 C 
ATOM      6  O   UNL A   1      27.837  31.161  20.874  1.00  0.00    -0.245 OA
BRANCH   5   7
ATOM      7  C   UNL A   1      28.915  29.650  22.352  1.00  0.00     0.135 A 
ATOM      8  C   UNL A   1      30.323  27.742  22.915  1.00  0.00     0.124 A 
ATOM      9  N   UNL A   1      29.084  27.515  23.294  1.00  0.00    -0.240 NA
ATOM     10  S   UNL A   1      30.569  29.237  22.114  1.00  0.00    -0.106 S 
ATOM     11  C   UNL A   1      28.268  28.606  22.999  1.00  0.00     0.064 A 
ATOM     12  C   UNL A   1      26.834  28.491  23.384  1.00  0.00     0.068 C 
BRANCH   8  13
ATOM     13  C   UNL A   1      31.447  26.819  23.088  1.00  0.00     0.014 A 
ATOM     14  C   UNL A   1      33.609  25.043  23.409  1.00  0.00     0.161 A 
ATOM     15  C   UNL A   1      33.575  25.933  22.328  1.00  0.00     0.051 A 
ATOM     16  C   UNL A   1      32.590  25.081  24.369  1.00  0.00     0.161 A 
ATOM     17  C   UNL A   1      32.494  26.804  22.160  1.00  0.00     0.015 A 
ATOM     18  C   UNL A   1      31.504  25.944  24.182  1.00  0.00     0.061 A 
BRANCH  14  19
ATOM     19  O   UNL A   1      34.653  24.171  23.552  1.00  0.00    -0.490 OA
BRANCH  19  20
ATOM     20  C   UNL A   1      35.149  24.041  24.891  1.00  0.00     0.230 C 
BRANCH  20  21
ATOM     21  C   UNL A   1      35.348  22.567  25.259  1.00  0.00     0.041 C 
BRANCH  21  22
ATOM     22  C   UNL A   1      34.475  21.578  24.481  1.00  0.00     0.000 C 
ATOM     23  C   UNL A   1      34.661  20.131  24.912  1.00  0.00     0.004 C 
ENDBRANCH  21  22
ENDBRANCH  20  21
ENDBRANCH  19  20
ENDBRANCH  14  19
BRANCH  16  24
ATOM     24  O   UNL A   1      32.475  24.295  25.486  1.00  0.00    -0.493 OA
ATOM     25  C   UNL A   1      31.155  23.934  25.875  1.00  0.00     0.278 C 
ENDBRANCH  16  24
ENDBRANCH   8  13
ENDBRANCH   5   7
ENDBRANCH   4   5
ENDBRANCH   3   4
ENDBRANCH   2   3
ENDBRANCH   1   2
BRANCH   1  26
ATOM     26  C   UNL A   1      31.635  30.471  25.445  1.00  0.00     0.188 C 
BRANCH  26  27
ATOM     27  C   UNL A   1      31.594  29.165  26.262  1.00  0.00     0.188 C 
BRANCH  27  28
ATOM     28  O   UNL A   1      32.655  28.262  25.997  1.00  0.00    -0.376 OA
BRANCH  28  29
ATOM     29  C   UNL A   1      33.965  28.810  26.071  1.00  0.00     0.202 C 
BRANCH  29  30
ATOM     30  C   UNL A   1      34.358  29.271  27.479  1.00  0.00     0.261 C 
BRANCH  30  31
ATOM     31  O   UNL A   1      34.789  30.640  27.562  1.00  0.00    -0.460 OA
BRANCH  31  32
ATOM     32  C   UNL A   1      35.458  30.993  28.681  1.00  0.00     0.338 C 
ATOM     33  O   UNL A   1      35.063  31.710  29.583  1.00  0.00    -0.246 OA
BRANCH  32  34
ATOM     34  C   UNL A   1      36.723  30.234  28.718  1.00  0.00     0.060 A 
ATOM     35  C   UNL A   1      37.100  29.610  29.914  1.00  0.00     0.016 A 
ATOM     36  C   UNL A   1      37.545  30.167  27.591  1.00  0.00     0.016 A 
ATOM     37  C   UNL A   1      38.329  28.954  29.996  1.00  0.00     0.010 A 
ATOM     38  C   UNL A   1      38.782  29.524  27.680  1.00  0.00     0.010 A 
ATOM     39  C   UNL A   1      39.197  28.949  28.895  1.00  0.00    -0.014 A 
BRANCH  39  40
ATOM     40  C   UNL A   1      40.611  28.544  29.076  1.00  0.00     0.031 A 
ATOM     41  C   UNL A   1      41.531  29.482  29.811  1.00  0.00     0.074 A 
ATOM     42  C   UNL A   1      41.075  27.368  28.618  1.00  0.00     0.049 A 
ATOM     43  N   UNL A   1      42.804  29.359  30.086  1.00  0.00    -0.248 NA
ATOM     44  C   UNL A   1      40.928  30.733  30.300  1.00  0.00     0.031 C 
ATOM     45  C   UNL A   1      40.285  26.361  27.914  1.00  0.00     0.029 A 
ATOM     46  N   UNL A   1      42.337  26.828  28.678  1.00  0.00    -0.354 N 
ATOM     47  C   UNL A   1      43.151  30.509  30.781  1.00  0.00     0.074 A 
ATOM     48  C   UNL A   1      41.967  31.336  30.856  1.00  0.00     0.031 C 
ATOM     49  C   UNL A   1      41.083  25.325  27.599  1.00  0.00     0.029 A 
ATOM     50  C   UNL A   1      42.443  25.606  28.062  1.00  0.00     0.049 A 
ATOM     51  H   UNL A   1      43.094  27.276  29.121  1.00  0.00     0.167 HD
ATOM     52  C   UNL A   1      44.347  30.844  31.322  1.00  0.00     0.037 A 
ATOM     53  C   UNL A   1      43.519  24.815  27.883  1.00  0.00     0.037 A 
ATOM     54  C   UNL A   1      45.529  30.031  31.242  1.00  0.00     0.049 A 
ATOM     55  C   UNL A   1      44.855  25.238  28.441  1.00  0.00     0.074 A 
ATOM     56  C   UNL A   1      46.788  30.283  31.761  1.00  0.00     0.029 A 
ATOM     57  N   UNL A   1      45.600  28.808  30.594  1.00  0.00    -0.354 N 
ATOM     58  N   UNL A   1      45.166  26.310  29.128  1.00  0.00    -0.248 NA
ATOM     59  C   UNL A   1      45.990  24.332  28.204  1.00  0.00     0.031 C 
ATOM     60  C   UNL A   1      47.630  29.229  31.393  1.00  0.00     0.029 A 
ATOM     61  C   UNL A   1      46.885  28.299  30.686  1.00  0.00     0.049 A 
ATOM     62  H   UNL A   1      44.848  28.365  30.138  1.00  0.00     0.167 HD
ATOM     63  C   UNL A   1      46.517  26.191  29.435  1.00  0.00     0.074 A 
ATOM     64  C   UNL A   1      46.966  24.939  28.864  1.00  0.00     0.031 C 
ATOM     65  C   UNL A   1      47.312  27.040  30.131  1.00  0.00     0.037 A 
BRANCH  52  66
ATOM     66  C   UNL A   1      44.433  32.162  32.030  1.00  0.00     0.064 A 
ATOM     67  C   UNL A   1      44.160  32.278  33.401  1.00  0.00     0.173 A 
ATOM     68  C   UNL A   1      44.807  33.321  31.334  1.00  0.00     0.173 A 
ATOM     69  F   UNL A   1      43.781  31.201  34.107  1.00  0.00    -0.203 F 
ATOM     70  C   UNL A   1      44.235  33.510  34.044  1.00  0.00     0.198 A 
ATOM     71  C   UNL A   1      44.906  34.547  31.986  1.00  0.00     0.198 A 
ATOM     72  F   UNL A   1      45.078  33.263  30.021  1.00  0.00    -0.203 F 
ATOM     73  F   UNL A   1      43.926  33.605  35.345  1.00  0.00    -0.200 F 
ATOM     74  C   UNL A   1      44.614  34.641  33.338  1.00  0.00     0.200 A 
ATOM     75  F   UNL A   1      45.280  35.638  31.304  1.00  0.00    -0.200 F 
ATOM     76  F   UNL A   1      44.688  35.826  33.959  1.00  0.00    -0.200 F 
ENDBRANCH  52  66
BRANCH  53  77
ATOM     77  C   UNL A   1      43.385  23.532  27.145  1.00  0.00     0.064 A 
ATOM     78  C   UNL A   1      42.815  22.405  27.753  1.00  0.00     0.173 A 
ATOM     79  C   UNL A   1      43.855  23.398  25.831  1.00  0.00     0.173 A 
ATOM     80  F   UNL A   1      42.380  22.475  29.020  1.00  0.00    -0.203 F 
ATOM     81  C   UNL A   1      42.740  21.186  27.081  1.00  0.00     0.198 A 
ATOM     82  C   UNL A   1      43.756  22.186  25.151  1.00  0.00     0.198 A 
ATOM     83  F   UNL A   1      44.417  24.445  25.208  1.00  0.00    -0.203 F 
ATOM     84  F   UNL A   1      42.237  20.111  27.703  1.00  0.00    -0.200 F 
ATOM     85  C   UNL A   1      43.205  21.079  25.778  1.00  0.00     0.200 A 
ATOM     86  F   UNL A   1      44.203  22.088  23.892  1.00  0.00    -0.200 F 
ATOM     87  F   UNL A   1      43.135  19.906  25.135  1.00  0.00    -0.200 F 
ENDBRANCH  53  77
BRANCH  65  88
ATOM     88  C   UNL A   1      48.735  26.626  30.363  1.00  0.00     0.064 A 
ATOM     89  C   UNL A   1      49.774  27.045  29.520  1.00  0.00     0.173 A 
ATOM     90  C   UNL A   1      49.069  25.841  31.477  1.00  0.00     0.173 A 
ATOM     91  F   UNL A   1      49.506  27.787  28.435  1.00  0.00    -0.203 F 
ATOM     92  C   UNL A   1      51.093  26.672  29.770  1.00  0.00     0.198 A 
ATOM     93  C   UNL A   1      50.391  25.493  31.740  1.00  0.00     0.198 A 
ATOM     94  F   UNL A   1      48.113  25.422  32.320  1.00  0.00    -0.203 F 
ATOM     95  F   UNL A   1      52.065  27.049  28.928  1.00  0.00    -0.200 F 
ATOM     96  C   UNL A   1      51.401  25.904  30.882  1.00  0.00     0.200 A 
ATOM     97  F   UNL A   1      50.689  24.762  32.823  1.00  0.00    -0.200 F 
ATOM     98  F   UNL A   1      52.671  25.554  31.126  1.00  0.00    -0.200 F 
ENDBRANCH  65  88
ENDBRANCH  39  40
ENDBRANCH  32  34
ENDBRANCH  31  32
ENDBRANCH  30  31
ENDBRANCH  29  30
ENDBRANCH  28  29
ENDBRANCH  27  28
ENDBRANCH  26  27
ENDBRANCH   1  26
TORSDOF 23
ENDMDL
