MODEL 1
REMARK VINA RESULT:     -11.6      0.000      0.000
REMARK SMILES CC1(C)CCC[C@H]1NC(=O)N[C@@H]1COC[C@@]1(C)C(=O)OCCOCCOCCOC(=O)c1ccc(-c2c3nc(c(-c4c(F)c(F)c(F)c(F)c4F)c4ccc([nH]4)c(-c4c(F)c(F)c(F)c(F)c4F)c4nc(c(-c5c(F)c(F)c(F)c(F)c5F)c5ccc2[nH]5)C=C4)C=C3)cc1
REMARK SMILES IDX 24 1 23 2 22 3 21 4 20 5 18 6 19 7 16 8 12 9 13 10 14 11
REMARK SMILES IDX 15 12 17 13 11 14 8 15 9 16 10 18 7 20 1 21 2 22 3 23 4 24
REMARK SMILES IDX 5 25 6 26 25 27 26 28 27 29 28 30 29 31 30 32 31 33 32 34
REMARK SMILES IDX 33 35 94 36 34 37 93 38 35 39 36 40 37 41 87 42 38 43 92 44
REMARK SMILES IDX 86 45 88 46 39 47 91 48 85 49 84 50 40 52 72 53 52 54 71 55
REMARK SMILES IDX 53 56 56 57 70 58 89 59 54 60 55 61 69 63 90 64 57 65 41 66
REMARK SMILES IDX 42 67 50 68 43 69 44 70 48 71 51 72 45 73 46 74 49 75 47 76
REMARK SMILES IDX 73 77 74 78 82 79 75 80 76 81 80 82 83 83 77 84 78 85 81 86
REMARK SMILES IDX 79 87 58 88 59 89 67 90 60 91 61 92 65 93 68 94 62 95 63 96
REMARK SMILES IDX 66 97 64 98
REMARK H PARENT 8 17 11 19 88 51 56 62
REMARK Flexibility Score: inf
ROOT
ATOM      1  C   UNL A   1      39.948  21.521  26.395  1.00  0.00     0.188 C 
ENDROOT
BRANCH   1   2
ATOM      2  O   UNL A   1      38.859  20.776  25.869  1.00  0.00    -0.376 OA
BRANCH   2   3
ATOM      3  C   UNL A   1      37.961  21.494  25.022  1.00  0.00     0.202 C 
BRANCH   3   4
ATOM      4  C   UNL A   1      37.456  22.837  25.578  1.00  0.00     0.261 C 
BRANCH   4   5
ATOM      5  O   UNL A   1      36.160  22.699  26.180  1.00  0.00    -0.463 OA
BRANCH   5   6
ATOM      6  C   UNL A   1      35.020  22.859  25.442  1.00  0.00     0.316 C 
ATOM      7  O   UNL A   1      34.874  23.684  24.553  1.00  0.00    -0.251 OA
BRANCH   6   8
ATOM      8  C   UNL A   1      33.997  21.762  25.793  1.00  0.00     0.111 C 
ATOM      9  C   UNL A   1      32.573  22.026  25.280  1.00  0.00     0.129 C 
ATOM     10  C   UNL A   1      32.222  20.884  24.334  1.00  0.00     0.186 C 
ATOM     11  O   UNL A   1      33.235  19.886  24.460  1.00  0.00    -0.378 OA
ATOM     12  C   UNL A   1      34.402  20.497  25.019  1.00  0.00     0.181 C 
ATOM     13  C   UNL A   1      34.028  21.568  27.304  1.00  0.00     0.028 C 
BRANCH   9  14
ATOM     14  N   UNL A   1      31.518  22.306  26.279  1.00  0.00    -0.332 N 
ATOM     15  N   UNL A   1      30.960  24.613  26.641  1.00  0.00    -0.335 N 
ATOM     16  C   UNL A   1      30.840  23.303  26.848  1.00  0.00     0.315 C 
ATOM     17  H   UNL A   1      30.262  25.111  27.124  1.00  0.00     0.165 HD
ATOM     18  O   UNL A   1      29.971  22.957  27.659  1.00  0.00    -0.249 OA
ATOM     19  H   UNL A   1      31.206  21.452  26.660  1.00  0.00     0.165 HD
BRANCH  15  20
ATOM     20  C   UNL A   1      31.831  25.525  25.903  1.00  0.00     0.089 C 
ATOM     21  C   UNL A   1      30.395  24.854  23.740  1.00  0.00     0.013 C 
ATOM     22  C   UNL A   1      31.376  25.822  24.425  1.00  0.00    -0.015 C 
ATOM     23  C   UNL A   1      32.630  25.925  23.543  1.00  0.00     0.013 C 
ATOM     24  C   UNL A   1      30.703  27.198  24.517  1.00  0.00     0.008 C 
ATOM     25  C   UNL A   1      31.530  27.951  25.536  1.00  0.00     0.003 C 
ATOM     26  C   UNL A   1      31.875  26.907  26.593  1.00  0.00     0.025 C 
ENDBRANCH  15  20
ENDBRANCH   9  14
ENDBRANCH   6   8
ENDBRANCH   5   6
ENDBRANCH   4   5
ENDBRANCH   3   4
ENDBRANCH   2   3
ENDBRANCH   1   2
BRANCH   1  27
ATOM     27  C   UNL A   1      40.774  20.843  27.487  1.00  0.00     0.188 C 
BRANCH  27  28
ATOM     28  O   UNL A   1      41.904  20.107  27.051  1.00  0.00    -0.376 OA
BRANCH  28  29
ATOM     29  C   UNL A   1      42.494  20.531  25.814  1.00  0.00     0.202 C 
BRANCH  29  30
ATOM     30  C   UNL A   1      43.919  21.136  25.813  1.00  0.00     0.261 C 
BRANCH  30  31
ATOM     31  O   UNL A   1      44.073  22.464  26.358  1.00  0.00    -0.460 OA
BRANCH  31  32
ATOM     32  C   UNL A   1      43.683  23.510  25.597  1.00  0.00     0.338 C 
ATOM     33  O   UNL A   1      43.639  23.541  24.377  1.00  0.00    -0.246 OA
BRANCH  32  34
ATOM     34  C   UNL A   1      43.058  24.531  26.484  1.00  0.00     0.060 A 
ATOM     35  C   UNL A   1      43.451  25.867  26.335  1.00  0.00     0.016 A 
ATOM     36  C   UNL A   1      42.074  24.215  27.421  1.00  0.00     0.016 A 
ATOM     37  C   UNL A   1      42.921  26.881  27.131  1.00  0.00     0.010 A 
ATOM     38  C   UNL A   1      41.541  25.230  28.232  1.00  0.00     0.010 A 
ATOM     39  C   UNL A   1      41.984  26.563  28.112  1.00  0.00    -0.014 A 
BRANCH  39  40
ATOM     40  C   UNL A   1      41.605  27.570  29.137  1.00  0.00     0.031 A 
ATOM     41  C   UNL A   1      42.420  27.633  30.398  1.00  0.00     0.074 A 
ATOM     42  C   UNL A   1      40.586  28.430  28.959  1.00  0.00     0.049 A 
ATOM     43  N   UNL A   1      42.176  28.253  31.523  1.00  0.00    -0.248 NA
ATOM     44  C   UNL A   1      43.688  26.885  30.384  1.00  0.00     0.031 C 
ATOM     45  C   UNL A   1      39.793  28.568  27.740  1.00  0.00     0.029 A 
ATOM     46  N   UNL A   1      40.033  29.345  29.826  1.00  0.00    -0.354 N 
ATOM     47  C   UNL A   1      43.233  27.931  32.364  1.00  0.00     0.074 A 
ATOM     48  C   UNL A   1      44.119  27.061  31.623  1.00  0.00     0.031 C 
ATOM     49  C   UNL A   1      38.835  29.490  27.946  1.00  0.00     0.029 A 
ATOM     50  C   UNL A   1      38.907  29.956  29.330  1.00  0.00     0.049 A 
ATOM     51  H   UNL A   1      40.408  29.541  30.715  1.00  0.00     0.167 HD
ATOM     52  C   UNL A   1      43.438  28.322  33.644  1.00  0.00     0.037 A 
ATOM     53  C   UNL A   1      38.008  30.753  29.943  1.00  0.00     0.037 A 
ATOM     54  C   UNL A   1      42.562  29.209  34.364  1.00  0.00     0.049 A 
ATOM     55  C   UNL A   1      38.194  31.091  31.403  1.00  0.00     0.074 A 
ATOM     56  C   UNL A   1      42.674  29.663  35.665  1.00  0.00     0.029 A 
ATOM     57  N   UNL A   1      41.409  29.774  33.839  1.00  0.00    -0.354 N 
ATOM     58  N   UNL A   1      39.164  30.748  32.217  1.00  0.00    -0.248 NA
ATOM     59  C   UNL A   1      37.155  31.919  32.034  1.00  0.00     0.031 C 
ATOM     60  C   UNL A   1      41.558  30.454  35.948  1.00  0.00     0.029 A 
ATOM     61  C   UNL A   1      40.787  30.553  34.800  1.00  0.00     0.049 A 
ATOM     62  H   UNL A   1      41.082  29.642  32.920  1.00  0.00     0.167 HD
ATOM     63  C   UNL A   1      38.874  31.346  33.437  1.00  0.00     0.074 A 
ATOM     64  C   UNL A   1      37.636  32.076  33.260  1.00  0.00     0.031 C 
ATOM     65  C   UNL A   1      39.570  31.298  34.599  1.00  0.00     0.037 A 
BRANCH  52  66
ATOM     66  C   UNL A   1      44.622  27.749  34.366  1.00  0.00     0.064 A 
ATOM     67  C   UNL A   1      45.891  28.344  34.313  1.00  0.00     0.173 A 
ATOM     68  C   UNL A   1      44.474  26.590  35.143  1.00  0.00     0.173 A 
ATOM     69  F   UNL A   1      46.092  29.443  33.569  1.00  0.00    -0.203 F 
ATOM     70  C   UNL A   1      46.973  27.783  34.988  1.00  0.00     0.198 A 
ATOM     71  C   UNL A   1      45.548  26.051  35.845  1.00  0.00     0.198 A 
ATOM     72  F   UNL A   1      43.281  25.981  35.230  1.00  0.00    -0.203 F 
ATOM     73  F   UNL A   1      48.188  28.336  34.877  1.00  0.00    -0.200 F 
ATOM     74  C   UNL A   1      46.799  26.643  35.758  1.00  0.00     0.200 A 
ATOM     75  F   UNL A   1      45.375  24.958  36.599  1.00  0.00    -0.200 F 
ATOM     76  F   UNL A   1      47.840  26.109  36.413  1.00  0.00    -0.200 F 
ENDBRANCH  52  66
BRANCH  53  77
ATOM     77  C   UNL A   1      36.813  31.243  29.202  1.00  0.00     0.064 A 
ATOM     78  C   UNL A   1      35.761  30.378  28.868  1.00  0.00     0.173 A 
ATOM     79  C   UNL A   1      36.713  32.578  28.781  1.00  0.00     0.173 A 
ATOM     80  F   UNL A   1      35.821  29.084  29.217  1.00  0.00    -0.203 F 
ATOM     81  C   UNL A   1      34.667  30.824  28.128  1.00  0.00     0.198 A 
ATOM     82  C   UNL A   1      35.603  33.031  28.071  1.00  0.00     0.198 A 
ATOM     83  F   UNL A   1      37.695  33.447  29.063  1.00  0.00    -0.203 F 
ATOM     84  F   UNL A   1      33.703  29.963  27.775  1.00  0.00    -0.200 F 
ATOM     85  C   UNL A   1      34.584  32.152  27.737  1.00  0.00     0.200 A 
ATOM     86  F   UNL A   1      35.525  34.318  27.703  1.00  0.00    -0.200 F 
ATOM     87  F   UNL A   1      33.532  32.580  27.027  1.00  0.00    -0.200 F 
ENDBRANCH  53  77
BRANCH  65  88
ATOM     88  C   UNL A   1      39.065  32.109  35.758  1.00  0.00     0.064 A 
ATOM     89  C   UNL A   1      38.271  31.548  36.768  1.00  0.00     0.173 A 
ATOM     90  C   UNL A   1      39.456  33.450  35.900  1.00  0.00     0.173 A 
ATOM     91  F   UNL A   1      37.859  30.274  36.674  1.00  0.00    -0.203 F 
ATOM     92  C   UNL A   1      37.879  32.302  37.871  1.00  0.00     0.198 A 
ATOM     93  C   UNL A   1      39.090  34.191  37.019  1.00  0.00     0.198 A 
ATOM     94  F   UNL A   1      40.224  34.033  34.966  1.00  0.00    -0.203 F 
ATOM     95  F   UNL A   1      37.092  31.756  38.809  1.00  0.00    -0.200 F 
ATOM     96  C   UNL A   1      38.298  33.618  38.002  1.00  0.00     0.200 A 
ATOM     97  F   UNL A   1      39.513  35.456  37.152  1.00  0.00    -0.200 F 
ATOM     98  F   UNL A   1      37.938  34.336  39.075  1.00  0.00    -0.200 F 
ENDBRANCH  65  88
ENDBRANCH  39  40
ENDBRANCH  32  34
ENDBRANCH  31  32
ENDBRANCH  30  31
ENDBRANCH  29  30
ENDBRANCH  28  29
ENDBRANCH  27  28
ENDBRANCH   1  27
TORSDOF 19
ENDMDL
MODEL 2
REMARK VINA RESULT:     -11.2      0.993      2.230
REMARK SMILES CC1(C)CCC[C@H]1NC(=O)N[C@@H]1COC[C@@]1(C)C(=O)OCCOCCOCCOC(=O)c1ccc(-c2c3nc(c(-c4c(F)c(F)c(F)c(F)c4F)c4ccc([nH]4)c(-c4c(F)c(F)c(F)c(F)c4F)c4nc(c(-c5c(F)c(F)c(F)c(F)c5F)c5ccc2[nH]5)C=C4)C=C3)cc1
REMARK SMILES IDX 24 1 23 2 22 3 21 4 20 5 18 6 19 7 16 8 12 9 13 10 14 11
REMARK SMILES IDX 15 12 17 13 11 14 8 15 9 16 10 18 7 20 1 21 2 22 3 23 4 24
REMARK SMILES IDX 5 25 6 26 25 27 26 28 27 29 28 30 29 31 30 32 31 33 32 34
REMARK SMILES IDX 33 35 94 36 34 37 93 38 35 39 36 40 37 41 87 42 38 43 92 44
REMARK SMILES IDX 86 45 88 46 39 47 91 48 85 49 84 50 40 52 72 53 52 54 71 55
REMARK SMILES IDX 53 56 56 57 70 58 89 59 54 60 55 61 69 63 90 64 57 65 41 66
REMARK SMILES IDX 42 67 50 68 43 69 44 70 48 71 51 72 45 73 46 74 49 75 47 76
REMARK SMILES IDX 73 77 74 78 82 79 75 80 76 81 80 82 83 83 77 84 78 85 81 86
REMARK SMILES IDX 79 87 58 88 59 89 67 90 60 91 61 92 65 93 68 94 62 95 63 96
REMARK SMILES IDX 66 97 64 98
REMARK H PARENT 8 17 11 19 88 51 56 62
REMARK Flexibility Score: inf
ROOT
ATOM      1  C   UNL A   1      38.486  20.938  25.717  1.00  0.00     0.188 C 
ENDROOT
BRANCH   1   2
ATOM      2  O   UNL A   1      37.635  22.036  25.421  1.00  0.00    -0.376 OA
BRANCH   2   3
ATOM      3  C   UNL A   1      37.138  22.099  24.084  1.00  0.00     0.202 C 
BRANCH   3   4
ATOM      4  C   UNL A   1      36.301  23.344  23.745  1.00  0.00     0.261 C 
BRANCH   4   5
ATOM      5  O   UNL A   1      34.894  23.056  23.791  1.00  0.00    -0.463 OA
BRANCH   5   6
ATOM      6  C   UNL A   1      34.113  23.523  24.811  1.00  0.00     0.316 C 
ATOM      7  O   UNL A   1      34.433  24.413  25.585  1.00  0.00    -0.251 OA
BRANCH   6   8
ATOM      8  C   UNL A   1      32.721  22.866  24.763  1.00  0.00     0.111 C 
ATOM      9  C   UNL A   1      31.574  23.821  24.393  1.00  0.00     0.129 C 
ATOM     10  C   UNL A   1      30.951  23.290  23.108  1.00  0.00     0.186 C 
ATOM     11  O   UNL A   1      31.497  21.995  22.860  1.00  0.00    -0.378 OA
ATOM     12  C   UNL A   1      32.724  21.878  23.585  1.00  0.00     0.181 C 
ATOM     13  C   UNL A   1      32.482  22.187  26.105  1.00  0.00     0.028 C 
BRANCH   9  14
ATOM     14  N   UNL A   1      30.578  24.143  25.440  1.00  0.00    -0.332 N 
ATOM     15  N   UNL A   1      30.520  26.418  26.207  1.00  0.00    -0.335 N 
ATOM     16  C   UNL A   1      30.116  25.149  26.183  1.00  0.00     0.315 C 
ATOM     17  H   UNL A   1      29.932  26.963  26.778  1.00  0.00     0.165 HD
ATOM     18  O   UNL A   1      29.172  24.863  26.931  1.00  0.00    -0.249 OA
ATOM     19  H   UNL A   1      30.081  23.324  25.668  1.00  0.00     0.165 HD
BRANCH  15  20
ATOM     20  C   UNL A   1      31.585  27.235  25.629  1.00  0.00     0.089 C 
ATOM     21  C   UNL A   1      30.194  27.102  23.339  1.00  0.00     0.013 C 
ATOM     22  C   UNL A   1      31.286  27.784  24.184  1.00  0.00    -0.015 C 
ATOM     23  C   UNL A   1      32.592  27.757  23.375  1.00  0.00     0.013 C 
ATOM     24  C   UNL A   1      30.864  29.240  24.423  1.00  0.00     0.008 C 
ATOM     25  C   UNL A   1      31.744  29.700  25.564  1.00  0.00     0.003 C 
ATOM     26  C   UNL A   1      31.830  28.493  26.492  1.00  0.00     0.025 C 
ENDBRANCH  15  20
ENDBRANCH   9  14
ENDBRANCH   6   8
ENDBRANCH   5   6
ENDBRANCH   4   5
ENDBRANCH   3   4
ENDBRANCH   2   3
ENDBRANCH   1   2
BRANCH   1  27
ATOM     27  C   UNL A   1      39.929  21.276  26.091  1.00  0.00     0.188 C 
BRANCH  27  28
ATOM     28  O   UNL A   1      40.459  20.595  27.215  1.00  0.00    -0.376 OA
BRANCH  28  29
ATOM     29  C   UNL A   1      41.812  20.136  27.095  1.00  0.00     0.202 C 
BRANCH  29  30
ATOM     30  C   UNL A   1      42.728  20.730  25.997  1.00  0.00     0.261 C 
BRANCH  30  31
ATOM     31  O   UNL A   1      43.400  21.972  26.299  1.00  0.00    -0.460 OA
BRANCH  31  32
ATOM     32  C   UNL A   1      43.117  23.048  25.532  1.00  0.00     0.338 C 
ATOM     33  O   UNL A   1      43.061  23.073  24.313  1.00  0.00    -0.246 OA
BRANCH  32  34
ATOM     34  C   UNL A   1      42.619  24.139  26.417  1.00  0.00     0.060 A 
ATOM     35  C   UNL A   1      43.188  25.412  26.281  1.00  0.00     0.016 A 
ATOM     36  C   UNL A   1      41.588  23.952  27.337  1.00  0.00     0.016 A 
ATOM     37  C   UNL A   1      42.785  26.484  27.076  1.00  0.00     0.010 A 
ATOM     38  C   UNL A   1      41.182  25.025  28.146  1.00  0.00     0.010 A 
ATOM     39  C   UNL A   1      41.799  26.288  28.042  1.00  0.00    -0.014 A 
BRANCH  39  40
ATOM     40  C   UNL A   1      41.542  27.333  29.067  1.00  0.00     0.031 A 
ATOM     41  C   UNL A   1      42.404  27.340  30.297  1.00  0.00     0.074 A 
ATOM     42  C   UNL A   1      40.590  28.272  28.915  1.00  0.00     0.049 A 
ATOM     43  N   UNL A   1      42.254  27.988  31.422  1.00  0.00    -0.248 NA
ATOM     44  C   UNL A   1      43.606  26.491  30.247  1.00  0.00     0.031 C 
ATOM     45  C   UNL A   1      39.766  28.462  27.724  1.00  0.00     0.029 A 
ATOM     46  N   UNL A   1      40.146  29.236  29.790  1.00  0.00    -0.354 N 
ATOM     47  C   UNL A   1      43.311  27.589  32.229  1.00  0.00     0.074 A 
ATOM     48  C   UNL A   1      44.096  26.642  31.467  1.00  0.00     0.031 C 
ATOM     49  C   UNL A   1      38.895  29.462  27.953  1.00  0.00     0.029 A 
ATOM     50  C   UNL A   1      39.056  29.933  29.328  1.00  0.00     0.049 A 
ATOM     51  H   UNL A   1      40.568  29.409  30.662  1.00  0.00     0.167 HD
ATOM     52  C   UNL A   1      43.595  27.974  33.495  1.00  0.00     0.037 A 
ATOM     53  C   UNL A   1      38.247  30.806  29.963  1.00  0.00     0.037 A 
ATOM     54  C   UNL A   1      42.820  28.935  34.235  1.00  0.00     0.049 A 
ATOM     55  C   UNL A   1      38.515  31.141  31.411  1.00  0.00     0.074 A 
ATOM     56  C   UNL A   1      43.017  29.390  35.526  1.00  0.00     0.029 A 
ATOM     57  N   UNL A   1      41.699  29.588  33.745  1.00  0.00    -0.354 N 
ATOM     58  N   UNL A   1      39.482  30.727  32.194  1.00  0.00    -0.248 NA
ATOM     59  C   UNL A   1      37.570  32.057  32.069  1.00  0.00     0.031 C 
ATOM     60  C   UNL A   1      41.979  30.273  35.840  1.00  0.00     0.029 A 
ATOM     61  C   UNL A   1      41.178  30.424  34.719  1.00  0.00     0.049 A 
ATOM     62  H   UNL A   1      41.328  29.475  32.840  1.00  0.00     0.167 HD
ATOM     63  C   UNL A   1      39.287  31.358  33.416  1.00  0.00     0.074 A 
ATOM     64  C   UNL A   1      38.107  32.185  33.274  1.00  0.00     0.031 C 
ATOM     65  C   UNL A   1      40.019  31.265  34.552  1.00  0.00     0.037 A 
BRANCH  52  66
ATOM     66  C   UNL A   1      44.753  27.312  34.181  1.00  0.00     0.064 A 
ATOM     67  C   UNL A   1      44.640  26.057  34.797  1.00  0.00     0.173 A 
ATOM     68  C   UNL A   1      46.007  27.942  34.203  1.00  0.00     0.173 A 
ATOM     69  F   UNL A   1      43.459  25.420  34.822  1.00  0.00    -0.203 F 
ATOM     70  C   UNL A   1      45.732  25.471  35.434  1.00  0.00     0.198 A 
ATOM     71  C   UNL A   1      47.105  27.339  34.809  1.00  0.00     0.198 A 
ATOM     72  F   UNL A   1      46.172  29.143  33.627  1.00  0.00    -0.203 F 
ATOM     73  F   UNL A   1      45.587  24.298  36.065  1.00  0.00    -0.200 F 
ATOM     74  C   UNL A   1      46.964  26.109  35.433  1.00  0.00     0.200 A 
ATOM     75  F   UNL A   1      48.298  27.950  34.794  1.00  0.00    -0.200 F 
ATOM     76  F   UNL A   1      48.016  25.540  36.040  1.00  0.00    -0.200 F 
ENDBRANCH  52  66
BRANCH  53  77
ATOM     77  C   UNL A   1      37.070  31.385  29.259  1.00  0.00     0.064 A 
ATOM     78  C   UNL A   1      37.041  32.736  28.884  1.00  0.00     0.173 A 
ATOM     79  C   UNL A   1      35.936  30.609  28.976  1.00  0.00     0.173 A 
ATOM     80  F   UNL A   1      38.086  33.530  29.160  1.00  0.00    -0.203 F 
ATOM     81  C   UNL A   1      35.919  33.291  28.271  1.00  0.00     0.198 A 
ATOM     82  C   UNL A   1      34.827  31.157  28.333  1.00  0.00     0.198 A 
ATOM     83  F   UNL A   1      35.903  29.314  29.322  1.00  0.00    -0.203 F 
ATOM     84  F   UNL A   1      35.896  34.598  27.975  1.00  0.00    -0.200 F 
ATOM     85  C   UNL A   1      34.815  32.500  27.990  1.00  0.00     0.200 A 
ATOM     86  F   UNL A   1      33.767  30.385  28.055  1.00  0.00    -0.200 F 
ATOM     87  F   UNL A   1      33.737  33.034  27.401  1.00  0.00    -0.200 F 
ENDBRANCH  53  77
BRANCH  65  88
ATOM     88  C   UNL A   1      39.624  32.124  35.718  1.00  0.00     0.064 A 
ATOM     89  C   UNL A   1      40.155  33.408  35.910  1.00  0.00     0.173 A 
ATOM     90  C   UNL A   1      38.632  31.685  36.611  1.00  0.00     0.173 A 
ATOM     91  F   UNL A   1      41.115  33.870  35.094  1.00  0.00    -0.203 F 
ATOM     92  C   UNL A   1      39.715  34.215  36.957  1.00  0.00     0.198 A 
ATOM     93  C   UNL A   1      38.172  32.506  37.635  1.00  0.00     0.198 A 
ATOM     94  F   UNL A   1      38.084  30.469  36.466  1.00  0.00    -0.203 F 
ATOM     95  F   UNL A   1      40.260  35.425  37.141  1.00  0.00    -0.200 F 
ATOM     96  C   UNL A   1      38.717  33.769  37.811  1.00  0.00     0.200 A 
ATOM     97  F   UNL A   1      37.193  32.080  38.446  1.00  0.00    -0.200 F 
ATOM     98  F   UNL A   1      38.279  34.556  38.803  1.00  0.00    -0.200 F 
ENDBRANCH  65  88
ENDBRANCH  39  40
ENDBRANCH  32  34
ENDBRANCH  31  32
ENDBRANCH  30  31
ENDBRANCH  29  30
ENDBRANCH  28  29
ENDBRANCH  27  28
ENDBRANCH   1  27
TORSDOF 19
ENDMDL
MODEL 3
REMARK VINA RESULT:     -11.2      3.843      9.217
REMARK SMILES CC1(C)CCC[C@H]1NC(=O)N[C@@H]1COC[C@@]1(C)C(=O)OCCOCCOCCOC(=O)c1ccc(-c2c3nc(c(-c4c(F)c(F)c(F)c(F)c4F)c4ccc([nH]4)c(-c4c(F)c(F)c(F)c(F)c4F)c4nc(c(-c5c(F)c(F)c(F)c(F)c5F)c5ccc2[nH]5)C=C4)C=C3)cc1
REMARK SMILES IDX 24 1 23 2 22 3 21 4 20 5 18 6 19 7 16 8 12 9 13 10 14 11
REMARK SMILES IDX 15 12 17 13 11 14 8 15 9 16 10 18 7 20 1 21 2 22 3 23 4 24
REMARK SMILES IDX 5 25 6 26 25 27 26 28 27 29 28 30 29 31 30 32 31 33 32 34
REMARK SMILES IDX 33 35 94 36 34 37 93 38 35 39 36 40 37 41 87 42 38 43 92 44
REMARK SMILES IDX 86 45 88 46 39 47 91 48 85 49 84 50 40 52 72 53 52 54 71 55
REMARK SMILES IDX 53 56 56 57 70 58 89 59 54 60 55 61 69 63 90 64 57 65 41 66
REMARK SMILES IDX 42 67 50 68 43 69 44 70 48 71 51 72 45 73 46 74 49 75 47 76
REMARK SMILES IDX 73 77 74 78 82 79 75 80 76 81 80 82 83 83 77 84 78 85 81 86
REMARK SMILES IDX 79 87 58 88 59 89 67 90 60 91 61 92 65 93 68 94 62 95 63 96
REMARK SMILES IDX 66 97 64 98
REMARK H PARENT 8 17 11 19 88 51 56 62
REMARK Flexibility Score: inf
ROOT
ATOM      1  C   UNL A   1      34.512  31.765  28.683  1.00  0.00     0.188 C 
ENDROOT
BRANCH   1   2
ATOM      2  O   UNL A   1      33.626  31.794  27.573  1.00  0.00    -0.376 OA
BRANCH   2   3
ATOM      3  C   UNL A   1      32.991  30.557  27.247  1.00  0.00     0.202 C 
BRANCH   3   4
ATOM      4  C   UNL A   1      33.941  29.386  26.940  1.00  0.00     0.261 C 
BRANCH   4   5
ATOM      5  O   UNL A   1      33.916  29.045  25.545  1.00  0.00    -0.463 OA
BRANCH   5   6
ATOM      6  C   UNL A   1      33.151  28.008  25.087  1.00  0.00     0.316 C 
ATOM      7  O   UNL A   1      32.891  26.998  25.724  1.00  0.00    -0.251 OA
BRANCH   6   8
ATOM      8  C   UNL A   1      32.549  28.354  23.712  1.00  0.00     0.111 C 
ATOM      9  C   UNL A   1      31.718  27.228  23.076  1.00  0.00     0.129 C 
ATOM     10  C   UNL A   1      30.302  27.766  22.900  1.00  0.00     0.186 C 
ATOM     11  O   UNL A   1      30.332  29.168  23.165  1.00  0.00    -0.378 OA
ATOM     12  C   UNL A   1      31.500  29.455  23.938  1.00  0.00     0.181 C 
ATOM     13  C   UNL A   1      33.690  28.798  22.806  1.00  0.00     0.028 C 
BRANCH   9  14
ATOM     14  N   UNL A   1      32.253  26.576  21.860  1.00  0.00    -0.332 N 
ATOM     15  N   UNL A   1      33.089  24.340  22.116  1.00  0.00    -0.335 N 
ATOM     16  C   UNL A   1      32.798  25.440  21.424  1.00  0.00     0.315 C 
ATOM     17  H   UNL A   1      33.390  23.618  21.518  1.00  0.00     0.165 HD
ATOM     18  O   UNL A   1      33.043  25.401  20.211  1.00  0.00    -0.249 OA
ATOM     19  H   UNL A   1      32.183  27.205  21.105  1.00  0.00     0.165 HD
BRANCH  15  20
ATOM     20  C   UNL A   1      33.090  23.895  23.508  1.00  0.00     0.089 C 
ATOM     21  C   UNL A   1      32.140  21.567  22.573  1.00  0.00     0.013 C 
ATOM     22  C   UNL A   1      32.811  22.359  23.711  1.00  0.00    -0.015 C 
ATOM     23  C   UNL A   1      31.956  22.184  24.975  1.00  0.00     0.013 C 
ATOM     24  C   UNL A   1      34.204  21.761  23.951  1.00  0.00     0.008 C 
ATOM     25  C   UNL A   1      34.929  22.815  24.757  1.00  0.00     0.003 C 
ATOM     26  C   UNL A   1      34.473  24.139  24.152  1.00  0.00     0.025 C 
ENDBRANCH  15  20
ENDBRANCH   9  14
ENDBRANCH   6   8
ENDBRANCH   5   6
ENDBRANCH   4   5
ENDBRANCH   3   4
ENDBRANCH   2   3
ENDBRANCH   1   2
BRANCH   1  27
ATOM     27  C   UNL A   1      34.587  33.036  29.528  1.00  0.00     0.188 C 
BRANCH  27  28
ATOM     28  O   UNL A   1      35.140  34.177  28.894  1.00  0.00    -0.376 OA
BRANCH  28  29
ATOM     29  C   UNL A   1      34.231  35.251  28.623  1.00  0.00     0.202 C 
BRANCH  29  30
ATOM     30  C   UNL A   1      32.990  35.451  29.527  1.00  0.00     0.261 C 
BRANCH  30  31
ATOM     31  O   UNL A   1      33.114  36.384  30.622  1.00  0.00    -0.460 OA
BRANCH  31  32
ATOM     32  C   UNL A   1      32.723  35.976  31.849  1.00  0.00     0.338 C 
ATOM     33  O   UNL A   1      31.597  36.062  32.316  1.00  0.00    -0.246 OA
BRANCH  32  34
ATOM     34  C   UNL A   1      33.816  35.158  32.445  1.00  0.00     0.060 A 
ATOM     35  C   UNL A   1      35.114  35.686  32.442  1.00  0.00     0.016 A 
ATOM     36  C   UNL A   1      33.592  33.915  33.036  1.00  0.00     0.016 A 
ATOM     37  C   UNL A   1      36.194  34.981  32.971  1.00  0.00     0.010 A 
ATOM     38  C   UNL A   1      34.676  33.196  33.564  1.00  0.00     0.010 A 
ATOM     39  C   UNL A   1      35.987  33.711  33.507  1.00  0.00    -0.014 A 
BRANCH  39  40
ATOM     40  C   UNL A   1      37.147  32.841  33.832  1.00  0.00     0.031 A 
ATOM     41  C   UNL A   1      37.850  33.064  35.141  1.00  0.00     0.074 A 
ATOM     42  C   UNL A   1      37.563  31.859  33.011  1.00  0.00     0.049 A 
ATOM     43  N   UNL A   1      38.998  32.604  35.565  1.00  0.00    -0.248 NA
ATOM     44  C   UNL A   1      37.155  33.932  36.106  1.00  0.00     0.031 C 
ATOM     45  C   UNL A   1      36.903  31.449  31.774  1.00  0.00     0.029 A 
ATOM     46  N   UNL A   1      38.662  31.037  33.095  1.00  0.00    -0.354 N 
ATOM     47  C   UNL A   1      39.185  33.164  36.821  1.00  0.00     0.074 A 
ATOM     48  C   UNL A   1      38.035  33.999  37.092  1.00  0.00     0.031 C 
ATOM     49  C   UNL A   1      37.628  30.472  31.198  1.00  0.00     0.029 A 
ATOM     50  C   UNL A   1      38.834  30.238  31.991  1.00  0.00     0.049 A 
ATOM     51  H   UNL A   1      39.268  31.023  33.872  1.00  0.00     0.167 HD
ATOM     52  C   UNL A   1      40.229  33.002  37.667  1.00  0.00     0.037 A 
ATOM     53  C   UNL A   1      39.872  29.455  31.635  1.00  0.00     0.037 A 
ATOM     54  C   UNL A   1      41.357  32.150  37.397  1.00  0.00     0.049 A 
ATOM     55  C   UNL A   1      41.078  29.370  32.541  1.00  0.00     0.074 A 
ATOM     56  C   UNL A   1      42.471  31.919  38.184  1.00  0.00     0.029 A 
ATOM     57  N   UNL A   1      41.512  31.389  36.248  1.00  0.00    -0.354 N 
ATOM     58  N   UNL A   1      41.282  29.938  33.705  1.00  0.00    -0.248 NA
ATOM     59  C   UNL A   1      42.203  28.544  32.078  1.00  0.00     0.031 C 
ATOM     60  C   UNL A   1      43.329  31.065  37.484  1.00  0.00     0.029 A 
ATOM     61  C   UNL A   1      42.717  30.707  36.294  1.00  0.00     0.049 A 
ATOM     62  H   UNL A   1      40.862  31.340  35.509  1.00  0.00     0.167 HD
ATOM     63  C   UNL A   1      42.534  29.510  34.130  1.00  0.00     0.074 A 
ATOM     64  C   UNL A   1      43.046  28.632  33.098  1.00  0.00     0.031 C 
ATOM     65  C   UNL A   1      43.199  29.813  35.271  1.00  0.00     0.037 A 
BRANCH  52  66
ATOM     66  C   UNL A   1      40.230  33.805  38.935  1.00  0.00     0.064 A 
ATOM     67  C   UNL A   1      39.592  33.361  40.102  1.00  0.00     0.173 A 
ATOM     68  C   UNL A   1      40.902  35.036  38.983  1.00  0.00     0.173 A 
ATOM     69  F   UNL A   1      38.918  32.200  40.104  1.00  0.00    -0.203 F 
ATOM     70  C   UNL A   1      39.603  34.133  41.261  1.00  0.00     0.198 A 
ATOM     71  C   UNL A   1      40.942  35.789  40.153  1.00  0.00     0.198 A 
ATOM     72  F   UNL A   1      41.532  35.507  37.896  1.00  0.00    -0.203 F 
ATOM     73  F   UNL A   1      38.939  33.716  42.348  1.00  0.00    -0.200 F 
ATOM     74  C   UNL A   1      40.283  35.341  41.288  1.00  0.00     0.200 A 
ATOM     75  F   UNL A   1      41.612  36.949  40.180  1.00  0.00    -0.200 F 
ATOM     76  F   UNL A   1      40.299  36.079  42.407  1.00  0.00    -0.200 F 
ENDBRANCH  52  66
BRANCH  53  77
ATOM     77  C   UNL A   1      39.853  28.730  30.335  1.00  0.00     0.064 A 
ATOM     78  C   UNL A   1      39.324  27.435  30.234  1.00  0.00     0.173 A 
ATOM     79  C   UNL A   1      40.393  29.302  29.173  1.00  0.00     0.173 A 
ATOM     80  F   UNL A   1      38.825  26.828  31.321  1.00  0.00    -0.203 F 
ATOM     81  C   UNL A   1      39.353  26.735  29.028  1.00  0.00     0.198 A 
ATOM     82  C   UNL A   1      40.392  28.614  27.961  1.00  0.00     0.198 A 
ATOM     83  F   UNL A   1      40.923  30.533  29.213  1.00  0.00    -0.203 F 
ATOM     84  F   UNL A   1      38.892  25.478  28.974  1.00  0.00    -0.200 F 
ATOM     85  C   UNL A   1      39.880  27.328  27.891  1.00  0.00     0.200 A 
ATOM     86  F   UNL A   1      40.894  29.196  26.862  1.00  0.00    -0.200 F 
ATOM     87  F   UNL A   1      39.907  26.656  26.732  1.00  0.00    -0.200 F 
ENDBRANCH  53  77
BRANCH  65  88
ATOM     88  C   UNL A   1      44.520  29.143  35.516  1.00  0.00     0.064 A 
ATOM     89  C   UNL A   1      44.618  27.907  36.170  1.00  0.00     0.173 A 
ATOM     90  C   UNL A   1      45.701  29.712  35.009  1.00  0.00     0.173 A 
ATOM     91  F   UNL A   1      43.523  27.326  36.684  1.00  0.00    -0.203 F 
ATOM     92  C   UNL A   1      45.849  27.270  36.316  1.00  0.00     0.198 A 
ATOM     93  C   UNL A   1      46.923  29.058  35.129  1.00  0.00     0.198 A 
ATOM     94  F   UNL A   1      45.661  30.889  34.367  1.00  0.00    -0.203 F 
ATOM     95  F   UNL A   1      45.923  26.105  36.974  1.00  0.00    -0.200 F 
ATOM     96  C   UNL A   1      46.997  27.840  35.787  1.00  0.00     0.200 A 
ATOM     97  F   UNL A   1      48.027  29.602  34.598  1.00  0.00    -0.200 F 
ATOM     98  F   UNL A   1      48.176  27.215  35.909  1.00  0.00    -0.200 F 
ENDBRANCH  65  88
ENDBRANCH  39  40
ENDBRANCH  32  34
ENDBRANCH  31  32
ENDBRANCH  30  31
ENDBRANCH  29  30
ENDBRANCH  28  29
ENDBRANCH  27  28
ENDBRANCH   1  27
TORSDOF 19
ENDMDL
