MODEL 1
REMARK VINA RESULT:     -11.7      0.000      0.000
REMARK SMILES CC(C)N1C[C@@]2(CCCN(c3ccc(C(=O)OCCOCCOCCOC(=O)c4ccc(-c5c6nc(c(-c7c(F)c(F)c(F)c(F)c7F)c7ccc([nH]7)c(-c7c(F)c(F)c(F)c(F)c7F)c7nc(c(-c8c(F)c(F)c(F)c(F)c8F)c8ccc5[nH]8)C=C7)C=C6)cc4)cn3)C2)CCC1=O
REMARK SMILES IDX 21 1 20 2 19 3 18 4 17 5 15 6 16 7 14 8 11 9 12 10 93 11
REMARK SMILES IDX 13 12 92 13 10 14 4 15 5 16 97 17 6 18 96 19 98 20 7 21
REMARK SMILES IDX 94 22 95 23 8 24 9 25 2 26 1 27 3 28 22 29 23 30 24 31 25 32
REMARK SMILES IDX 26 33 27 34 28 35 29 36 30 37 91 38 31 39 90 40 32 41 33 42
REMARK SMILES IDX 34 43 84 44 35 45 89 46 83 47 85 48 36 49 88 50 82 51 81 52
REMARK SMILES IDX 37 54 69 55 49 56 68 57 50 58 53 59 67 60 86 61 51 62 52 63
REMARK SMILES IDX 66 65 87 66 54 67 38 68 39 69 47 70 40 71 41 72 45 73 48 74
REMARK SMILES IDX 42 75 43 76 46 77 44 78 70 79 71 80 79 81 72 82 73 83 77 84
REMARK SMILES IDX 80 85 74 86 75 87 78 88 76 89 55 90 56 91 64 92 57 93 58 94
REMARK SMILES IDX 62 95 65 96 59 97 60 98 63 99 61 100
REMARK H PARENT 85 53 53 64
REMARK Flexibility Score: inf
ROOT
ATOM      1  C   UNL A   1      33.824  29.103  27.112  1.00  0.00     0.188 C 
ENDROOT
BRANCH   1   2
ATOM      2  O   UNL A   1      33.551  28.214  26.035  1.00  0.00    -0.376 OA
BRANCH   2   3
ATOM      3  C   UNL A   1      33.861  28.577  24.702  1.00  0.00     0.202 C 
BRANCH   3   4
ATOM      4  C   UNL A   1      32.697  28.927  23.774  1.00  0.00     0.261 C 
BRANCH   4   5
ATOM      5  O   UNL A   1      32.635  28.152  22.571  1.00  0.00    -0.460 OA
BRANCH   5   6
ATOM      6  C   UNL A   1      31.500  27.432  22.386  1.00  0.00     0.339 C 
ATOM      7  O   UNL A   1      30.408  27.831  22.026  1.00  0.00    -0.246 OA
BRANCH   6   8
ATOM      8  C   UNL A   1      31.829  26.017  22.582  1.00  0.00     0.078 A 
ATOM      9  C   UNL A   1      32.597  23.393  23.004  1.00  0.00     0.128 A 
ATOM     10  C   UNL A   1      31.323  23.828  23.376  1.00  0.00     0.048 A 
ATOM     11  N   UNL A   1      33.468  24.247  22.423  1.00  0.00    -0.238 NA
ATOM     12  C   UNL A   1      30.944  25.156  23.206  1.00  0.00     0.021 A 
ATOM     13  C   UNL A   1      33.054  25.518  22.178  1.00  0.00     0.129 A 
BRANCH   9  14
ATOM     14  N   UNL A   1      33.014  22.102  23.249  1.00  0.00    -0.356 N 
ATOM     15  N   UNL A   1      36.918  22.083  25.432  1.00  0.00    -0.340 N 
ATOM     16  C   UNL A   1      35.795  21.191  25.685  1.00  0.00     0.128 C 
ATOM     17  C   UNL A   1      36.810  23.460  25.595  1.00  0.00     0.222 C 
ATOM     18  C   UNL A   1      34.430  21.744  25.242  1.00  0.00     0.006 C 
ATOM     19  C   UNL A   1      35.412  24.057  25.597  1.00  0.00     0.101 C 
ATOM     20  O   UNL A   1      37.783  24.214  25.619  1.00  0.00    -0.275 OA
ATOM     21  C   UNL A   1      33.349  20.727  25.723  1.00  0.00     0.012 C 
ATOM     22  C   UNL A   1      34.387  21.877  23.691  1.00  0.00     0.127 C 
ATOM     23  C   UNL A   1      34.296  23.093  25.975  1.00  0.00     0.020 C 
ATOM     24  C   UNL A   1      31.976  20.837  25.053  1.00  0.00     0.022 C 
ATOM     25  C   UNL A   1      32.068  21.043  23.546  1.00  0.00     0.118 C 
BRANCH  15  26
ATOM     26  C   UNL A   1      38.227  21.452  25.190  1.00  0.00     0.078 C 
ATOM     27  C   UNL A   1      39.200  21.752  26.330  1.00  0.00     0.031 C 
ATOM     28  C   UNL A   1      38.144  19.959  24.878  1.00  0.00     0.031 C 
ENDBRANCH  15  26
ENDBRANCH   9  14
ENDBRANCH   6   8
ENDBRANCH   5   6
ENDBRANCH   4   5
ENDBRANCH   3   4
ENDBRANCH   2   3
ENDBRANCH   1   2
BRANCH   1  29
ATOM     29  C   UNL A   1      33.486  30.608  27.038  1.00  0.00     0.188 C 
BRANCH  29  30
ATOM     30  O   UNL A   1      32.099  30.900  26.953  1.00  0.00    -0.376 OA
BRANCH  30  31
ATOM     31  C   UNL A   1      31.763  32.262  26.724  1.00  0.00     0.202 C 
BRANCH  31  32
ATOM     32  C   UNL A   1      32.746  33.265  27.338  1.00  0.00     0.261 C 
BRANCH  32  33
ATOM     33  O   UNL A   1      32.182  34.118  28.348  1.00  0.00    -0.460 OA
BRANCH  33  34
ATOM     34  C   UNL A   1      32.945  35.148  28.777  1.00  0.00     0.338 C 
ATOM     35  O   UNL A   1      32.676  36.332  28.719  1.00  0.00    -0.246 OA
BRANCH  34  36
ATOM     36  C   UNL A   1      34.124  34.583  29.472  1.00  0.00     0.060 A 
ATOM     37  C   UNL A   1      35.375  34.645  28.847  1.00  0.00     0.016 A 
ATOM     38  C   UNL A   1      33.996  34.002  30.737  1.00  0.00     0.016 A 
ATOM     39  C   UNL A   1      36.497  34.097  29.478  1.00  0.00     0.010 A 
ATOM     40  C   UNL A   1      35.118  33.443  31.360  1.00  0.00     0.010 A 
ATOM     41  C   UNL A   1      36.371  33.461  30.723  1.00  0.00    -0.014 A 
BRANCH  41  42
ATOM     42  C   UNL A   1      37.511  32.686  31.283  1.00  0.00     0.031 A 
ATOM     43  C   UNL A   1      38.030  33.041  32.650  1.00  0.00     0.074 A 
ATOM     44  C   UNL A   1      38.071  31.671  30.602  1.00  0.00     0.049 A 
ATOM     45  N   UNL A   1      39.000  32.495  33.343  1.00  0.00    -0.248 NA
ATOM     46  C   UNL A   1      37.368  34.166  33.328  1.00  0.00     0.031 C 
ATOM     47  C   UNL A   1      37.662  31.214  29.277  1.00  0.00     0.029 A 
ATOM     48  N   UNL A   1      39.114  30.840  30.939  1.00  0.00    -0.354 N 
ATOM     49  C   UNL A   1      39.057  33.203  34.536  1.00  0.00     0.074 A 
ATOM     50  C   UNL A   1      38.053  34.244  34.458  1.00  0.00     0.031 C 
ATOM     51  C   UNL A   1      38.447  30.185  28.910  1.00  0.00     0.029 A 
ATOM     52  C   UNL A   1      39.426  29.923  29.965  1.00  0.00     0.049 A 
ATOM     53  H   UNL A   1      39.591  30.897  31.797  1.00  0.00     0.167 HD
ATOM     54  C   UNL A   1      39.860  32.998  35.607  1.00  0.00     0.037 A 
ATOM     55  C   UNL A   1      40.397  28.988  29.926  1.00  0.00     0.037 A 
ATOM     56  C   UNL A   1      40.865  31.970  35.690  1.00  0.00     0.049 A 
ATOM     57  C   UNL A   1      41.321  28.820  31.107  1.00  0.00     0.074 A 
ATOM     58  C   UNL A   1      41.707  31.670  36.747  1.00  0.00     0.029 A 
ATOM     59  N   UNL A   1      41.170  31.082  34.670  1.00  0.00    -0.354 N 
ATOM     60  N   UNL A   1      41.332  29.458  32.251  1.00  0.00    -0.248 NA
ATOM     61  C   UNL A   1      42.365  27.790  30.990  1.00  0.00     0.031 C 
ATOM     62  C   UNL A   1      42.557  30.633  36.348  1.00  0.00     0.029 A 
ATOM     63  C   UNL A   1      42.209  30.251  35.063  1.00  0.00     0.049 A 
ATOM     64  H   UNL A   1      40.717  31.045  33.797  1.00  0.00     0.167 HD
ATOM     65  C   UNL A   1      42.358  28.892  32.998  1.00  0.00     0.074 A 
ATOM     66  C   UNL A   1      42.940  27.847  32.184  1.00  0.00     0.031 C 
ATOM     67  C   UNL A   1      42.779  29.209  34.248  1.00  0.00     0.037 A 
BRANCH  54  68
ATOM     68  C   UNL A   1      39.695  33.919  36.780  1.00  0.00     0.064 A 
ATOM     69  C   UNL A   1      38.911  33.565  37.888  1.00  0.00     0.173 A 
ATOM     70  C   UNL A   1      40.356  35.156  36.812  1.00  0.00     0.173 A 
ATOM     71  F   UNL A   1      38.249  32.398  37.902  1.00  0.00    -0.203 F 
ATOM     72  C   UNL A   1      38.775  34.426  38.975  1.00  0.00     0.198 A 
ATOM     73  C   UNL A   1      40.241  36.002  37.912  1.00  0.00     0.198 A 
ATOM     74  F   UNL A   1      41.123  35.540  35.780  1.00  0.00    -0.203 F 
ATOM     75  F   UNL A   1      37.987  34.085  40.003  1.00  0.00    -0.200 F 
ATOM     76  C   UNL A   1      39.446  35.639  38.988  1.00  0.00     0.200 A 
ATOM     77  F   UNL A   1      40.901  37.168  37.929  1.00  0.00    -0.200 F 
ATOM     78  F   UNL A   1      39.321  36.464  40.038  1.00  0.00    -0.200 F 
ENDBRANCH  54  68
BRANCH  55  79
ATOM     79  C   UNL A   1      40.553  28.127  28.724  1.00  0.00     0.064 A 
ATOM     80  C   UNL A   1      39.963  26.858  28.660  1.00  0.00     0.173 A 
ATOM     81  C   UNL A   1      41.323  28.545  27.628  1.00  0.00     0.173 A 
ATOM     82  F   UNL A   1      39.247  26.399  29.698  1.00  0.00    -0.203 F 
ATOM     83  C   UNL A   1      40.152  26.030  27.555  1.00  0.00     0.198 A 
ATOM     84  C   UNL A   1      41.488  27.727  26.511  1.00  0.00     0.198 A 
ATOM     85  F   UNL A   1      41.919  29.746  27.643  1.00  0.00    -0.203 F 
ATOM     86  F   UNL A   1      39.621  24.799  27.543  1.00  0.00    -0.200 F 
ATOM     87  C   UNL A   1      40.909  26.468  26.479  1.00  0.00     0.200 A 
ATOM     88  F   UNL A   1      42.218  28.156  25.472  1.00  0.00    -0.200 F 
ATOM     89  F   UNL A   1      41.094  25.670  25.417  1.00  0.00    -0.200 F 
ENDBRANCH  55  79
BRANCH  67  90
ATOM     90  C   UNL A   1      43.902  28.398  34.828  1.00  0.00     0.064 A 
ATOM     91  C   UNL A   1      43.668  27.201  35.520  1.00  0.00     0.173 A 
ATOM     92  C   UNL A   1      45.235  28.805  34.657  1.00  0.00     0.173 A 
ATOM     93  F   UNL A   1      42.412  26.773  35.723  1.00  0.00    -0.203 F 
ATOM     94  C   UNL A   1      44.722  26.457  36.045  1.00  0.00     0.198 A 
ATOM     95  C   UNL A   1      46.289  28.043  35.157  1.00  0.00     0.198 A 
ATOM     96  F   UNL A   1      45.518  29.937  33.995  1.00  0.00    -0.203 F 
ATOM     97  F   UNL A   1      44.471  25.343  36.746  1.00  0.00    -0.200 F 
ATOM     98  C   UNL A   1      46.031  26.875  35.857  1.00  0.00     0.200 A 
ATOM     99  F   UNL A   1      47.553  28.441  34.961  1.00  0.00    -0.200 F 
ATOM    100  F   UNL A   1      47.045  26.156  36.358  1.00  0.00    -0.200 F 
ENDBRANCH  67  90
ENDBRANCH  41  42
ENDBRANCH  34  36
ENDBRANCH  33  34
ENDBRANCH  32  33
ENDBRANCH  31  32
ENDBRANCH  30  31
ENDBRANCH  29  30
ENDBRANCH   1  29
TORSDOF 19
ENDMDL
MODEL 2
REMARK VINA RESULT:     -11.7      0.951      7.121
REMARK SMILES CC(C)N1C[C@@]2(CCCN(c3ccc(C(=O)OCCOCCOCCOC(=O)c4ccc(-c5c6nc(c(-c7c(F)c(F)c(F)c(F)c7F)c7ccc([nH]7)c(-c7c(F)c(F)c(F)c(F)c7F)c7nc(c(-c8c(F)c(F)c(F)c(F)c8F)c8ccc5[nH]8)C=C7)C=C6)cc4)cn3)C2)CCC1=O
REMARK SMILES IDX 21 1 20 2 19 3 18 4 17 5 15 6 16 7 14 8 11 9 12 10 93 11
REMARK SMILES IDX 13 12 92 13 10 14 4 15 5 16 97 17 6 18 96 19 98 20 7 21
REMARK SMILES IDX 94 22 95 23 8 24 9 25 2 26 1 27 3 28 22 29 23 30 24 31 25 32
REMARK SMILES IDX 26 33 27 34 28 35 29 36 30 37 91 38 31 39 90 40 32 41 33 42
REMARK SMILES IDX 34 43 84 44 35 45 89 46 83 47 85 48 36 49 88 50 82 51 81 52
REMARK SMILES IDX 37 54 69 55 49 56 68 57 50 58 53 59 67 60 86 61 51 62 52 63
REMARK SMILES IDX 66 65 87 66 54 67 38 68 39 69 47 70 40 71 41 72 45 73 48 74
REMARK SMILES IDX 42 75 43 76 46 77 44 78 70 79 71 80 79 81 72 82 73 83 77 84
REMARK SMILES IDX 80 85 74 86 75 87 78 88 76 89 55 90 56 91 64 92 57 93 58 94
REMARK SMILES IDX 62 95 65 96 59 97 60 98 63 99 61 100
REMARK H PARENT 85 53 53 64
REMARK Flexibility Score: inf
ROOT
ATOM      1  C   UNL A   1      34.185  29.361  26.837  1.00  0.00     0.188 C 
ENDROOT
BRANCH   1   2
ATOM      2  O   UNL A   1      33.494  28.494  25.945  1.00  0.00    -0.376 OA
BRANCH   2   3
ATOM      3  C   UNL A   1      33.625  28.647  24.543  1.00  0.00     0.202 C 
BRANCH   3   4
ATOM      4  C   UNL A   1      32.471  29.315  23.792  1.00  0.00     0.261 C 
BRANCH   4   5
ATOM      5  O   UNL A   1      32.101  28.671  22.568  1.00  0.00    -0.460 OA
BRANCH   5   6
ATOM      6  C   UNL A   1      30.863  28.117  22.540  1.00  0.00     0.339 C 
ATOM      7  O   UNL A   1      29.860  28.547  22.001  1.00  0.00    -0.246 OA
BRANCH   6   8
ATOM      8  C   UNL A   1      30.944  26.804  23.187  1.00  0.00     0.078 A 
ATOM      9  C   UNL A   1      31.260  24.331  24.387  1.00  0.00     0.128 A 
ATOM     10  C   UNL A   1      30.381  25.275  24.926  1.00  0.00     0.048 A 
ATOM     11  N   UNL A   1      31.959  24.611  23.266  1.00  0.00    -0.238 NA
ATOM     12  C   UNL A   1      30.250  26.536  24.353  1.00  0.00     0.021 A 
ATOM     13  C   UNL A   1      31.752  25.811  22.662  1.00  0.00     0.129 A 
BRANCH   9  14
ATOM     14  N   UNL A   1      31.465  23.112  24.998  1.00  0.00    -0.356 N 
ATOM     15  N   UNL A   1      35.828  22.147  25.185  1.00  0.00    -0.340 N 
ATOM     16  C   UNL A   1      34.855  21.899  26.238  1.00  0.00     0.128 C 
ATOM     17  C   UNL A   1      36.111  23.433  24.737  1.00  0.00     0.222 C 
ATOM     18  C   UNL A   1      33.612  22.804  26.183  1.00  0.00     0.006 C 
ATOM     19  C   UNL A   1      35.086  24.516  25.029  1.00  0.00     0.101 C 
ATOM     20  O   UNL A   1      37.080  23.701  24.027  1.00  0.00    -0.275 OA
ATOM     21  C   UNL A   1      32.767  22.496  27.457  1.00  0.00     0.012 C 
ATOM     22  C   UNL A   1      32.781  22.489  24.902  1.00  0.00     0.127 C 
ATOM     23  C   UNL A   1      34.169  24.240  26.213  1.00  0.00     0.020 C 
ATOM     24  C   UNL A   1      31.306  22.953  27.423  1.00  0.00     0.022 C 
ATOM     25  C   UNL A   1      30.625  22.661  26.091  1.00  0.00     0.118 C 
BRANCH  15  26
ATOM     26  C   UNL A   1      36.646  21.000  24.752  1.00  0.00     0.078 C 
ATOM     27  C   UNL A   1      38.040  21.053  25.376  1.00  0.00     0.031 C 
ATOM     28  C   UNL A   1      35.970  19.646  24.960  1.00  0.00     0.031 C 
ENDBRANCH  15  26
ENDBRANCH   9  14
ENDBRANCH   6   8
ENDBRANCH   5   6
ENDBRANCH   4   5
ENDBRANCH   3   4
ENDBRANCH   2   3
ENDBRANCH   1   2
BRANCH   1  29
ATOM     29  C   UNL A   1      33.616  30.735  27.251  1.00  0.00     0.188 C 
BRANCH  29  30
ATOM     30  O   UNL A   1      32.207  30.855  27.128  1.00  0.00    -0.376 OA
BRANCH  30  31
ATOM     31  C   UNL A   1      31.713  32.164  26.876  1.00  0.00     0.202 C 
BRANCH  31  32
ATOM     32  C   UNL A   1      32.708  33.285  27.197  1.00  0.00     0.261 C 
BRANCH  32  33
ATOM     33  O   UNL A   1      32.232  34.255  28.145  1.00  0.00    -0.460 OA
BRANCH  33  34
ATOM     34  C   UNL A   1      33.148  35.105  28.662  1.00  0.00     0.338 C 
ATOM     35  O   UNL A   1      33.042  36.310  28.781  1.00  0.00    -0.246 OA
BRANCH  34  36
ATOM     36  C   UNL A   1      34.264  34.298  29.203  1.00  0.00     0.060 A 
ATOM     37  C   UNL A   1      33.979  33.244  30.077  1.00  0.00     0.016 A 
ATOM     38  C   UNL A   1      35.586  34.576  28.841  1.00  0.00     0.016 A 
ATOM     39  C   UNL A   1      35.023  32.483  30.616  1.00  0.00     0.010 A 
ATOM     40  C   UNL A   1      36.629  33.822  29.391  1.00  0.00     0.010 A 
ATOM     41  C   UNL A   1      36.357  32.789  30.304  1.00  0.00    -0.014 A 
BRANCH  41  42
ATOM     42  C   UNL A   1      37.465  32.131  31.048  1.00  0.00     0.031 A 
ATOM     43  C   UNL A   1      38.259  31.050  30.365  1.00  0.00     0.074 A 
ATOM     44  C   UNL A   1      37.779  32.494  32.305  1.00  0.00     0.049 A 
ATOM     45  N   UNL A   1      39.276  30.353  30.811  1.00  0.00    -0.248 NA
ATOM     46  C   UNL A   1      37.851  30.708  28.994  1.00  0.00     0.031 C 
ATOM     47  C   UNL A   1      37.103  33.529  33.081  1.00  0.00     0.029 A 
ATOM     48  N   UNL A   1      38.755  32.020  33.151  1.00  0.00    -0.354 N 
ATOM     49  C   UNL A   1      39.631  29.498  29.775  1.00  0.00     0.074 A 
ATOM     50  C   UNL A   1      38.697  29.735  28.694  1.00  0.00     0.031 C 
ATOM     51  C   UNL A   1      37.682  33.614  34.291  1.00  0.00     0.029 A 
ATOM     52  C   UNL A   1      38.756  32.625  34.385  1.00  0.00     0.049 A 
ATOM     53  H   UNL A   1      39.392  31.315  32.897  1.00  0.00     0.167 HD
ATOM     54  C   UNL A   1      40.650  28.608  29.720  1.00  0.00     0.037 A 
ATOM     55  C   UNL A   1      39.528  32.399  35.466  1.00  0.00     0.037 A 
ATOM     56  C   UNL A   1      41.577  28.362  30.793  1.00  0.00     0.049 A 
ATOM     57  C   UNL A   1      40.618  31.357  35.402  1.00  0.00     0.074 A 
ATOM     58  C   UNL A   1      42.659  27.498  30.817  1.00  0.00     0.029 A 
ATOM     59  N   UNL A   1      41.526  28.973  32.037  1.00  0.00    -0.354 N 
ATOM     60  N   UNL A   1      40.980  30.593  34.401  1.00  0.00    -0.248 NA
ATOM     61  C   UNL A   1      41.413  31.153  36.623  1.00  0.00     0.031 C 
ATOM     62  C   UNL A   1      43.231  27.548  32.093  1.00  0.00     0.029 A 
ATOM     63  C   UNL A   1      42.539  28.483  32.846  1.00  0.00     0.049 A 
ATOM     64  H   UNL A   1      40.868  29.654  32.305  1.00  0.00     0.167 HD
ATOM     65  C   UNL A   1      42.057  29.843  34.858  1.00  0.00     0.074 A 
ATOM     66  C   UNL A   1      42.301  30.253  36.224  1.00  0.00     0.031 C 
ATOM     67  C   UNL A   1      42.779  28.900  34.204  1.00  0.00     0.037 A 
BRANCH  54  68
ATOM     68  C   UNL A   1      40.807  27.817  28.455  1.00  0.00     0.064 A 
ATOM     69  C   UNL A   1      41.602  28.278  27.394  1.00  0.00     0.173 A 
ATOM     70  C   UNL A   1      40.186  26.568  28.315  1.00  0.00     0.173 A 
ATOM     71  F   UNL A   1      42.209  29.471  27.475  1.00  0.00    -0.203 F 
ATOM     72  C   UNL A   1      41.748  27.527  26.230  1.00  0.00     0.198 A 
ATOM     73  C   UNL A   1      40.357  25.808  27.161  1.00  0.00     0.198 A 
ATOM     74  F   UNL A   1      39.421  26.078  29.302  1.00  0.00    -0.203 F 
ATOM     75  F   UNL A   1      42.477  28.007  25.213  1.00  0.00    -0.200 F 
ATOM     76  C   UNL A   1      41.132  26.291  26.118  1.00  0.00     0.200 A 
ATOM     77  F   UNL A   1      39.772  24.606  27.059  1.00  0.00    -0.200 F 
ATOM     78  F   UNL A   1      41.280  25.566  25.000  1.00  0.00    -0.200 F 
ENDBRANCH  54  68
BRANCH  55  79
ATOM     79  C   UNL A   1      39.307  33.175  36.715  1.00  0.00     0.064 A 
ATOM     80  C   UNL A   1      39.985  34.379  36.950  1.00  0.00     0.173 A 
ATOM     81  C   UNL A   1      38.436  32.711  37.712  1.00  0.00     0.173 A 
ATOM     82  F   UNL A   1      40.855  34.845  36.042  1.00  0.00    -0.203 F 
ATOM     83  C   UNL A   1      39.815  35.080  38.142  1.00  0.00     0.198 A 
ATOM     84  C   UNL A   1      38.246  33.428  38.893  1.00  0.00     0.198 A 
ATOM     85  F   UNL A   1      37.772  31.559  37.542  1.00  0.00    -0.203 F 
ATOM     86  F   UNL A   1      40.518  36.200  38.364  1.00  0.00    -0.200 F 
ATOM     87  C   UNL A   1      38.942  34.607  39.110  1.00  0.00     0.200 A 
ATOM     88  F   UNL A   1      37.399  32.969  39.823  1.00  0.00    -0.200 F 
ATOM     89  F   UNL A   1      38.782  35.280  40.258  1.00  0.00    -0.200 F 
ENDBRANCH  55  79
BRANCH  67  90
ATOM     90  C   UNL A   1      43.924  28.268  34.942  1.00  0.00     0.064 A 
ATOM     91  C   UNL A   1      43.748  27.129  35.742  1.00  0.00     0.173 A 
ATOM     92  C   UNL A   1      45.224  28.786  34.819  1.00  0.00     0.173 A 
ATOM     93  F   UNL A   1      42.526  26.601  35.905  1.00  0.00    -0.203 F 
ATOM     94  C   UNL A   1      44.823  26.550  36.414  1.00  0.00     0.198 A 
ATOM     95  C   UNL A   1      46.301  28.187  35.467  1.00  0.00     0.198 A 
ATOM     96  F   UNL A   1      45.451  29.868  34.059  1.00  0.00    -0.203 F 
ATOM     97  F   UNL A   1      44.622  25.493  37.212  1.00  0.00    -0.200 F 
ATOM     98  C   UNL A   1      46.099  27.076  36.270  1.00  0.00     0.200 A 
ATOM     99  F   UNL A   1      47.534  28.687  35.316  1.00  0.00    -0.200 F 
ATOM    100  F   UNL A   1      47.133  26.515  36.913  1.00  0.00    -0.200 F 
ENDBRANCH  67  90
ENDBRANCH  41  42
ENDBRANCH  34  36
ENDBRANCH  33  34
ENDBRANCH  32  33
ENDBRANCH  31  32
ENDBRANCH  30  31
ENDBRANCH  29  30
ENDBRANCH   1  29
TORSDOF 19
ENDMDL
MODEL 3
REMARK VINA RESULT:     -11.4      5.243     10.194
REMARK SMILES CC(C)N1C[C@@]2(CCCN(c3ccc(C(=O)OCCOCCOCCOC(=O)c4ccc(-c5c6nc(c(-c7c(F)c(F)c(F)c(F)c7F)c7ccc([nH]7)c(-c7c(F)c(F)c(F)c(F)c7F)c7nc(c(-c8c(F)c(F)c(F)c(F)c8F)c8ccc5[nH]8)C=C7)C=C6)cc4)cn3)C2)CCC1=O
REMARK SMILES IDX 21 1 20 2 19 3 18 4 17 5 15 6 16 7 14 8 11 9 12 10 93 11
REMARK SMILES IDX 13 12 92 13 10 14 4 15 5 16 97 17 6 18 96 19 98 20 7 21
REMARK SMILES IDX 94 22 95 23 8 24 9 25 2 26 1 27 3 28 22 29 23 30 24 31 25 32
REMARK SMILES IDX 26 33 27 34 28 35 29 36 30 37 91 38 31 39 90 40 32 41 33 42
REMARK SMILES IDX 34 43 84 44 35 45 89 46 83 47 85 48 36 49 88 50 82 51 81 52
REMARK SMILES IDX 37 54 69 55 49 56 68 57 50 58 53 59 67 60 86 61 51 62 52 63
REMARK SMILES IDX 66 65 87 66 54 67 38 68 39 69 47 70 40 71 41 72 45 73 48 74
REMARK SMILES IDX 42 75 43 76 46 77 44 78 70 79 71 80 79 81 72 82 73 83 77 84
REMARK SMILES IDX 80 85 74 86 75 87 78 88 76 89 55 90 56 91 64 92 57 93 58 94
REMARK SMILES IDX 62 95 65 96 59 97 60 98 63 99 61 100
REMARK H PARENT 85 53 53 64
REMARK Flexibility Score: inf
ROOT
ATOM      1  C   UNL A   1      37.082  23.322  25.676  1.00  0.00     0.188 C 
ENDROOT
BRANCH   1   2
ATOM      2  O   UNL A   1      36.729  23.524  24.312  1.00  0.00    -0.376 OA
BRANCH   2   3
ATOM      3  C   UNL A   1      35.474  23.092  23.820  1.00  0.00     0.202 C 
BRANCH   3   4
ATOM      4  C   UNL A   1      34.730  22.021  24.621  1.00  0.00     0.261 C 
BRANCH   4   5
ATOM      5  O   UNL A   1      33.524  21.546  24.010  1.00  0.00    -0.460 OA
BRANCH   5   6
ATOM      6  C   UNL A   1      32.427  21.516  24.808  1.00  0.00     0.339 C 
ATOM      7  O   UNL A   1      32.079  20.636  25.574  1.00  0.00    -0.246 OA
BRANCH   6   8
ATOM      8  C   UNL A   1      31.752  22.811  24.691  1.00  0.00     0.078 A 
ATOM      9  C   UNL A   1      30.596  25.322  24.562  1.00  0.00     0.128 A 
ATOM     10  C   UNL A   1      30.649  24.506  23.429  1.00  0.00     0.048 A 
ATOM     11  N   UNL A   1      31.100  24.891  25.739  1.00  0.00    -0.238 NA
ATOM     12  C   UNL A   1      31.267  23.260  23.475  1.00  0.00     0.021 A 
ATOM     13  C   UNL A   1      31.617  23.635  25.795  1.00  0.00     0.129 A 
BRANCH   9  14
ATOM     14  N   UNL A   1      30.067  26.594  24.505  1.00  0.00    -0.356 N 
ATOM     15  N   UNL A   1      32.932  29.581  26.201  1.00  0.00    -0.340 N 
ATOM     16  C   UNL A   1      32.104  29.770  25.019  1.00  0.00     0.128 C 
ATOM     17  C   UNL A   1      33.901  28.585  26.266  1.00  0.00     0.222 C 
ATOM     18  C   UNL A   1      31.672  28.465  24.329  1.00  0.00     0.006 C 
ATOM     19  C   UNL A   1      33.779  27.427  25.289  1.00  0.00     0.101 C 
ATOM     20  O   UNL A   1      34.766  28.542  27.139  1.00  0.00    -0.275 OA
ATOM     21  C   UNL A   1      30.928  28.867  23.018  1.00  0.00     0.012 C 
ATOM     22  C   UNL A   1      30.716  27.661  25.260  1.00  0.00     0.127 C 
ATOM     23  C   UNL A   1      32.989  27.727  24.022  1.00  0.00     0.020 C 
ATOM     24  C   UNL A   1      30.053  27.785  22.381  1.00  0.00     0.022 C 
ATOM     25  C   UNL A   1      29.224  27.016  23.403  1.00  0.00     0.118 C 
BRANCH  15  26
ATOM     26  C   UNL A   1      32.839  30.613  27.250  1.00  0.00     0.078 C 
ATOM     27  C   UNL A   1      34.204  31.244  27.520  1.00  0.00     0.031 C 
ATOM     28  C   UNL A   1      31.758  31.660  26.991  1.00  0.00     0.031 C 
ENDBRANCH  15  26
ENDBRANCH   9  14
ENDBRANCH   6   8
ENDBRANCH   5   6
ENDBRANCH   4   5
ENDBRANCH   3   4
ENDBRANCH   2   3
ENDBRANCH   1   2
BRANCH   1  29
ATOM     29  C   UNL A   1      38.460  23.736  26.236  1.00  0.00     0.188 C 
BRANCH  29  30
ATOM     30  O   UNL A   1      39.340  22.656  26.505  1.00  0.00    -0.376 OA
BRANCH  30  31
ATOM     31  C   UNL A   1      39.103  21.461  25.771  1.00  0.00     0.202 C 
BRANCH  31  32
ATOM     32  C   UNL A   1      39.723  20.206  26.396  1.00  0.00     0.261 C 
BRANCH  32  33
ATOM     33  O   UNL A   1      40.688  19.537  25.567  1.00  0.00    -0.460 OA
BRANCH  33  34
ATOM     34  C   UNL A   1      41.905  19.307  26.109  1.00  0.00     0.338 C 
ATOM     35  O   UNL A   1      42.435  18.227  26.286  1.00  0.00    -0.246 OA
BRANCH  34  36
ATOM     36  C   UNL A   1      42.562  20.615  26.326  1.00  0.00     0.060 A 
ATOM     37  C   UNL A   1      42.611  21.144  27.621  1.00  0.00     0.016 A 
ATOM     38  C   UNL A   1      43.135  21.313  25.259  1.00  0.00     0.016 A 
ATOM     39  C   UNL A   1      43.209  22.390  27.844  1.00  0.00     0.010 A 
ATOM     40  C   UNL A   1      43.721  22.564  25.481  1.00  0.00     0.010 A 
ATOM     41  C   UNL A   1      43.737  23.124  26.770  1.00  0.00    -0.014 A 
BRANCH  41  42
ATOM     42  C   UNL A   1      44.164  24.535  26.972  1.00  0.00     0.031 A 
ATOM     43  C   UNL A   1      43.144  25.546  27.423  1.00  0.00     0.074 A 
ATOM     44  C   UNL A   1      45.438  24.918  26.778  1.00  0.00     0.049 A 
ATOM     45  N   UNL A   1      43.291  26.823  27.678  1.00  0.00    -0.248 NA
ATOM     46  C   UNL A   1      41.772  25.051  27.608  1.00  0.00     0.031 C 
ATOM     47  C   UNL A   1      46.529  24.044  26.354  1.00  0.00     0.029 A 
ATOM     48  N   UNL A   1      46.028  26.153  26.912  1.00  0.00    -0.354 N 
ATOM     49  C   UNL A   1      42.036  27.279  28.061  1.00  0.00     0.074 A 
ATOM     50  C   UNL A   1      41.131  26.153  27.965  1.00  0.00     0.031 C 
ATOM     51  C   UNL A   1      47.657  24.770  26.260  1.00  0.00     0.029 A 
ATOM     52  C   UNL A   1      47.365  26.163  26.598  1.00  0.00     0.049 A 
ATOM     53  H   UNL A   1      45.538  26.954  27.206  1.00  0.00     0.167 HD
ATOM     54  C   UNL A   1      41.671  28.518  28.470  1.00  0.00     0.037 A 
ATOM     55  C   UNL A   1      48.249  27.181  26.576  1.00  0.00     0.037 A 
ATOM     56  C   UNL A   1      42.563  29.643  28.561  1.00  0.00     0.049 A 
ATOM     57  C   UNL A   1      47.803  28.566  26.975  1.00  0.00     0.074 A 
ATOM     58  C   UNL A   1      42.287  30.930  28.992  1.00  0.00     0.029 A 
ATOM     59  N   UNL A   1      43.903  29.620  28.204  1.00  0.00    -0.354 N 
ATOM     60  N   UNL A   1      46.628  28.975  27.387  1.00  0.00    -0.248 NA
ATOM     61  C   UNL A   1      48.816  29.632  26.915  1.00  0.00     0.031 C 
ATOM     62  C   UNL A   1      43.447  31.698  28.847  1.00  0.00     0.029 A 
ATOM     63  C   UNL A   1      44.459  30.878  28.378  1.00  0.00     0.049 A 
ATOM     64  H   UNL A   1      44.386  28.828  27.877  1.00  0.00     0.167 HD
ATOM     65  C   UNL A   1      46.766  30.331  27.660  1.00  0.00     0.074 A 
ATOM     66  C   UNL A   1      48.143  30.675  27.382  1.00  0.00     0.031 C 
ATOM     67  C   UNL A   1      45.834  31.211  28.103  1.00  0.00     0.037 A 
BRANCH  54  68
ATOM     68  C   UNL A   1      40.231  28.726  28.838  1.00  0.00     0.064 A 
ATOM     69  C   UNL A   1      39.769  28.514  30.146  1.00  0.00     0.173 A 
ATOM     70  C   UNL A   1      39.310  29.176  27.881  1.00  0.00     0.173 A 
ATOM     71  F   UNL A   1      40.608  28.074  31.095  1.00  0.00    -0.203 F 
ATOM     72  C   UNL A   1      38.432  28.722  30.476  1.00  0.00     0.198 A 
ATOM     73  C   UNL A   1      37.980  29.409  28.221  1.00  0.00     0.198 A 
ATOM     74  F   UNL A   1      39.701  29.399  26.617  1.00  0.00    -0.203 F 
ATOM     75  F   UNL A   1      38.004  28.472  31.721  1.00  0.00    -0.200 F 
ATOM     76  C   UNL A   1      37.541  29.176  29.515  1.00  0.00     0.200 A 
ATOM     77  F   UNL A   1      37.123  29.861  27.295  1.00  0.00    -0.200 F 
ATOM     78  F   UNL A   1      36.256  29.383  29.836  1.00  0.00    -0.200 F 
ENDBRANCH  54  68
BRANCH  55  79
ATOM     79  C   UNL A   1      49.655  26.938  26.160  1.00  0.00     0.064 A 
ATOM     80  C   UNL A   1      50.032  26.994  24.811  1.00  0.00     0.173 A 
ATOM     81  C   UNL A   1      50.644  26.612  27.100  1.00  0.00     0.173 A 
ATOM     82  F   UNL A   1      49.114  27.266  23.870  1.00  0.00    -0.203 F 
ATOM     83  C   UNL A   1      51.339  26.716  24.416  1.00  0.00     0.198 A 
ATOM     84  C   UNL A   1      51.957  26.361  26.707  1.00  0.00     0.198 A 
ATOM     85  F   UNL A   1      50.333  26.534  28.402  1.00  0.00    -0.203 F 
ATOM     86  F   UNL A   1      51.659  26.723  23.114  1.00  0.00    -0.200 F 
ATOM     87  C   UNL A   1      52.301  26.405  25.364  1.00  0.00     0.200 A 
ATOM     88  F   UNL A   1      52.885  26.065  27.627  1.00  0.00    -0.200 F 
ATOM     89  F   UNL A   1      53.558  26.134  24.983  1.00  0.00    -0.200 F 
ENDBRANCH  55  79
BRANCH  67  90
ATOM     90  C   UNL A   1      46.277  32.625  28.347  1.00  0.00     0.064 A 
ATOM     91  C   UNL A   1      46.187  33.610  27.352  1.00  0.00     0.173 A 
ATOM     92  C   UNL A   1      46.764  33.011  29.607  1.00  0.00     0.173 A 
ATOM     93  F   UNL A   1      45.740  33.293  26.127  1.00  0.00    -0.203 F 
ATOM     94  C   UNL A   1      46.594  34.919  27.598  1.00  0.00     0.198 A 
ATOM     95  C   UNL A   1      47.143  34.327  29.858  1.00  0.00     0.198 A 
ATOM     96  F   UNL A   1      46.864  32.112  30.597  1.00  0.00    -0.203 F 
ATOM     97  F   UNL A   1      46.545  35.831  26.617  1.00  0.00    -0.200 F 
ATOM     98  C   UNL A   1      47.066  35.278  28.852  1.00  0.00     0.200 A 
ATOM     99  F   UNL A   1      47.584  34.675  31.075  1.00  0.00    -0.200 F 
ATOM    100  F   UNL A   1      47.453  36.539  29.089  1.00  0.00    -0.200 F 
ENDBRANCH  67  90
ENDBRANCH  41  42
ENDBRANCH  34  36
ENDBRANCH  33  34
ENDBRANCH  32  33
ENDBRANCH  31  32
ENDBRANCH  30  31
ENDBRANCH  29  30
ENDBRANCH   1  29
TORSDOF 19
ENDMDL
