MODEL 1
REMARK VINA RESULT:     -10.6      0.000      0.000
REMARK SMILES O=C(OCCOCCOCCOC(=O)c1cccc(Oc2ncc([N+](=O)[O-])cc2Br)c1)c1ccc(-c2c3nc(c(-c4c(F)c(F)c(F)c(F)c4F)c4ccc([nH]4)c(-c4c(F)c(F)c(F)c(F)c4F)c4nc(c(-c5c(F)c(F)c(F)c(F)c5F)c5ccc2[nH]5)C=C4)C=C3)cc1
REMARK SMILES IDX 8 1 7 2 6 3 5 4 4 5 3 6 2 7 1 8 32 9 33 10 94 11 34 12 93 13
REMARK SMILES IDX 35 14 36 15 37 16 87 17 38 18 92 19 86 20 88 21 39 22 91 23
REMARK SMILES IDX 85 24 84 25 40 27 72 28 52 29 71 30 53 31 56 32 70 33 89 34
REMARK SMILES IDX 54 35 55 36 69 38 90 39 57 40 41 41 42 42 50 43 43 44 44 45
REMARK SMILES IDX 48 46 51 47 45 48 46 49 49 50 47 51 73 52 74 53 82 54 75 55
REMARK SMILES IDX 76 56 80 57 83 58 77 59 78 60 81 61 79 62 58 63 59 64 67 65
REMARK SMILES IDX 60 66 61 67 65 68 68 69 62 70 63 71 66 72 64 73 9 74 10 75
REMARK SMILES IDX 11 76 12 77 13 78 14 79 15 80 16 81 31 82 17 83 19 84 18 85
REMARK SMILES IDX 20 86 21 87 22 88 29 89 23 90 28 91 30 92 24 93 25 94 26 95
REMARK SMILES IDX 27 96
REMARK H PARENT 88 26 56 37
REMARK Flexibility Score: inf
ROOT
ATOM      1  C   UNL A   1      32.985  27.233  22.869  1.00  0.00     0.188 C 
ENDROOT
BRANCH   1   2
ATOM      2  C   UNL A   1      32.810  28.749  22.991  1.00  0.00     0.188 C 
BRANCH   2   3
ATOM      3  O   UNL A   1      32.648  29.121  24.369  1.00  0.00    -0.376 OA
BRANCH   3   4
ATOM      4  C   UNL A   1      31.363  29.679  24.662  1.00  0.00     0.202 C 
BRANCH   4   5
ATOM      5  C   UNL A   1      31.389  30.696  25.805  1.00  0.00     0.261 C 
BRANCH   5   6
ATOM      6  O   UNL A   1      32.474  30.434  26.709  1.00  0.00    -0.460 OA
BRANCH   6   7
ATOM      7  C   UNL A   1      33.352  31.331  27.222  1.00  0.00     0.338 C 
ATOM      8  O   UNL A   1      33.024  32.515  27.291  1.00  0.00    -0.246 OA
BRANCH   7   9
ATOM      9  C   UNL A   1      34.661  30.940  27.823  1.00  0.00     0.060 A 
ATOM     10  C   UNL A   1      35.045  29.638  28.156  1.00  0.00     0.016 A 
ATOM     11  C   UNL A   1      35.592  31.975  28.013  1.00  0.00     0.016 A 
ATOM     12  C   UNL A   1      36.260  29.390  28.798  1.00  0.00     0.010 A 
ATOM     13  C   UNL A   1      36.835  31.724  28.597  1.00  0.00     0.010 A 
ATOM     14  C   UNL A   1      37.151  30.435  29.043  1.00  0.00    -0.014 A 
BRANCH  14  15
ATOM     15  C   UNL A   1      38.367  30.213  29.856  1.00  0.00     0.031 A 
ATOM     16  C   UNL A   1      39.471  29.371  29.294  1.00  0.00     0.074 A 
ATOM     17  C   UNL A   1      38.499  30.773  31.070  1.00  0.00     0.049 A 
ATOM     18  N   UNL A   1      40.561  28.937  29.870  1.00  0.00    -0.248 NA
ATOM     19  C   UNL A   1      39.329  28.970  27.886  1.00  0.00     0.031 C 
ATOM     20  C   UNL A   1      37.536  31.685  31.677  1.00  0.00     0.029 A 
ATOM     21  N   UNL A   1      39.492  30.652  32.007  1.00  0.00    -0.354 N 
ATOM     22  C   UNL A   1      41.225  28.198  28.903  1.00  0.00     0.074 A 
ATOM     23  C   UNL A   1      40.409  28.228  27.708  1.00  0.00     0.031 C 
ATOM     24  C   UNL A   1      37.977  32.029  32.896  1.00  0.00     0.029 A 
ATOM     25  C   UNL A   1      39.221  31.322  33.174  1.00  0.00     0.049 A 
ATOM     26  H   UNL A   1      40.317  30.136  31.859  1.00  0.00     0.167 HD
ATOM     27  C   UNL A   1      42.411  27.555  29.005  1.00  0.00     0.037 A 
ATOM     28  C   UNL A   1      39.876  31.333  34.349  1.00  0.00     0.037 A 
ATOM     29  C   UNL A   1      43.212  27.527  30.198  1.00  0.00     0.049 A 
ATOM     30  C   UNL A   1      41.145  30.543  34.477  1.00  0.00     0.074 A 
ATOM     31  C   UNL A   1      44.407  26.871  30.426  1.00  0.00     0.029 A 
ATOM     32  N   UNL A   1      42.888  28.194  31.372  1.00  0.00    -0.354 N 
ATOM     33  N   UNL A   1      41.747  29.806  33.575  1.00  0.00    -0.248 NA
ATOM     34  C   UNL A   1      41.827  30.580  35.777  1.00  0.00     0.031 C 
ATOM     35  C   UNL A   1      44.793  27.119  31.749  1.00  0.00     0.029 A 
ATOM     36  C   UNL A   1      43.855  27.957  32.334  1.00  0.00     0.049 A 
ATOM     37  H   UNL A   1      42.087  28.754  31.502  1.00  0.00     0.167 HD
ATOM     38  C   UNL A   1      42.887  29.307  34.186  1.00  0.00     0.074 A 
ATOM     39  C   UNL A   1      42.894  29.828  35.540  1.00  0.00     0.031 C 
ATOM     40  C   UNL A   1      43.843  28.496  33.670  1.00  0.00     0.037 A 
BRANCH  27  41
ATOM     41  C   UNL A   1      42.864  26.795  27.797  1.00  0.00     0.064 A 
ATOM     42  C   UNL A   1      42.663  25.411  27.681  1.00  0.00     0.173 A 
ATOM     43  C   UNL A   1      43.563  27.449  26.773  1.00  0.00     0.173 A 
ATOM     44  F   UNL A   1      42.027  24.738  28.652  1.00  0.00    -0.203 F 
ATOM     45  C   UNL A   1      43.178  24.704  26.598  1.00  0.00     0.198 A 
ATOM     46  C   UNL A   1      44.058  26.742  25.680  1.00  0.00     0.198 A 
ATOM     47  F   UNL A   1      43.788  28.770  26.843  1.00  0.00    -0.203 F 
ATOM     48  F   UNL A   1      43.032  23.373  26.538  1.00  0.00    -0.200 F 
ATOM     49  C   UNL A   1      43.875  25.369  25.599  1.00  0.00     0.200 A 
ATOM     50  F   UNL A   1      44.733  27.384  24.718  1.00  0.00    -0.200 F 
ATOM     51  F   UNL A   1      44.388  24.683  24.568  1.00  0.00    -0.200 F 
ENDBRANCH  27  41
BRANCH  28  52
ATOM     52  C   UNL A   1      39.309  32.104  35.484  1.00  0.00     0.064 A 
ATOM     53  C   UNL A   1      38.478  31.495  36.432  1.00  0.00     0.173 A 
ATOM     54  C   UNL A   1      39.650  33.452  35.682  1.00  0.00     0.173 A 
ATOM     55  F   UNL A   1      38.110  30.215  36.277  1.00  0.00    -0.203 F 
ATOM     56  C   UNL A   1      38.010  32.204  37.537  1.00  0.00     0.198 A 
ATOM     57  C   UNL A   1      39.197  34.153  36.797  1.00  0.00     0.198 A 
ATOM     58  F   UNL A   1      40.445  34.079  34.803  1.00  0.00    -0.203 F 
ATOM     59  F   UNL A   1      37.204  31.604  38.424  1.00  0.00    -0.200 F 
ATOM     60  C   UNL A   1      38.378  33.529  37.723  1.00  0.00     0.200 A 
ATOM     61  F   UNL A   1      39.562  35.430  36.978  1.00  0.00    -0.200 F 
ATOM     62  F   UNL A   1      37.939  34.203  38.797  1.00  0.00    -0.200 F 
ENDBRANCH  28  52
BRANCH  40  63
ATOM     63  C   UNL A   1      44.995  28.147  34.559  1.00  0.00     0.064 A 
ATOM     64  C   UNL A   1      46.112  28.984  34.667  1.00  0.00     0.173 A 
ATOM     65  C   UNL A   1      44.944  26.999  35.364  1.00  0.00     0.173 A 
ATOM     66  F   UNL A   1      46.207  30.085  33.906  1.00  0.00    -0.203 F 
ATOM     67  C   UNL A   1      47.146  28.680  35.548  1.00  0.00     0.198 A 
ATOM     68  C   UNL A   1      45.971  26.708  36.255  1.00  0.00     0.198 A 
ATOM     69  F   UNL A   1      43.890  26.171  35.295  1.00  0.00    -0.203 F 
ATOM     70  F   UNL A   1      48.217  29.482  35.623  1.00  0.00    -0.200 F 
ATOM     71  C   UNL A   1      47.071  27.548  36.346  1.00  0.00     0.200 A 
ATOM     72  F   UNL A   1      45.894  25.618  37.031  1.00  0.00    -0.200 F 
ATOM     73  F   UNL A   1      48.061  27.264  37.202  1.00  0.00    -0.200 F 
ENDBRANCH  40  63
ENDBRANCH  14  15
ENDBRANCH   7   9
ENDBRANCH   6   7
ENDBRANCH   5   6
ENDBRANCH   4   5
ENDBRANCH   3   4
ENDBRANCH   2   3
ENDBRANCH   1   2
BRANCH   1  74
ATOM     74  O   UNL A   1      32.867  26.524  24.106  1.00  0.00    -0.376 OA
BRANCH  74  75
ATOM     75  C   UNL A   1      32.016  25.381  24.117  1.00  0.00     0.202 C 
BRANCH  75  76
ATOM     76  C   UNL A   1      31.894  24.627  22.791  1.00  0.00     0.261 C 
BRANCH  76  77
ATOM     77  O   UNL A   1      33.000  23.752  22.503  1.00  0.00    -0.460 OA
BRANCH  77  78
ATOM     78  C   UNL A   1      32.802  22.472  22.900  1.00  0.00     0.338 C 
ATOM     79  O   UNL A   1      31.945  21.696  22.513  1.00  0.00    -0.246 OA
BRANCH  78  80
ATOM     80  C   UNL A   1      33.671  22.129  24.033  1.00  0.00     0.063 A 
ATOM     81  C   UNL A   1      33.163  21.645  25.236  1.00  0.00     0.016 A 
ATOM     82  C   UNL A   1      34.996  22.559  23.935  1.00  0.00     0.062 A 
ATOM     83  C   UNL A   1      33.993  21.623  26.360  1.00  0.00     0.005 A 
ATOM     84  C   UNL A   1      35.811  22.588  25.068  1.00  0.00     0.130 A 
ATOM     85  C   UNL A   1      35.303  22.115  26.282  1.00  0.00     0.047 A 
BRANCH  84  86
ATOM     86  O   UNL A   1      37.090  23.120  25.106  1.00  0.00    -0.438 OA
BRANCH  86  87
ATOM     87  C   UNL A   1      38.078  22.309  25.624  1.00  0.00     0.234 A 
ATOM     88  N   UNL A   1      38.083  21.039  25.138  1.00  0.00    -0.214 NA
ATOM     89  C   UNL A   1      39.043  22.807  26.503  1.00  0.00     0.087 A 
ATOM     90  C   UNL A   1      39.150  20.267  25.464  1.00  0.00     0.200 A 
ATOM     91  C   UNL A   1      40.141  22.003  26.803  1.00  0.00     0.108 A 
ATOM     92  Br  UNL A   1      38.966  24.557  27.221  1.00  0.00    -0.045 Br
ATOM     93  C   UNL A   1      40.199  20.719  26.254  1.00  0.00     0.288 A 
BRANCH  93  94
ATOM     94  N   UNL A   1      41.364  19.872  26.460  1.00  0.00     0.064 N 
ATOM     95  O   UNL A   1      41.788  19.752  27.617  1.00  0.00    -0.258 OA
ATOM     96  O   UNL A   1      41.844  19.310  25.467  1.00  0.00    -0.258 OA
ENDBRANCH  93  94
ENDBRANCH  86  87
ENDBRANCH  84  86
ENDBRANCH  78  80
ENDBRANCH  77  78
ENDBRANCH  76  77
ENDBRANCH  75  76
ENDBRANCH  74  75
ENDBRANCH   1  74
TORSDOF 20
ENDMDL
MODEL 2
REMARK VINA RESULT:     -10.5      5.234      9.468
REMARK SMILES O=C(OCCOCCOCCOC(=O)c1cccc(Oc2ncc([N+](=O)[O-])cc2Br)c1)c1ccc(-c2c3nc(c(-c4c(F)c(F)c(F)c(F)c4F)c4ccc([nH]4)c(-c4c(F)c(F)c(F)c(F)c4F)c4nc(c(-c5c(F)c(F)c(F)c(F)c5F)c5ccc2[nH]5)C=C4)C=C3)cc1
REMARK SMILES IDX 8 1 7 2 6 3 5 4 4 5 3 6 2 7 1 8 32 9 33 10 94 11 34 12 93 13
REMARK SMILES IDX 35 14 36 15 37 16 87 17 38 18 92 19 86 20 88 21 39 22 91 23
REMARK SMILES IDX 85 24 84 25 40 27 72 28 52 29 71 30 53 31 56 32 70 33 89 34
REMARK SMILES IDX 54 35 55 36 69 38 90 39 57 40 41 41 42 42 50 43 43 44 44 45
REMARK SMILES IDX 48 46 51 47 45 48 46 49 49 50 47 51 73 52 74 53 82 54 75 55
REMARK SMILES IDX 76 56 80 57 83 58 77 59 78 60 81 61 79 62 58 63 59 64 67 65
REMARK SMILES IDX 60 66 61 67 65 68 68 69 62 70 63 71 66 72 64 73 9 74 10 75
REMARK SMILES IDX 11 76 12 77 13 78 14 79 15 80 16 81 31 82 17 83 19 84 18 85
REMARK SMILES IDX 20 86 21 87 22 88 29 89 23 90 28 91 30 92 24 93 25 94 26 95
REMARK SMILES IDX 27 96
REMARK H PARENT 88 26 56 37
REMARK Flexibility Score: inf
ROOT
ATOM      1  C   UNL A   1      40.436  21.706  27.267  1.00  0.00     0.188 C 
ENDROOT
BRANCH   1   2
ATOM      2  C   UNL A   1      41.805  21.270  26.740  1.00  0.00     0.188 C 
BRANCH   2   3
ATOM      3  O   UNL A   1      41.714  19.967  26.140  1.00  0.00    -0.376 OA
BRANCH   3   4
ATOM      4  C   UNL A   1      42.594  19.005  26.729  1.00  0.00     0.202 C 
BRANCH   4   5
ATOM      5  C   UNL A   1      43.214  18.046  25.711  1.00  0.00     0.261 C 
BRANCH   5   6
ATOM      6  O   UNL A   1      44.462  18.554  25.211  1.00  0.00    -0.460 OA
BRANCH   6   7
ATOM      7  C   UNL A   1      44.645  19.591  24.358  1.00  0.00     0.338 C 
ATOM      8  O   UNL A   1      44.411  19.428  23.162  1.00  0.00    -0.246 OA
BRANCH   7   9
ATOM      9  C   UNL A   1      45.007  20.967  24.811  1.00  0.00     0.060 A 
ATOM     10  C   UNL A   1      45.489  21.304  26.079  1.00  0.00     0.016 A 
ATOM     11  C   UNL A   1      44.896  21.986  23.851  1.00  0.00     0.016 A 
ATOM     12  C   UNL A   1      45.712  22.637  26.431  1.00  0.00     0.010 A 
ATOM     13  C   UNL A   1      45.179  23.314  24.178  1.00  0.00     0.010 A 
ATOM     14  C   UNL A   1      45.536  23.651  25.489  1.00  0.00    -0.014 A 
BRANCH  14  15
ATOM     15  C   UNL A   1      45.619  25.073  25.889  1.00  0.00     0.031 A 
ATOM     16  C   UNL A   1      46.933  25.782  25.777  1.00  0.00     0.074 A 
ATOM     17  C   UNL A   1      44.533  25.733  26.325  1.00  0.00     0.049 A 
ATOM     18  N   UNL A   1      47.271  26.976  26.187  1.00  0.00    -0.248 NA
ATOM     19  C   UNL A   1      48.013  25.044  25.102  1.00  0.00     0.031 C 
ATOM     20  C   UNL A   1      43.187  25.176  26.386  1.00  0.00     0.029 A 
ATOM     21  N   UNL A   1      44.395  27.011  26.801  1.00  0.00    -0.354 N 
ATOM     22  C   UNL A   1      48.604  27.127  25.837  1.00  0.00     0.074 A 
ATOM     23  C   UNL A   1      49.020  25.897  25.195  1.00  0.00     0.031 C 
ATOM     24  C   UNL A   1      42.358  26.103  26.890  1.00  0.00     0.029 A 
ATOM     25  C   UNL A   1      43.124  27.293  27.235  1.00  0.00     0.049 A 
ATOM     26  H   UNL A   1      45.134  27.661  26.830  1.00  0.00     0.167 HD
ATOM     27  C   UNL A   1      49.408  28.198  26.032  1.00  0.00     0.037 A 
ATOM     28  C   UNL A   1      42.638  28.372  27.876  1.00  0.00     0.037 A 
ATOM     29  C   UNL A   1      48.988  29.413  26.674  1.00  0.00     0.049 A 
ATOM     30  C   UNL A   1      43.562  29.518  28.166  1.00  0.00     0.074 A 
ATOM     31  C   UNL A   1      49.729  30.543  26.963  1.00  0.00     0.029 A 
ATOM     32  N   UNL A   1      47.697  29.651  27.128  1.00  0.00    -0.354 N 
ATOM     33  N   UNL A   1      44.835  29.640  27.877  1.00  0.00    -0.248 NA
ATOM     34  C   UNL A   1      42.992  30.674  28.870  1.00  0.00     0.031 C 
ATOM     35  C   UNL A   1      48.893  31.456  27.618  1.00  0.00     0.029 A 
ATOM     36  C   UNL A   1      47.622  30.906  27.706  1.00  0.00     0.049 A 
ATOM     37  H   UNL A   1      46.945  29.019  27.050  1.00  0.00     0.167 HD
ATOM     38  C   UNL A   1      45.217  30.889  28.342  1.00  0.00     0.074 A 
ATOM     39  C   UNL A   1      44.036  31.490  28.933  1.00  0.00     0.031 C 
ATOM     40  C   UNL A   1      46.433  31.484  28.279  1.00  0.00     0.037 A 
BRANCH  27  41
ATOM     41  C   UNL A   1      50.829  28.057  25.583  1.00  0.00     0.064 A 
ATOM     42  C   UNL A   1      51.188  28.182  24.232  1.00  0.00     0.173 A 
ATOM     43  C   UNL A   1      51.833  27.731  26.506  1.00  0.00     0.173 A 
ATOM     44  F   UNL A   1      50.256  28.462  23.309  1.00  0.00    -0.203 F 
ATOM     45  C   UNL A   1      52.497  27.951  23.818  1.00  0.00     0.198 A 
ATOM     46  C   UNL A   1      53.145  27.522  26.090  1.00  0.00     0.198 A 
ATOM     47  F   UNL A   1      51.537  27.592  27.806  1.00  0.00    -0.203 F 
ATOM     48  F   UNL A   1      52.807  28.011  22.515  1.00  0.00    -0.200 F 
ATOM     49  C   UNL A   1      53.474  27.621  24.746  1.00  0.00     0.200 A 
ATOM     50  F   UNL A   1      54.087  27.201  26.988  1.00  0.00    -0.200 F 
ATOM     51  F   UNL A   1      54.729  27.377  24.343  1.00  0.00    -0.200 F 
ENDBRANCH  27  41
BRANCH  28  52
ATOM     52  C   UNL A   1      41.214  28.381  28.297  1.00  0.00     0.064 A 
ATOM     53  C   UNL A   1      40.830  27.935  29.567  1.00  0.00     0.173 A 
ATOM     54  C   UNL A   1      40.218  28.907  27.458  1.00  0.00     0.173 A 
ATOM     55  F   UNL A   1      41.742  27.408  30.396  1.00  0.00    -0.203 F 
ATOM     56  C   UNL A   1      39.502  28.015  29.984  1.00  0.00     0.198 A 
ATOM     57  C   UNL A   1      38.895  29.005  27.884  1.00  0.00     0.198 A 
ATOM     58  F   UNL A   1      40.537  29.350  26.233  1.00  0.00    -0.203 F 
ATOM     59  F   UNL A   1      39.155  27.568  31.199  1.00  0.00    -0.200 F 
ATOM     60  C   UNL A   1      38.539  28.559  29.146  1.00  0.00     0.200 A 
ATOM     61  F   UNL A   1      37.970  29.539  27.075  1.00  0.00    -0.200 F 
ATOM     62  F   UNL A   1      37.266  28.651  29.558  1.00  0.00    -0.200 F 
ENDBRANCH  28  52
BRANCH  40  63
ATOM     63  C   UNL A   1      46.544  32.870  28.833  1.00  0.00     0.064 A 
ATOM     64  C   UNL A   1      46.947  33.095  30.156  1.00  0.00     0.173 A 
ATOM     65  C   UNL A   1      46.315  33.981  28.009  1.00  0.00     0.173 A 
ATOM     66  F   UNL A   1      47.165  32.061  30.981  1.00  0.00    -0.203 F 
ATOM     67  C   UNL A   1      47.110  34.391  30.638  1.00  0.00     0.198 A 
ATOM     68  C   UNL A   1      46.495  35.273  28.490  1.00  0.00     0.198 A 
ATOM     69  F   UNL A   1      45.930  33.810  26.735  1.00  0.00    -0.203 F 
ATOM     70  F   UNL A   1      47.477  34.588  31.911  1.00  0.00    -0.200 F 
ATOM     71  C   UNL A   1      46.892  35.478  29.803  1.00  0.00     0.200 A 
ATOM     72  F   UNL A   1      46.291  36.323  27.680  1.00  0.00    -0.200 F 
ATOM     73  F   UNL A   1      47.062  36.724  30.265  1.00  0.00    -0.200 F 
ENDBRANCH  40  63
ENDBRANCH  14  15
ENDBRANCH   7   9
ENDBRANCH   6   7
ENDBRANCH   5   6
ENDBRANCH   4   5
ENDBRANCH   3   4
ENDBRANCH   2   3
ENDBRANCH   1   2
BRANCH   1  74
ATOM     74  O   UNL A   1      39.862  22.818  26.573  1.00  0.00    -0.376 OA
BRANCH  74  75
ATOM     75  C   UNL A   1      38.519  22.675  26.119  1.00  0.00     0.202 C 
BRANCH  75  76
ATOM     76  C   UNL A   1      37.735  23.975  25.935  1.00  0.00     0.261 C 
BRANCH  76  77
ATOM     77  O   UNL A   1      36.317  23.847  26.143  1.00  0.00    -0.460 OA
BRANCH  77  78
ATOM     78  C   UNL A   1      35.608  23.699  24.997  1.00  0.00     0.338 C 
ATOM     79  O   UNL A   1      36.034  23.683  23.855  1.00  0.00    -0.246 OA
BRANCH  78  80
ATOM     80  C   UNL A   1      34.164  23.722  25.261  1.00  0.00     0.063 A 
ATOM     81  C   UNL A   1      33.571  24.703  26.053  1.00  0.00     0.016 A 
ATOM     82  C   UNL A   1      33.460  22.571  24.899  1.00  0.00     0.062 A 
ATOM     83  C   UNL A   1      32.265  24.506  26.510  1.00  0.00     0.005 A 
ATOM     84  C   UNL A   1      32.176  22.347  25.397  1.00  0.00     0.130 A 
ATOM     85  C   UNL A   1      31.580  23.322  26.203  1.00  0.00     0.047 A 
BRANCH  84  86
ATOM     86  O   UNL A   1      31.450  21.182  25.209  1.00  0.00    -0.438 OA
BRANCH  86  87
ATOM     87  C   UNL A   1      32.161  20.075  24.795  1.00  0.00     0.234 A 
ATOM     88  N   UNL A   1      32.589  19.265  25.801  1.00  0.00    -0.214 NA
ATOM     89  C   UNL A   1      32.331  19.784  23.439  1.00  0.00     0.087 A 
ATOM     90  C   UNL A   1      33.116  18.069  25.437  1.00  0.00     0.200 A 
ATOM     91  C   UNL A   1      32.852  18.539  23.091  1.00  0.00     0.108 A 
ATOM     92  Br  UNL A   1      31.793  20.967  22.064  1.00  0.00    -0.045 Br
ATOM     93  C   UNL A   1      33.230  17.663  24.113  1.00  0.00     0.288 A 
BRANCH  93  94
ATOM     94  N   UNL A   1      33.695  16.319  23.809  1.00  0.00     0.064 N 
ATOM     95  O   UNL A   1      33.401  15.416  24.604  1.00  0.00    -0.258 OA
ATOM     96  O   UNL A   1      34.340  16.160  22.764  1.00  0.00    -0.258 OA
ENDBRANCH  93  94
ENDBRANCH  86  87
ENDBRANCH  84  86
ENDBRANCH  78  80
ENDBRANCH  77  78
ENDBRANCH  76  77
ENDBRANCH  75  76
ENDBRANCH  74  75
ENDBRANCH   1  74
TORSDOF 20
ENDMDL
MODEL 3
REMARK VINA RESULT:     -10.4      2.886      8.514
REMARK SMILES O=C(OCCOCCOCCOC(=O)c1cccc(Oc2ncc([N+](=O)[O-])cc2Br)c1)c1ccc(-c2c3nc(c(-c4c(F)c(F)c(F)c(F)c4F)c4ccc([nH]4)c(-c4c(F)c(F)c(F)c(F)c4F)c4nc(c(-c5c(F)c(F)c(F)c(F)c5F)c5ccc2[nH]5)C=C4)C=C3)cc1
REMARK SMILES IDX 8 1 7 2 6 3 5 4 4 5 3 6 2 7 1 8 32 9 33 10 94 11 34 12 93 13
REMARK SMILES IDX 35 14 36 15 37 16 87 17 38 18 92 19 86 20 88 21 39 22 91 23
REMARK SMILES IDX 85 24 84 25 40 27 72 28 52 29 71 30 53 31 56 32 70 33 89 34
REMARK SMILES IDX 54 35 55 36 69 38 90 39 57 40 41 41 42 42 50 43 43 44 44 45
REMARK SMILES IDX 48 46 51 47 45 48 46 49 49 50 47 51 73 52 74 53 82 54 75 55
REMARK SMILES IDX 76 56 80 57 83 58 77 59 78 60 81 61 79 62 58 63 59 64 67 65
REMARK SMILES IDX 60 66 61 67 65 68 68 69 62 70 63 71 66 72 64 73 9 74 10 75
REMARK SMILES IDX 11 76 12 77 13 78 14 79 15 80 16 81 31 82 17 83 19 84 18 85
REMARK SMILES IDX 20 86 21 87 22 88 29 89 23 90 28 91 30 92 24 93 25 94 26 95
REMARK SMILES IDX 27 96
REMARK H PARENT 88 26 56 37
REMARK Flexibility Score: inf
ROOT
ATOM      1  C   UNL A   1      38.923  21.639  25.849  1.00  0.00     0.188 C 
ENDROOT
BRANCH   1   2
ATOM      2  C   UNL A   1      40.303  21.580  26.509  1.00  0.00     0.188 C 
BRANCH   2   3
ATOM      3  O   UNL A   1      41.203  20.795  25.710  1.00  0.00    -0.376 OA
BRANCH   3   4
ATOM      4  C   UNL A   1      42.451  20.525  26.355  1.00  0.00     0.202 C 
BRANCH   4   5
ATOM      5  C   UNL A   1      43.653  21.142  25.635  1.00  0.00     0.261 C 
BRANCH   5   6
ATOM      6  O   UNL A   1      43.944  22.454  26.141  1.00  0.00    -0.460 OA
BRANCH   6   7
ATOM      7  C   UNL A   1      43.497  23.640  25.660  1.00  0.00     0.338 C 
ATOM      8  O   UNL A   1      43.397  23.789  24.443  1.00  0.00    -0.246 OA
BRANCH   7   9
ATOM      9  C   UNL A   1      43.005  24.744  26.536  1.00  0.00     0.060 A 
ATOM     10  C   UNL A   1      43.438  26.072  26.489  1.00  0.00     0.016 A 
ATOM     11  C   UNL A   1      41.982  24.411  27.439  1.00  0.00     0.016 A 
ATOM     12  C   UNL A   1      42.978  27.009  27.416  1.00  0.00     0.010 A 
ATOM     13  C   UNL A   1      41.472  25.360  28.326  1.00  0.00     0.010 A 
ATOM     14  C   UNL A   1      42.009  26.652  28.355  1.00  0.00    -0.014 A 
BRANCH  14  15
ATOM     15  C   UNL A   1      41.626  27.588  29.435  1.00  0.00     0.031 A 
ATOM     16  C   UNL A   1      42.389  27.559  30.723  1.00  0.00     0.074 A 
ATOM     17  C   UNL A   1      40.628  28.469  29.263  1.00  0.00     0.049 A 
ATOM     18  N   UNL A   1      42.152  28.187  31.844  1.00  0.00    -0.248 NA
ATOM     19  C   UNL A   1      43.589  26.708  30.748  1.00  0.00     0.031 C 
ATOM     20  C   UNL A   1      39.880  28.654  28.025  1.00  0.00     0.029 A 
ATOM     21  N   UNL A   1      40.070  29.370  30.135  1.00  0.00    -0.354 N 
ATOM     22  C   UNL A   1      43.160  27.797  32.712  1.00  0.00     0.074 A 
ATOM     23  C   UNL A   1      44.003  26.864  31.995  1.00  0.00     0.031 C 
ATOM     24  C   UNL A   1      38.947  29.598  28.220  1.00  0.00     0.029 A 
ATOM     25  C   UNL A   1      38.997  30.042  29.607  1.00  0.00     0.049 A 
ATOM     26  H   UNL A   1      40.405  29.518  31.049  1.00  0.00     0.167 HD
ATOM     27  C   UNL A   1      43.364  28.185  33.992  1.00  0.00     0.037 A 
ATOM     28  C   UNL A   1      38.125  30.890  30.183  1.00  0.00     0.037 A 
ATOM     29  C   UNL A   1      42.518  29.108  34.697  1.00  0.00     0.049 A 
ATOM     30  C   UNL A   1      38.310  31.243  31.630  1.00  0.00     0.074 A 
ATOM     31  C   UNL A   1      42.605  29.538  36.008  1.00  0.00     0.029 A 
ATOM     32  N   UNL A   1      41.420  29.748  34.136  1.00  0.00    -0.354 N 
ATOM     33  N   UNL A   1      39.237  30.836  32.463  1.00  0.00    -0.248 NA
ATOM     34  C   UNL A   1      37.335  32.169  32.221  1.00  0.00     0.031 C 
ATOM     35  C   UNL A   1      41.543  30.418  36.249  1.00  0.00     0.029 A 
ATOM     36  C   UNL A   1      40.814  30.561  35.078  1.00  0.00     0.049 A 
ATOM     37  H   UNL A   1      41.118  29.638  33.205  1.00  0.00     0.167 HD
ATOM     38  C   UNL A   1      38.974  31.467  33.669  1.00  0.00     0.074 A 
ATOM     39  C   UNL A   1      37.797  32.289  33.459  1.00  0.00     0.031 C 
ATOM     40  C   UNL A   1      39.650  31.376  34.840  1.00  0.00     0.037 A 
BRANCH  27  41
ATOM     41  C   UNL A   1      44.522  27.557  34.703  1.00  0.00     0.064 A 
ATOM     42  C   UNL A   1      44.400  26.324  35.362  1.00  0.00     0.173 A 
ATOM     43  C   UNL A   1      45.751  28.228  34.780  1.00  0.00     0.173 A 
ATOM     44  F   UNL A   1      43.233  25.662  35.342  1.00  0.00    -0.203 F 
ATOM     45  C   UNL A   1      45.458  25.803  36.101  1.00  0.00     0.198 A 
ATOM     46  C   UNL A   1      46.814  27.692  35.503  1.00  0.00     0.198 A 
ATOM     47  F   UNL A   1      45.914  29.414  34.174  1.00  0.00    -0.203 F 
ATOM     48  F   UNL A   1      45.300  24.656  36.777  1.00  0.00    -0.200 F 
ATOM     49  C   UNL A   1      46.663  26.487  36.172  1.00  0.00     0.200 A 
ATOM     50  F   UNL A   1      47.976  28.355  35.572  1.00  0.00    -0.200 F 
ATOM     51  F   UNL A   1      47.673  25.994  36.902  1.00  0.00    -0.200 F 
ENDBRANCH  27  41
BRANCH  28  52
ATOM     52  C   UNL A   1      36.998  31.424  29.379  1.00  0.00     0.064 A 
ATOM     53  C   UNL A   1      35.905  30.620  29.036  1.00  0.00     0.173 A 
ATOM     54  C   UNL A   1      36.961  32.776  28.999  1.00  0.00     0.173 A 
ATOM     55  F   UNL A   1      35.902  29.319  29.361  1.00  0.00    -0.203 F 
ATOM     56  C   UNL A   1      34.814  31.147  28.345  1.00  0.00     0.198 A 
ATOM     57  C   UNL A   1      35.862  33.305  28.326  1.00  0.00     0.198 A 
ATOM     58  F   UNL A   1      37.983  33.588  29.306  1.00  0.00    -0.203 F 
ATOM     59  F   UNL A   1      33.786  30.354  28.016  1.00  0.00    -0.200 F 
ATOM     60  C   UNL A   1      34.790  32.491  28.000  1.00  0.00     0.200 A 
ATOM     61  F   UNL A   1      35.838  34.605  28.002  1.00  0.00    -0.200 F 
ATOM     62  F   UNL A   1      33.732  32.997  27.351  1.00  0.00    -0.200 F 
ENDBRANCH  28  52
BRANCH  40  63
ATOM     63  C   UNL A   1      39.155  32.212  35.979  1.00  0.00     0.064 A 
ATOM     64  C   UNL A   1      38.268  31.694  36.932  1.00  0.00     0.173 A 
ATOM     65  C   UNL A   1      39.633  33.518  36.156  1.00  0.00     0.173 A 
ATOM     66  F   UNL A   1      37.777  30.453  36.793  1.00  0.00    -0.203 F 
ATOM     67  C   UNL A   1      37.869  32.462  38.023  1.00  0.00     0.198 A 
ATOM     68  C   UNL A   1      39.245  34.276  37.256  1.00  0.00     0.198 A 
ATOM     69  F   UNL A   1      40.487  34.052  35.269  1.00  0.00    -0.203 F 
ATOM     70  F   UNL A   1      37.004  31.957  38.913  1.00  0.00    -0.200 F 
ATOM     71  C   UNL A   1      38.363  33.748  38.188  1.00  0.00     0.200 A 
ATOM     72  F   UNL A   1      39.729  35.515  37.419  1.00  0.00    -0.200 F 
ATOM     73  F   UNL A   1      37.988  34.480  39.245  1.00  0.00    -0.200 F 
ENDBRANCH  40  63
ENDBRANCH  14  15
ENDBRANCH   7   9
ENDBRANCH   6   7
ENDBRANCH   5   6
ENDBRANCH   4   5
ENDBRANCH   3   4
ENDBRANCH   2   3
ENDBRANCH   1   2
BRANCH   1  74
ATOM     74  O   UNL A   1      38.023  22.577  26.445  1.00  0.00    -0.376 OA
BRANCH  74  75
ATOM     75  C   UNL A   1      37.591  23.665  25.632  1.00  0.00     0.202 C 
BRANCH  75  76
ATOM     76  C   UNL A   1      36.294  23.440  24.851  1.00  0.00     0.261 C 
BRANCH  76  77
ATOM     77  O   UNL A   1      35.101  23.504  25.653  1.00  0.00    -0.460 OA
BRANCH  77  78
ATOM     78  C   UNL A   1      34.552  22.293  25.912  1.00  0.00     0.338 C 
ATOM     79  O   UNL A   1      34.942  21.452  26.704  1.00  0.00    -0.246 OA
BRANCH  78  80
ATOM     80  C   UNL A   1      33.461  21.996  24.975  1.00  0.00     0.063 A 
ATOM     81  C   UNL A   1      33.411  20.808  24.249  1.00  0.00     0.016 A 
ATOM     82  C   UNL A   1      32.624  23.067  24.655  1.00  0.00     0.062 A 
ATOM     83  C   UNL A   1      32.529  20.712  23.169  1.00  0.00     0.005 A 
ATOM     84  C   UNL A   1      31.780  22.993  23.546  1.00  0.00     0.130 A 
ATOM     85  C   UNL A   1      31.736  21.808  22.805  1.00  0.00     0.047 A 
BRANCH  84  86
ATOM     86  O   UNL A   1      31.014  24.044  23.066  1.00  0.00    -0.438 OA
BRANCH  86  87
ATOM     87  C   UNL A   1      31.031  25.205  23.811  1.00  0.00     0.234 A 
ATOM     88  N   UNL A   1      30.213  25.195  24.897  1.00  0.00    -0.214 NA
ATOM     89  C   UNL A   1      31.901  26.255  23.503  1.00  0.00     0.087 A 
ATOM     90  C   UNL A   1      30.344  26.229  25.767  1.00  0.00     0.200 A 
ATOM     91  C   UNL A   1      32.034  27.293  24.424  1.00  0.00     0.108 A 
ATOM     92  Br  UNL A   1      32.970  26.273  21.942  1.00  0.00    -0.045 Br
ATOM     93  C   UNL A   1      31.253  27.262  25.583  1.00  0.00     0.288 A 
BRANCH  93  94
ATOM     94  N   UNL A   1      31.417  28.271  26.618  1.00  0.00     0.064 N 
ATOM     95  O   UNL A   1      31.543  29.449  26.257  1.00  0.00    -0.258 OA
ATOM     96  O   UNL A   1      31.399  27.889  27.796  1.00  0.00    -0.258 OA
ENDBRANCH  93  94
ENDBRANCH  86  87
ENDBRANCH  84  86
ENDBRANCH  78  80
ENDBRANCH  77  78
ENDBRANCH  76  77
ENDBRANCH  75  76
ENDBRANCH  74  75
ENDBRANCH   1  74
TORSDOF 20
ENDMDL
