MODEL 1
REMARK VINA RESULT:     -10.8      0.000      0.000
REMARK SMILES C[C@H]1CC=C(C2=NN=C(C(=O)OCCOCCOCCOC(=O)c3ccc(-c4c5nc(c(-c6c(F)c(F)c(F)c(F)c6F)c6ccc([nH]6)c(-c6c(F)c(F)c(F)c(F)c6F)c6nc(c(-c7c(F)c(F)c(F)c(F)c7F)c7ccc4[nH]7)C=C6)C=C5)cc3)C2)O1
REMARK SMILES IDX 17 1 16 2 15 3 14 4 13 5 12 6 10 7 11 8 9 9 6 10 7 11 87 12
REMARK SMILES IDX 8 13 5 14 1 15 2 16 3 17 88 18 4 19 18 20 19 21 20 22 21 23
REMARK SMILES IDX 22 24 23 25 24 26 25 27 86 28 26 29 85 30 27 31 28 32 29 33
REMARK SMILES IDX 79 34 30 35 84 36 78 37 80 38 31 39 83 40 77 41 76 42 32 44
REMARK SMILES IDX 64 45 44 46 63 47 45 48 48 49 62 50 81 51 46 52 47 53 61 55
REMARK SMILES IDX 82 56 49 57 33 58 34 59 42 60 35 61 36 62 40 63 43 64 37 65
REMARK SMILES IDX 38 66 41 67 39 68 65 69 66 70 74 71 67 72 68 73 72 74 75 75
REMARK SMILES IDX 69 76 70 77 73 78 71 79 50 80 51 81 59 82 52 83 53 84 57 85
REMARK SMILES IDX 60 86 54 87 55 88 58 89 56 90
REMARK H PARENT 80 43 48 54
REMARK Flexibility Score: inf
ROOT
ATOM      1  C   UNL A   1      32.218  29.476  25.821  1.00  0.00     0.188 C 
ENDROOT
BRANCH   1   2
ATOM      2  C   UNL A   1      33.377  28.966  24.932  1.00  0.00     0.188 C 
BRANCH   2   3
ATOM      3  O   UNL A   1      33.604  27.574  24.741  1.00  0.00    -0.376 OA
BRANCH   3   4
ATOM      4  C   UNL A   1      33.741  26.724  25.875  1.00  0.00     0.202 C 
BRANCH   4   5
ATOM      5  C   UNL A   1      32.978  25.389  25.897  1.00  0.00     0.261 C 
BRANCH   5   6
ATOM      6  O   UNL A   1      31.556  25.524  25.743  1.00  0.00    -0.459 OA
BRANCH   6   7
ATOM      7  C   UNL A   1      31.035  25.076  24.591  1.00  0.00     0.355 C 
ATOM      8  O   UNL A   1      30.592  23.965  24.341  1.00  0.00    -0.245 OA
BRANCH   7   9
ATOM      9  C   UNL A   1      30.857  26.192  23.608  1.00  0.00     0.154 C 
ATOM     10  C   UNL A   1      30.059  28.028  22.631  1.00  0.00     0.111 C 
ATOM     11  N   UNL A   1      30.834  27.421  21.783  1.00  0.00    -0.151 NA
ATOM     12  C   UNL A   1      30.022  27.365  23.966  1.00  0.00     0.128 C 
ATOM     13  N   UNL A   1      31.359  26.241  22.412  1.00  0.00    -0.147 NA
BRANCH  10  14
ATOM     14  C   UNL A   1      29.211  29.204  22.371  1.00  0.00     0.139 C 
ATOM     15  C   UNL A   1      27.978  31.741  20.406  1.00  0.00     0.053 C 
ATOM     16  C   UNL A   1      28.656  31.255  21.680  1.00  0.00     0.174 C 
ATOM     17  C   UNL A   1      27.641  30.820  22.744  1.00  0.00     0.076 C 
ATOM     18  O   UNL A   1      29.528  30.134  21.389  1.00  0.00    -0.489 OA
ATOM     19  C   UNL A   1      28.195  29.519  23.168  1.00  0.00     0.025 C 
ENDBRANCH  10  14
ENDBRANCH   7   9
ENDBRANCH   6   7
ENDBRANCH   5   6
ENDBRANCH   4   5
ENDBRANCH   3   4
ENDBRANCH   2   3
ENDBRANCH   1   2
BRANCH   1  20
ATOM     20  O   UNL A   1      32.629  30.071  27.043  1.00  0.00    -0.376 OA
BRANCH  20  21
ATOM     21  C   UNL A   1      34.032  30.151  27.256  1.00  0.00     0.202 C 
BRANCH  21  22
ATOM     22  C   UNL A   1      34.503  31.488  27.826  1.00  0.00     0.261 C 
BRANCH  22  23
ATOM     23  O   UNL A   1      35.881  31.523  28.191  1.00  0.00    -0.460 OA
BRANCH  23  24
ATOM     24  C   UNL A   1      36.224  30.842  29.298  1.00  0.00     0.338 C 
ATOM     25  O   UNL A   1      35.825  31.041  30.439  1.00  0.00    -0.246 OA
BRANCH  24  26
ATOM     26  C   UNL A   1      37.228  29.832  28.938  1.00  0.00     0.060 A 
ATOM     27  C   UNL A   1      37.629  28.927  29.924  1.00  0.00     0.016 A 
ATOM     28  C   UNL A   1      37.910  29.934  27.717  1.00  0.00     0.016 A 
ATOM     29  C   UNL A   1      38.829  28.260  29.763  1.00  0.00     0.010 A 
ATOM     30  C   UNL A   1      39.111  29.276  27.561  1.00  0.00     0.010 A 
ATOM     31  C   UNL A   1      39.600  28.520  28.626  1.00  0.00    -0.014 A 
BRANCH  31  32
ATOM     32  C   UNL A   1      40.990  28.092  28.636  1.00  0.00     0.031 A 
ATOM     33  C   UNL A   1      41.286  26.795  28.000  1.00  0.00     0.074 A 
ATOM     34  C   UNL A   1      41.955  28.907  29.110  1.00  0.00     0.049 A 
ATOM     35  N   UNL A   1      41.903  25.785  28.520  1.00  0.00    -0.248 NA
ATOM     36  C   UNL A   1      40.816  26.576  26.624  1.00  0.00     0.031 C 
ATOM     37  C   UNL A   1      41.793  30.322  29.465  1.00  0.00     0.029 A 
ATOM     38  N   UNL A   1      43.298  28.695  29.266  1.00  0.00    -0.354 N 
ATOM     39  C   UNL A   1      42.073  24.878  27.481  1.00  0.00     0.074 A 
ATOM     40  C   UNL A   1      41.283  25.351  26.375  1.00  0.00     0.031 C 
ATOM     41  C   UNL A   1      43.009  30.892  29.586  1.00  0.00     0.029 A 
ATOM     42  C   UNL A   1      44.026  29.862  29.444  1.00  0.00     0.049 A 
ATOM     43  H   UNL A   1      43.708  27.801  29.253  1.00  0.00     0.167 HD
ATOM     44  C   UNL A   1      43.074  23.961  27.519  1.00  0.00     0.037 A 
ATOM     45  C   UNL A   1      45.370  30.011  29.425  1.00  0.00     0.037 A 
ATOM     46  C   UNL A   1      43.605  23.774  28.841  1.00  0.00     0.049 A 
ATOM     47  C   UNL A   1      46.010  28.707  29.708  1.00  0.00     0.074 A 
ATOM     48  C   UNL A   1      43.333  22.991  29.939  1.00  0.00     0.029 A 
ATOM     49  N   UNL A   1      44.494  24.731  29.234  1.00  0.00    -0.354 N 
ATOM     50  N   UNL A   1      45.946  28.097  30.860  1.00  0.00    -0.248 NA
ATOM     51  C   UNL A   1      46.542  27.908  28.607  1.00  0.00     0.031 C 
ATOM     52  C   UNL A   1      44.049  23.560  31.037  1.00  0.00     0.029 A 
ATOM     53  C   UNL A   1      44.729  24.683  30.581  1.00  0.00     0.049 A 
ATOM     54  H   UNL A   1      44.916  25.378  28.622  1.00  0.00     0.167 HD
ATOM     55  C   UNL A   1      46.037  26.760  30.538  1.00  0.00     0.074 A 
ATOM     56  C   UNL A   1      46.578  26.707  29.191  1.00  0.00     0.031 C 
ATOM     57  C   UNL A   1      45.328  25.824  31.228  1.00  0.00     0.037 A 
BRANCH  44  58
ATOM     58  C   UNL A   1      43.898  23.576  26.316  1.00  0.00     0.064 A 
ATOM     59  C   UNL A   1      43.942  22.227  25.918  1.00  0.00     0.173 A 
ATOM     60  C   UNL A   1      44.896  24.412  25.769  1.00  0.00     0.173 A 
ATOM     61  F   UNL A   1      43.056  21.343  26.403  1.00  0.00    -0.203 F 
ATOM     62  C   UNL A   1      44.948  21.740  25.080  1.00  0.00     0.198 A 
ATOM     63  C   UNL A   1      45.865  23.933  24.889  1.00  0.00     0.198 A 
ATOM     64  F   UNL A   1      45.041  25.687  26.153  1.00  0.00    -0.203 F 
ATOM     65  F   UNL A   1      45.021  20.427  24.820  1.00  0.00    -0.200 F 
ATOM     66  C   UNL A   1      45.910  22.593  24.569  1.00  0.00     0.200 A 
ATOM     67  F   UNL A   1      46.803  24.769  24.423  1.00  0.00    -0.200 F 
ATOM     68  F   UNL A   1      46.906  22.118  23.809  1.00  0.00    -0.200 F 
ENDBRANCH  44  58
BRANCH  45  69
ATOM     69  C   UNL A   1      46.144  31.200  29.000  1.00  0.00     0.064 A 
ATOM     70  C   UNL A   1      46.107  31.658  27.675  1.00  0.00     0.173 A 
ATOM     71  C   UNL A   1      46.751  32.054  29.943  1.00  0.00     0.173 A 
ATOM     72  F   UNL A   1      45.505  30.928  26.725  1.00  0.00    -0.203 F 
ATOM     73  C   UNL A   1      46.632  32.903  27.316  1.00  0.00     0.198 A 
ATOM     74  C   UNL A   1      47.291  33.287  29.581  1.00  0.00     0.198 A 
ATOM     75  F   UNL A   1      46.755  31.750  31.249  1.00  0.00    -0.203 F 
ATOM     76  F   UNL A   1      46.520  33.335  26.053  1.00  0.00    -0.200 F 
ATOM     77  C   UNL A   1      47.219  33.718  28.270  1.00  0.00     0.200 A 
ATOM     78  F   UNL A   1      47.828  34.079  30.520  1.00  0.00    -0.200 F 
ATOM     79  F   UNL A   1      47.676  34.932  27.936  1.00  0.00    -0.200 F 
ENDBRANCH  45  69
BRANCH  57  80
ATOM     80  C   UNL A   1      44.977  26.131  32.644  1.00  0.00     0.064 A 
ATOM     81  C   UNL A   1      43.820  26.821  33.030  1.00  0.00     0.173 A 
ATOM     82  C   UNL A   1      45.836  25.675  33.654  1.00  0.00     0.173 A 
ATOM     83  F   UNL A   1      42.920  27.215  32.118  1.00  0.00    -0.203 F 
ATOM     84  C   UNL A   1      43.561  27.087  34.372  1.00  0.00     0.198 A 
ATOM     85  C   UNL A   1      45.558  25.915  34.996  1.00  0.00     0.198 A 
ATOM     86  F   UNL A   1      46.936  24.974  33.337  1.00  0.00    -0.203 F 
ATOM     87  F   UNL A   1      42.462  27.773  34.721  1.00  0.00    -0.200 F 
ATOM     88  C   UNL A   1      44.429  26.633  35.354  1.00  0.00     0.200 A 
ATOM     89  F   UNL A   1      46.382  25.442  35.942  1.00  0.00    -0.200 F 
ATOM     90  F   UNL A   1      44.169  26.872  36.647  1.00  0.00    -0.200 F 
ENDBRANCH  57  80
ENDBRANCH  31  32
ENDBRANCH  24  26
ENDBRANCH  23  24
ENDBRANCH  22  23
ENDBRANCH  21  22
ENDBRANCH  20  21
ENDBRANCH   1  20
TORSDOF 18
ENDMDL
MODEL 2
REMARK VINA RESULT:     -10.7      3.868      7.696
REMARK SMILES C[C@H]1CC=C(C2=NN=C(C(=O)OCCOCCOCCOC(=O)c3ccc(-c4c5nc(c(-c6c(F)c(F)c(F)c(F)c6F)c6ccc([nH]6)c(-c6c(F)c(F)c(F)c(F)c6F)c6nc(c(-c7c(F)c(F)c(F)c(F)c7F)c7ccc4[nH]7)C=C6)C=C5)cc3)C2)O1
REMARK SMILES IDX 17 1 16 2 15 3 14 4 13 5 12 6 10 7 11 8 9 9 6 10 7 11 87 12
REMARK SMILES IDX 8 13 5 14 1 15 2 16 3 17 88 18 4 19 18 20 19 21 20 22 21 23
REMARK SMILES IDX 22 24 23 25 24 26 25 27 86 28 26 29 85 30 27 31 28 32 29 33
REMARK SMILES IDX 79 34 30 35 84 36 78 37 80 38 31 39 83 40 77 41 76 42 32 44
REMARK SMILES IDX 64 45 44 46 63 47 45 48 48 49 62 50 81 51 46 52 47 53 61 55
REMARK SMILES IDX 82 56 49 57 33 58 34 59 42 60 35 61 36 62 40 63 43 64 37 65
REMARK SMILES IDX 38 66 41 67 39 68 65 69 66 70 74 71 67 72 68 73 72 74 75 75
REMARK SMILES IDX 69 76 70 77 73 78 71 79 50 80 51 81 59 82 52 83 53 84 57 85
REMARK SMILES IDX 60 86 54 87 55 88 58 89 56 90
REMARK H PARENT 80 43 48 54
REMARK Flexibility Score: inf
ROOT
ATOM      1  C   UNL A   1      36.902  23.688  24.755  1.00  0.00     0.188 C 
ENDROOT
BRANCH   1   2
ATOM      2  C   UNL A   1      36.655  22.985  23.399  1.00  0.00     0.188 C 
BRANCH   2   3
ATOM      3  O   UNL A   1      35.527  23.310  22.593  1.00  0.00    -0.376 OA
BRANCH   3   4
ATOM      4  C   UNL A   1      34.238  23.390  23.192  1.00  0.00     0.202 C 
BRANCH   4   5
ATOM      5  C   UNL A   1      33.046  23.833  22.328  1.00  0.00     0.261 C 
BRANCH   5   6
ATOM      6  O   UNL A   1      33.379  24.803  21.322  1.00  0.00    -0.459 OA
BRANCH   6   7
ATOM      7  C   UNL A   1      32.612  25.902  21.276  1.00  0.00     0.355 C 
ATOM      8  O   UNL A   1      31.516  26.040  20.756  1.00  0.00    -0.245 OA
BRANCH   7   9
ATOM      9  C   UNL A   1      33.172  26.988  22.144  1.00  0.00     0.154 C 
ATOM     10  C   UNL A   1      33.386  28.446  23.814  1.00  0.00     0.111 C 
ATOM     11  N   UNL A   1      34.248  28.754  22.892  1.00  0.00    -0.151 NA
ATOM     12  C   UNL A   1      32.615  27.209  23.501  1.00  0.00     0.128 C 
ATOM     13  N   UNL A   1      34.121  27.810  21.817  1.00  0.00    -0.147 NA
BRANCH  10  14
ATOM     14  C   UNL A   1      33.078  29.215  25.031  1.00  0.00     0.139 C 
ATOM     15  C   UNL A   1      33.899  31.222  27.699  1.00  0.00     0.053 C 
ATOM     16  C   UNL A   1      33.279  29.953  27.131  1.00  0.00     0.174 C 
ATOM     17  C   UNL A   1      31.827  30.168  26.687  1.00  0.00     0.076 C 
ATOM     18  O   UNL A   1      34.045  29.486  25.992  1.00  0.00    -0.489 OA
ATOM     19  C   UNL A   1      31.831  29.546  25.348  1.00  0.00     0.025 C 
ENDBRANCH  10  14
ENDBRANCH   7   9
ENDBRANCH   6   7
ENDBRANCH   5   6
ENDBRANCH   4   5
ENDBRANCH   3   4
ENDBRANCH   2   3
ENDBRANCH   1   2
BRANCH   1  20
ATOM     20  O   UNL A   1      36.950  22.814  25.872  1.00  0.00    -0.376 OA
BRANCH  20  21
ATOM     21  C   UNL A   1      37.479  21.517  25.627  1.00  0.00     0.202 C 
BRANCH  21  22
ATOM     22  C   UNL A   1      38.983  21.399  25.871  1.00  0.00     0.261 C 
BRANCH  22  23
ATOM     23  O   UNL A   1      39.497  22.304  26.846  1.00  0.00    -0.460 OA
BRANCH  23  24
ATOM     24  C   UNL A   1      40.524  23.079  26.458  1.00  0.00     0.338 C 
ATOM     25  O   UNL A   1      41.604  22.707  26.014  1.00  0.00    -0.246 OA
BRANCH  24  26
ATOM     26  C   UNL A   1      40.175  24.484  26.712  1.00  0.00     0.060 A 
ATOM     27  C   UNL A   1      40.764  25.460  25.905  1.00  0.00     0.016 A 
ATOM     28  C   UNL A   1      39.457  24.824  27.867  1.00  0.00     0.016 A 
ATOM     29  C   UNL A   1      40.797  26.765  26.360  1.00  0.00     0.010 A 
ATOM     30  C   UNL A   1      39.497  26.123  28.325  1.00  0.00     0.010 A 
ATOM     31  C   UNL A   1      40.246  27.059  27.612  1.00  0.00    -0.014 A 
BRANCH  31  32
ATOM     32  C   UNL A   1      40.590  28.333  28.223  1.00  0.00     0.031 A 
ATOM     33  C   UNL A   1      41.865  28.943  27.803  1.00  0.00     0.074 A 
ATOM     34  C   UNL A   1      39.721  28.956  29.046  1.00  0.00     0.049 A 
ATOM     35  N   UNL A   1      42.838  29.334  28.558  1.00  0.00    -0.248 NA
ATOM     36  C   UNL A   1      42.107  29.119  26.363  1.00  0.00     0.031 C 
ATOM     37  C   UNL A   1      38.320  28.580  29.266  1.00  0.00     0.029 A 
ATOM     38  N   UNL A   1      39.853  30.113  29.764  1.00  0.00    -0.354 N 
ATOM     39  C   UNL A   1      43.730  29.981  27.711  1.00  0.00     0.074 A 
ATOM     40  C   UNL A   1      43.300  29.714  26.363  1.00  0.00     0.031 C 
ATOM     41  C   UNL A   1      37.679  29.595  29.881  1.00  0.00     0.029 A 
ATOM     42  C   UNL A   1      38.646  30.630  30.209  1.00  0.00     0.049 A 
ATOM     43  H   UNL A   1      40.722  30.539  29.947  1.00  0.00     0.167 HD
ATOM     44  C   UNL A   1      44.586  30.920  28.193  1.00  0.00     0.037 A 
ATOM     45  C   UNL A   1      38.417  31.843  30.762  1.00  0.00     0.037 A 
ATOM     46  C   UNL A   1      44.746  30.844  29.619  1.00  0.00     0.049 A 
ATOM     47  C   UNL A   1      39.682  32.372  31.320  1.00  0.00     0.074 A 
ATOM     48  C   UNL A   1      45.547  30.174  30.513  1.00  0.00     0.029 A 
ATOM     49  N   UNL A   1      43.739  31.427  30.332  1.00  0.00    -0.354 N 
ATOM     50  N   UNL A   1      40.299  31.856  32.347  1.00  0.00    -0.248 NA
ATOM     51  C   UNL A   1      40.444  33.366  30.568  1.00  0.00     0.031 C 
ATOM     52  C   UNL A   1      44.941  30.320  31.798  1.00  0.00     0.029 A 
ATOM     53  C   UNL A   1      43.778  31.066  31.651  1.00  0.00     0.049 A 
ATOM     54  H   UNL A   1      43.066  32.033  29.945  1.00  0.00     0.167 HD
ATOM     55  C   UNL A   1      41.627  32.150  32.124  1.00  0.00     0.074 A 
ATOM     56  C   UNL A   1      41.642  33.217  31.138  1.00  0.00     0.031 C 
ATOM     57  C   UNL A   1      42.606  31.268  32.467  1.00  0.00     0.037 A 
BRANCH  44  58
ATOM     58  C   UNL A   1      44.916  32.199  27.465  1.00  0.00     0.064 A 
ATOM     59  C   UNL A   1      46.178  32.335  26.855  1.00  0.00     0.173 A 
ATOM     60  C   UNL A   1      44.186  33.394  27.641  1.00  0.00     0.173 A 
ATOM     61  F   UNL A   1      46.964  31.263  26.667  1.00  0.00    -0.203 F 
ATOM     62  C   UNL A   1      46.694  33.584  26.504  1.00  0.00     0.198 A 
ATOM     63  C   UNL A   1      44.682  34.633  27.238  1.00  0.00     0.198 A 
ATOM     64  F   UNL A   1      43.027  33.423  28.311  1.00  0.00    -0.203 F 
ATOM     65  F   UNL A   1      47.945  33.680  26.035  1.00  0.00    -0.200 F 
ATOM     66  C   UNL A   1      45.947  34.732  26.698  1.00  0.00     0.200 A 
ATOM     67  F   UNL A   1      43.953  35.737  27.456  1.00  0.00    -0.200 F 
ATOM     68  F   UNL A   1      46.460  35.935  26.411  1.00  0.00    -0.200 F 
ENDBRANCH  44  58
BRANCH  45  69
ATOM     69  C   UNL A   1      37.183  32.658  30.682  1.00  0.00     0.064 A 
ATOM     70  C   UNL A   1      36.859  33.377  29.522  1.00  0.00     0.173 A 
ATOM     71  C   UNL A   1      36.173  32.555  31.660  1.00  0.00     0.173 A 
ATOM     72  F   UNL A   1      37.746  33.482  28.523  1.00  0.00    -0.203 F 
ATOM     73  C   UNL A   1      35.595  33.948  29.344  1.00  0.00     0.198 A 
ATOM     74  C   UNL A   1      34.919  33.140  31.490  1.00  0.00     0.198 A 
ATOM     75  F   UNL A   1      36.351  31.811  32.761  1.00  0.00    -0.203 F 
ATOM     76  F   UNL A   1      35.301  34.574  28.196  1.00  0.00    -0.200 F 
ATOM     77  C   UNL A   1      34.626  33.825  30.326  1.00  0.00     0.200 A 
ATOM     78  F   UNL A   1      33.981  32.987  32.434  1.00  0.00    -0.200 F 
ATOM     79  F   UNL A   1      33.399  34.329  30.134  1.00  0.00    -0.200 F 
ENDBRANCH  45  69
BRANCH  57  80
ATOM     80  C   UNL A   1      42.326  30.329  33.591  1.00  0.00     0.064 A 
ATOM     81  C   UNL A   1      41.849  29.023  33.417  1.00  0.00     0.173 A 
ATOM     82  C   UNL A   1      42.584  30.765  34.898  1.00  0.00     0.173 A 
ATOM     83  F   UNL A   1      41.655  28.521  32.189  1.00  0.00    -0.203 F 
ATOM     84  C   UNL A   1      41.594  28.203  34.514  1.00  0.00     0.198 A 
ATOM     85  C   UNL A   1      42.359  29.932  35.990  1.00  0.00     0.198 A 
ATOM     86  F   UNL A   1      43.081  31.993  35.114  1.00  0.00    -0.203 F 
ATOM     87  F   UNL A   1      41.112  26.965  34.330  1.00  0.00    -0.200 F 
ATOM     88  C   UNL A   1      41.851  28.658  35.799  1.00  0.00     0.200 A 
ATOM     89  F   UNL A   1      42.644  30.364  37.227  1.00  0.00    -0.200 F 
ATOM     90  F   UNL A   1      41.624  27.862  36.854  1.00  0.00    -0.200 F 
ENDBRANCH  57  80
ENDBRANCH  31  32
ENDBRANCH  24  26
ENDBRANCH  23  24
ENDBRANCH  22  23
ENDBRANCH  21  22
ENDBRANCH  20  21
ENDBRANCH   1  20
TORSDOF 18
ENDMDL
MODEL 3
REMARK VINA RESULT:     -10.7      5.591     10.672
REMARK SMILES C[C@H]1CC=C(C2=NN=C(C(=O)OCCOCCOCCOC(=O)c3ccc(-c4c5nc(c(-c6c(F)c(F)c(F)c(F)c6F)c6ccc([nH]6)c(-c6c(F)c(F)c(F)c(F)c6F)c6nc(c(-c7c(F)c(F)c(F)c(F)c7F)c7ccc4[nH]7)C=C6)C=C5)cc3)C2)O1
REMARK SMILES IDX 17 1 16 2 15 3 14 4 13 5 12 6 10 7 11 8 9 9 6 10 7 11 87 12
REMARK SMILES IDX 8 13 5 14 1 15 2 16 3 17 88 18 4 19 18 20 19 21 20 22 21 23
REMARK SMILES IDX 22 24 23 25 24 26 25 27 86 28 26 29 85 30 27 31 28 32 29 33
REMARK SMILES IDX 79 34 30 35 84 36 78 37 80 38 31 39 83 40 77 41 76 42 32 44
REMARK SMILES IDX 64 45 44 46 63 47 45 48 48 49 62 50 81 51 46 52 47 53 61 55
REMARK SMILES IDX 82 56 49 57 33 58 34 59 42 60 35 61 36 62 40 63 43 64 37 65
REMARK SMILES IDX 38 66 41 67 39 68 65 69 66 70 74 71 67 72 68 73 72 74 75 75
REMARK SMILES IDX 69 76 70 77 73 78 71 79 50 80 51 81 59 82 52 83 53 84 57 85
REMARK SMILES IDX 60 86 54 87 55 88 58 89 56 90
REMARK H PARENT 80 43 48 54
REMARK Flexibility Score: inf
ROOT
ATOM      1  C   UNL A   1      42.701  18.084  25.991  1.00  0.00     0.188 C 
ENDROOT
BRANCH   1   2
ATOM      2  C   UNL A   1      44.235  18.275  26.037  1.00  0.00     0.188 C 
BRANCH   2   3
ATOM      3  O   UNL A   1      44.999  18.407  24.843  1.00  0.00    -0.376 OA
BRANCH   3   4
ATOM      4  C   UNL A   1      45.094  19.678  24.209  1.00  0.00     0.202 C 
BRANCH   4   5
ATOM      5  C   UNL A   1      45.139  20.941  25.086  1.00  0.00     0.261 C 
BRANCH   5   6
ATOM      6  O   UNL A   1      44.837  22.156  24.381  1.00  0.00    -0.459 OA
BRANCH   6   7
ATOM      7  C   UNL A   1      43.777  22.851  24.817  1.00  0.00     0.355 C 
ATOM      8  O   UNL A   1      42.601  22.520  24.818  1.00  0.00    -0.245 OA
BRANCH   7   9
ATOM      9  C   UNL A   1      44.204  24.097  25.532  1.00  0.00     0.154 C 
ATOM     10  C   UNL A   1      44.807  25.481  27.169  1.00  0.00     0.111 C 
ATOM     11  N   UNL A   1      44.546  26.191  26.113  1.00  0.00    -0.151 NA
ATOM     12  C   UNL A   1      44.701  24.014  26.927  1.00  0.00     0.128 C 
ATOM     13  N   UNL A   1      44.166  25.302  25.050  1.00  0.00    -0.147 NA
BRANCH  10  14
ATOM     14  C   UNL A   1      45.109  25.982  28.521  1.00  0.00     0.139 C 
ATOM     15  C   UNL A   1      45.511  25.637  31.918  1.00  0.00     0.053 C 
ATOM     16  C   UNL A   1      44.867  26.316  30.717  1.00  0.00     0.174 C 
ATOM     17  C   UNL A   1      45.738  27.447  30.156  1.00  0.00     0.076 C 
ATOM     18  O   UNL A   1      44.628  25.351  29.661  1.00  0.00    -0.489 OA
ATOM     19  C   UNL A   1      45.716  27.149  28.710  1.00  0.00     0.025 C 
ENDBRANCH  10  14
ENDBRANCH   7   9
ENDBRANCH   6   7
ENDBRANCH   5   6
ENDBRANCH   4   5
ENDBRANCH   3   4
ENDBRANCH   2   3
ENDBRANCH   1   2
BRANCH   1  20
ATOM     20  O   UNL A   1      41.964  19.276  25.761  1.00  0.00    -0.376 OA
BRANCH  20  21
ATOM     21  C   UNL A   1      41.433  19.912  26.915  1.00  0.00     0.202 C 
BRANCH  21  22
ATOM     22  C   UNL A   1      40.317  20.914  26.621  1.00  0.00     0.261 C 
BRANCH  22  23
ATOM     23  O   UNL A   1      40.421  22.143  27.336  1.00  0.00    -0.460 OA
BRANCH  23  24
ATOM     24  C   UNL A   1      39.652  23.156  26.900  1.00  0.00     0.338 C 
ATOM     25  O   UNL A   1      38.531  23.074  26.413  1.00  0.00    -0.246 OA
BRANCH  24  26
ATOM     26  C   UNL A   1      40.403  24.411  27.038  1.00  0.00     0.060 A 
ATOM     27  C   UNL A   1      41.166  24.593  28.195  1.00  0.00     0.016 A 
ATOM     28  C   UNL A   1      40.170  25.463  26.142  1.00  0.00     0.016 A 
ATOM     29  C   UNL A   1      41.533  25.877  28.552  1.00  0.00     0.010 A 
ATOM     30  C   UNL A   1      40.529  26.745  26.502  1.00  0.00     0.010 A 
ATOM     31  C   UNL A   1      41.124  26.945  27.748  1.00  0.00    -0.014 A 
BRANCH  31  32
ATOM     32  C   UNL A   1      41.210  28.286  28.305  1.00  0.00     0.031 A 
ATOM     33  C   UNL A   1      42.370  29.098  27.895  1.00  0.00     0.074 A 
ATOM     34  C   UNL A   1      40.211  28.777  29.068  1.00  0.00     0.049 A 
ATOM     35  N   UNL A   1      43.227  29.692  28.659  1.00  0.00    -0.248 NA
ATOM     36  C   UNL A   1      42.632  29.252  26.456  1.00  0.00     0.031 C 
ATOM     37  C   UNL A   1      38.892  28.163  29.264  1.00  0.00     0.029 A 
ATOM     38  N   UNL A   1      40.105  29.969  29.732  1.00  0.00    -0.354 N 
ATOM     39  C   UNL A   1      44.020  30.452  27.808  1.00  0.00     0.074 A 
ATOM     40  C   UNL A   1      43.698  30.053  26.463  1.00  0.00     0.031 C 
ATOM     41  C   UNL A   1      38.056  29.071  29.808  1.00  0.00     0.029 A 
ATOM     42  C   UNL A   1      38.808  30.277  30.114  1.00  0.00     0.049 A 
ATOM     43  H   UNL A   1      40.875  30.552  29.920  1.00  0.00     0.167 HD
ATOM     44  C   UNL A   1      44.674  31.550  28.269  1.00  0.00     0.037 A 
ATOM     45  C   UNL A   1      38.344  31.452  30.598  1.00  0.00     0.037 A 
ATOM     46  C   UNL A   1      44.789  31.566  29.701  1.00  0.00     0.049 A 
ATOM     47  C   UNL A   1      39.471  32.225  31.167  1.00  0.00     0.074 A 
ATOM     48  C   UNL A   1      45.662  31.091  30.652  1.00  0.00     0.029 A 
ATOM     49  N   UNL A   1      43.667  31.988  30.353  1.00  0.00    -0.354 N 
ATOM     50  N   UNL A   1      40.129  31.874  32.238  1.00  0.00    -0.248 NA
ATOM     51  C   UNL A   1      40.071  33.307  30.391  1.00  0.00     0.031 C 
ATOM     52  C   UNL A   1      44.989  31.181  31.909  1.00  0.00     0.029 A 
ATOM     53  C   UNL A   1      43.718  31.697  31.689  1.00  0.00     0.049 A 
ATOM     54  H   UNL A   1      42.912  32.444  29.915  1.00  0.00     0.167 HD
ATOM     55  C   UNL A   1      41.391  32.393  32.041  1.00  0.00     0.074 A 
ATOM     56  C   UNL A   1      41.253  33.402  31.004  1.00  0.00     0.031 C 
ATOM     57  C   UNL A   1      42.498  31.719  32.457  1.00  0.00     0.037 A 
BRANCH  44  58
ATOM     58  C   UNL A   1      44.798  32.834  27.489  1.00  0.00     0.064 A 
ATOM     59  C   UNL A   1      45.988  33.096  26.784  1.00  0.00     0.173 A 
ATOM     60  C   UNL A   1      43.946  33.941  27.690  1.00  0.00     0.173 A 
ATOM     61  F   UNL A   1      46.880  32.118  26.563  1.00  0.00    -0.203 F 
ATOM     62  C   UNL A   1      46.326  34.386  26.365  1.00  0.00     0.198 A 
ATOM     63  C   UNL A   1      44.261  35.216  27.222  1.00  0.00     0.198 A 
ATOM     64  F   UNL A   1      42.842  33.857  28.444  1.00  0.00    -0.203 F 
ATOM     65  F   UNL A   1      47.521  34.612  25.803  1.00  0.00    -0.200 F 
ATOM     66  C   UNL A   1      45.464  35.444  26.588  1.00  0.00     0.200 A 
ATOM     67  F   UNL A   1      43.425  36.234  27.468  1.00  0.00    -0.200 F 
ATOM     68  F   UNL A   1      45.810  36.689  26.236  1.00  0.00    -0.200 F 
ENDBRANCH  44  58
BRANCH  45  69
ATOM     69  C   UNL A   1      36.988  32.025  30.439  1.00  0.00     0.064 A 
ATOM     70  C   UNL A   1      36.051  31.978  31.483  1.00  0.00     0.173 A 
ATOM     71  C   UNL A   1      36.662  32.844  29.340  1.00  0.00     0.173 A 
ATOM     72  F   UNL A   1      36.305  31.261  32.587  1.00  0.00    -0.203 F 
ATOM     73  C   UNL A   1      34.866  32.718  31.436  1.00  0.00     0.198 A 
ATOM     74  C   UNL A   1      35.471  33.567  29.286  1.00  0.00     0.198 A 
ATOM     75  F   UNL A   1      37.530  33.029  28.336  1.00  0.00    -0.203 F 
ATOM     76  F   UNL A   1      34.025  32.698  32.480  1.00  0.00    -0.200 F 
ATOM     77  C   UNL A   1      34.579  33.514  30.340  1.00  0.00     0.200 A 
ATOM     78  F   UNL A   1      35.221  34.358  28.233  1.00  0.00    -0.200 F 
ATOM     79  F   UNL A   1      33.468  34.262  30.317  1.00  0.00    -0.200 F 
ENDBRANCH  45  69
BRANCH  57  80
ATOM     80  C   UNL A   1      42.347  30.795  33.618  1.00  0.00     0.064 A 
ATOM     81  C   UNL A   1      42.183  31.225  34.942  1.00  0.00     0.173 A 
ATOM     82  C   UNL A   1      42.335  29.416  33.370  1.00  0.00     0.173 A 
ATOM     83  F   UNL A   1      42.109  32.531  35.235  1.00  0.00    -0.203 F 
ATOM     84  C   UNL A   1      42.062  30.306  35.982  1.00  0.00     0.198 A 
ATOM     85  C   UNL A   1      42.182  28.501  34.407  1.00  0.00     0.198 A 
ATOM     86  F   UNL A   1      42.446  28.956  32.114  1.00  0.00    -0.203 F 
ATOM     87  F   UNL A   1      41.934  30.735  37.246  1.00  0.00    -0.200 F 
ATOM     88  C   UNL A   1      42.060  28.945  35.713  1.00  0.00     0.200 A 
ATOM     89  F   UNL A   1      42.143  27.188  34.137  1.00  0.00    -0.200 F 
ATOM     90  F   UNL A   1      41.924  28.061  36.712  1.00  0.00    -0.200 F 
ENDBRANCH  57  80
ENDBRANCH  31  32
ENDBRANCH  24  26
ENDBRANCH  23  24
ENDBRANCH  22  23
ENDBRANCH  21  22
ENDBRANCH  20  21
ENDBRANCH   1  20
TORSDOF 18
ENDMDL
