MODEL 1
REMARK VINA RESULT:     -10.7      0.000      0.000
REMARK SMILES CC(C)[C@H]1CC[C@@H](C)C/C1=C(\F)C(=O)OCCOCCOCCOC(=O)c1ccc(-c2c3nc(c(-c4c(F)c(F)c(F)c(F)c4F)c4ccc([nH]4)c(-c4c(F)c(F)c(F)c(F)c4F)c4nc(c(-c5c(F)c(F)c(F)c(F)c5F)c5ccc2[nH]5)C=C4)C=C3)cc1
REMARK SMILES IDX 20 1 19 2 18 3 17 4 16 5 15 6 13 7 14 8 11 9 4 10 5 11 10 12
REMARK SMILES IDX 6 13 9 14 7 15 12 16 8 17 2 18 1 19 3 20 21 21 22 22 23 23
REMARK SMILES IDX 24 24 25 25 26 26 27 27 28 28 89 29 29 30 88 31 30 32 31 33
REMARK SMILES IDX 32 34 82 35 33 36 87 37 81 38 83 39 34 40 86 41 80 42 79 43
REMARK SMILES IDX 35 45 67 46 47 47 66 48 48 49 51 50 65 51 84 52 49 53 50 54
REMARK SMILES IDX 64 56 85 57 52 58 36 59 37 60 45 61 38 62 39 63 43 64 46 65
REMARK SMILES IDX 40 66 41 67 44 68 42 69 68 70 69 71 77 72 70 73 71 74 75 75
REMARK SMILES IDX 78 76 72 77 73 78 76 79 74 80 53 81 54 82 62 83 55 84 56 85
REMARK SMILES IDX 60 86 63 87 57 88 58 89 61 90 59 91
REMARK H PARENT 83 44 51 55
REMARK Flexibility Score: inf
ROOT
ATOM      1  C   UNL A   1      36.510  21.123  25.413  1.00  0.00     0.188 C 
ENDROOT
BRANCH   1   2
ATOM      2  C   UNL A   1      35.153  20.544  24.981  1.00  0.00     0.188 C 
BRANCH   2   3
ATOM      3  O   UNL A   1      34.026  21.245  25.471  1.00  0.00    -0.376 OA
BRANCH   3   4
ATOM      4  C   UNL A   1      33.878  21.385  26.877  1.00  0.00     0.202 C 
BRANCH   4   5
ATOM      5  C   UNL A   1      34.057  22.824  27.366  1.00  0.00     0.261 C 
BRANCH   5   6
ATOM      6  O   UNL A   1      33.473  23.774  26.462  1.00  0.00    -0.458 OA
BRANCH   6   7
ATOM      7  C   UNL A   1      32.122  23.883  26.483  1.00  0.00     0.367 C 
ATOM      8  O   UNL A   1      31.401  23.837  27.470  1.00  0.00    -0.243 OA
BRANCH   7   9
ATOM      9  C   UNL A   1      31.691  24.192  25.097  1.00  0.00     0.207 C 
ATOM     10  C   UNL A   1      31.577  26.828  25.053  1.00  0.00     0.021 C 
ATOM     11  C   UNL A   1      32.090  27.795  23.966  1.00  0.00     0.009 C 
ATOM     12  C   UNL A   1      31.468  25.383  24.490  1.00  0.00    -0.023 C 
ATOM     13  C   UNL A   1      31.336  27.718  22.649  1.00  0.00     0.004 C 
ATOM     14  C   UNL A   1      30.907  25.295  23.060  1.00  0.00     0.038 C 
ATOM     15  C   UNL A   1      31.431  26.323  22.047  1.00  0.00    -0.010 C 
ATOM     16  F   UNL A   1      31.557  23.056  24.369  1.00  0.00    -0.199 F 
ATOM     17  C   UNL A   1      32.844  25.997  21.547  1.00  0.00     0.008 C 
BRANCH  10  18
ATOM     18  C   UNL A   1      32.322  27.089  26.425  1.00  0.00    -0.010 C 
ATOM     19  C   UNL A   1      33.785  27.568  26.433  1.00  0.00     0.008 C 
ATOM     20  C   UNL A   1      31.514  28.055  27.301  1.00  0.00     0.008 C 
ENDBRANCH  10  18
ENDBRANCH   7   9
ENDBRANCH   6   7
ENDBRANCH   5   6
ENDBRANCH   4   5
ENDBRANCH   3   4
ENDBRANCH   2   3
ENDBRANCH   1   2
BRANCH   1  21
ATOM     21  O   UNL A   1      37.695  20.772  24.715  1.00  0.00    -0.376 OA
BRANCH  21  22
ATOM     22  C   UNL A   1      38.375  19.572  25.051  1.00  0.00     0.202 C 
BRANCH  22  23
ATOM     23  C   UNL A   1      39.661  19.667  25.889  1.00  0.00     0.261 C 
BRANCH  23  24
ATOM     24  O   UNL A   1      40.758  18.813  25.498  1.00  0.00    -0.460 OA
BRANCH  24  25
ATOM     25  C   UNL A   1      41.913  18.973  26.193  1.00  0.00     0.338 C 
ATOM     26  O   UNL A   1      42.738  18.110  26.449  1.00  0.00    -0.246 OA
BRANCH  25  27
ATOM     27  C   UNL A   1      42.149  20.396  26.542  1.00  0.00     0.060 A 
ATOM     28  C   UNL A   1      42.431  21.294  25.507  1.00  0.00     0.016 A 
ATOM     29  C   UNL A   1      42.214  20.835  27.868  1.00  0.00     0.016 A 
ATOM     30  C   UNL A   1      42.774  22.625  25.790  1.00  0.00     0.010 A 
ATOM     31  C   UNL A   1      42.575  22.169  28.150  1.00  0.00     0.010 A 
ATOM     32  C   UNL A   1      42.862  23.078  27.115  1.00  0.00    -0.014 A 
BRANCH  32  33
ATOM     33  C   UNL A   1      43.353  24.461  27.405  1.00  0.00     0.031 A 
ATOM     34  C   UNL A   1      42.401  25.487  27.937  1.00  0.00     0.074 A 
ATOM     35  C   UNL A   1      44.641  24.815  27.231  1.00  0.00     0.049 A 
ATOM     36  N   UNL A   1      42.620  26.744  28.227  1.00  0.00    -0.248 NA
ATOM     37  C   UNL A   1      41.022  25.039  28.175  1.00  0.00     0.031 C 
ATOM     38  C   UNL A   1      45.676  23.910  26.774  1.00  0.00     0.029 A 
ATOM     39  N   UNL A   1      45.311  26.004  27.414  1.00  0.00    -0.354 N 
ATOM     40  C   UNL A   1      41.410  27.241  28.680  1.00  0.00     0.074 A 
ATOM     41  C   UNL A   1      40.455  26.152  28.616  1.00  0.00     0.031 C 
ATOM     42  C   UNL A   1      46.854  24.548  26.715  1.00  0.00     0.029 A 
ATOM     43  C   UNL A   1      46.644  25.946  27.071  1.00  0.00     0.049 A 
ATOM     44  H   UNL A   1      44.877  26.818  27.756  1.00  0.00     0.167 HD
ATOM     45  C   UNL A   1      41.121  28.494  29.102  1.00  0.00     0.037 A 
ATOM     46  C   UNL A   1      47.586  26.911  27.013  1.00  0.00     0.037 A 
ATOM     47  C   UNL A   1      42.061  29.586  29.138  1.00  0.00     0.049 A 
ATOM     48  C   UNL A   1      47.208  28.318  27.392  1.00  0.00     0.074 A 
ATOM     49  C   UNL A   1      41.848  30.889  29.553  1.00  0.00     0.029 A 
ATOM     50  N   UNL A   1      43.383  29.514  28.724  1.00  0.00    -0.354 N 
ATOM     51  N   UNL A   1      46.063  28.772  27.839  1.00  0.00    -0.248 NA
ATOM     52  C   UNL A   1      48.246  29.351  27.251  1.00  0.00     0.031 C 
ATOM     53  C   UNL A   1      43.018  31.620  29.329  1.00  0.00     0.029 A 
ATOM     54  C   UNL A   1      43.985  30.758  28.838  1.00  0.00     0.049 A 
ATOM     55  H   UNL A   1      43.829  28.699  28.397  1.00  0.00     0.167 HD
ATOM     56  C   UNL A   1      46.248  30.131  28.054  1.00  0.00     0.074 A 
ATOM     57  C   UNL A   1      47.622  30.426  27.710  1.00  0.00     0.031 C 
ATOM     58  C   UNL A   1      45.354  31.049  28.494  1.00  0.00     0.037 A 
BRANCH  45  59
ATOM     59  C   UNL A   1      39.706  28.767  29.511  1.00  0.00     0.064 A 
ATOM     60  C   UNL A   1      39.278  28.616  30.838  1.00  0.00     0.173 A 
ATOM     61  C   UNL A   1      38.773  29.212  28.562  1.00  0.00     0.173 A 
ATOM     62  F   UNL A   1      40.128  28.175  31.777  1.00  0.00    -0.203 F 
ATOM     63  C   UNL A   1      37.959  28.883  31.196  1.00  0.00     0.198 A 
ATOM     64  C   UNL A   1      37.464  29.505  28.930  1.00  0.00     0.198 A 
ATOM     65  F   UNL A   1      39.135  29.370  27.280  1.00  0.00    -0.203 F 
ATOM     66  F   UNL A   1      37.558  28.690  32.459  1.00  0.00    -0.200 F 
ATOM     67  C   UNL A   1      37.056  29.335  30.244  1.00  0.00     0.200 A 
ATOM     68  F   UNL A   1      36.597  29.953  28.011  1.00  0.00    -0.200 F 
ATOM     69  F   UNL A   1      35.789  29.598  30.592  1.00  0.00    -0.200 F 
ENDBRANCH  45  59
BRANCH  46  70
ATOM     70  C   UNL A   1      48.963  26.603  26.530  1.00  0.00     0.064 A 
ATOM     71  C   UNL A   1      49.969  26.178  27.411  1.00  0.00     0.173 A 
ATOM     72  C   UNL A   1      49.318  26.783  25.184  1.00  0.00     0.173 A 
ATOM     73  F   UNL A   1      49.695  26.021  28.714  1.00  0.00    -0.203 F 
ATOM     74  C   UNL A   1      51.276  25.972  26.970  1.00  0.00     0.198 A 
ATOM     75  C   UNL A   1      50.616  26.541  24.737  1.00  0.00     0.198 A 
ATOM     76  F   UNL A   1      48.400  27.196  24.297  1.00  0.00    -0.203 F 
ATOM     77  F   UNL A   1      52.231  25.628  27.846  1.00  0.00    -0.200 F 
ATOM     78  C   UNL A   1      51.597  26.147  25.632  1.00  0.00     0.200 A 
ATOM     79  F   UNL A   1      50.917  26.702  23.442  1.00  0.00    -0.200 F 
ATOM     80  F   UNL A   1      52.854  25.953  25.211  1.00  0.00    -0.200 F 
ENDBRANCH  46  70
BRANCH  58  81
ATOM     81  C   UNL A   1      45.840  32.461  28.660  1.00  0.00     0.064 A 
ATOM     82  C   UNL A   1      46.457  32.897  29.842  1.00  0.00     0.173 A 
ATOM     83  C   UNL A   1      45.717  33.383  27.608  1.00  0.00     0.173 A 
ATOM     84  F   UNL A   1      46.583  32.062  30.885  1.00  0.00    -0.203 F 
ATOM     85  C   UNL A   1      46.908  34.208  29.974  1.00  0.00     0.198 A 
ATOM     86  C   UNL A   1      46.201  34.682  27.730  1.00  0.00     0.198 A 
ATOM     87  F   UNL A   1      45.139  33.018  26.454  1.00  0.00    -0.203 F 
ATOM     88  F   UNL A   1      47.446  34.616  31.132  1.00  0.00    -0.200 F 
ATOM     89  C   UNL A   1      46.788  35.097  28.916  1.00  0.00     0.200 A 
ATOM     90  F   UNL A   1      46.098  35.534  26.701  1.00  0.00    -0.200 F 
ATOM     91  F   UNL A   1      47.231  36.355  29.041  1.00  0.00    -0.200 F 
ENDBRANCH  58  81
ENDBRANCH  32  33
ENDBRANCH  25  27
ENDBRANCH  24  25
ENDBRANCH  23  24
ENDBRANCH  22  23
ENDBRANCH  21  22
ENDBRANCH   1  21
TORSDOF 18
ENDMDL
MODEL 2
REMARK VINA RESULT:     -10.6      3.296      8.534
REMARK SMILES CC(C)[C@H]1CC[C@@H](C)C/C1=C(\F)C(=O)OCCOCCOCCOC(=O)c1ccc(-c2c3nc(c(-c4c(F)c(F)c(F)c(F)c4F)c4ccc([nH]4)c(-c4c(F)c(F)c(F)c(F)c4F)c4nc(c(-c5c(F)c(F)c(F)c(F)c5F)c5ccc2[nH]5)C=C4)C=C3)cc1
REMARK SMILES IDX 20 1 19 2 18 3 17 4 16 5 15 6 13 7 14 8 11 9 4 10 5 11 10 12
REMARK SMILES IDX 6 13 9 14 7 15 12 16 8 17 2 18 1 19 3 20 21 21 22 22 23 23
REMARK SMILES IDX 24 24 25 25 26 26 27 27 28 28 89 29 29 30 88 31 30 32 31 33
REMARK SMILES IDX 32 34 82 35 33 36 87 37 81 38 83 39 34 40 86 41 80 42 79 43
REMARK SMILES IDX 35 45 67 46 47 47 66 48 48 49 51 50 65 51 84 52 49 53 50 54
REMARK SMILES IDX 64 56 85 57 52 58 36 59 37 60 45 61 38 62 39 63 43 64 46 65
REMARK SMILES IDX 40 66 41 67 44 68 42 69 68 70 69 71 77 72 70 73 71 74 75 75
REMARK SMILES IDX 78 76 72 77 73 78 76 79 74 80 53 81 54 82 62 83 55 84 56 85
REMARK SMILES IDX 60 86 63 87 57 88 58 89 61 90 59 91
REMARK H PARENT 83 44 51 55
REMARK Flexibility Score: inf
ROOT
ATOM      1  C   UNL A   1      34.192  20.775  26.067  1.00  0.00     0.188 C 
ENDROOT
BRANCH   1   2
ATOM      2  C   UNL A   1      33.294  19.762  25.340  1.00  0.00     0.188 C 
BRANCH   2   3
ATOM      3  O   UNL A   1      31.979  20.214  25.078  1.00  0.00    -0.376 OA
BRANCH   3   4
ATOM      4  C   UNL A   1      31.791  21.582  24.744  1.00  0.00     0.202 C 
BRANCH   4   5
ATOM      5  C   UNL A   1      30.745  22.281  25.615  1.00  0.00     0.261 C 
BRANCH   5   6
ATOM      6  O   UNL A   1      30.752  23.704  25.424  1.00  0.00    -0.458 OA
BRANCH   6   7
ATOM      7  C   UNL A   1      31.277  24.451  26.426  1.00  0.00     0.367 C 
ATOM      8  O   UNL A   1      31.836  24.034  27.431  1.00  0.00    -0.243 OA
BRANCH   7   9
ATOM      9  C   UNL A   1      31.154  25.872  26.018  1.00  0.00     0.207 C 
ATOM     10  C   UNL A   1      33.446  26.373  24.811  1.00  0.00     0.021 C 
ATOM     11  C   UNL A   1      33.692  27.129  23.489  1.00  0.00     0.009 C 
ATOM     12  C   UNL A   1      32.021  26.674  25.354  1.00  0.00    -0.023 C 
ATOM     13  C   UNL A   1      33.370  28.614  23.543  1.00  0.00     0.004 C 
ATOM     14  C   UNL A   1      31.582  28.143  25.217  1.00  0.00     0.038 C 
ATOM     15  C   UNL A   1      31.905  28.841  23.888  1.00  0.00    -0.010 C 
ATOM     16  F   UNL A   1      29.939  26.369  26.359  1.00  0.00    -0.199 F 
ATOM     17  C   UNL A   1      30.963  28.420  22.753  1.00  0.00     0.008 C 
BRANCH  10  18
ATOM     18  C   UNL A   1      33.951  24.878  24.698  1.00  0.00    -0.010 C 
ATOM     19  C   UNL A   1      34.248  24.263  23.320  1.00  0.00     0.008 C 
ATOM     20  C   UNL A   1      35.188  24.660  25.579  1.00  0.00     0.008 C 
ENDBRANCH  10  18
ENDBRANCH   7   9
ENDBRANCH   6   7
ENDBRANCH   5   6
ENDBRANCH   4   5
ENDBRANCH   3   4
ENDBRANCH   2   3
ENDBRANCH   1   2
BRANCH   1  21
ATOM     21  O   UNL A   1      35.243  21.430  25.375  1.00  0.00    -0.376 OA
BRANCH  21  22
ATOM     22  C   UNL A   1      36.439  20.722  25.088  1.00  0.00     0.202 C 
BRANCH  22  23
ATOM     23  C   UNL A   1      37.752  21.515  24.973  1.00  0.00     0.261 C 
BRANCH  23  24
ATOM     24  O   UNL A   1      37.990  22.530  25.973  1.00  0.00    -0.460 OA
BRANCH  24  25
ATOM     25  C   UNL A   1      39.291  22.768  26.279  1.00  0.00     0.338 C 
ATOM     26  O   UNL A   1      40.244  22.044  26.036  1.00  0.00    -0.246 OA
BRANCH  25  27
ATOM     27  C   UNL A   1      39.475  24.114  26.876  1.00  0.00     0.060 A 
ATOM     28  C   UNL A   1      40.231  25.055  26.167  1.00  0.00     0.016 A 
ATOM     29  C   UNL A   1      39.024  24.426  28.162  1.00  0.00     0.016 A 
ATOM     30  C   UNL A   1      40.532  26.303  26.734  1.00  0.00     0.010 A 
ATOM     31  C   UNL A   1      39.342  25.674  28.736  1.00  0.00     0.010 A 
ATOM     32  C   UNL A   1      40.103  26.625  28.030  1.00  0.00    -0.014 A 
BRANCH  32  33
ATOM     33  C   UNL A   1      40.540  27.904  28.670  1.00  0.00     0.031 A 
ATOM     34  C   UNL A   1      41.975  28.082  29.062  1.00  0.00     0.074 A 
ATOM     35  C   UNL A   1      39.689  28.926  28.886  1.00  0.00     0.049 A 
ATOM     36  N   UNL A   1      42.549  29.100  29.650  1.00  0.00    -0.248 NA
ATOM     37  C   UNL A   1      42.881  26.970  28.747  1.00  0.00     0.031 C 
ATOM     38  C   UNL A   1      38.290  28.907  28.510  1.00  0.00     0.029 A 
ATOM     39  N   UNL A   1      39.852  30.167  29.458  1.00  0.00    -0.354 N 
ATOM     40  C   UNL A   1      43.883  28.754  29.780  1.00  0.00     0.074 A 
ATOM     41  C   UNL A   1      44.032  27.426  29.219  1.00  0.00     0.031 C 
ATOM     42  C   UNL A   1      37.708  30.069  28.840  1.00  0.00     0.029 A 
ATOM     43  C   UNL A   1      38.689  30.904  29.521  1.00  0.00     0.049 A 
ATOM     44  H   UNL A   1      40.718  30.496  29.791  1.00  0.00     0.167 HD
ATOM     45  C   UNL A   1      44.889  29.477  30.326  1.00  0.00     0.037 A 
ATOM     46  C   UNL A   1      38.429  32.098  30.093  1.00  0.00     0.037 A 
ATOM     47  C   UNL A   1      44.738  30.784  30.912  1.00  0.00     0.049 A 
ATOM     48  C   UNL A   1      39.547  32.833  30.783  1.00  0.00     0.074 A 
ATOM     49  C   UNL A   1      45.709  31.585  31.488  1.00  0.00     0.029 A 
ATOM     50  N   UNL A   1      43.540  31.475  31.021  1.00  0.00    -0.354 N 
ATOM     51  N   UNL A   1      40.812  32.504  30.881  1.00  0.00    -0.248 NA
ATOM     52  C   UNL A   1      39.206  34.098  31.450  1.00  0.00     0.031 C 
ATOM     53  C   UNL A   1      45.090  32.728  32.002  1.00  0.00     0.029 A 
ATOM     54  C   UNL A   1      43.742  32.675  31.688  1.00  0.00     0.049 A 
ATOM     55  H   UNL A   1      42.673  31.161  30.675  1.00  0.00     0.167 HD
ATOM     56  C   UNL A   1      41.419  33.527  31.597  1.00  0.00     0.074 A 
ATOM     57  C   UNL A   1      40.390  34.501  31.889  1.00  0.00     0.031 C 
ATOM     58  C   UNL A   1      42.715  33.642  31.979  1.00  0.00     0.037 A 
BRANCH  45  59
ATOM     59  C   UNL A   1      46.244  28.838  30.365  1.00  0.00     0.064 A 
ATOM     60  C   UNL A   1      46.657  28.044  31.445  1.00  0.00     0.173 A 
ATOM     61  C   UNL A   1      47.130  29.002  29.290  1.00  0.00     0.173 A 
ATOM     62  F   UNL A   1      45.852  27.873  32.504  1.00  0.00    -0.203 F 
ATOM     63  C   UNL A   1      47.918  27.454  31.455  1.00  0.00     0.198 A 
ATOM     64  C   UNL A   1      48.377  28.387  29.291  1.00  0.00     0.198 A 
ATOM     65  F   UNL A   1      46.781  29.753  28.234  1.00  0.00    -0.203 F 
ATOM     66  F   UNL A   1      48.310  26.737  32.516  1.00  0.00    -0.200 F 
ATOM     67  C   UNL A   1      48.773  27.619  30.376  1.00  0.00     0.200 A 
ATOM     68  F   UNL A   1      49.198  28.537  28.241  1.00  0.00    -0.200 F 
ATOM     69  F   UNL A   1      49.983  27.044  30.384  1.00  0.00    -0.200 F 
ENDBRANCH  45  59
BRANCH  46  70
ATOM     70  C   UNL A   1      37.047  32.658  30.091  1.00  0.00     0.064 A 
ATOM     71  C   UNL A   1      36.588  33.469  29.042  1.00  0.00     0.173 A 
ATOM     72  C   UNL A   1      36.173  32.441  31.168  1.00  0.00     0.173 A 
ATOM     73  F   UNL A   1      37.391  33.739  28.002  1.00  0.00    -0.203 F 
ATOM     74  C   UNL A   1      35.324  34.059  29.084  1.00  0.00     0.198 A 
ATOM     75  C   UNL A   1      34.897  33.001  31.192  1.00  0.00     0.198 A 
ATOM     76  F   UNL A   1      36.560  31.680  32.203  1.00  0.00    -0.203 F 
ATOM     77  F   UNL A   1      34.938  34.882  28.098  1.00  0.00    -0.200 F 
ATOM     78  C   UNL A   1      34.478  33.819  30.156  1.00  0.00     0.200 A 
ATOM     79  F   UNL A   1      34.080  32.756  32.225  1.00  0.00    -0.200 F 
ATOM     80  F   UNL A   1      33.266  34.390  30.197  1.00  0.00    -0.200 F 
ENDBRANCH  46  70
BRANCH  58  81
ATOM     81  C   UNL A   1      43.104  34.884  32.731  1.00  0.00     0.064 A 
ATOM     82  C   UNL A   1      43.513  36.051  32.070  1.00  0.00     0.173 A 
ATOM     83  C   UNL A   1      43.034  34.915  34.132  1.00  0.00     0.173 A 
ATOM     84  F   UNL A   1      43.615  36.069  30.732  1.00  0.00    -0.203 F 
ATOM     85  C   UNL A   1      43.863  37.194  32.785  1.00  0.00     0.198 A 
ATOM     86  C   UNL A   1      43.350  36.070  34.842  1.00  0.00     0.198 A 
ATOM     87  F   UNL A   1      42.645  33.827  34.815  1.00  0.00    -0.203 F 
ATOM     88  F   UNL A   1      44.302  38.281  32.134  1.00  0.00    -0.200 F 
ATOM     89  C   UNL A   1      43.773  37.206  34.168  1.00  0.00     0.200 A 
ATOM     90  F   UNL A   1      43.248  36.083  36.178  1.00  0.00    -0.200 F 
ATOM     91  F   UNL A   1      44.101  38.309  34.855  1.00  0.00    -0.200 F 
ENDBRANCH  58  81
ENDBRANCH  32  33
ENDBRANCH  25  27
ENDBRANCH  24  25
ENDBRANCH  23  24
ENDBRANCH  22  23
ENDBRANCH  21  22
ENDBRANCH   1  21
TORSDOF 18
ENDMDL
MODEL 3
REMARK VINA RESULT:     -10.4      0.943      2.626
REMARK SMILES CC(C)[C@H]1CC[C@@H](C)C/C1=C(\F)C(=O)OCCOCCOCCOC(=O)c1ccc(-c2c3nc(c(-c4c(F)c(F)c(F)c(F)c4F)c4ccc([nH]4)c(-c4c(F)c(F)c(F)c(F)c4F)c4nc(c(-c5c(F)c(F)c(F)c(F)c5F)c5ccc2[nH]5)C=C4)C=C3)cc1
REMARK SMILES IDX 20 1 19 2 18 3 17 4 16 5 15 6 13 7 14 8 11 9 4 10 5 11 10 12
REMARK SMILES IDX 6 13 9 14 7 15 12 16 8 17 2 18 1 19 3 20 21 21 22 22 23 23
REMARK SMILES IDX 24 24 25 25 26 26 27 27 28 28 89 29 29 30 88 31 30 32 31 33
REMARK SMILES IDX 32 34 82 35 33 36 87 37 81 38 83 39 34 40 86 41 80 42 79 43
REMARK SMILES IDX 35 45 67 46 47 47 66 48 48 49 51 50 65 51 84 52 49 53 50 54
REMARK SMILES IDX 64 56 85 57 52 58 36 59 37 60 45 61 38 62 39 63 43 64 46 65
REMARK SMILES IDX 40 66 41 67 44 68 42 69 68 70 69 71 77 72 70 73 71 74 75 75
REMARK SMILES IDX 78 76 72 77 73 78 76 79 74 80 53 81 54 82 62 83 55 84 56 85
REMARK SMILES IDX 60 86 63 87 57 88 58 89 61 90 59 91
REMARK H PARENT 83 44 51 55
REMARK Flexibility Score: inf
ROOT
ATOM      1  C   UNL A   1      37.436  21.739  25.271  1.00  0.00     0.188 C 
ENDROOT
BRANCH   1   2
ATOM      2  C   UNL A   1      36.178  22.103  26.074  1.00  0.00     0.188 C 
BRANCH   2   3
ATOM      3  O   UNL A   1      35.229  21.060  26.196  1.00  0.00    -0.376 OA
BRANCH   3   4
ATOM      4  C   UNL A   1      33.864  21.357  25.939  1.00  0.00     0.202 C 
BRANCH   4   5
ATOM      5  C   UNL A   1      33.626  21.969  24.556  1.00  0.00     0.261 C 
BRANCH   5   6
ATOM      6  O   UNL A   1      33.288  23.362  24.637  1.00  0.00    -0.458 OA
BRANCH   6   7
ATOM      7  C   UNL A   1      34.159  24.234  24.072  1.00  0.00     0.367 C 
ATOM      8  O   UNL A   1      34.786  24.070  23.035  1.00  0.00    -0.243 OA
BRANCH   7   9
ATOM      9  C   UNL A   1      34.116  25.476  24.884  1.00  0.00     0.207 C 
ATOM     10  C   UNL A   1      32.244  26.921  23.713  1.00  0.00     0.021 C 
ATOM     11  C   UNL A   1      31.106  27.731  24.366  1.00  0.00     0.009 C 
ATOM     12  C   UNL A   1      33.341  26.581  24.761  1.00  0.00    -0.023 C 
ATOM     13  C   UNL A   1      31.569  28.938  25.165  1.00  0.00     0.004 C 
ATOM     14  C   UNL A   1      33.675  27.727  25.732  1.00  0.00     0.038 C 
ATOM     15  C   UNL A   1      32.489  28.517  26.303  1.00  0.00    -0.010 C 
ATOM     16  F   UNL A   1      34.989  25.405  25.919  1.00  0.00    -0.199 F 
ATOM     17  C   UNL A   1      31.745  27.756  27.406  1.00  0.00     0.008 C 
BRANCH  10  18
ATOM     18  C   UNL A   1      31.655  25.782  22.785  1.00  0.00    -0.010 C 
ATOM     19  C   UNL A   1      30.452  24.946  23.255  1.00  0.00     0.008 C 
ATOM     20  C   UNL A   1      31.317  26.340  21.397  1.00  0.00     0.008 C 
ENDBRANCH  10  18
ENDBRANCH   7   9
ENDBRANCH   6   7
ENDBRANCH   5   6
ENDBRANCH   4   5
ENDBRANCH   3   4
ENDBRANCH   2   3
ENDBRANCH   1   2
BRANCH   1  21
ATOM     21  O   UNL A   1      37.516  20.501  24.583  1.00  0.00    -0.376 OA
BRANCH  21  22
ATOM     22  C   UNL A   1      38.266  19.436  25.144  1.00  0.00     0.202 C 
BRANCH  22  23
ATOM     23  C   UNL A   1      39.569  19.770  25.890  1.00  0.00     0.261 C 
BRANCH  23  24
ATOM     24  O   UNL A   1      40.761  19.072  25.466  1.00  0.00    -0.460 OA
BRANCH  24  25
ATOM     25  C   UNL A   1      41.848  19.213  26.266  1.00  0.00     0.338 C 
ATOM     26  O   UNL A   1      42.623  18.333  26.609  1.00  0.00    -0.246 OA
BRANCH  25  27
ATOM     27  C   UNL A   1      42.087  20.634  26.619  1.00  0.00     0.060 A 
ATOM     28  C   UNL A   1      42.316  21.544  25.581  1.00  0.00     0.016 A 
ATOM     29  C   UNL A   1      42.208  21.061  27.945  1.00  0.00     0.016 A 
ATOM     30  C   UNL A   1      42.660  22.876  25.862  1.00  0.00     0.010 A 
ATOM     31  C   UNL A   1      42.569  22.395  28.224  1.00  0.00     0.010 A 
ATOM     32  C   UNL A   1      42.803  23.316  27.187  1.00  0.00    -0.014 A 
BRANCH  32  33
ATOM     33  C   UNL A   1      43.295  24.700  27.469  1.00  0.00     0.031 A 
ATOM     34  C   UNL A   1      42.347  25.725  28.012  1.00  0.00     0.074 A 
ATOM     35  C   UNL A   1      44.580  25.057  27.278  1.00  0.00     0.049 A 
ATOM     36  N   UNL A   1      42.568  26.983  28.297  1.00  0.00    -0.248 NA
ATOM     37  C   UNL A   1      40.973  25.275  28.268  1.00  0.00     0.031 C 
ATOM     38  C   UNL A   1      45.610  24.154  26.809  1.00  0.00     0.029 A 
ATOM     39  N   UNL A   1      45.249  26.247  27.451  1.00  0.00    -0.354 N 
ATOM     40  C   UNL A   1      41.362  27.478  28.765  1.00  0.00     0.074 A 
ATOM     41  C   UNL A   1      40.409  26.387  28.715  1.00  0.00     0.031 C 
ATOM     42  C   UNL A   1      46.786  24.794  26.734  1.00  0.00     0.029 A 
ATOM     43  C   UNL A   1      46.578  26.192  27.091  1.00  0.00     0.049 A 
ATOM     44  H   UNL A   1      44.818  27.062  27.798  1.00  0.00     0.167 HD
ATOM     45  C   UNL A   1      41.077  28.731  29.190  1.00  0.00     0.037 A 
ATOM     46  C   UNL A   1      47.517  27.159  27.020  1.00  0.00     0.037 A 
ATOM     47  C   UNL A   1      42.014  29.825  29.213  1.00  0.00     0.049 A 
ATOM     48  C   UNL A   1      47.141  28.566  27.402  1.00  0.00     0.074 A 
ATOM     49  C   UNL A   1      41.804  31.128  29.629  1.00  0.00     0.029 A 
ATOM     50  N   UNL A   1      43.331  29.755  28.781  1.00  0.00    -0.354 N 
ATOM     51  N   UNL A   1      46.001  29.018  27.863  1.00  0.00    -0.248 NA
ATOM     52  C   UNL A   1      48.175  29.600  27.246  1.00  0.00     0.031 C 
ATOM     53  C   UNL A   1      42.970  31.861  29.389  1.00  0.00     0.029 A 
ATOM     54  C   UNL A   1      43.932  31.001  28.887  1.00  0.00     0.049 A 
ATOM     55  H   UNL A   1      43.774  28.940  28.450  1.00  0.00     0.167 HD
ATOM     56  C   UNL A   1      46.186  30.378  28.074  1.00  0.00     0.074 A 
ATOM     57  C   UNL A   1      47.555  30.675  27.712  1.00  0.00     0.031 C 
ATOM     58  C   UNL A   1      45.295  31.295  28.525  1.00  0.00     0.037 A 
BRANCH  45  59
ATOM     59  C   UNL A   1      39.666  29.001  29.617  1.00  0.00     0.064 A 
ATOM     60  C   UNL A   1      38.697  29.465  28.715  1.00  0.00     0.173 A 
ATOM     61  C   UNL A   1      39.274  28.764  30.942  1.00  0.00     0.173 A 
ATOM     62  F   UNL A   1      39.029  29.724  27.441  1.00  0.00    -0.203 F 
ATOM     63  C   UNL A   1      37.390  29.701  29.132  1.00  0.00     0.198 A 
ATOM     64  C   UNL A   1      37.960  28.973  31.348  1.00  0.00     0.198 A 
ATOM     65  F   UNL A   1      40.165  28.320  31.842  1.00  0.00    -0.203 F 
ATOM     66  F   UNL A   1      36.491  30.188  28.266  1.00  0.00    -0.200 F 
ATOM     67  C   UNL A   1      37.021  29.448  30.445  1.00  0.00     0.200 A 
ATOM     68  F   UNL A   1      37.603  28.716  32.614  1.00  0.00    -0.200 F 
ATOM     69  F   UNL A   1      35.760  29.668  30.842  1.00  0.00    -0.200 F 
ENDBRANCH  45  59
BRANCH  46  70
ATOM     70  C   UNL A   1      48.888  26.853  26.519  1.00  0.00     0.064 A 
ATOM     71  C   UNL A   1      49.222  27.001  25.165  1.00  0.00     0.173 A 
ATOM     72  C   UNL A   1      49.880  26.352  27.378  1.00  0.00     0.173 A 
ATOM     73  F   UNL A   1      48.305  27.444  24.293  1.00  0.00    -0.203 F 
ATOM     74  C   UNL A   1      50.481  26.635  24.687  1.00  0.00     0.198 A 
ATOM     75  C   UNL A   1      51.149  26.021  26.905  1.00  0.00     0.198 A 
ATOM     76  F   UNL A   1      49.616  26.182  28.682  1.00  0.00    -0.203 F 
ATOM     77  F   UNL A   1      50.750  26.726  23.377  1.00  0.00    -0.200 F 
ATOM     78  C   UNL A   1      51.445  26.151  25.559  1.00  0.00     0.200 A 
ATOM     79  F   UNL A   1      52.079  25.565  27.755  1.00  0.00    -0.200 F 
ATOM     80  F   UNL A   1      52.652  25.796  25.097  1.00  0.00    -0.200 F 
ENDBRANCH  46  70
BRANCH  58  81
ATOM     81  C   UNL A   1      45.781  32.708  28.683  1.00  0.00     0.064 A 
ATOM     82  C   UNL A   1      45.646  33.655  27.657  1.00  0.00     0.173 A 
ATOM     83  C   UNL A   1      46.360  33.128  29.890  1.00  0.00     0.173 A 
ATOM     84  F   UNL A   1      45.117  33.302  26.476  1.00  0.00    -0.203 F 
ATOM     85  C   UNL A   1      46.097  34.963  27.826  1.00  0.00     0.198 A 
ATOM     86  C   UNL A   1      46.777  34.444  30.068  1.00  0.00     0.198 A 
ATOM     87  F   UNL A   1      46.510  32.264  30.905  1.00  0.00    -0.203 F 
ATOM     88  F   UNL A   1      46.005  35.836  26.813  1.00  0.00    -0.200 F 
ATOM     89  C   UNL A   1      46.653  35.358  29.033  1.00  0.00     0.200 A 
ATOM     90  F   UNL A   1      47.300  34.827  31.241  1.00  0.00    -0.200 F 
ATOM     91  F   UNL A   1      47.077  36.619  29.197  1.00  0.00    -0.200 F 
ENDBRANCH  58  81
ENDBRANCH  32  33
ENDBRANCH  25  27
ENDBRANCH  24  25
ENDBRANCH  23  24
ENDBRANCH  22  23
ENDBRANCH  21  22
ENDBRANCH   1  21
TORSDOF 18
ENDMDL
