MODEL 1
REMARK VINA RESULT:     -10.1      0.000      0.000
REMARK SMILES NC(=O)CC[C@H](NC(=O)CC1CC1)C(=O)OCCOCCOCCOC(=O)c1ccc(-c2c3nc(c(-c4c(F)c(F)c(F)c(F)c4F)c4ccc([nH]4)c(-c4c(F)c(F)c(F)c(F)c4F)c4nc(c(-c5c(F)c(F)c(F)c(F)c5F)c5ccc2[nH]5)C=C4)C=C3)cc1
REMARK SMILES IDX 20 1 19 2 18 3 17 4 16 5 14 6 15 7 6 8 5 9 4 10 2 11 1 12
REMARK SMILES IDX 3 15 7 16 8 17 9 19 10 20 11 21 12 22 13 23 21 24 22 25
REMARK SMILES IDX 23 26 24 27 25 28 26 29 27 30 28 31 29 32 90 33 30 34 89 35
REMARK SMILES IDX 31 36 32 37 33 38 83 39 34 40 88 41 82 42 84 43 35 44 87 45
REMARK SMILES IDX 81 46 80 47 36 49 68 50 48 51 67 52 49 53 52 54 66 55 85 56
REMARK SMILES IDX 50 57 51 58 65 60 86 61 53 62 37 63 38 64 46 65 39 66 40 67
REMARK SMILES IDX 44 68 47 69 41 70 42 71 45 72 43 73 69 74 70 75 78 76 71 77
REMARK SMILES IDX 72 78 76 79 79 80 73 81 74 82 77 83 75 84 54 85 55 86 63 87
REMARK SMILES IDX 56 88 57 89 61 90 64 91 58 92 59 93 62 94 60 95
REMARK H PARENT 1 13 1 14 7 18 84 48 52 59
REMARK Flexibility Score: inf
ROOT
ATOM      1  C   UNL A   1      38.362  20.723  25.685  1.00  0.00     0.188 C 
ENDROOT
BRANCH   1   2
ATOM      2  O   UNL A   1      38.107  22.085  25.376  1.00  0.00    -0.376 OA
BRANCH   2   3
ATOM      3  C   UNL A   1      36.696  22.293  25.179  1.00  0.00     0.202 C 
BRANCH   3   4
ATOM      4  C   UNL A   1      36.049  23.324  26.133  1.00  0.00     0.261 C 
BRANCH   4   5
ATOM      5  O   UNL A   1      34.625  23.235  26.444  1.00  0.00    -0.462 OA
BRANCH   5   6
ATOM      6  C   UNL A   1      33.957  22.062  26.278  1.00  0.00     0.328 C 
ATOM      7  O   UNL A   1      34.104  21.085  27.003  1.00  0.00    -0.250 OA
BRANCH   6   8
ATOM      8  C   UNL A   1      32.936  22.108  25.085  1.00  0.00     0.192 C 
BRANCH   8   9
ATOM      9  C   UNL A   1      31.469  22.334  25.511  1.00  0.00     0.047 C 
BRANCH   9  10
ATOM     10  C   UNL A   1      31.221  23.266  26.700  1.00  0.00     0.102 C 
BRANCH  10  11
ATOM     11  C   UNL A   1      30.830  24.650  26.255  1.00  0.00     0.217 C 
ATOM     12  N   UNL A   1      30.219  24.731  25.045  1.00  0.00    -0.370 N 
ATOM     13  H   UNL A   1      29.937  25.606  24.693  1.00  0.00     0.159 HD
ATOM     14  H   UNL A   1      30.057  23.913  24.519  1.00  0.00     0.159 HD
ATOM     15  O   UNL A   1      31.033  25.645  26.940  1.00  0.00    -0.275 OA
ENDBRANCH  10  11
ENDBRANCH   9  10
ENDBRANCH   8   9
BRANCH   8  16
ATOM     16  N   UNL A   1      33.034  21.364  23.817  1.00  0.00    -0.343 N 
ATOM     17  C   UNL A   1      32.498  20.156  23.484  1.00  0.00     0.220 C 
ATOM     18  H   UNL A   1      33.561  21.801  23.109  1.00  0.00     0.164 HD
ATOM     19  O   UNL A   1      32.041  19.972  22.358  1.00  0.00    -0.275 OA
BRANCH  17  20
ATOM     20  C   UNL A   1      32.647  19.054  24.484  1.00  0.00     0.103 C 
BRANCH  20  21
ATOM     21  C   UNL A   1      33.901  18.281  24.243  1.00  0.00    -0.002 C 
ATOM     22  C   UNL A   1      34.006  17.037  23.385  1.00  0.00     0.004 C 
ATOM     23  C   UNL A   1      34.168  16.935  24.870  1.00  0.00     0.004 C 
ENDBRANCH  20  21
ENDBRANCH  17  20
ENDBRANCH   8  16
ENDBRANCH   6   8
ENDBRANCH   5   6
ENDBRANCH   4   5
ENDBRANCH   3   4
ENDBRANCH   2   3
ENDBRANCH   1   2
BRANCH   1  24
ATOM     24  C   UNL A   1      39.826  20.374  25.859  1.00  0.00     0.188 C 
BRANCH  24  25
ATOM     25  O   UNL A   1      40.625  21.552  25.793  1.00  0.00    -0.376 OA
BRANCH  25  26
ATOM     26  C   UNL A   1      41.926  21.342  26.327  1.00  0.00     0.202 C 
BRANCH  26  27
ATOM     27  C   UNL A   1      43.083  21.803  25.426  1.00  0.00     0.261 C 
BRANCH  27  28
ATOM     28  O   UNL A   1      42.837  23.024  24.692  1.00  0.00    -0.460 OA
BRANCH  28  29
ATOM     29  C   UNL A   1      43.655  24.071  25.001  1.00  0.00     0.338 C 
ATOM     30  O   UNL A   1      44.752  24.287  24.525  1.00  0.00    -0.246 OA
BRANCH  29  31
ATOM     31  C   UNL A   1      43.010  25.009  25.973  1.00  0.00     0.060 A 
ATOM     32  C   UNL A   1      43.677  26.204  26.274  1.00  0.00     0.016 A 
ATOM     33  C   UNL A   1      41.785  24.753  26.597  1.00  0.00     0.016 A 
ATOM     34  C   UNL A   1      43.093  27.172  27.110  1.00  0.00     0.010 A 
ATOM     35  C   UNL A   1      41.227  25.695  27.484  1.00  0.00     0.010 A 
ATOM     36  C   UNL A   1      41.867  26.920  27.740  1.00  0.00    -0.014 A 
BRANCH  36  37
ATOM     37  C   UNL A   1      41.406  27.806  28.852  1.00  0.00     0.031 A 
ATOM     38  C   UNL A   1      42.148  27.707  30.161  1.00  0.00     0.074 A 
ATOM     39  C   UNL A   1      40.371  28.665  28.750  1.00  0.00     0.049 A 
ATOM     40  N   UNL A   1      41.937  28.328  31.294  1.00  0.00    -0.248 NA
ATOM     41  C   UNL A   1      43.285  26.774  30.188  1.00  0.00     0.031 C 
ATOM     42  C   UNL A   1      39.588  28.922  27.547  1.00  0.00     0.029 A 
ATOM     43  N   UNL A   1      39.797  29.487  29.698  1.00  0.00    -0.354 N 
ATOM     44  C   UNL A   1      42.926  27.875  32.157  1.00  0.00     0.074 A 
ATOM     45  C   UNL A   1      43.719  26.910  31.429  1.00  0.00     0.031 C 
ATOM     46  C   UNL A   1      38.627  29.823  27.829  1.00  0.00     0.029 A 
ATOM     47  C   UNL A   1      38.700  30.186  29.245  1.00  0.00     0.049 A 
ATOM     48  H   UNL A   1      40.140  29.567  30.618  1.00  0.00     0.167 HD
ATOM     49  C   UNL A   1      43.157  28.218  33.445  1.00  0.00     0.037 A 
ATOM     50  C   UNL A   1      37.844  30.999  29.901  1.00  0.00     0.037 A 
ATOM     51  C   UNL A   1      42.338  29.117  34.209  1.00  0.00     0.049 A 
ATOM     52  C   UNL A   1      38.045  31.267  31.378  1.00  0.00     0.074 A 
ATOM     53  C   UNL A   1      42.477  29.495  35.532  1.00  0.00     0.029 A 
ATOM     54  N   UNL A   1      41.207  29.756  33.724  1.00  0.00    -0.354 N 
ATOM     55  N   UNL A   1      39.002  30.859  32.175  1.00  0.00    -0.248 NA
ATOM     56  C   UNL A   1      37.039  32.110  32.048  1.00  0.00     0.031 C 
ATOM     57  C   UNL A   1      41.392  30.310  35.868  1.00  0.00     0.029 A 
ATOM     58  C   UNL A   1      40.620  30.502  34.733  1.00  0.00     0.049 A 
ATOM     59  H   UNL A   1      40.872  29.690  32.801  1.00  0.00     0.167 HD
ATOM     60  C   UNL A   1      38.738  31.424  33.419  1.00  0.00     0.074 A 
ATOM     61  C   UNL A   1      37.534  32.214  33.272  1.00  0.00     0.031 C 
ATOM     62  C   UNL A   1      39.432  31.302  34.577  1.00  0.00     0.037 A 
BRANCH  49  63
ATOM     63  C   UNL A   1      44.323  27.557  34.120  1.00  0.00     0.064 A 
ATOM     64  C   UNL A   1      45.609  28.117  34.080  1.00  0.00     0.173 A 
ATOM     65  C   UNL A   1      44.156  26.339  34.795  1.00  0.00     0.173 A 
ATOM     66  F   UNL A   1      45.826  29.267  33.425  1.00  0.00    -0.203 F 
ATOM     67  C   UNL A   1      46.692  27.462  34.660  1.00  0.00     0.198 A 
ATOM     68  C   UNL A   1      45.234  25.706  35.405  1.00  0.00     0.198 A 
ATOM     69  F   UNL A   1      42.947  25.761  34.859  1.00  0.00    -0.203 F 
ATOM     70  F   UNL A   1      47.923  27.980  34.551  1.00  0.00    -0.200 F 
ATOM     71  C   UNL A   1      46.502  26.261  35.326  1.00  0.00     0.200 A 
ATOM     72  F   UNL A   1      45.047  24.549  36.056  1.00  0.00    -0.200 F 
ATOM     73  F   UNL A   1      47.545  25.629  35.883  1.00  0.00    -0.200 F 
ENDBRANCH  49  63
BRANCH  50  74
ATOM     74  C   UNL A   1      36.682  31.619  29.194  1.00  0.00     0.064 A 
ATOM     75  C   UNL A   1      36.638  32.999  28.936  1.00  0.00     0.173 A 
ATOM     76  C   UNL A   1      35.557  30.862  28.834  1.00  0.00     0.173 A 
ATOM     77  F   UNL A   1      37.668  33.779  29.298  1.00  0.00    -0.203 F 
ATOM     78  C   UNL A   1      35.510  33.597  28.375  1.00  0.00     0.198 A 
ATOM     79  C   UNL A   1      34.442  31.455  28.242  1.00  0.00     0.198 A 
ATOM     80  F   UNL A   1      35.531  29.542  29.072  1.00  0.00    -0.203 F 
ATOM     81  F   UNL A   1      35.472  34.926  28.206  1.00  0.00    -0.200 F 
ATOM     82  C   UNL A   1      34.415  32.825  28.023  1.00  0.00     0.200 A 
ATOM     83  F   UNL A   1      33.386  30.704  27.901  1.00  0.00    -0.200 F 
ATOM     84  F   UNL A   1      33.328  33.400  27.490  1.00  0.00    -0.200 F 
ENDBRANCH  50  74
BRANCH  62  85
ATOM     85  C   UNL A   1      38.955  32.078  35.775  1.00  0.00     0.064 A 
ATOM     86  C   UNL A   1      38.171  31.491  36.780  1.00  0.00     0.173 A 
ATOM     87  C   UNL A   1      39.350  33.415  35.952  1.00  0.00     0.173 A 
ATOM     88  F   UNL A   1      37.758  30.220  36.659  1.00  0.00    -0.203 F 
ATOM     89  C   UNL A   1      37.781  32.219  37.901  1.00  0.00     0.198 A 
ATOM     90  C   UNL A   1      38.987  34.128  37.092  1.00  0.00     0.198 A 
ATOM     91  F   UNL A   1      40.108  34.024  35.029  1.00  0.00    -0.203 F 
ATOM     92  F   UNL A   1      36.994  31.651  38.826  1.00  0.00    -0.200 F 
ATOM     93  C   UNL A   1      38.197  33.532  38.062  1.00  0.00     0.200 A 
ATOM     94  F   UNL A   1      39.409  35.390  37.252  1.00  0.00    -0.200 F 
ATOM     95  F   UNL A   1      37.833  34.226  39.149  1.00  0.00    -0.200 F 
ENDBRANCH  62  85
ENDBRANCH  36  37
ENDBRANCH  29  31
ENDBRANCH  28  29
ENDBRANCH  27  28
ENDBRANCH  26  27
ENDBRANCH  25  26
ENDBRANCH  24  25
ENDBRANCH   1  24
TORSDOF 23
ENDMDL
MODEL 2
REMARK VINA RESULT:     -10.0      1.211      2.742
REMARK SMILES NC(=O)CC[C@H](NC(=O)CC1CC1)C(=O)OCCOCCOCCOC(=O)c1ccc(-c2c3nc(c(-c4c(F)c(F)c(F)c(F)c4F)c4ccc([nH]4)c(-c4c(F)c(F)c(F)c(F)c4F)c4nc(c(-c5c(F)c(F)c(F)c(F)c5F)c5ccc2[nH]5)C=C4)C=C3)cc1
REMARK SMILES IDX 20 1 19 2 18 3 17 4 16 5 14 6 15 7 6 8 5 9 4 10 2 11 1 12
REMARK SMILES IDX 3 15 7 16 8 17 9 19 10 20 11 21 12 22 13 23 21 24 22 25
REMARK SMILES IDX 23 26 24 27 25 28 26 29 27 30 28 31 29 32 90 33 30 34 89 35
REMARK SMILES IDX 31 36 32 37 33 38 83 39 34 40 88 41 82 42 84 43 35 44 87 45
REMARK SMILES IDX 81 46 80 47 36 49 68 50 48 51 67 52 49 53 52 54 66 55 85 56
REMARK SMILES IDX 50 57 51 58 65 60 86 61 53 62 37 63 38 64 46 65 39 66 40 67
REMARK SMILES IDX 44 68 47 69 41 70 42 71 45 72 43 73 69 74 70 75 78 76 71 77
REMARK SMILES IDX 72 78 76 79 79 80 73 81 74 82 77 83 75 84 54 85 55 86 63 87
REMARK SMILES IDX 56 88 57 89 61 90 64 91 58 92 59 93 62 94 60 95
REMARK H PARENT 1 13 1 14 7 18 84 48 52 59
REMARK Flexibility Score: inf
ROOT
ATOM      1  C   UNL A   1      40.131  21.094  26.711  1.00  0.00     0.188 C 
ENDROOT
BRANCH   1   2
ATOM      2  O   UNL A   1      39.521  21.951  25.756  1.00  0.00    -0.376 OA
BRANCH   2   3
ATOM      3  C   UNL A   1      38.135  21.598  25.589  1.00  0.00     0.202 C 
BRANCH   3   4
ATOM      4  C   UNL A   1      37.177  22.796  25.392  1.00  0.00     0.261 C 
BRANCH   4   5
ATOM      5  O   UNL A   1      35.737  22.570  25.302  1.00  0.00    -0.462 OA
BRANCH   5   6
ATOM      6  C   UNL A   1      34.867  23.600  25.488  1.00  0.00     0.328 C 
ATOM      7  O   UNL A   1      35.214  24.760  25.676  1.00  0.00    -0.250 OA
BRANCH   6   8
ATOM      8  C   UNL A   1      33.364  23.151  25.386  1.00  0.00     0.192 C 
BRANCH   8   9
ATOM      9  C   UNL A   1      33.094  22.071  24.316  1.00  0.00     0.047 C 
BRANCH   9  10
ATOM     10  C   UNL A   1      32.579  20.715  24.805  1.00  0.00     0.102 C 
BRANCH  10  11
ATOM     11  C   UNL A   1      33.576  19.615  24.558  1.00  0.00     0.217 C 
ATOM     12  N   UNL A   1      34.820  19.820  25.067  1.00  0.00    -0.370 N 
ATOM     13  H   UNL A   1      35.521  19.140  24.942  1.00  0.00     0.159 HD
ATOM     14  H   UNL A   1      35.019  20.647  25.562  1.00  0.00     0.159 HD
ATOM     15  O   UNL A   1      33.292  18.591  23.950  1.00  0.00    -0.275 OA
ENDBRANCH  10  11
ENDBRANCH   9  10
ENDBRANCH   8   9
BRANCH   8  16
ATOM     16  N   UNL A   1      32.179  23.991  25.635  1.00  0.00    -0.343 N 
ATOM     17  C   UNL A   1      31.646  24.978  24.861  1.00  0.00     0.220 C 
ATOM     18  H   UNL A   1      31.705  23.814  26.479  1.00  0.00     0.164 HD
ATOM     19  O   UNL A   1      30.426  25.096  24.763  1.00  0.00    -0.275 OA
BRANCH  17  20
ATOM     20  C   UNL A   1      32.601  25.978  24.291  1.00  0.00     0.103 C 
BRANCH  20  21
ATOM     21  C   UNL A   1      33.018  25.589  22.911  1.00  0.00    -0.002 C 
ATOM     22  C   UNL A   1      33.032  26.514  21.711  1.00  0.00     0.004 C 
ATOM     23  C   UNL A   1      32.036  25.399  21.781  1.00  0.00     0.004 C 
ENDBRANCH  20  21
ENDBRANCH  17  20
ENDBRANCH   8  16
ENDBRANCH   6   8
ENDBRANCH   5   6
ENDBRANCH   4   5
ENDBRANCH   3   4
ENDBRANCH   2   3
ENDBRANCH   1   2
BRANCH   1  24
ATOM     24  C   UNL A   1      41.259  20.241  26.169  1.00  0.00     0.188 C 
BRANCH  24  25
ATOM     25  O   UNL A   1      42.372  20.270  27.058  1.00  0.00    -0.376 OA
BRANCH  25  26
ATOM     26  C   UNL A   1      43.263  21.336  26.759  1.00  0.00     0.202 C 
BRANCH  26  27
ATOM     27  C   UNL A   1      43.498  21.589  25.260  1.00  0.00     0.261 C 
BRANCH  27  28
ATOM     28  O   UNL A   1      42.921  22.813  24.750  1.00  0.00    -0.460 OA
BRANCH  28  29
ATOM     29  C   UNL A   1      43.671  23.938  24.934  1.00  0.00     0.338 C 
ATOM     30  O   UNL A   1      44.705  24.212  24.358  1.00  0.00    -0.246 OA
BRANCH  29  31
ATOM     31  C   UNL A   1      43.030  24.877  25.908  1.00  0.00     0.060 A 
ATOM     32  C   UNL A   1      43.636  26.123  26.116  1.00  0.00     0.016 A 
ATOM     33  C   UNL A   1      41.865  24.574  26.620  1.00  0.00     0.016 A 
ATOM     34  C   UNL A   1      43.043  27.089  26.948  1.00  0.00     0.010 A 
ATOM     35  C   UNL A   1      41.304  25.519  27.503  1.00  0.00     0.010 A 
ATOM     36  C   UNL A   1      41.879  26.791  27.667  1.00  0.00    -0.014 A 
BRANCH  36  37
ATOM     37  C   UNL A   1      41.432  27.695  28.770  1.00  0.00     0.031 A 
ATOM     38  C   UNL A   1      42.191  27.618  30.070  1.00  0.00     0.074 A 
ATOM     39  C   UNL A   1      40.396  28.553  28.667  1.00  0.00     0.049 A 
ATOM     40  N   UNL A   1      41.996  28.259  31.196  1.00  0.00    -0.248 NA
ATOM     41  C   UNL A   1      43.329  26.686  30.098  1.00  0.00     0.031 C 
ATOM     42  C   UNL A   1      39.597  28.789  27.470  1.00  0.00     0.029 A 
ATOM     43  N   UNL A   1      39.834  29.391  29.609  1.00  0.00    -0.354 N 
ATOM     44  C   UNL A   1      42.996  27.820  32.052  1.00  0.00     0.074 A 
ATOM     45  C   UNL A   1      43.779  26.843  31.331  1.00  0.00     0.031 C 
ATOM     46  C   UNL A   1      38.640  29.695  27.749  1.00  0.00     0.029 A 
ATOM     47  C   UNL A   1      38.731  30.082  29.158  1.00  0.00     0.049 A 
ATOM     48  H   UNL A   1      40.190  29.487  30.522  1.00  0.00     0.167 HD
ATOM     49  C   UNL A   1      43.244  28.185  33.332  1.00  0.00     0.037 A 
ATOM     50  C   UNL A   1      37.884  30.907  29.811  1.00  0.00     0.037 A 
ATOM     51  C   UNL A   1      42.435  29.097  34.091  1.00  0.00     0.049 A 
ATOM     52  C   UNL A   1      38.104  31.199  31.281  1.00  0.00     0.074 A 
ATOM     53  C   UNL A   1      42.591  29.497  35.405  1.00  0.00     0.029 A 
ATOM     54  N   UNL A   1      41.298  29.727  33.610  1.00  0.00    -0.354 N 
ATOM     55  N   UNL A   1      39.072  30.804  32.072  1.00  0.00    -0.248 NA
ATOM     56  C   UNL A   1      37.107  32.053  31.950  1.00  0.00     0.031 C 
ATOM     57  C   UNL A   1      41.510  30.318  35.742  1.00  0.00     0.029 A 
ATOM     58  C   UNL A   1      40.723  30.491  34.615  1.00  0.00     0.049 A 
ATOM     59  H   UNL A   1      40.950  29.646  32.693  1.00  0.00     0.167 HD
ATOM     60  C   UNL A   1      38.824  31.391  33.309  1.00  0.00     0.074 A 
ATOM     61  C   UNL A   1      37.619  32.178  33.165  1.00  0.00     0.031 C 
ATOM     62  C   UNL A   1      39.533  31.288  34.460  1.00  0.00     0.037 A 
BRANCH  49  63
ATOM     63  C   UNL A   1      44.418  27.535  34.002  1.00  0.00     0.064 A 
ATOM     64  C   UNL A   1      44.296  26.304  34.666  1.00  0.00     0.173 A 
ATOM     65  C   UNL A   1      45.673  28.161  34.001  1.00  0.00     0.173 A 
ATOM     66  F   UNL A   1      43.111  25.678  34.717  1.00  0.00    -0.203 F 
ATOM     67  C   UNL A   1      45.380  25.742  35.334  1.00  0.00     0.198 A 
ATOM     68  C   UNL A   1      46.763  27.579  34.640  1.00  0.00     0.198 A 
ATOM     69  F   UNL A   1      45.840  29.341  33.385  1.00  0.00    -0.203 F 
ATOM     70  F   UNL A   1      45.225  24.600  36.018  1.00  0.00    -0.200 F 
ATOM     71  C   UNL A   1      46.613  26.377  35.316  1.00  0.00     0.200 A 
ATOM     72  F   UNL A   1      47.956  28.189  34.614  1.00  0.00    -0.200 F 
ATOM     73  F   UNL A   1      47.656  25.837  35.962  1.00  0.00    -0.200 F 
ENDBRANCH  49  63
BRANCH  50  74
ATOM     74  C   UNL A   1      36.712  31.514  29.109  1.00  0.00     0.064 A 
ATOM     75  C   UNL A   1      36.667  32.889  28.826  1.00  0.00     0.173 A 
ATOM     76  C   UNL A   1      35.582  30.752  28.780  1.00  0.00     0.173 A 
ATOM     77  F   UNL A   1      37.702  33.675  29.158  1.00  0.00    -0.203 F 
ATOM     78  C   UNL A   1      35.531  33.478  28.269  1.00  0.00     0.198 A 
ATOM     79  C   UNL A   1      34.459  31.336  28.192  1.00  0.00     0.198 A 
ATOM     80  F   UNL A   1      35.558  29.437  29.043  1.00  0.00    -0.203 F 
ATOM     81  F   UNL A   1      35.492  34.804  28.076  1.00  0.00    -0.200 F 
ATOM     82  C   UNL A   1      34.430  32.701  27.948  1.00  0.00     0.200 A 
ATOM     83  F   UNL A   1      33.397  30.580  27.880  1.00  0.00    -0.200 F 
ATOM     84  F   UNL A   1      33.337  33.267  27.419  1.00  0.00    -0.200 F 
ENDBRANCH  50  74
BRANCH  62  85
ATOM     85  C   UNL A   1      39.072  32.084  35.651  1.00  0.00     0.064 A 
ATOM     86  C   UNL A   1      38.272  31.524  36.658  1.00  0.00     0.173 A 
ATOM     87  C   UNL A   1      39.498  33.412  35.819  1.00  0.00     0.173 A 
ATOM     88  F   UNL A   1      37.829  30.263  36.546  1.00  0.00    -0.203 F 
ATOM     89  C   UNL A   1      37.897  32.270  37.773  1.00  0.00     0.198 A 
ATOM     90  C   UNL A   1      39.150  34.143  36.952  1.00  0.00     0.198 A 
ATOM     91  F   UNL A   1      40.273  33.996  34.893  1.00  0.00    -0.203 F 
ATOM     92  F   UNL A   1      37.095  31.727  38.700  1.00  0.00    -0.200 F 
ATOM     93  C   UNL A   1      38.343  33.574  37.925  1.00  0.00     0.200 A 
ATOM     94  F   UNL A   1      39.602  35.395  37.105  1.00  0.00    -0.200 F 
ATOM     95  F   UNL A   1      37.994  34.284  39.006  1.00  0.00    -0.200 F 
ENDBRANCH  62  85
ENDBRANCH  36  37
ENDBRANCH  29  31
ENDBRANCH  28  29
ENDBRANCH  27  28
ENDBRANCH  26  27
ENDBRANCH  25  26
ENDBRANCH  24  25
ENDBRANCH   1  24
TORSDOF 23
ENDMDL
MODEL 3
REMARK VINA RESULT:      -9.7      5.292      7.879
REMARK SMILES NC(=O)CC[C@H](NC(=O)CC1CC1)C(=O)OCCOCCOCCOC(=O)c1ccc(-c2c3nc(c(-c4c(F)c(F)c(F)c(F)c4F)c4ccc([nH]4)c(-c4c(F)c(F)c(F)c(F)c4F)c4nc(c(-c5c(F)c(F)c(F)c(F)c5F)c5ccc2[nH]5)C=C4)C=C3)cc1
REMARK SMILES IDX 20 1 19 2 18 3 17 4 16 5 14 6 15 7 6 8 5 9 4 10 2 11 1 12
REMARK SMILES IDX 3 15 7 16 8 17 9 19 10 20 11 21 12 22 13 23 21 24 22 25
REMARK SMILES IDX 23 26 24 27 25 28 26 29 27 30 28 31 29 32 90 33 30 34 89 35
REMARK SMILES IDX 31 36 32 37 33 38 83 39 34 40 88 41 82 42 84 43 35 44 87 45
REMARK SMILES IDX 81 46 80 47 36 49 68 50 48 51 67 52 49 53 52 54 66 55 85 56
REMARK SMILES IDX 50 57 51 58 65 60 86 61 53 62 37 63 38 64 46 65 39 66 40 67
REMARK SMILES IDX 44 68 47 69 41 70 42 71 45 72 43 73 69 74 70 75 78 76 71 77
REMARK SMILES IDX 72 78 76 79 79 80 73 81 74 82 77 83 75 84 54 85 55 86 63 87
REMARK SMILES IDX 56 88 57 89 61 90 64 91 58 92 59 93 62 94 60 95
REMARK H PARENT 1 13 1 14 7 18 84 48 52 59
REMARK Flexibility Score: inf
ROOT
ATOM      1  C   UNL A   1      39.853  22.138  26.591  1.00  0.00     0.188 C 
ENDROOT
BRANCH   1   2
ATOM      2  O   UNL A   1      38.992  21.419  25.720  1.00  0.00    -0.376 OA
BRANCH   2   3
ATOM      3  C   UNL A   1      37.727  22.096  25.604  1.00  0.00     0.202 C 
BRANCH   3   4
ATOM      4  C   UNL A   1      36.620  21.291  24.885  1.00  0.00     0.261 C 
BRANCH   4   5
ATOM      5  O   UNL A   1      35.387  20.956  25.591  1.00  0.00    -0.462 OA
BRANCH   5   6
ATOM      6  C   UNL A   1      34.289  20.543  24.900  1.00  0.00     0.328 C 
ATOM      7  O   UNL A   1      34.106  19.387  24.539  1.00  0.00    -0.250 OA
BRANCH   6   8
ATOM      8  C   UNL A   1      33.255  21.701  24.657  1.00  0.00     0.192 C 
BRANCH   8   9
ATOM      9  C   UNL A   1      32.009  21.643  25.567  1.00  0.00     0.047 C 
BRANCH   9  10
ATOM     10  C   UNL A   1      30.966  22.750  25.397  1.00  0.00     0.102 C 
BRANCH  10  11
ATOM     11  C   UNL A   1      30.734  23.502  26.681  1.00  0.00     0.217 C 
ATOM     12  N   UNL A   1      31.702  24.391  27.028  1.00  0.00    -0.370 N 
ATOM     13  H   UNL A   1      31.614  24.916  27.855  1.00  0.00     0.159 HD
ATOM     14  H   UNL A   1      32.492  24.509  26.452  1.00  0.00     0.159 HD
ATOM     15  O   UNL A   1      29.733  23.342  27.368  1.00  0.00    -0.275 OA
ENDBRANCH  10  11
ENDBRANCH   9  10
ENDBRANCH   8   9
BRANCH   8  16
ATOM     16  N   UNL A   1      32.970  22.369  23.374  1.00  0.00    -0.343 N 
ATOM     17  C   UNL A   1      33.593  23.438  22.804  1.00  0.00     0.220 C 
ATOM     18  H   UNL A   1      32.226  21.987  22.855  1.00  0.00     0.164 HD
ATOM     19  O   UNL A   1      33.787  23.466  21.590  1.00  0.00    -0.275 OA
BRANCH  17  20
ATOM     20  C   UNL A   1      33.867  24.610  23.691  1.00  0.00     0.103 C 
BRANCH  20  21
ATOM     21  C   UNL A   1      33.079  25.802  23.258  1.00  0.00    -0.002 C 
ATOM     22  C   UNL A   1      33.541  27.240  23.369  1.00  0.00     0.004 C 
ATOM     23  C   UNL A   1      32.422  26.748  24.233  1.00  0.00     0.004 C 
ENDBRANCH  20  21
ENDBRANCH  17  20
ENDBRANCH   8  16
ENDBRANCH   6   8
ENDBRANCH   5   6
ENDBRANCH   4   5
ENDBRANCH   3   4
ENDBRANCH   2   3
ENDBRANCH   1   2
BRANCH   1  24
ATOM     24  C   UNL A   1      40.918  21.298  27.267  1.00  0.00     0.188 C 
BRANCH  24  25
ATOM     25  O   UNL A   1      41.033  20.033  26.622  1.00  0.00    -0.376 OA
BRANCH  25  26
ATOM     26  C   UNL A   1      42.278  19.406  26.900  1.00  0.00     0.202 C 
BRANCH  26  27
ATOM     27  C   UNL A   1      42.866  18.583  25.742  1.00  0.00     0.261 C 
BRANCH  27  28
ATOM     28  O   UNL A   1      44.280  18.781  25.509  1.00  0.00    -0.460 OA
BRANCH  28  29
ATOM     29  C   UNL A   1      44.598  19.506  24.398  1.00  0.00     0.338 C 
ATOM     30  O   UNL A   1      44.634  19.088  23.257  1.00  0.00    -0.246 OA
BRANCH  29  31
ATOM     31  C   UNL A   1      44.840  20.946  24.727  1.00  0.00     0.060 A 
ATOM     32  C   UNL A   1      45.298  21.258  26.014  1.00  0.00     0.016 A 
ATOM     33  C   UNL A   1      44.632  21.990  23.820  1.00  0.00     0.016 A 
ATOM     34  C   UNL A   1      45.630  22.578  26.366  1.00  0.00     0.010 A 
ATOM     35  C   UNL A   1      44.905  23.322  24.193  1.00  0.00     0.010 A 
ATOM     36  C   UNL A   1      45.421  23.629  25.465  1.00  0.00    -0.014 A 
BRANCH  36  37
ATOM     37  C   UNL A   1      45.482  25.043  25.942  1.00  0.00     0.031 A 
ATOM     38  C   UNL A   1      46.824  25.728  25.888  1.00  0.00     0.074 A 
ATOM     39  C   UNL A   1      44.420  25.724  26.421  1.00  0.00     0.049 A 
ATOM     40  N   UNL A   1      47.169  26.933  26.269  1.00  0.00    -0.248 NA
ATOM     41  C   UNL A   1      47.929  24.938  25.323  1.00  0.00     0.031 C 
ATOM     42  C   UNL A   1      43.049  25.230  26.490  1.00  0.00     0.029 A 
ATOM     43  N   UNL A   1      44.339  26.995  26.952  1.00  0.00    -0.354 N 
ATOM     44  C   UNL A   1      48.520  27.046  25.972  1.00  0.00     0.074 A 
ATOM     45  C   UNL A   1      48.940  25.785  25.404  1.00  0.00     0.031 C 
ATOM     46  C   UNL A   1      42.267  26.177  27.044  1.00  0.00     0.029 A 
ATOM     47  C   UNL A   1      43.084  27.335  27.405  1.00  0.00     0.049 A 
ATOM     48  H   UNL A   1      45.111  27.605  27.002  1.00  0.00     0.167 HD
ATOM     49  C   UNL A   1      49.349  28.099  26.159  1.00  0.00     0.037 A 
ATOM     50  C   UNL A   1      42.654  28.438  28.056  1.00  0.00     0.037 A 
ATOM     51  C   UNL A   1      48.971  29.333  26.789  1.00  0.00     0.049 A 
ATOM     52  C   UNL A   1      43.631  29.552  28.373  1.00  0.00     0.074 A 
ATOM     53  C   UNL A   1      49.755  30.440  27.052  1.00  0.00     0.029 A 
ATOM     54  N   UNL A   1      47.705  29.609  27.281  1.00  0.00    -0.354 N 
ATOM     55  N   UNL A   1      44.899  29.662  28.057  1.00  0.00    -0.248 NA
ATOM     56  C   UNL A   1      43.113  30.697  29.142  1.00  0.00     0.031 C 
ATOM     57  C   UNL A   1      48.982  31.362  27.765  1.00  0.00     0.029 A 
ATOM     58  C   UNL A   1      47.695  30.861  27.877  1.00  0.00     0.049 A 
ATOM     59  H   UNL A   1      46.929  29.007  27.218  1.00  0.00     0.167 HD
ATOM     60  C   UNL A   1      45.315  30.895  28.550  1.00  0.00     0.074 A 
ATOM     61  C   UNL A   1      44.163  31.505  29.178  1.00  0.00     0.031 C 
ATOM     62  C   UNL A   1      46.540  31.471  28.484  1.00  0.00     0.037 A 
BRANCH  49  63
ATOM     63  C   UNL A   1      50.773  27.921  25.722  1.00  0.00     0.064 A 
ATOM     64  C   UNL A   1      51.154  28.067  24.379  1.00  0.00     0.173 A 
ATOM     65  C   UNL A   1      51.764  27.578  26.653  1.00  0.00     0.173 A 
ATOM     66  F   UNL A   1      50.238  28.370  23.446  1.00  0.00    -0.203 F 
ATOM     67  C   UNL A   1      52.468  27.841  23.980  1.00  0.00     0.198 A 
ATOM     68  C   UNL A   1      53.084  27.387  26.256  1.00  0.00     0.198 A 
ATOM     69  F   UNL A   1      51.451  27.421  27.948  1.00  0.00    -0.203 F 
ATOM     70  F   UNL A   1      52.795  27.920  22.683  1.00  0.00    -0.200 F 
ATOM     71  C   UNL A   1      53.432  27.507  24.918  1.00  0.00     0.200 A 
ATOM     72  F   UNL A   1      54.016  27.073  27.166  1.00  0.00    -0.200 F 
ATOM     73  F   UNL A   1      54.696  27.286  24.533  1.00  0.00    -0.200 F 
ENDBRANCH  49  63
BRANCH  50  74
ATOM     74  C   UNL A   1      41.231  28.564  28.493  1.00  0.00     0.064 A 
ATOM     75  C   UNL A   1      40.816  28.116  29.759  1.00  0.00     0.173 A 
ATOM     76  C   UNL A   1      40.241  29.055  27.629  1.00  0.00     0.173 A 
ATOM     77  F   UNL A   1      41.712  27.596  30.611  1.00  0.00    -0.203 F 
ATOM     78  C   UNL A   1      39.471  28.132  30.129  1.00  0.00     0.198 A 
ATOM     79  C   UNL A   1      38.900  29.102  28.012  1.00  0.00     0.198 A 
ATOM     80  F   UNL A   1      40.572  29.479  26.400  1.00  0.00    -0.203 F 
ATOM     81  F   UNL A   1      39.099  27.634  31.316  1.00  0.00    -0.200 F 
ATOM     82  C   UNL A   1      38.515  28.629  29.258  1.00  0.00     0.200 A 
ATOM     83  F   UNL A   1      37.979  29.586  27.168  1.00  0.00    -0.200 F 
ATOM     84  F   UNL A   1      37.222  28.638  29.610  1.00  0.00    -0.200 F 
ENDBRANCH  50  74
BRANCH  62  85
ATOM     85  C   UNL A   1      46.705  32.855  29.052  1.00  0.00     0.064 A 
ATOM     86  C   UNL A   1      47.123  33.075  30.373  1.00  0.00     0.173 A 
ATOM     87  C   UNL A   1      46.505  33.981  28.235  1.00  0.00     0.173 A 
ATOM     88  F   UNL A   1      47.321  32.037  31.200  1.00  0.00    -0.203 F 
ATOM     89  C   UNL A   1      47.312  34.366  30.860  1.00  0.00     0.198 A 
ATOM     90  C   UNL A   1      46.729  35.268  28.715  1.00  0.00     0.198 A 
ATOM     91  F   UNL A   1      46.115  33.830  26.960  1.00  0.00    -0.203 F 
ATOM     92  F   UNL A   1      47.669  34.553  32.138  1.00  0.00    -0.200 F 
ATOM     93  C   UNL A   1      47.125  35.461  30.029  1.00  0.00     0.200 A 
ATOM     94  F   UNL A   1      46.567  36.322  27.902  1.00  0.00    -0.200 F 
ATOM     95  F   UNL A   1      47.321  36.701  30.495  1.00  0.00    -0.200 F 
ENDBRANCH  62  85
ENDBRANCH  36  37
ENDBRANCH  29  31
ENDBRANCH  28  29
ENDBRANCH  27  28
ENDBRANCH  26  27
ENDBRANCH  25  26
ENDBRANCH  24  25
ENDBRANCH   1  24
TORSDOF 23
ENDMDL
