MODEL 1
REMARK VINA RESULT:     -11.6      0.000      0.000
REMARK SMILES Cc1cc2c(c(C)c1Cl)C=C(C(=O)OCCOCCOCCOC(=O)c1ccc(-c3c4nc(c(-c5c(F)c(F)c(F)c(F)c5F)c5ccc([nH]5)c(-c5c(F)c(F)c(F)c(F)c5F)c5nc(c(-c6c(F)c(F)c(F)c(F)c6F)c6ccc3[nH]6)C=C5)C=C4)cc1)[C@@H](C(F)(F)F)O2
REMARK SMILES IDX 19 1 18 2 17 3 16 4 15 5 14 6 12 7 13 8 11 9 1 10 2 11 3 12
REMARK SMILES IDX 8 13 4 14 6 15 9 16 5 17 94 18 7 19 10 20 89 21 90 22 91 23
REMARK SMILES IDX 92 24 93 25 20 26 21 27 22 28 23 29 24 30 25 31 26 32 27 33
REMARK SMILES IDX 88 34 28 35 87 36 29 37 30 38 31 39 81 40 32 41 86 42 80 43
REMARK SMILES IDX 82 44 33 45 85 46 79 47 78 48 34 50 66 51 46 52 65 53 47 54
REMARK SMILES IDX 50 55 64 56 83 57 48 58 49 59 63 61 84 62 51 63 35 64 36 65
REMARK SMILES IDX 44 66 37 67 38 68 42 69 45 70 39 71 40 72 43 73 41 74 67 75
REMARK SMILES IDX 68 76 76 77 69 78 70 79 74 80 77 81 71 82 72 83 75 84 73 85
REMARK SMILES IDX 52 86 53 87 61 88 54 89 55 90 59 91 62 92 56 93 57 94 60 95
REMARK SMILES IDX 58 96
REMARK H PARENT 82 49 50 60
REMARK Flexibility Score: inf
ROOT
ATOM      1  C   UNL A   1      31.827  29.330  27.254  1.00  0.00     0.188 C 
ENDROOT
BRANCH   1   2
ATOM      2  C   UNL A   1      31.710  28.211  26.198  1.00  0.00     0.188 C 
BRANCH   2   3
ATOM      3  O   UNL A   1      31.207  28.510  24.917  1.00  0.00    -0.376 OA
BRANCH   3   4
ATOM      4  C   UNL A   1      31.984  29.224  23.970  1.00  0.00     0.202 C 
BRANCH   4   5
ATOM      5  C   UNL A   1      33.159  28.631  23.177  1.00  0.00     0.261 C 
BRANCH   5   6
ATOM      6  O   UNL A   1      33.709  27.401  23.663  1.00  0.00    -0.460 OA
BRANCH   6   7
ATOM      7  C   UNL A   1      33.639  26.358  22.801  1.00  0.00     0.338 C 
ATOM      8  O   UNL A   1      33.888  26.378  21.608  1.00  0.00    -0.246 OA
BRANCH   7   9
ATOM      9  C   UNL A   1      33.366  25.115  23.552  1.00  0.00     0.087 C 
ATOM     10  C   UNL A   1      33.000  19.023  25.673  1.00  0.00     0.046 C 
ATOM     11  C   UNL A   1      33.461  20.401  25.277  1.00  0.00    -0.028 A 
ATOM     12  C   UNL A   1      32.525  21.441  25.276  1.00  0.00     0.052 A 
ATOM     13  C   UNL A   1      34.773  20.665  24.836  1.00  0.00     0.047 A 
ATOM     14  C   UNL A   1      32.859  22.703  24.790  1.00  0.00     0.128 A 
ATOM     15  C   UNL A   1      35.142  21.950  24.374  1.00  0.00    -0.021 A 
ATOM     16  Cl  UNL A   1      35.925  19.363  24.831  1.00  0.00    -0.084 Cl
ATOM     17  C   UNL A   1      34.146  22.959  24.304  1.00  0.00     0.022 A 
ATOM     18  O   UNL A   1      31.846  23.620  24.826  1.00  0.00    -0.475 OA
ATOM     19  C   UNL A   1      36.558  22.265  23.945  1.00  0.00     0.047 C 
ATOM     20  C   UNL A   1      34.385  24.251  23.664  1.00  0.00     0.027 C 
ATOM     21  C   UNL A   1      32.004  24.885  24.135  1.00  0.00     0.316 C 
BRANCH  21  22
ATOM     22  C   UNL A   1      30.891  25.011  23.085  1.00  0.00     0.430 C 
ATOM     23  F   UNL A   1      31.399  25.060  21.831  1.00  0.00    -0.167 F 
ATOM     24  F   UNL A   1      30.046  23.953  23.122  1.00  0.00    -0.167 F 
ATOM     25  F   UNL A   1      30.148  26.127  23.269  1.00  0.00    -0.167 F 
ENDBRANCH  21  22
ENDBRANCH   7   9
ENDBRANCH   6   7
ENDBRANCH   5   6
ENDBRANCH   4   5
ENDBRANCH   3   4
ENDBRANCH   2   3
ENDBRANCH   1   2
BRANCH   1  26
ATOM     26  O   UNL A   1      32.381  30.577  26.902  1.00  0.00    -0.376 OA
BRANCH  26  27
ATOM     27  C   UNL A   1      31.522  31.643  26.528  1.00  0.00     0.202 C 
BRANCH  27  28
ATOM     28  C   UNL A   1      31.714  33.105  26.976  1.00  0.00     0.261 C 
BRANCH  28  29
ATOM     29  O   UNL A   1      33.061  33.595  27.035  1.00  0.00    -0.460 OA
BRANCH  29  30
ATOM     30  C   UNL A   1      33.479  34.016  28.259  1.00  0.00     0.338 C 
ATOM     31  O   UNL A   1      32.900  34.758  29.026  1.00  0.00    -0.246 OA
BRANCH  30  32
ATOM     32  C   UNL A   1      34.688  33.255  28.635  1.00  0.00     0.060 A 
ATOM     33  C   UNL A   1      34.531  31.966  29.164  1.00  0.00     0.016 A 
ATOM     34  C   UNL A   1      35.959  33.808  28.485  1.00  0.00     0.016 A 
ATOM     35  C   UNL A   1      35.647  31.221  29.535  1.00  0.00     0.010 A 
ATOM     36  C   UNL A   1      37.079  33.073  28.892  1.00  0.00     0.010 A 
ATOM     37  C   UNL A   1      36.926  31.783  29.435  1.00  0.00    -0.014 A 
BRANCH  37  38
ATOM     38  C   UNL A   1      38.061  31.103  30.106  1.00  0.00     0.031 A 
ATOM     39  C   UNL A   1      38.302  31.403  31.559  1.00  0.00     0.074 A 
ATOM     40  C   UNL A   1      38.818  30.192  29.470  1.00  0.00     0.049 A 
ATOM     41  N   UNL A   1      39.218  30.933  32.365  1.00  0.00    -0.248 NA
ATOM     42  C   UNL A   1      37.376  32.357  32.191  1.00  0.00     0.031 C 
ATOM     43  C   UNL A   1      38.645  29.767  28.084  1.00  0.00     0.029 A 
ATOM     44  N   UNL A   1      39.886  29.453  29.920  1.00  0.00    -0.354 N 
ATOM     45  C   UNL A   1      38.973  31.525  33.596  1.00  0.00     0.074 A 
ATOM     46  C   UNL A   1      37.850  32.420  33.424  1.00  0.00     0.031 C 
ATOM     47  C   UNL A   1      39.576  28.840  27.793  1.00  0.00     0.029 A 
ATOM     48  C   UNL A   1      40.430  28.630  28.964  1.00  0.00     0.049 A 
ATOM     49  H   UNL A   1      40.229  29.508  30.840  1.00  0.00     0.167 HD
ATOM     50  C   UNL A   1      39.613  31.325  34.771  1.00  0.00     0.037 A 
ATOM     51  C   UNL A   1      41.505  27.815  29.026  1.00  0.00     0.037 A 
ATOM     52  C   UNL A   1      40.732  30.438  34.942  1.00  0.00     0.049 A 
ATOM     53  C   UNL A   1      42.281  27.705  30.317  1.00  0.00     0.074 A 
ATOM     54  C   UNL A   1      41.444  30.170  36.096  1.00  0.00     0.029 A 
ATOM     55  N   UNL A   1      41.304  29.684  33.930  1.00  0.00    -0.354 N 
ATOM     56  N   UNL A   1      42.029  28.248  31.484  1.00  0.00    -0.248 NA
ATOM     57  C   UNL A   1      43.496  26.874  30.299  1.00  0.00     0.031 C 
ATOM     58  C   UNL A   1      42.486  29.298  35.770  1.00  0.00     0.029 A 
ATOM     59  C   UNL A   1      42.389  28.980  34.425  1.00  0.00     0.049 A 
ATOM     60  H   UNL A   1      40.988  29.654  32.998  1.00  0.00     0.167 HD
ATOM     61  C   UNL A   1      43.036  27.812  32.338  1.00  0.00     0.074 A 
ATOM     62  C   UNL A   1      43.894  26.943  31.563  1.00  0.00     0.031 C 
ATOM     63  C   UNL A   1      43.234  28.112  33.645  1.00  0.00     0.037 A 
BRANCH  50  64
ATOM     64  C   UNL A   1      39.129  32.090  35.964  1.00  0.00     0.064 A 
ATOM     65  C   UNL A   1      38.255  31.515  36.899  1.00  0.00     0.173 A 
ATOM     66  C   UNL A   1      39.587  33.394  36.207  1.00  0.00     0.173 A 
ATOM     67  F   UNL A   1      37.776  30.277  36.702  1.00  0.00    -0.203 F 
ATOM     68  C   UNL A   1      37.844  32.222  38.024  1.00  0.00     0.198 A 
ATOM     69  C   UNL A   1      39.198  34.086  37.350  1.00  0.00     0.198 A 
ATOM     70  F   UNL A   1      40.425  33.988  35.346  1.00  0.00    -0.203 F 
ATOM     71  F   UNL A   1      36.978  31.668  38.884  1.00  0.00    -0.200 F 
ATOM     72  C   UNL A   1      38.325  33.503  38.255  1.00  0.00     0.200 A 
ATOM     73  F   UNL A   1      39.675  35.318  37.578  1.00  0.00    -0.200 F 
ATOM     74  F   UNL A   1      37.942  34.177  39.348  1.00  0.00    -0.200 F 
ENDBRANCH  50  64
BRANCH  51  75
ATOM     75  C   UNL A   1      41.921  27.038  27.827  1.00  0.00     0.064 A 
ATOM     76  C   UNL A   1      41.442  25.739  27.605  1.00  0.00     0.173 A 
ATOM     77  C   UNL A   1      42.819  27.568  26.887  1.00  0.00     0.173 A 
ATOM     78  F   UNL A   1      40.608  25.173  28.490  1.00  0.00    -0.203 F 
ATOM     79  C   UNL A   1      41.849  25.000  26.495  1.00  0.00     0.198 A 
ATOM     80  C   UNL A   1      43.202  26.840  25.763  1.00  0.00     0.198 A 
ATOM     81  F   UNL A   1      43.318  28.801  27.058  1.00  0.00    -0.203 F 
ATOM     82  F   UNL A   1      41.408  23.745  26.331  1.00  0.00    -0.200 F 
ATOM     83  C   UNL A   1      42.721  25.554  25.571  1.00  0.00     0.200 A 
ATOM     84  F   UNL A   1      44.039  27.382  24.869  1.00  0.00    -0.200 F 
ATOM     85  F   UNL A   1      43.106  24.845  24.501  1.00  0.00    -0.200 F 
ENDBRANCH  51  75
BRANCH  63  86
ATOM     86  C   UNL A   1      44.420  27.509  34.342  1.00  0.00     0.064 A 
ATOM     87  C   UNL A   1      44.347  26.239  34.932  1.00  0.00     0.173 A 
ATOM     88  C   UNL A   1      45.671  28.146  34.306  1.00  0.00     0.173 A 
ATOM     89  F   UNL A   1      43.174  25.592  35.000  1.00  0.00    -0.203 F 
ATOM     90  C   UNL A   1      45.483  25.629  35.461  1.00  0.00     0.198 A 
ATOM     91  C   UNL A   1      46.809  27.520  34.808  1.00  0.00     0.198 A 
ATOM     92  F   UNL A   1      45.797  29.357  33.742  1.00  0.00    -0.203 F 
ATOM     93  F   UNL A   1      45.385  24.422  36.035  1.00  0.00    -0.200 F 
ATOM     94  C   UNL A   1      46.713  26.263  35.384  1.00  0.00     0.200 A 
ATOM     95  F   UNL A   1      48.001  28.124  34.714  1.00  0.00    -0.200 F 
ATOM     96  F   UNL A   1      47.810  25.659  35.864  1.00  0.00    -0.200 F 
ENDBRANCH  63  86
ENDBRANCH  37  38
ENDBRANCH  30  32
ENDBRANCH  29  30
ENDBRANCH  28  29
ENDBRANCH  27  28
ENDBRANCH  26  27
ENDBRANCH   1  26
TORSDOF 18
ENDMDL
MODEL 2
REMARK VINA RESULT:     -11.5      4.903      8.956
REMARK SMILES Cc1cc2c(c(C)c1Cl)C=C(C(=O)OCCOCCOCCOC(=O)c1ccc(-c3c4nc(c(-c5c(F)c(F)c(F)c(F)c5F)c5ccc([nH]5)c(-c5c(F)c(F)c(F)c(F)c5F)c5nc(c(-c6c(F)c(F)c(F)c(F)c6F)c6ccc3[nH]6)C=C5)C=C4)cc1)[C@@H](C(F)(F)F)O2
REMARK SMILES IDX 19 1 18 2 17 3 16 4 15 5 14 6 12 7 13 8 11 9 1 10 2 11 3 12
REMARK SMILES IDX 8 13 4 14 6 15 9 16 5 17 94 18 7 19 10 20 89 21 90 22 91 23
REMARK SMILES IDX 92 24 93 25 20 26 21 27 22 28 23 29 24 30 25 31 26 32 27 33
REMARK SMILES IDX 88 34 28 35 87 36 29 37 30 38 31 39 81 40 32 41 86 42 80 43
REMARK SMILES IDX 82 44 33 45 85 46 79 47 78 48 34 50 66 51 46 52 65 53 47 54
REMARK SMILES IDX 50 55 64 56 83 57 48 58 49 59 63 61 84 62 51 63 35 64 36 65
REMARK SMILES IDX 44 66 37 67 38 68 42 69 45 70 39 71 40 72 43 73 41 74 67 75
REMARK SMILES IDX 68 76 76 77 69 78 70 79 74 80 77 81 71 82 72 83 75 84 73 85
REMARK SMILES IDX 52 86 53 87 61 88 54 89 55 90 59 91 62 92 56 93 57 94 60 95
REMARK SMILES IDX 58 96
REMARK H PARENT 82 49 50 60
REMARK Flexibility Score: inf
ROOT
ATOM      1  C   UNL A   1      37.809  22.656  25.548  1.00  0.00     0.188 C 
ENDROOT
BRANCH   1   2
ATOM      2  C   UNL A   1      36.884  22.351  24.351  1.00  0.00     0.188 C 
BRANCH   2   3
ATOM      3  O   UNL A   1      35.594  21.831  24.579  1.00  0.00    -0.376 OA
BRANCH   3   4
ATOM      4  C   UNL A   1      35.302  21.073  25.741  1.00  0.00     0.202 C 
BRANCH   4   5
ATOM      5  C   UNL A   1      34.404  21.550  26.894  1.00  0.00     0.261 C 
BRANCH   5   6
ATOM      6  O   UNL A   1      34.187  22.961  27.000  1.00  0.00    -0.460 OA
BRANCH   6   7
ATOM      7  C   UNL A   1      32.888  23.346  27.000  1.00  0.00     0.338 C 
ATOM      8  O   UNL A   1      32.034  23.034  27.811  1.00  0.00    -0.246 OA
BRANCH   7   9
ATOM      9  C   UNL A   1      32.672  24.356  25.944  1.00  0.00     0.087 C 
ATOM     10  C   UNL A   1      30.660  29.325  22.336  1.00  0.00     0.046 C 
ATOM     11  C   UNL A   1      31.278  28.453  23.398  1.00  0.00    -0.028 A 
ATOM     12  C   UNL A   1      31.642  27.145  23.056  1.00  0.00     0.052 A 
ATOM     13  C   UNL A   1      31.428  28.875  24.733  1.00  0.00     0.047 A 
ATOM     14  C   UNL A   1      32.089  26.251  24.026  1.00  0.00     0.128 A 
ATOM     15  C   UNL A   1      31.917  27.993  25.726  1.00  0.00    -0.021 A 
ATOM     16  Cl  UNL A   1      30.961  30.497  25.149  1.00  0.00    -0.084 Cl
ATOM     17  C   UNL A   1      32.195  26.649  25.364  1.00  0.00     0.022 A 
ATOM     18  O   UNL A   1      32.391  25.002  23.562  1.00  0.00    -0.475 OA
ATOM     19  C   UNL A   1      32.133  28.444  27.154  1.00  0.00     0.047 C 
ATOM     20  C   UNL A   1      32.517  25.623  26.354  1.00  0.00     0.027 C 
ATOM     21  C   UNL A   1      32.638  23.929  24.506  1.00  0.00     0.316 C 
BRANCH  21  22
ATOM     22  C   UNL A   1      31.616  22.812  24.254  1.00  0.00     0.430 C 
ATOM     23  F   UNL A   1      31.185  22.819  22.970  1.00  0.00    -0.167 F 
ATOM     24  F   UNL A   1      32.147  21.587  24.479  1.00  0.00    -0.167 F 
ATOM     25  F   UNL A   1      30.528  22.934  25.050  1.00  0.00    -0.167 F 
ENDBRANCH  21  22
ENDBRANCH   7   9
ENDBRANCH   6   7
ENDBRANCH   5   6
ENDBRANCH   4   5
ENDBRANCH   3   4
ENDBRANCH   2   3
ENDBRANCH   1   2
BRANCH   1  26
ATOM     26  O   UNL A   1      38.798  21.728  25.929  1.00  0.00    -0.376 OA
BRANCH  26  27
ATOM     27  C   UNL A   1      38.826  20.446  25.319  1.00  0.00     0.202 C 
BRANCH  27  28
ATOM     28  C   UNL A   1      39.701  19.275  25.808  1.00  0.00     0.261 C 
BRANCH  28  29
ATOM     29  O   UNL A   1      41.052  19.229  25.330  1.00  0.00    -0.460 OA
BRANCH  29  30
ATOM     30  C   UNL A   1      42.015  19.285  26.287  1.00  0.00     0.338 C 
ATOM     31  O   UNL A   1      42.721  18.380  26.685  1.00  0.00    -0.246 OA
BRANCH  30  32
ATOM     32  C   UNL A   1      42.243  20.699  26.650  1.00  0.00     0.060 A 
ATOM     33  C   UNL A   1      42.496  21.621  25.624  1.00  0.00     0.016 A 
ATOM     34  C   UNL A   1      42.222  21.111  27.982  1.00  0.00     0.016 A 
ATOM     35  C   UNL A   1      42.720  22.962  25.928  1.00  0.00     0.010 A 
ATOM     36  C   UNL A   1      42.484  22.451  28.289  1.00  0.00     0.010 A 
ATOM     37  C   UNL A   1      42.751  23.378  27.264  1.00  0.00    -0.014 A 
BRANCH  37  38
ATOM     38  C   UNL A   1      43.282  24.727  27.581  1.00  0.00     0.031 A 
ATOM     39  C   UNL A   1      42.298  25.807  27.932  1.00  0.00     0.074 A 
ATOM     40  C   UNL A   1      44.603  24.977  27.624  1.00  0.00     0.049 A 
ATOM     41  N   UNL A   1      42.512  27.057  28.253  1.00  0.00    -0.248 NA
ATOM     42  C   UNL A   1      40.878  25.421  27.930  1.00  0.00     0.031 C 
ATOM     43  C   UNL A   1      45.658  24.001  27.368  1.00  0.00     0.029 A 
ATOM     44  N   UNL A   1      45.279  26.138  27.910  1.00  0.00    -0.354 N 
ATOM     45  C   UNL A   1      41.260  27.600  28.500  1.00  0.00     0.074 A 
ATOM     46  C   UNL A   1      40.286  26.560  28.252  1.00  0.00     0.031 C 
ATOM     47  C   UNL A   1      46.852  24.603  27.508  1.00  0.00     0.029 A 
ATOM     48  C   UNL A   1      46.646  26.016  27.833  1.00  0.00     0.049 A 
ATOM     49  H   UNL A   1      44.828  26.979  28.148  1.00  0.00     0.167 HD
ATOM     50  C   UNL A   1      40.949  28.849  28.915  1.00  0.00     0.037 A 
ATOM     51  C   UNL A   1      47.613  26.944  27.990  1.00  0.00     0.037 A 
ATOM     52  C   UNL A   1      41.915  29.885  29.159  1.00  0.00     0.049 A 
ATOM     53  C   UNL A   1      47.232  28.365  28.332  1.00  0.00     0.074 A 
ATOM     54  C   UNL A   1      41.694  31.182  29.584  1.00  0.00     0.029 A 
ATOM     55  N   UNL A   1      43.284  29.744  28.989  1.00  0.00    -0.354 N 
ATOM     56  N   UNL A   1      46.047  28.866  28.588  1.00  0.00    -0.248 NA
ATOM     57  C   UNL A   1      48.322  29.353  28.399  1.00  0.00     0.031 C 
ATOM     58  C   UNL A   1      42.923  31.844  29.615  1.00  0.00     0.029 A 
ATOM     59  C   UNL A   1      43.916  30.945  29.263  1.00  0.00     0.049 A 
ATOM     60  H   UNL A   1      43.738  28.914  28.715  1.00  0.00     0.167 HD
ATOM     61  C   UNL A   1      46.251  30.214  28.864  1.00  0.00     0.074 A 
ATOM     62  C   UNL A   1      47.674  30.451  28.765  1.00  0.00     0.031 C 
ATOM     63  C   UNL A   1      45.337  31.169  29.166  1.00  0.00     0.037 A 
BRANCH  50  64
ATOM     64  C   UNL A   1      39.500  29.172  29.122  1.00  0.00     0.064 A 
ATOM     65  C   UNL A   1      38.672  29.541  28.052  1.00  0.00     0.173 A 
ATOM     66  C   UNL A   1      38.920  29.056  30.394  1.00  0.00     0.173 A 
ATOM     67  F   UNL A   1      39.183  29.681  26.819  1.00  0.00    -0.203 F 
ATOM     68  C   UNL A   1      37.319  29.799  28.250  1.00  0.00     0.198 A 
ATOM     69  C   UNL A   1      37.561  29.285  30.583  1.00  0.00     0.198 A 
ATOM     70  F   UNL A   1      39.669  28.704  31.449  1.00  0.00    -0.203 F 
ATOM     71  F   UNL A   1      36.554  30.188  27.221  1.00  0.00    -0.200 F 
ATOM     72  C   UNL A   1      36.762  29.660  29.513  1.00  0.00     0.200 A 
ATOM     73  F   UNL A   1      37.022  29.137  31.801  1.00  0.00    -0.200 F 
ATOM     74  F   UNL A   1      35.455  29.892  29.701  1.00  0.00    -0.200 F 
ENDBRANCH  50  64
BRANCH  51  75
ATOM     75  C   UNL A   1      49.042  26.566  27.821  1.00  0.00     0.064 A 
ATOM     76  C   UNL A   1      49.863  26.328  28.932  1.00  0.00     0.173 A 
ATOM     77  C   UNL A   1      49.623  26.452  26.548  1.00  0.00     0.173 A 
ATOM     78  F   UNL A   1      49.367  26.456  30.171  1.00  0.00    -0.203 F 
ATOM     79  C   UNL A   1      51.209  25.997  28.777  1.00  0.00     0.198 A 
ATOM     80  C   UNL A   1      50.960  26.094  26.393  1.00  0.00     0.198 A 
ATOM     81  F   UNL A   1      48.886  26.682  25.451  1.00  0.00    -0.203 F 
ATOM     82  F   UNL A   1      51.981  25.817  29.857  1.00  0.00    -0.200 F 
ATOM     83  C   UNL A   1      51.754  25.871  27.508  1.00  0.00     0.200 A 
ATOM     84  F   UNL A   1      51.480  25.966  25.165  1.00  0.00    -0.200 F 
ATOM     85  F   UNL A   1      53.046  25.547  27.360  1.00  0.00    -0.200 F 
ENDBRANCH  51  75
BRANCH  63  86
ATOM     86  C   UNL A   1      45.825  32.568  29.413  1.00  0.00     0.064 A 
ATOM     87  C   UNL A   1      45.849  33.520  28.385  1.00  0.00     0.173 A 
ATOM     88  C   UNL A   1      46.146  32.994  30.712  1.00  0.00     0.173 A 
ATOM     89  F   UNL A   1      45.559  33.162  27.125  1.00  0.00    -0.203 F 
ATOM     90  C   UNL A   1      46.177  34.849  28.647  1.00  0.00     0.198 A 
ATOM     91  C   UNL A   1      46.444  34.329  30.975  1.00  0.00     0.198 A 
ATOM     92  F   UNL A   1      46.126  32.125  31.734  1.00  0.00    -0.203 F 
ATOM     93  F   UNL A   1      46.210  35.738  27.646  1.00  0.00    -0.200 F 
ATOM     94  C   UNL A   1      46.458  35.254  29.943  1.00  0.00     0.200 A 
ATOM     95  F   UNL A   1      46.694  34.723  32.231  1.00  0.00    -0.200 F 
ATOM     96  F   UNL A   1      46.740  36.540  30.198  1.00  0.00    -0.200 F 
ENDBRANCH  63  86
ENDBRANCH  37  38
ENDBRANCH  30  32
ENDBRANCH  29  30
ENDBRANCH  28  29
ENDBRANCH  27  28
ENDBRANCH  26  27
ENDBRANCH   1  26
TORSDOF 18
ENDMDL
MODEL 3
REMARK VINA RESULT:     -11.5      5.038     10.659
REMARK SMILES Cc1cc2c(c(C)c1Cl)C=C(C(=O)OCCOCCOCCOC(=O)c1ccc(-c3c4nc(c(-c5c(F)c(F)c(F)c(F)c5F)c5ccc([nH]5)c(-c5c(F)c(F)c(F)c(F)c5F)c5nc(c(-c6c(F)c(F)c(F)c(F)c6F)c6ccc3[nH]6)C=C5)C=C4)cc1)[C@@H](C(F)(F)F)O2
REMARK SMILES IDX 19 1 18 2 17 3 16 4 15 5 14 6 12 7 13 8 11 9 1 10 2 11 3 12
REMARK SMILES IDX 8 13 4 14 6 15 9 16 5 17 94 18 7 19 10 20 89 21 90 22 91 23
REMARK SMILES IDX 92 24 93 25 20 26 21 27 22 28 23 29 24 30 25 31 26 32 27 33
REMARK SMILES IDX 88 34 28 35 87 36 29 37 30 38 31 39 81 40 32 41 86 42 80 43
REMARK SMILES IDX 82 44 33 45 85 46 79 47 78 48 34 50 66 51 46 52 65 53 47 54
REMARK SMILES IDX 50 55 64 56 83 57 48 58 49 59 63 61 84 62 51 63 35 64 36 65
REMARK SMILES IDX 44 66 37 67 38 68 42 69 45 70 39 71 40 72 43 73 41 74 67 75
REMARK SMILES IDX 68 76 76 77 69 78 70 79 74 80 77 81 71 82 72 83 75 84 73 85
REMARK SMILES IDX 52 86 53 87 61 88 54 89 55 90 59 91 62 92 56 93 57 94 60 95
REMARK SMILES IDX 58 96
REMARK H PARENT 82 49 50 60
REMARK Flexibility Score: inf
ROOT
ATOM      1  C   UNL A   1      37.642  22.718  25.370  1.00  0.00     0.188 C 
ENDROOT
BRANCH   1   2
ATOM      2  C   UNL A   1      36.828  22.256  24.143  1.00  0.00     0.188 C 
BRANCH   2   3
ATOM      3  O   UNL A   1      35.462  21.943  24.288  1.00  0.00    -0.376 OA
BRANCH   3   4
ATOM      4  C   UNL A   1      35.012  21.073  25.312  1.00  0.00     0.202 C 
BRANCH   4   5
ATOM      5  C   UNL A   1      34.374  21.533  26.633  1.00  0.00     0.261 C 
BRANCH   5   6
ATOM      6  O   UNL A   1      34.182  22.941  26.799  1.00  0.00    -0.460 OA
BRANCH   6   7
ATOM      7  C   UNL A   1      32.891  23.340  26.898  1.00  0.00     0.338 C 
ATOM      8  O   UNL A   1      32.089  23.014  27.757  1.00  0.00    -0.246 OA
BRANCH   7   9
ATOM      9  C   UNL A   1      32.616  24.381  25.887  1.00  0.00     0.087 C 
ATOM     10  C   UNL A   1      30.455  29.491  22.574  1.00  0.00     0.046 C 
ATOM     11  C   UNL A   1      31.134  28.576  23.561  1.00  0.00    -0.028 A 
ATOM     12  C   UNL A   1      31.429  27.268  23.160  1.00  0.00     0.052 A 
ATOM     13  C   UNL A   1      31.410  28.961  24.887  1.00  0.00     0.047 A 
ATOM     14  C   UNL A   1      31.930  26.338  24.069  1.00  0.00     0.128 A 
ATOM     15  C   UNL A   1      31.954  28.042  25.815  1.00  0.00    -0.021 A 
ATOM     16  Cl  UNL A   1      31.029  30.585  25.377  1.00  0.00    -0.084 Cl
ATOM     17  C   UNL A   1      32.160  26.700  25.401  1.00  0.00     0.022 A 
ATOM     18  O   UNL A   1      32.153  25.093  23.553  1.00  0.00    -0.475 OA
ATOM     19  C   UNL A   1      32.304  28.451  27.228  1.00  0.00     0.047 C 
ATOM     20  C   UNL A   1      32.534  25.641  26.336  1.00  0.00     0.027 C 
ATOM     21  C   UNL A   1      32.447  23.991  24.449  1.00  0.00     0.316 C 
BRANCH  21  22
ATOM     22  C   UNL A   1      31.374  22.909  24.260  1.00  0.00     0.430 C 
ATOM     23  F   UNL A   1      30.662  23.113  23.127  1.00  0.00    -0.167 F 
ATOM     24  F   UNL A   1      31.920  21.674  24.159  1.00  0.00    -0.167 F 
ATOM     25  F   UNL A   1      30.499  22.881  25.292  1.00  0.00    -0.167 F 
ENDBRANCH  21  22
ENDBRANCH   7   9
ENDBRANCH   6   7
ENDBRANCH   5   6
ENDBRANCH   4   5
ENDBRANCH   3   4
ENDBRANCH   2   3
ENDBRANCH   1   2
BRANCH   1  26
ATOM     26  O   UNL A   1      38.705  21.926  25.850  1.00  0.00    -0.376 OA
BRANCH  26  27
ATOM     27  C   UNL A   1      38.800  20.567  25.449  1.00  0.00     0.202 C 
BRANCH  27  28
ATOM     28  C   UNL A   1      39.745  19.539  26.101  1.00  0.00     0.261 C 
BRANCH  28  29
ATOM     29  O   UNL A   1      40.935  19.200  25.376  1.00  0.00    -0.460 OA
BRANCH  29  30
ATOM     30  C   UNL A   1      42.064  19.080  26.125  1.00  0.00     0.338 C 
ATOM     31  O   UNL A   1      42.660  18.061  26.410  1.00  0.00    -0.246 OA
BRANCH  30  32
ATOM     32  C   UNL A   1      42.607  20.429  26.385  1.00  0.00     0.060 A 
ATOM     33  C   UNL A   1      42.532  20.940  27.689  1.00  0.00     0.016 A 
ATOM     34  C   UNL A   1      43.167  21.187  25.358  1.00  0.00     0.016 A 
ATOM     35  C   UNL A   1      43.029  22.210  27.972  1.00  0.00     0.010 A 
ATOM     36  C   UNL A   1      43.632  22.478  25.636  1.00  0.00     0.010 A 
ATOM     37  C   UNL A   1      43.549  23.001  26.940  1.00  0.00    -0.014 A 
BRANCH  37  38
ATOM     38  C   UNL A   1      43.792  24.442  27.197  1.00  0.00     0.031 A 
ATOM     39  C   UNL A   1      45.170  24.982  26.937  1.00  0.00     0.074 A 
ATOM     40  C   UNL A   1      42.805  25.269  27.583  1.00  0.00     0.049 A 
ATOM     41  N   UNL A   1      45.627  26.199  27.076  1.00  0.00    -0.248 NA
ATOM     42  C   UNL A   1      46.166  24.017  26.444  1.00  0.00     0.031 C 
ATOM     43  C   UNL A   1      41.415  24.882  27.806  1.00  0.00     0.029 A 
ATOM     44  N   UNL A   1      42.827  26.617  27.850  1.00  0.00    -0.354 N 
ATOM     45  C   UNL A   1      46.956  26.147  26.679  1.00  0.00     0.074 A 
ATOM     46  C   UNL A   1      47.246  24.773  26.334  1.00  0.00     0.031 C 
ATOM     47  C   UNL A   1      40.714  25.969  28.176  1.00  0.00     0.029 A 
ATOM     48  C   UNL A   1      41.613  27.123  28.248  1.00  0.00     0.049 A 
ATOM     49  H   UNL A   1      43.637  27.169  27.764  1.00  0.00     0.167 HD
ATOM     50  C   UNL A   1      47.850  27.158  26.590  1.00  0.00     0.037 A 
ATOM     51  C   UNL A   1      41.275  28.370  28.640  1.00  0.00     0.037 A 
ATOM     52  C   UNL A   1      47.564  28.524  26.936  1.00  0.00     0.049 A 
ATOM     53  C   UNL A   1      42.325  29.455  28.653  1.00  0.00     0.074 A 
ATOM     54  C   UNL A   1      48.407  29.619  26.876  1.00  0.00     0.029 A 
ATOM     55  N   UNL A   1      46.345  28.979  27.413  1.00  0.00    -0.354 N 
ATOM     56  N   UNL A   1      43.573  29.405  28.253  1.00  0.00    -0.248 NA
ATOM     57  C   UNL A   1      41.922  30.770  29.178  1.00  0.00     0.031 C 
ATOM     58  C   UNL A   1      47.717  30.726  27.374  1.00  0.00     0.029 A 
ATOM     59  C   UNL A   1      46.426  30.333  27.691  1.00  0.00     0.049 A 
ATOM     60  H   UNL A   1      45.542  28.423  27.536  1.00  0.00     0.167 HD
ATOM     61  C   UNL A   1      44.095  30.678  28.459  1.00  0.00     0.074 A 
ATOM     62  C   UNL A   1      43.025  31.486  29.000  1.00  0.00     0.031 C 
ATOM     63  C   UNL A   1      45.351  31.131  28.225  1.00  0.00     0.037 A 
BRANCH  50  64
ATOM     64  C   UNL A   1      49.231  26.825  26.112  1.00  0.00     0.064 A 
ATOM     65  C   UNL A   1      49.597  26.978  24.767  1.00  0.00     0.173 A 
ATOM     66  C   UNL A   1      50.214  26.400  27.018  1.00  0.00     0.173 A 
ATOM     67  F   UNL A   1      48.688  27.365  23.859  1.00  0.00    -0.203 F 
ATOM     68  C   UNL A   1      50.894  26.703  24.343  1.00  0.00     0.198 A 
ATOM     69  C   UNL A   1      51.517  26.156  26.596  1.00  0.00     0.198 A 
ATOM     70  F   UNL A   1      49.914  26.240  28.315  1.00  0.00    -0.203 F 
ATOM     71  F   UNL A   1      51.213  26.819  23.046  1.00  0.00    -0.200 F 
ATOM     72  C   UNL A   1      51.855  26.303  25.259  1.00  0.00     0.200 A 
ATOM     73  F   UNL A   1      52.448  25.783  27.485  1.00  0.00    -0.200 F 
ATOM     74  F   UNL A   1      53.108  26.055  24.853  1.00  0.00    -0.200 F 
ENDBRANCH  50  64
BRANCH  51  75
ATOM     75  C   UNL A   1      39.879  28.665  29.062  1.00  0.00     0.064 A 
ATOM     76  C   UNL A   1      39.463  28.448  30.384  1.00  0.00     0.173 A 
ATOM     77  C   UNL A   1      38.927  29.152  28.153  1.00  0.00     0.173 A 
ATOM     78  F   UNL A   1      40.324  27.952  31.284  1.00  0.00    -0.203 F 
ATOM     79  C   UNL A   1      38.149  28.701  30.777  1.00  0.00     0.198 A 
ATOM     80  C   UNL A   1      37.623  29.432  28.554  1.00  0.00     0.198 A 
ATOM     81  F   UNL A   1      39.269  29.365  26.874  1.00  0.00    -0.203 F 
ATOM     82  F   UNL A   1      37.767  28.444  32.036  1.00  0.00    -0.200 F 
ATOM     83  C   UNL A   1      37.233  29.201  29.864  1.00  0.00     0.200 A 
ATOM     84  F   UNL A   1      36.743  29.922  27.670  1.00  0.00    -0.200 F 
ATOM     85  F   UNL A   1      35.972  29.450  30.244  1.00  0.00    -0.200 F 
ENDBRANCH  51  75
BRANCH  63  86
ATOM     86  C   UNL A   1      45.662  32.564  28.549  1.00  0.00     0.064 A 
ATOM     87  C   UNL A   1      46.260  32.920  29.766  1.00  0.00     0.173 A 
ATOM     88  C   UNL A   1      45.480  33.571  27.586  1.00  0.00     0.173 A 
ATOM     89  F   UNL A   1      46.448  31.999  30.722  1.00  0.00    -0.203 F 
ATOM     90  C   UNL A   1      46.666  34.232  30.007  1.00  0.00     0.198 A 
ATOM     91  C   UNL A   1      45.914  34.873  27.820  1.00  0.00     0.198 A 
ATOM     92  F   UNL A   1      44.923  33.280  26.401  1.00  0.00    -0.203 F 
ATOM     93  F   UNL A   1      47.220  34.553  31.184  1.00  0.00    -0.200 F 
ATOM     94  C   UNL A   1      46.507  35.201  29.029  1.00  0.00     0.200 A 
ATOM     95  F   UNL A   1      45.780  35.804  26.866  1.00  0.00    -0.200 F 
ATOM     96  F   UNL A   1      46.928  36.455  29.252  1.00  0.00    -0.200 F 
ENDBRANCH  63  86
ENDBRANCH  37  38
ENDBRANCH  30  32
ENDBRANCH  29  30
ENDBRANCH  28  29
ENDBRANCH  27  28
ENDBRANCH  26  27
ENDBRANCH   1  26
TORSDOF 18
ENDMDL
