MODEL 1
REMARK VINA RESULT:     -11.4      0.000      0.000
REMARK SMILES CCOc1cc2nccc(Nc3ccc(C(=O)OCCOCCOCCOC(=O)c4ccc(-c5c6nc(c(-c7c(F)c(F)c(F)c(F)c7F)c7ccc([nH]7)c(-c7c(F)c(F)c(F)c(F)c7F)c7nc(c(-c8c(F)c(F)c(F)c(F)c8F)c8ccc5[nH]8)C=C7)C=C6)cc4)cc3)c2cc1OCC
REMARK SMILES IDX 22 1 21 2 20 3 19 4 18 5 16 6 17 7 15 8 12 9 13 10 94 11
REMARK SMILES IDX 14 12 93 13 11 14 10 16 4 17 5 18 97 19 6 20 96 21 7 22
REMARK SMILES IDX 95 23 8 24 9 25 3 26 2 27 1 28 98 29 99 30 100 31 23 32
REMARK SMILES IDX 24 33 25 34 26 35 27 36 28 37 29 38 30 39 31 40 92 41 32 42
REMARK SMILES IDX 91 43 33 44 34 45 35 46 85 47 36 48 90 49 84 50 86 51 37 52
REMARK SMILES IDX 89 53 83 54 82 55 38 57 70 58 50 59 69 60 51 61 54 62 68 63
REMARK SMILES IDX 87 64 52 65 53 66 67 68 88 69 55 70 39 71 40 72 48 73 41 74
REMARK SMILES IDX 42 75 46 76 49 77 43 78 44 79 47 80 45 81 71 82 72 83 80 84
REMARK SMILES IDX 73 85 74 86 78 87 81 88 75 89 76 90 79 91 77 92 56 93 57 94
REMARK SMILES IDX 65 95 58 96 59 97 63 98 66 99 60 100 61 101 64 102 62 103
REMARK H PARENT 11 15 86 56 54 67
REMARK Flexibility Score: inf
ROOT
ATOM      1  C   UNL A   1      45.338  18.489  25.412  1.00  0.00     0.188 C 
ENDROOT
BRANCH   1   2
ATOM      2  O   UNL A   1      43.962  18.263  25.131  1.00  0.00    -0.376 OA
BRANCH   2   3
ATOM      3  C   UNL A   1      42.960  18.725  26.030  1.00  0.00     0.202 C 
BRANCH   3   4
ATOM      4  C   UNL A   1      42.470  20.181  25.969  1.00  0.00     0.261 C 
BRANCH   4   5
ATOM      5  O   UNL A   1      41.047  20.346  25.914  1.00  0.00    -0.460 OA
BRANCH   5   6
ATOM      6  C   UNL A   1      40.538  21.210  26.824  1.00  0.00     0.338 C 
ATOM      7  O   UNL A   1      41.033  21.527  27.893  1.00  0.00    -0.246 OA
BRANCH   6   8
ATOM      8  C   UNL A   1      39.343  21.889  26.280  1.00  0.00     0.060 A 
ATOM      9  C   UNL A   1      37.002  23.227  25.536  1.00  0.00     0.038 A 
ATOM     10  C   UNL A   1      38.012  23.906  26.227  1.00  0.00     0.027 A 
ATOM     11  C   UNL A   1      37.218  21.900  25.140  1.00  0.00     0.027 A 
ATOM     12  C   UNL A   1      39.171  23.238  26.610  1.00  0.00     0.018 A 
ATOM     13  C   UNL A   1      38.391  21.229  25.500  1.00  0.00     0.018 A 
BRANCH   9  14
ATOM     14  N   UNL A   1      35.749  23.850  25.404  1.00  0.00    -0.355 N 
ATOM     15  H   UNL A   1      35.382  24.247  26.226  1.00  0.00     0.167 HD
BRANCH  14  16
ATOM     16  C   UNL A   1      34.940  23.984  24.242  1.00  0.00     0.050 A 
ATOM     17  C   UNL A   1      32.457  27.371  23.666  1.00  0.00     0.163 A 
ATOM     18  C   UNL A   1      32.493  26.327  22.733  1.00  0.00     0.079 A 
ATOM     19  C   UNL A   1      33.304  27.326  24.771  1.00  0.00     0.161 A 
ATOM     20  C   UNL A   1      33.329  25.223  22.896  1.00  0.00     0.076 A 
ATOM     21  C   UNL A   1      34.135  26.225  24.951  1.00  0.00     0.063 A 
ATOM     22  N   UNL A   1      33.300  24.249  21.973  1.00  0.00    -0.256 NA
ATOM     23  C   UNL A   1      34.154  25.150  24.043  1.00  0.00     0.028 A 
ATOM     24  C   UNL A   1      34.077  23.162  22.170  1.00  0.00     0.114 A 
ATOM     25  C   UNL A   1      34.897  22.988  23.267  1.00  0.00     0.047 A 
BRANCH  17  26
ATOM     26  O   UNL A   1      31.511  28.357  23.598  1.00  0.00    -0.490 OA
BRANCH  26  27
ATOM     27  C   UNL A   1      30.470  28.141  22.643  1.00  0.00     0.226 C 
ATOM     28  C   UNL A   1      29.213  28.803  23.194  1.00  0.00     0.049 C 
ENDBRANCH  26  27
ENDBRANCH  17  26
BRANCH  19  29
ATOM     29  O   UNL A   1      33.419  28.253  25.768  1.00  0.00    -0.490 OA
BRANCH  29  30
ATOM     30  C   UNL A   1      32.984  27.868  27.071  1.00  0.00     0.226 C 
ATOM     31  C   UNL A   1      31.595  28.383  27.432  1.00  0.00     0.049 C 
ENDBRANCH  29  30
ENDBRANCH  19  29
ENDBRANCH  14  16
ENDBRANCH   9  14
ENDBRANCH   6   8
ENDBRANCH   5   6
ENDBRANCH   4   5
ENDBRANCH   3   4
ENDBRANCH   2   3
ENDBRANCH   1   2
BRANCH   1  32
ATOM     32  C   UNL A   1      46.138  19.536  24.608  1.00  0.00     0.188 C 
BRANCH  32  33
ATOM     33  O   UNL A   1      46.361  20.738  25.307  1.00  0.00    -0.376 OA
BRANCH  33  34
ATOM     34  C   UNL A   1      45.725  21.923  24.860  1.00  0.00     0.202 C 
BRANCH  34  35
ATOM     35  C   UNL A   1      44.993  22.900  25.804  1.00  0.00     0.261 C 
BRANCH  35  36
ATOM     36  O   UNL A   1      44.134  23.888  25.222  1.00  0.00    -0.460 OA
BRANCH  36  37
ATOM     37  C   UNL A   1      44.575  25.166  25.231  1.00  0.00     0.338 C 
ATOM     38  O   UNL A   1      45.394  25.670  24.488  1.00  0.00    -0.246 OA
BRANCH  37  39
ATOM     39  C   UNL A   1      43.764  25.929  26.205  1.00  0.00     0.060 A 
ATOM     40  C   UNL A   1      44.098  27.264  26.456  1.00  0.00     0.016 A 
ATOM     41  C   UNL A   1      42.706  25.324  26.888  1.00  0.00     0.016 A 
ATOM     42  C   UNL A   1      43.396  27.990  27.418  1.00  0.00     0.010 A 
ATOM     43  C   UNL A   1      42.011  26.049  27.864  1.00  0.00     0.010 A 
ATOM     44  C   UNL A   1      42.374  27.376  28.158  1.00  0.00    -0.014 A 
BRANCH  44  45
ATOM     45  C   UNL A   1      41.808  28.072  29.340  1.00  0.00     0.031 A 
ATOM     46  C   UNL A   1      42.486  27.906  30.674  1.00  0.00     0.074 A 
ATOM     47  C   UNL A   1      40.733  28.874  29.229  1.00  0.00     0.049 A 
ATOM     48  N   UNL A   1      42.182  28.429  31.836  1.00  0.00    -0.248 NA
ATOM     49  C   UNL A   1      43.669  27.032  30.701  1.00  0.00     0.031 C 
ATOM     50  C   UNL A   1      40.003  29.141  27.992  1.00  0.00     0.029 A 
ATOM     51  N   UNL A   1      40.069  29.612  30.179  1.00  0.00    -0.354 N 
ATOM     52  C   UNL A   1      43.129  27.944  32.728  1.00  0.00     0.074 A 
ATOM     53  C   UNL A   1      43.999  27.061  31.983  1.00  0.00     0.031 C 
ATOM     54  C   UNL A   1      38.989  29.983  28.258  1.00  0.00     0.029 A 
ATOM     55  C   UNL A   1      38.982  30.292  29.688  1.00  0.00     0.049 A 
ATOM     56  H   UNL A   1      40.346  29.650  31.122  1.00  0.00     0.167 HD
ATOM     57  C   UNL A   1      43.266  28.216  34.048  1.00  0.00     0.037 A 
ATOM     58  C   UNL A   1      38.079  31.064  30.324  1.00  0.00     0.037 A 
ATOM     59  C   UNL A   1      42.403  29.098  34.790  1.00  0.00     0.049 A 
ATOM     60  C   UNL A   1      38.220  31.300  31.808  1.00  0.00     0.074 A 
ATOM     61  C   UNL A   1      42.484  29.465  36.122  1.00  0.00     0.029 A 
ATOM     62  N   UNL A   1      41.292  29.741  34.265  1.00  0.00    -0.354 N 
ATOM     63  N   UNL A   1      39.149  30.879  32.633  1.00  0.00    -0.248 NA
ATOM     64  C   UNL A   1      37.187  32.129  32.447  1.00  0.00     0.031 C 
ATOM     65  C   UNL A   1      41.388  30.281  36.419  1.00  0.00     0.029 A 
ATOM     66  C   UNL A   1      40.660  30.476  35.256  1.00  0.00     0.049 A 
ATOM     67  H   UNL A   1      40.996  29.684  33.329  1.00  0.00     0.167 HD
ATOM     68  C   UNL A   1      38.832  31.418  33.875  1.00  0.00     0.074 A 
ATOM     69  C   UNL A   1      37.636  32.212  33.691  1.00  0.00     0.031 C 
ATOM     70  C   UNL A   1      39.475  31.271  35.060  1.00  0.00     0.037 A 
BRANCH  57  71
ATOM     71  C   UNL A   1      44.378  27.530  34.787  1.00  0.00     0.064 A 
ATOM     72  C   UNL A   1      44.188  26.301  35.438  1.00  0.00     0.173 A 
ATOM     73  C   UNL A   1      45.664  28.091  34.809  1.00  0.00     0.173 A 
ATOM     74  F   UNL A   1      42.975  25.728  35.458  1.00  0.00    -0.203 F 
ATOM     75  C   UNL A   1      45.239  25.671  36.100  1.00  0.00     0.198 A 
ATOM     76  C   UNL A   1      46.719  27.444  35.447  1.00  0.00     0.198 A 
ATOM     77  F   UNL A   1      45.901  29.262  34.200  1.00  0.00    -0.203 F 
ATOM     78  F   UNL A   1      45.024  24.519  36.751  1.00  0.00    -0.200 F 
ATOM     79  C   UNL A   1      46.505  26.238  36.097  1.00  0.00     0.200 A 
ATOM     80  F   UNL A   1      47.944  27.986  35.430  1.00  0.00    -0.200 F 
ATOM     81  F   UNL A   1      47.517  25.626  36.726  1.00  0.00    -0.200 F 
ENDBRANCH  57  71
BRANCH  58  82
ATOM     82  C   UNL A   1      36.952  31.677  29.572  1.00  0.00     0.064 A 
ATOM     83  C   UNL A   1      36.924  33.053  29.301  1.00  0.00     0.173 A 
ATOM     84  C   UNL A   1      35.854  30.910  29.153  1.00  0.00     0.173 A 
ATOM     85  F   UNL A   1      37.935  33.835  29.708  1.00  0.00    -0.203 F 
ATOM     86  C   UNL A   1      35.832  33.642  28.666  1.00  0.00     0.198 A 
ATOM     87  C   UNL A   1      34.777  31.494  28.489  1.00  0.00     0.198 A 
ATOM     88  F   UNL A   1      35.826  29.590  29.392  1.00  0.00    -0.203 F 
ATOM     89  F   UNL A   1      35.804  34.968  28.477  1.00  0.00    -0.200 F 
ATOM     90  C   UNL A   1      34.762  32.860  28.256  1.00  0.00     0.200 A 
ATOM     91  F   UNL A   1      33.749  30.735  28.087  1.00  0.00    -0.200 F 
ATOM     92  F   UNL A   1      33.709  33.427  27.650  1.00  0.00    -0.200 F 
ENDBRANCH  58  82
BRANCH  70  93
ATOM     93  C   UNL A   1      38.926  32.022  36.242  1.00  0.00     0.064 A 
ATOM     94  C   UNL A   1      38.048  31.423  37.158  1.00  0.00     0.173 A 
ATOM     95  C   UNL A   1      39.302  33.354  36.474  1.00  0.00     0.173 A 
ATOM     96  F   UNL A   1      37.646  30.155  36.979  1.00  0.00    -0.203 F 
ATOM     97  C   UNL A   1      37.538  32.140  38.238  1.00  0.00     0.198 A 
ATOM     98  C   UNL A   1      38.818  34.058  37.573  1.00  0.00     0.198 A 
ATOM     99  F   UNL A   1      40.148  33.974  35.636  1.00  0.00    -0.203 F 
ATOM    100  F   UNL A   1      36.652  31.565  39.063  1.00  0.00    -0.200 F 
ATOM    101  C   UNL A   1      37.929  33.455  38.448  1.00  0.00     0.200 A 
ATOM    102  F   UNL A   1      39.211  35.321  37.784  1.00  0.00    -0.200 F 
ATOM    103  F   UNL A   1      37.439  34.142  39.488  1.00  0.00    -0.200 F 
ENDBRANCH  70  93
ENDBRANCH  44  45
ENDBRANCH  37  39
ENDBRANCH  36  37
ENDBRANCH  35  36
ENDBRANCH  34  35
ENDBRANCH  33  34
ENDBRANCH  32  33
ENDBRANCH   1  32
TORSDOF 23
ENDMDL
MODEL 2
REMARK VINA RESULT:     -10.5      1.196      2.168
REMARK SMILES CCOc1cc2nccc(Nc3ccc(C(=O)OCCOCCOCCOC(=O)c4ccc(-c5c6nc(c(-c7c(F)c(F)c(F)c(F)c7F)c7ccc([nH]7)c(-c7c(F)c(F)c(F)c(F)c7F)c7nc(c(-c8c(F)c(F)c(F)c(F)c8F)c8ccc5[nH]8)C=C7)C=C6)cc4)cc3)c2cc1OCC
REMARK SMILES IDX 22 1 21 2 20 3 19 4 18 5 16 6 17 7 15 8 12 9 13 10 94 11
REMARK SMILES IDX 14 12 93 13 11 14 10 16 4 17 5 18 97 19 6 20 96 21 7 22
REMARK SMILES IDX 95 23 8 24 9 25 3 26 2 27 1 28 98 29 99 30 100 31 23 32
REMARK SMILES IDX 24 33 25 34 26 35 27 36 28 37 29 38 30 39 31 40 92 41 32 42
REMARK SMILES IDX 91 43 33 44 34 45 35 46 85 47 36 48 90 49 84 50 86 51 37 52
REMARK SMILES IDX 89 53 83 54 82 55 38 57 70 58 50 59 69 60 51 61 54 62 68 63
REMARK SMILES IDX 87 64 52 65 53 66 67 68 88 69 55 70 39 71 40 72 48 73 41 74
REMARK SMILES IDX 42 75 46 76 49 77 43 78 44 79 47 80 45 81 71 82 72 83 80 84
REMARK SMILES IDX 73 85 74 86 78 87 81 88 75 89 76 90 79 91 77 92 56 93 57 94
REMARK SMILES IDX 65 95 58 96 59 97 63 98 66 99 60 100 61 101 64 102 62 103
REMARK H PARENT 11 15 86 56 54 67
REMARK Flexibility Score: inf
ROOT
ATOM      1  C   UNL A   1      45.387  18.824  25.234  1.00  0.00     0.188 C 
ENDROOT
BRANCH   1   2
ATOM      2  O   UNL A   1      44.221  18.011  25.303  1.00  0.00    -0.376 OA
BRANCH   2   3
ATOM      3  C   UNL A   1      43.095  18.434  26.063  1.00  0.00     0.202 C 
BRANCH   3   4
ATOM      4  C   UNL A   1      42.683  19.914  26.089  1.00  0.00     0.261 C 
BRANCH   4   5
ATOM      5  O   UNL A   1      41.270  20.156  26.110  1.00  0.00    -0.460 OA
BRANCH   5   6
ATOM      6  C   UNL A   1      40.861  21.069  27.023  1.00  0.00     0.338 C 
ATOM      7  O   UNL A   1      41.400  21.338  28.084  1.00  0.00    -0.246 OA
BRANCH   6   8
ATOM      8  C   UNL A   1      39.731  21.861  26.494  1.00  0.00     0.060 A 
ATOM      9  C   UNL A   1      37.514  23.406  25.775  1.00  0.00     0.038 A 
ATOM     10  C   UNL A   1      38.560  23.974  26.512  1.00  0.00     0.027 A 
ATOM     11  C   UNL A   1      37.635  22.086  25.323  1.00  0.00     0.027 A 
ATOM     12  C   UNL A   1      39.656  23.203  26.882  1.00  0.00     0.018 A 
ATOM     13  C   UNL A   1      38.746  21.311  25.670  1.00  0.00     0.018 A 
BRANCH   9  14
ATOM     14  N   UNL A   1      36.314  24.129  25.653  1.00  0.00    -0.355 N 
ATOM     15  H   UNL A   1      36.379  24.984  25.170  1.00  0.00     0.167 HD
BRANCH  14  16
ATOM     16  C   UNL A   1      35.019  23.791  26.134  1.00  0.00     0.050 A 
ATOM     17  C   UNL A   1      31.692  26.334  25.478  1.00  0.00     0.163 A 
ATOM     18  C   UNL A   1      31.565  25.141  26.200  1.00  0.00     0.079 A 
ATOM     19  C   UNL A   1      32.921  26.658  24.907  1.00  0.00     0.161 A 
ATOM     20  C   UNL A   1      32.646  24.282  26.396  1.00  0.00     0.076 A 
ATOM     21  C   UNL A   1      34.009  25.813  25.103  1.00  0.00     0.063 A 
ATOM     22  N   UNL A   1      32.460  23.163  27.115  1.00  0.00    -0.256 NA
ATOM     23  C   UNL A   1      33.908  24.631  25.860  1.00  0.00     0.028 A 
ATOM     24  C   UNL A   1      33.525  22.366  27.339  1.00  0.00     0.114 A 
ATOM     25  C   UNL A   1      34.800  22.633  26.879  1.00  0.00     0.047 A 
BRANCH  17  26
ATOM     26  O   UNL A   1      30.685  27.258  25.443  1.00  0.00    -0.490 OA
BRANCH  26  27
ATOM     27  C   UNL A   1      29.987  27.356  24.198  1.00  0.00     0.226 C 
ATOM     28  C   UNL A   1      29.493  25.957  23.851  1.00  0.00     0.049 C 
ENDBRANCH  26  27
ENDBRANCH  17  26
BRANCH  19  29
ATOM     29  O   UNL A   1      33.227  27.761  24.161  1.00  0.00    -0.490 OA
BRANCH  29  30
ATOM     30  C   UNL A   1      33.013  27.678  22.753  1.00  0.00     0.226 C 
ATOM     31  C   UNL A   1      34.117  28.325  21.925  1.00  0.00     0.049 C 
ENDBRANCH  29  30
ENDBRANCH  19  29
ENDBRANCH  14  16
ENDBRANCH   9  14
ENDBRANCH   6   8
ENDBRANCH   5   6
ENDBRANCH   4   5
ENDBRANCH   3   4
ENDBRANCH   2   3
ENDBRANCH   1   2
BRANCH   1  32
ATOM     32  C   UNL A   1      45.509  19.929  24.162  1.00  0.00     0.188 C 
BRANCH  32  33
ATOM     33  O   UNL A   1      46.241  21.054  24.587  1.00  0.00    -0.376 OA
BRANCH  33  34
ATOM     34  C   UNL A   1      45.864  22.338  24.121  1.00  0.00     0.202 C 
BRANCH  34  35
ATOM     35  C   UNL A   1      46.120  23.636  24.913  1.00  0.00     0.261 C 
BRANCH  35  36
ATOM     36  O   UNL A   1      45.172  24.703  24.789  1.00  0.00    -0.460 OA
BRANCH  36  37
ATOM     37  C   UNL A   1      45.620  25.955  25.037  1.00  0.00     0.338 C 
ATOM     38  O   UNL A   1      46.524  26.540  24.475  1.00  0.00    -0.246 OA
BRANCH  37  39
ATOM     39  C   UNL A   1      44.708  26.587  26.016  1.00  0.00     0.060 A 
ATOM     40  C   UNL A   1      44.772  27.974  26.192  1.00  0.00     0.016 A 
ATOM     41  C   UNL A   1      43.824  25.817  26.775  1.00  0.00     0.016 A 
ATOM     42  C   UNL A   1      43.973  28.593  27.155  1.00  0.00     0.010 A 
ATOM     43  C   UNL A   1      43.034  26.437  27.751  1.00  0.00     0.010 A 
ATOM     44  C   UNL A   1      43.129  27.823  27.969  1.00  0.00    -0.014 A 
BRANCH  44  45
ATOM     45  C   UNL A   1      42.477  28.452  29.146  1.00  0.00     0.031 A 
ATOM     46  C   UNL A   1      43.187  28.416  30.473  1.00  0.00     0.074 A 
ATOM     47  C   UNL A   1      41.294  29.082  29.035  1.00  0.00     0.049 A 
ATOM     48  N   UNL A   1      42.822  28.911  31.629  1.00  0.00    -0.248 NA
ATOM     49  C   UNL A   1      44.488  27.727  30.500  1.00  0.00     0.031 C 
ATOM     50  C   UNL A   1      40.519  29.213  27.803  1.00  0.00     0.029 A 
ATOM     51  N   UNL A   1      40.539  29.732  29.980  1.00  0.00    -0.354 N 
ATOM     52  C   UNL A   1      43.840  28.590  32.517  1.00  0.00     0.074 A 
ATOM     53  C   UNL A   1      44.824  27.831  31.776  1.00  0.00     0.031 C 
ATOM     54  C   UNL A   1      39.394  29.900  28.068  1.00  0.00     0.029 A 
ATOM     55  C   UNL A   1      39.356  30.233  29.491  1.00  0.00     0.049 A 
ATOM     56  H   UNL A   1      40.817  29.830  30.919  1.00  0.00     0.167 HD
ATOM     57  C   UNL A   1      43.950  28.906  33.830  1.00  0.00     0.037 A 
ATOM     58  C   UNL A   1      38.356  30.876  30.126  1.00  0.00     0.037 A 
ATOM     59  C   UNL A   1      42.973  29.665  34.567  1.00  0.00     0.049 A 
ATOM     60  C   UNL A   1      38.477  31.160  31.603  1.00  0.00     0.074 A 
ATOM     61  C   UNL A   1      43.013  30.067  35.891  1.00  0.00     0.029 A 
ATOM     62  N   UNL A   1      41.773  30.125  34.046  1.00  0.00    -0.354 N 
ATOM     63  N   UNL A   1      39.466  30.898  32.423  1.00  0.00    -0.248 NA
ATOM     64  C   UNL A   1      37.338  31.839  32.241  1.00  0.00     0.031 C 
ATOM     65  C   UNL A   1      41.811  30.717  36.188  1.00  0.00     0.029 A 
ATOM     66  C   UNL A   1      41.049  30.778  35.031  1.00  0.00     0.049 A 
ATOM     67  H   UNL A   1      41.478  30.006  33.115  1.00  0.00     0.167 HD
ATOM     68  C   UNL A   1      39.087  31.410  33.659  1.00  0.00     0.074 A 
ATOM     69  C   UNL A   1      37.784  32.013  33.477  1.00  0.00     0.031 C 
ATOM     70  C   UNL A   1      39.757  31.384  34.837  1.00  0.00     0.037 A 
BRANCH  57  71
ATOM     71  C   UNL A   1      45.159  28.409  34.566  1.00  0.00     0.064 A 
ATOM     72  C   UNL A   1      46.357  29.140  34.606  1.00  0.00     0.173 A 
ATOM     73  C   UNL A   1      45.105  27.201  35.280  1.00  0.00     0.173 A 
ATOM     74  F   UNL A   1      46.465  30.294  33.930  1.00  0.00    -0.203 F 
ATOM     75  C   UNL A   1      47.460  28.670  35.313  1.00  0.00     0.198 A 
ATOM     76  C   UNL A   1      46.201  26.749  36.010  1.00  0.00     0.198 A 
ATOM     77  F   UNL A   1      43.984  26.465  35.279  1.00  0.00    -0.203 F 
ATOM     78  F   UNL A   1      48.607  29.363  35.301  1.00  0.00    -0.200 F 
ATOM     79  C   UNL A   1      47.379  27.480  36.021  1.00  0.00     0.200 A 
ATOM     80  F   UNL A   1      46.115  25.607  36.706  1.00  0.00    -0.200 F 
ATOM     81  F   UNL A   1      48.439  27.034  36.709  1.00  0.00    -0.200 F 
ENDBRANCH  57  71
BRANCH  58  82
ATOM     82  C   UNL A   1      37.142  31.299  29.378  1.00  0.00     0.064 A 
ATOM     83  C   UNL A   1      36.924  32.645  29.052  1.00  0.00     0.173 A 
ATOM     84  C   UNL A   1      36.150  30.374  29.019  1.00  0.00     0.173 A 
ATOM     85  F   UNL A   1      37.828  33.572  29.401  1.00  0.00    -0.203 F 
ATOM     86  C   UNL A   1      35.750  33.054  28.421  1.00  0.00     0.198 A 
ATOM     87  C   UNL A   1      34.991  30.779  28.359  1.00  0.00     0.198 A 
ATOM     88  F   UNL A   1      36.304  29.074  29.312  1.00  0.00    -0.203 F 
ATOM     89  F   UNL A   1      35.540  34.355  28.179  1.00  0.00    -0.200 F 
ATOM     90  C   UNL A   1      34.787  32.120  28.071  1.00  0.00     0.200 A 
ATOM     91  F   UNL A   1      34.067  29.872  28.015  1.00  0.00    -0.200 F 
ATOM     92  F   UNL A   1      33.656  32.513  27.470  1.00  0.00    -0.200 F 
ENDBRANCH  58  82
BRANCH  70  93
ATOM     93  C   UNL A   1      39.115  32.068  36.013  1.00  0.00     0.064 A 
ATOM     94  C   UNL A   1      39.335  33.426  36.292  1.00  0.00     0.173 A 
ATOM     95  C   UNL A   1      38.249  31.360  36.860  1.00  0.00     0.173 A 
ATOM     96  F   UNL A   1      40.162  34.148  35.520  1.00  0.00    -0.203 F 
ATOM     97  C   UNL A   1      38.743  34.037  37.395  1.00  0.00     0.198 A 
ATOM     98  C   UNL A   1      37.632  31.982  37.942  1.00  0.00     0.198 A 
ATOM     99  F   UNL A   1      37.994  30.061  36.635  1.00  0.00    -0.203 F 
ATOM    100  F   UNL A   1      39.018  35.318  37.676  1.00  0.00    -0.200 F 
ATOM    101  C   UNL A   1      37.888  33.316  38.215  1.00  0.00     0.200 A 
ATOM    102  F   UNL A   1      36.792  31.289  38.722  1.00  0.00    -0.200 F 
ATOM    103  F   UNL A   1      37.318  33.906  39.275  1.00  0.00    -0.200 F 
ENDBRANCH  70  93
ENDBRANCH  44  45
ENDBRANCH  37  39
ENDBRANCH  36  37
ENDBRANCH  35  36
ENDBRANCH  34  35
ENDBRANCH  33  34
ENDBRANCH  32  33
ENDBRANCH   1  32
TORSDOF 23
ENDMDL
MODEL 3
REMARK VINA RESULT:     -10.3      5.465     11.281
REMARK SMILES CCOc1cc2nccc(Nc3ccc(C(=O)OCCOCCOCCOC(=O)c4ccc(-c5c6nc(c(-c7c(F)c(F)c(F)c(F)c7F)c7ccc([nH]7)c(-c7c(F)c(F)c(F)c(F)c7F)c7nc(c(-c8c(F)c(F)c(F)c(F)c8F)c8ccc5[nH]8)C=C7)C=C6)cc4)cc3)c2cc1OCC
REMARK SMILES IDX 22 1 21 2 20 3 19 4 18 5 16 6 17 7 15 8 12 9 13 10 94 11
REMARK SMILES IDX 14 12 93 13 11 14 10 16 4 17 5 18 97 19 6 20 96 21 7 22
REMARK SMILES IDX 95 23 8 24 9 25 3 26 2 27 1 28 98 29 99 30 100 31 23 32
REMARK SMILES IDX 24 33 25 34 26 35 27 36 28 37 29 38 30 39 31 40 92 41 32 42
REMARK SMILES IDX 91 43 33 44 34 45 35 46 85 47 36 48 90 49 84 50 86 51 37 52
REMARK SMILES IDX 89 53 83 54 82 55 38 57 70 58 50 59 69 60 51 61 54 62 68 63
REMARK SMILES IDX 87 64 52 65 53 66 67 68 88 69 55 70 39 71 40 72 48 73 41 74
REMARK SMILES IDX 42 75 46 76 49 77 43 78 44 79 47 80 45 81 71 82 72 83 80 84
REMARK SMILES IDX 73 85 74 86 78 87 81 88 75 89 76 90 79 91 77 92 56 93 57 94
REMARK SMILES IDX 65 95 58 96 59 97 63 98 66 99 60 100 61 101 64 102 62 103
REMARK H PARENT 11 15 86 56 54 67
REMARK Flexibility Score: inf
ROOT
ATOM      1  C   UNL A   1      33.139  35.985  29.439  1.00  0.00     0.188 C 
ENDROOT
BRANCH   1   2
ATOM      2  O   UNL A   1      34.233  35.222  28.943  1.00  0.00    -0.376 OA
BRANCH   2   3
ATOM      3  C   UNL A   1      34.010  34.159  28.024  1.00  0.00     0.202 C 
BRANCH   3   4
ATOM      4  C   UNL A   1      34.025  32.699  28.502  1.00  0.00     0.261 C 
BRANCH   4   5
ATOM      5  O   UNL A   1      33.680  31.726  27.508  1.00  0.00    -0.460 OA
BRANCH   5   6
ATOM      6  C   UNL A   1      34.321  30.539  27.625  1.00  0.00     0.338 C 
ATOM      7  O   UNL A   1      35.180  30.246  28.441  1.00  0.00    -0.246 OA
BRANCH   6   8
ATOM      8  C   UNL A   1      33.720  29.534  26.723  1.00  0.00     0.060 A 
ATOM      9  C   UNL A   1      32.378  27.587  25.230  1.00  0.00     0.038 A 
ATOM     10  C   UNL A   1      31.732  28.780  25.576  1.00  0.00     0.027 A 
ATOM     11  C   UNL A   1      33.729  27.422  25.559  1.00  0.00     0.027 A 
ATOM     12  C   UNL A   1      32.393  29.742  26.330  1.00  0.00     0.018 A 
ATOM     13  C   UNL A   1      34.409  28.396  26.296  1.00  0.00     0.018 A 
BRANCH   9  14
ATOM     14  N   UNL A   1      31.604  26.536  24.707  1.00  0.00    -0.355 N 
ATOM     15  H   UNL A   1      31.333  26.633  23.766  1.00  0.00     0.167 HD
BRANCH  14  16
ATOM     16  C   UNL A   1      31.161  25.351  25.356  1.00  0.00     0.050 A 
ATOM     17  C   UNL A   1      32.815  21.566  24.400  1.00  0.00     0.163 A 
ATOM     18  C   UNL A   1      31.791  21.695  25.347  1.00  0.00     0.079 A 
ATOM     19  C   UNL A   1      33.346  22.711  23.810  1.00  0.00     0.161 A 
ATOM     20  C   UNL A   1      31.261  22.938  25.692  1.00  0.00     0.076 A 
ATOM     21  C   UNL A   1      32.818  23.956  24.138  1.00  0.00     0.063 A 
ATOM     22  N   UNL A   1      30.268  22.989  26.594  1.00  0.00    -0.256 NA
ATOM     23  C   UNL A   1      31.763  24.099  25.058  1.00  0.00     0.028 A 
ATOM     24  C   UNL A   1      29.729  24.193  26.881  1.00  0.00     0.114 A 
ATOM     25  C   UNL A   1      30.134  25.378  26.299  1.00  0.00     0.047 A 
BRANCH  17  26
ATOM     26  O   UNL A   1      33.205  20.342  23.932  1.00  0.00    -0.490 OA
BRANCH  26  27
ATOM     27  C   UNL A   1      32.610  19.219  24.587  1.00  0.00     0.226 C 
ATOM     28  C   UNL A   1      32.545  18.089  23.567  1.00  0.00     0.049 C 
ENDBRANCH  26  27
ENDBRANCH  17  26
BRANCH  19  29
ATOM     29  O   UNL A   1      34.350  22.782  22.886  1.00  0.00    -0.490 OA
BRANCH  29  30
ATOM     30  C   UNL A   1      35.634  23.199  23.346  1.00  0.00     0.226 C 
ATOM     31  C   UNL A   1      36.325  22.181  24.246  1.00  0.00     0.049 C 
ENDBRANCH  29  30
ENDBRANCH  19  29
ENDBRANCH  14  16
ENDBRANCH   9  14
ENDBRANCH   6   8
ENDBRANCH   5   6
ENDBRANCH   4   5
ENDBRANCH   3   4
ENDBRANCH   2   3
ENDBRANCH   1   2
BRANCH   1  32
ATOM     32  C   UNL A   1      32.797  35.975  30.945  1.00  0.00     0.188 C 
BRANCH  32  33
ATOM     33  O   UNL A   1      33.787  36.566  31.754  1.00  0.00    -0.376 OA
BRANCH  33  34
ATOM     34  C   UNL A   1      34.151  35.933  32.969  1.00  0.00     0.202 C 
BRANCH  34  35
ATOM     35  C   UNL A   1      35.188  34.793  33.053  1.00  0.00     0.261 C 
BRANCH  35  36
ATOM     36  O   UNL A   1      35.600  34.163  31.834  1.00  0.00    -0.460 OA
BRANCH  36  37
ATOM     37  C   UNL A   1      35.676  32.812  31.838  1.00  0.00     0.338 C 
ATOM     38  O   UNL A   1      34.777  32.023  32.049  1.00  0.00    -0.246 OA
BRANCH  37  39
ATOM     39  C   UNL A   1      37.024  32.424  31.368  1.00  0.00     0.060 A 
ATOM     40  C   UNL A   1      37.366  32.670  30.033  1.00  0.00     0.016 A 
ATOM     41  C   UNL A   1      37.929  31.793  32.225  1.00  0.00     0.016 A 
ATOM     42  C   UNL A   1      38.604  32.254  29.542  1.00  0.00     0.010 A 
ATOM     43  C   UNL A   1      39.166  31.364  31.727  1.00  0.00     0.010 A 
ATOM     44  C   UNL A   1      39.496  31.562  30.375  1.00  0.00    -0.014 A 
BRANCH  44  45
ATOM     45  C   UNL A   1      40.692  30.910  29.783  1.00  0.00     0.031 A 
ATOM     46  C   UNL A   1      41.965  31.704  29.661  1.00  0.00     0.074 A 
ATOM     47  C   UNL A   1      40.664  29.622  29.397  1.00  0.00     0.049 A 
ATOM     48  N   UNL A   1      43.133  31.341  29.194  1.00  0.00    -0.248 NA
ATOM     49  C   UNL A   1      41.913  33.098  30.129  1.00  0.00     0.031 C 
ATOM     50  C   UNL A   1      39.506  28.737  29.488  1.00  0.00     0.029 A 
ATOM     51  N   UNL A   1      41.648  28.835  28.849  1.00  0.00    -0.354 N 
ATOM     52  C   UNL A   1      43.950  32.459  29.308  1.00  0.00     0.074 A 
ATOM     53  C   UNL A   1      43.137  33.522  29.858  1.00  0.00     0.031 C 
ATOM     54  C   UNL A   1      39.843  27.527  29.009  1.00  0.00     0.029 A 
ATOM     55  C   UNL A   1      41.233  27.559  28.553  1.00  0.00     0.049 A 
ATOM     56  H   UNL A   1      42.564  29.155  28.682  1.00  0.00     0.167 HD
ATOM     57  C   UNL A   1      45.261  32.586  28.991  1.00  0.00     0.037 A 
ATOM     58  C   UNL A   1      41.897  26.542  27.971  1.00  0.00     0.037 A 
ATOM     59  C   UNL A   1      46.071  31.527  28.447  1.00  0.00     0.049 A 
ATOM     60  C   UNL A   1      43.339  26.731  27.570  1.00  0.00     0.074 A 
ATOM     61  C   UNL A   1      47.418  31.549  28.128  1.00  0.00     0.029 A 
ATOM     62  N   UNL A   1      45.606  30.259  28.130  1.00  0.00    -0.354 N 
ATOM     63  N   UNL A   1      44.117  27.774  27.729  1.00  0.00    -0.248 NA
ATOM     64  C   UNL A   1      43.998  25.591  26.913  1.00  0.00     0.031 C 
ATOM     65  C   UNL A   1      47.754  30.315  27.561  1.00  0.00     0.029 A 
ATOM     66  C   UNL A   1      46.632  29.502  27.588  1.00  0.00     0.049 A 
ATOM     67  H   UNL A   1      44.684  29.945  28.269  1.00  0.00     0.167 HD
ATOM     68  C   UNL A   1      45.360  27.407  27.227  1.00  0.00     0.074 A 
ATOM     69  C   UNL A   1      45.238  26.037  26.775  1.00  0.00     0.031 C 
ATOM     70  C   UNL A   1      46.501  28.136  27.149  1.00  0.00     0.037 A 
BRANCH  57  71
ATOM     71  C   UNL A   1      45.899  33.928  29.198  1.00  0.00     0.064 A 
ATOM     72  C   UNL A   1      46.494  34.287  30.417  1.00  0.00     0.173 A 
ATOM     73  C   UNL A   1      45.955  34.854  28.144  1.00  0.00     0.173 A 
ATOM     74  F   UNL A   1      46.458  33.443  31.460  1.00  0.00    -0.203 F 
ATOM     75  C   UNL A   1      47.100  35.529  30.581  1.00  0.00     0.198 A 
ATOM     76  C   UNL A   1      46.588  36.084  28.303  1.00  0.00     0.198 A 
ATOM     77  F   UNL A   1      45.405  34.561  26.957  1.00  0.00    -0.203 F 
ATOM     78  F   UNL A   1      47.624  35.867  31.768  1.00  0.00    -0.200 F 
ATOM     79  C   UNL A   1      47.154  36.424  29.522  1.00  0.00     0.200 A 
ATOM     80  F   UNL A   1      46.651  36.940  27.274  1.00  0.00    -0.200 F 
ATOM     81  F   UNL A   1      47.746  37.615  29.678  1.00  0.00    -0.200 F 
ENDBRANCH  57  71
BRANCH  58  82
ATOM     82  C   UNL A   1      41.214  25.244  27.721  1.00  0.00     0.064 A 
ATOM     83  C   UNL A   1      41.622  24.073  28.376  1.00  0.00     0.173 A 
ATOM     84  C   UNL A   1      40.173  25.137  26.787  1.00  0.00     0.173 A 
ATOM     85  F   UNL A   1      42.633  24.117  29.256  1.00  0.00    -0.203 F 
ATOM     86  C   UNL A   1      41.036  22.842  28.086  1.00  0.00     0.198 A 
ATOM     87  C   UNL A   1      39.565  23.911  26.521  1.00  0.00     0.198 A 
ATOM     88  F   UNL A   1      39.747  26.225  26.127  1.00  0.00    -0.203 F 
ATOM     89  F   UNL A   1      41.489  21.730  28.680  1.00  0.00    -0.200 F 
ATOM     90  C   UNL A   1      40.005  22.764  27.162  1.00  0.00     0.200 A 
ATOM     91  F   UNL A   1      38.563  23.841  25.634  1.00  0.00    -0.200 F 
ATOM     92  F   UNL A   1      39.445  21.579  26.879  1.00  0.00    -0.200 F 
ENDBRANCH  58  82
BRANCH  70  93
ATOM     93  C   UNL A   1      47.723  27.453  26.597  1.00  0.00     0.064 A 
ATOM     94  C   UNL A   1      48.602  26.729  27.417  1.00  0.00     0.173 A 
ATOM     95  C   UNL A   1      48.004  27.505  25.223  1.00  0.00     0.173 A 
ATOM     96  F   UNL A   1      48.387  26.657  28.739  1.00  0.00    -0.203 F 
ATOM     97  C   UNL A   1      49.736  26.118  26.888  1.00  0.00     0.198 A 
ATOM     98  C   UNL A   1      49.120  26.863  24.692  1.00  0.00     0.198 A 
ATOM     99  F   UNL A   1      47.191  28.174  24.390  1.00  0.00    -0.203 F 
ATOM    100  F   UNL A   1      50.594  25.485  27.701  1.00  0.00    -0.200 F 
ATOM    101  C   UNL A   1      49.990  26.180  25.526  1.00  0.00     0.200 A 
ATOM    102  F   UNL A   1      49.353  26.909  23.374  1.00  0.00    -0.200 F 
ATOM    103  F   UNL A   1      51.081  25.588  25.018  1.00  0.00    -0.200 F 
ENDBRANCH  70  93
ENDBRANCH  44  45
ENDBRANCH  37  39
ENDBRANCH  36  37
ENDBRANCH  35  36
ENDBRANCH  34  35
ENDBRANCH  33  34
ENDBRANCH  32  33
ENDBRANCH   1  32
TORSDOF 23
ENDMDL
