MODEL 1
REMARK VINA RESULT:     -10.5      0.000      0.000
REMARK SMILES C[C@@H]1C[NH+](CC2(C(=O)OCCOCCOCCOC(=O)c3ccc(-c4c5nc(c(-c6c(F)c(F)c(F)c(F)c6F)c6ccc([nH]6)c(-c6c(F)c(F)c(F)c(F)c6F)c6nc(c(-c7c(F)c(F)c(F)c(F)c7F)c7ccc4[nH]7)C=C6)C=C5)cc3)CCCC2)C[C@H]1C
REMARK SMILES IDX 13 1 12 2 11 3 10 4 9 5 7 6 8 7 6 8 84 9 87 10 85 11 86 12
REMARK SMILES IDX 5 13 4 14 1 15 2 16 3 17 89 18 88 19 90 20 14 22 15 23 16 24
REMARK SMILES IDX 17 25 18 26 19 27 20 28 21 29 22 30 83 31 23 32 82 33 24 34
REMARK SMILES IDX 25 35 26 36 76 37 27 38 81 39 75 40 77 41 28 42 80 43 74 44
REMARK SMILES IDX 73 45 29 47 61 48 41 49 60 50 42 51 45 52 59 53 78 54 43 55
REMARK SMILES IDX 44 56 58 58 79 59 46 60 30 61 31 62 39 63 32 64 33 65 37 66
REMARK SMILES IDX 40 67 34 68 35 69 38 70 36 71 62 72 63 73 71 74 64 75 65 76
REMARK SMILES IDX 69 77 72 78 66 79 67 80 70 81 68 82 47 83 48 84 56 85 49 86
REMARK SMILES IDX 50 87 54 88 57 89 51 90 52 91 55 92 53 93
REMARK H PARENT 4 21 77 46 45 57
REMARK Flexibility Score: inf
ROOT
ATOM      1  C   UNL A   1      33.928  32.403  28.048  1.00  0.00     0.188 C 
ENDROOT
BRANCH   1   2
ATOM      2  O   UNL A   1      33.137  31.390  27.444  1.00  0.00    -0.376 OA
BRANCH   2   3
ATOM      3  C   UNL A   1      33.760  30.201  26.965  1.00  0.00     0.202 C 
BRANCH   3   4
ATOM      4  C   UNL A   1      33.045  28.850  27.127  1.00  0.00     0.261 C 
BRANCH   4   5
ATOM      5  O   UNL A   1      32.910  28.073  25.920  1.00  0.00    -0.463 OA
BRANCH   5   6
ATOM      6  C   UNL A   1      31.728  27.432  25.748  1.00  0.00     0.317 C 
ATOM      7  O   UNL A   1      31.040  27.032  26.685  1.00  0.00    -0.251 OA
BRANCH   6   8
ATOM      8  C   UNL A   1      31.309  27.212  24.270  1.00  0.00     0.117 C 
ATOM      9  C   UNL A   1      31.632  28.579  23.618  1.00  0.00     0.025 C 
ATOM     10  C   UNL A   1      29.784  27.033  24.018  1.00  0.00     0.025 C 
ATOM     11  C   UNL A   1      30.296  29.315  23.561  1.00  0.00     0.001 C 
ATOM     12  C   UNL A   1      29.304  28.228  23.211  1.00  0.00     0.001 C 
BRANCH   8  13
ATOM     13  C   UNL A   1      32.160  25.948  23.843  1.00  0.00     0.281 C 
BRANCH  13  14
ATOM     14  N   UNL A   1      32.966  25.077  24.703  1.00  0.00    -0.334 N 
ATOM     15  C   UNL A   1      35.839  23.053  23.526  1.00  0.00     0.014 C 
ATOM     16  C   UNL A   1      34.426  23.543  23.763  1.00  0.00     0.049 C 
ATOM     17  C   UNL A   1      34.372  24.941  24.355  1.00  0.00     0.265 C 
ATOM     18  C   UNL A   1      33.575  22.762  24.760  1.00  0.00     0.049 C 
ATOM     19  C   UNL A   1      32.454  23.763  25.096  1.00  0.00     0.265 C 
ATOM     20  C   UNL A   1      33.050  21.441  24.223  1.00  0.00     0.014 C 
ATOM     21  H   UNL A   1      32.865  25.664  25.530  1.00  0.00     0.348 HD
ENDBRANCH  13  14
ENDBRANCH   8  13
ENDBRANCH   6   8
ENDBRANCH   5   6
ENDBRANCH   4   5
ENDBRANCH   3   4
ENDBRANCH   2   3
ENDBRANCH   1   2
BRANCH   1  22
ATOM     22  C   UNL A   1      33.342  33.811  28.222  1.00  0.00     0.188 C 
BRANCH  22  23
ATOM     23  O   UNL A   1      34.128  34.683  28.998  1.00  0.00    -0.376 OA
BRANCH  23  24
ATOM     24  C   UNL A   1      33.656  35.038  30.287  1.00  0.00     0.202 C 
BRANCH  24  25
ATOM     25  C   UNL A   1      34.239  34.342  31.533  1.00  0.00     0.261 C 
BRANCH  25  26
ATOM     26  O   UNL A   1      35.568  33.803  31.422  1.00  0.00    -0.460 OA
BRANCH  26  27
ATOM     27  C   UNL A   1      35.917  32.815  32.276  1.00  0.00     0.338 C 
ATOM     28  O   UNL A   1      35.330  32.484  33.296  1.00  0.00    -0.246 OA
BRANCH  27  29
ATOM     29  C   UNL A   1      36.993  32.023  31.632  1.00  0.00     0.060 A 
ATOM     30  C   UNL A   1      37.935  31.367  32.440  1.00  0.00     0.016 A 
ATOM     31  C   UNL A   1      37.056  31.901  30.244  1.00  0.00     0.016 A 
ATOM     32  C   UNL A   1      38.953  30.606  31.861  1.00  0.00     0.010 A 
ATOM     33  C   UNL A   1      38.094  31.163  29.663  1.00  0.00     0.010 A 
ATOM     34  C   UNL A   1      39.064  30.536  30.466  1.00  0.00    -0.014 A 
BRANCH  34  35
ATOM     35  C   UNL A   1      40.292  29.977  29.842  1.00  0.00     0.031 A 
ATOM     36  C   UNL A   1      41.467  30.895  29.637  1.00  0.00     0.074 A 
ATOM     37  C   UNL A   1      40.377  28.687  29.472  1.00  0.00     0.049 A 
ATOM     38  N   UNL A   1      42.607  30.672  29.034  1.00  0.00    -0.248 NA
ATOM     39  C   UNL A   1      41.333  32.254  30.186  1.00  0.00     0.031 C 
ATOM     40  C   UNL A   1      39.334  27.681  29.657  1.00  0.00     0.029 A 
ATOM     41  N   UNL A   1      41.394  28.007  28.843  1.00  0.00    -0.354 N 
ATOM     42  C   UNL A   1      43.322  31.857  29.131  1.00  0.00     0.074 A 
ATOM     43  C   UNL A   1      42.475  32.811  29.815  1.00  0.00     0.031 C 
ATOM     44  C   UNL A   1      39.753  26.518  29.128  1.00  0.00     0.029 A 
ATOM     45  C   UNL A   1      41.077  26.706  28.536  1.00  0.00     0.049 A 
ATOM     46  H   UNL A   1      42.265  28.415  28.633  1.00  0.00     0.167 HD
ATOM     47  C   UNL A   1      44.579  32.126  28.703  1.00  0.00     0.037 A 
ATOM     48  C   UNL A   1      41.765  25.788  27.827  1.00  0.00     0.037 A 
ATOM     49  C   UNL A   1      45.419  31.184  28.012  1.00  0.00     0.049 A 
ATOM     50  C   UNL A   1      43.127  26.140  27.277  1.00  0.00     0.074 A 
ATOM     51  C   UNL A   1      46.702  31.365  27.529  1.00  0.00     0.029 A 
ATOM     52  N   UNL A   1      45.055  29.883  27.700  1.00  0.00    -0.354 N 
ATOM     53  N   UNL A   1      43.804  27.258  27.383  1.00  0.00    -0.248 NA
ATOM     54  C   UNL A   1      43.825  25.095  26.513  1.00  0.00     0.031 C 
ATOM     55  C   UNL A   1      47.095  30.192  26.877  1.00  0.00     0.029 A 
ATOM     56  C   UNL A   1      46.083  29.257  27.012  1.00  0.00     0.049 A 
ATOM     57  H   UNL A   1      44.194  29.465  27.932  1.00  0.00     0.167 HD
ATOM     58  C   UNL A   1      45.012  27.041  26.732  1.00  0.00     0.074 A 
ATOM     59  C   UNL A   1      44.986  25.678  26.249  1.00  0.00     0.031 C 
ATOM     60  C   UNL A   1      46.052  27.893  26.548  1.00  0.00     0.037 A 
BRANCH  47  61
ATOM     61  C   UNL A   1      45.119  33.504  28.955  1.00  0.00     0.064 A 
ATOM     62  C   UNL A   1      45.864  33.802  30.106  1.00  0.00     0.173 A 
ATOM     63  C   UNL A   1      44.927  34.527  28.015  1.00  0.00     0.173 A 
ATOM     64  F   UNL A   1      46.063  32.864  31.044  1.00  0.00    -0.203 F 
ATOM     65  C   UNL A   1      46.379  35.079  30.316  1.00  0.00     0.198 A 
ATOM     66  C   UNL A   1      45.471  35.793  28.212  1.00  0.00     0.198 A 
ATOM     67  F   UNL A   1      44.223  34.296  26.897  1.00  0.00    -0.203 F 
ATOM     68  F   UNL A   1      47.049  35.353  31.444  1.00  0.00    -0.200 F 
ATOM     69  C   UNL A   1      46.191  36.070  29.365  1.00  0.00     0.200 A 
ATOM     70  F   UNL A   1      45.299  36.746  27.286  1.00  0.00    -0.200 F 
ATOM     71  F   UNL A   1      46.698  37.295  29.562  1.00  0.00    -0.200 F 
ENDBRANCH  47  61
BRANCH  48  72
ATOM     72  C   UNL A   1      41.170  24.449  27.558  1.00  0.00     0.064 A 
ATOM     73  C   UNL A   1      41.669  23.291  28.172  1.00  0.00     0.173 A 
ATOM     74  C   UNL A   1      40.125  24.295  26.634  1.00  0.00     0.173 A 
ATOM     75  F   UNL A   1      42.689  23.379  29.038  1.00  0.00    -0.203 F 
ATOM     76  C   UNL A   1      41.169  22.030  27.849  1.00  0.00     0.198 A 
ATOM     77  C   UNL A   1      39.601  23.037  26.339  1.00  0.00     0.198 A 
ATOM     78  F   UNL A   1      39.615  25.366  26.010  1.00  0.00    -0.203 F 
ATOM     79  F   UNL A   1      41.714  20.936  28.397  1.00  0.00    -0.200 F 
ATOM     80  C   UNL A   1      40.133  21.905  26.936  1.00  0.00     0.200 A 
ATOM     81  F   UNL A   1      38.594  22.922  25.463  1.00  0.00    -0.200 F 
ATOM     82  F   UNL A   1      39.658  20.693  26.620  1.00  0.00    -0.200 F 
ENDBRANCH  48  72
BRANCH  60  83
ATOM     83  C   UNL A   1      47.268  27.366  25.838  1.00  0.00     0.064 A 
ATOM     84  C   UNL A   1      47.412  27.452  24.445  1.00  0.00     0.173 A 
ATOM     85  C   UNL A   1      48.325  26.801  26.570  1.00  0.00     0.173 A 
ATOM     86  F   UNL A   1      46.428  27.974  23.696  1.00  0.00    -0.203 F 
ATOM     87  C   UNL A   1      48.550  26.961  23.810  1.00  0.00     0.198 A 
ATOM     88  C   UNL A   1      49.477  26.345  25.935  1.00  0.00     0.198 A 
ATOM     89  F   UNL A   1      48.248  26.703  27.906  1.00  0.00    -0.203 F 
ATOM     90  F   UNL A   1      48.638  27.002  22.473  1.00  0.00    -0.200 F 
ATOM     91  C   UNL A   1      49.584  26.415  24.554  1.00  0.00     0.200 A 
ATOM     92  F   UNL A   1      50.483  25.835  26.659  1.00  0.00    -0.200 F 
ATOM     93  F   UNL A   1      50.681  25.951  23.942  1.00  0.00    -0.200 F 
ENDBRANCH  60  83
ENDBRANCH  34  35
ENDBRANCH  27  29
ENDBRANCH  26  27
ENDBRANCH  25  26
ENDBRANCH  24  25
ENDBRANCH  23  24
ENDBRANCH  22  23
ENDBRANCH   1  22
TORSDOF 19
ENDMDL
MODEL 2
REMARK VINA RESULT:     -10.3      4.782      9.279
REMARK SMILES C[C@@H]1C[NH+](CC2(C(=O)OCCOCCOCCOC(=O)c3ccc(-c4c5nc(c(-c6c(F)c(F)c(F)c(F)c6F)c6ccc([nH]6)c(-c6c(F)c(F)c(F)c(F)c6F)c6nc(c(-c7c(F)c(F)c(F)c(F)c7F)c7ccc4[nH]7)C=C6)C=C5)cc3)CCCC2)C[C@H]1C
REMARK SMILES IDX 13 1 12 2 11 3 10 4 9 5 7 6 8 7 6 8 84 9 87 10 85 11 86 12
REMARK SMILES IDX 5 13 4 14 1 15 2 16 3 17 89 18 88 19 90 20 14 22 15 23 16 24
REMARK SMILES IDX 17 25 18 26 19 27 20 28 21 29 22 30 83 31 23 32 82 33 24 34
REMARK SMILES IDX 25 35 26 36 76 37 27 38 81 39 75 40 77 41 28 42 80 43 74 44
REMARK SMILES IDX 73 45 29 47 61 48 41 49 60 50 42 51 45 52 59 53 78 54 43 55
REMARK SMILES IDX 44 56 58 58 79 59 46 60 30 61 31 62 39 63 32 64 33 65 37 66
REMARK SMILES IDX 40 67 34 68 35 69 38 70 36 71 62 72 63 73 71 74 64 75 65 76
REMARK SMILES IDX 69 77 72 78 66 79 67 80 70 81 68 82 47 83 48 84 56 85 49 86
REMARK SMILES IDX 50 87 54 88 57 89 51 90 52 91 55 92 53 93
REMARK H PARENT 4 21 77 46 45 57
REMARK Flexibility Score: inf
ROOT
ATOM      1  C   UNL A   1      30.932  29.693  24.262  1.00  0.00     0.188 C 
ENDROOT
BRANCH   1   2
ATOM      2  O   UNL A   1      29.906  28.817  23.818  1.00  0.00    -0.376 OA
BRANCH   2   3
ATOM      3  C   UNL A   1      30.236  27.490  23.418  1.00  0.00     0.202 C 
BRANCH   3   4
ATOM      4  C   UNL A   1      31.404  27.257  22.446  1.00  0.00     0.261 C 
BRANCH   4   5
ATOM      5  O   UNL A   1      32.632  26.807  23.053  1.00  0.00    -0.463 OA
BRANCH   5   6
ATOM      6  C   UNL A   1      33.112  25.615  22.622  1.00  0.00     0.317 C 
ATOM      7  O   UNL A   1      33.583  25.448  21.499  1.00  0.00    -0.251 OA
BRANCH   6   8
ATOM      8  C   UNL A   1      33.000  24.452  23.646  1.00  0.00     0.117 C 
ATOM      9  C   UNL A   1      32.037  23.469  22.939  1.00  0.00     0.025 C 
ATOM     10  C   UNL A   1      32.272  24.791  24.978  1.00  0.00     0.025 C 
ATOM     11  C   UNL A   1      30.670  23.736  23.565  1.00  0.00     0.001 C 
ATOM     12  C   UNL A   1      30.987  23.981  25.023  1.00  0.00     0.001 C 
BRANCH   8  13
ATOM     13  C   UNL A   1      34.508  24.018  23.857  1.00  0.00     0.281 C 
BRANCH  13  14
ATOM     14  N   UNL A   1      35.028  23.001  24.774  1.00  0.00    -0.334 N 
ATOM     15  C   UNL A   1      33.227  19.895  25.693  1.00  0.00     0.014 C 
ATOM     16  C   UNL A   1      33.624  21.354  25.600  1.00  0.00     0.049 C 
ATOM     17  C   UNL A   1      34.641  21.625  24.504  1.00  0.00     0.265 C 
ATOM     18  C   UNL A   1      34.321  21.964  26.812  1.00  0.00     0.049 C 
ATOM     19  C   UNL A   1      34.976  23.225  26.219  1.00  0.00     0.265 C 
ATOM     20  C   UNL A   1      33.387  22.271  27.972  1.00  0.00     0.014 C 
ATOM     21  H   UNL A   1      36.003  23.147  24.513  1.00  0.00     0.348 HD
ENDBRANCH  13  14
ENDBRANCH   8  13
ENDBRANCH   6   8
ENDBRANCH   5   6
ENDBRANCH   4   5
ENDBRANCH   3   4
ENDBRANCH   2   3
ENDBRANCH   1   2
BRANCH   1  22
ATOM     22  C   UNL A   1      31.776  29.304  25.484  1.00  0.00     0.188 C 
BRANCH  22  23
ATOM     23  O   UNL A   1      32.007  30.350  26.397  1.00  0.00    -0.376 OA
BRANCH  23  24
ATOM     24  C   UNL A   1      31.371  31.595  26.160  1.00  0.00     0.202 C 
BRANCH  24  25
ATOM     25  C   UNL A   1      31.623  32.776  27.117  1.00  0.00     0.261 C 
BRANCH  25  26
ATOM     26  O   UNL A   1      32.993  33.146  27.357  1.00  0.00    -0.460 OA
BRANCH  26  27
ATOM     27  C   UNL A   1      33.226  34.172  28.205  1.00  0.00     0.338 C 
ATOM     28  O   UNL A   1      32.523  35.157  28.378  1.00  0.00    -0.246 OA
BRANCH  27  29
ATOM     29  C   UNL A   1      34.355  33.782  29.084  1.00  0.00     0.060 A 
ATOM     30  C   UNL A   1      35.656  34.185  28.745  1.00  0.00     0.016 A 
ATOM     31  C   UNL A   1      34.130  33.052  30.252  1.00  0.00     0.016 A 
ATOM     32  C   UNL A   1      36.736  33.840  29.561  1.00  0.00     0.010 A 
ATOM     33  C   UNL A   1      35.216  32.682  31.053  1.00  0.00     0.010 A 
ATOM     34  C   UNL A   1      36.527  33.048  30.698  1.00  0.00    -0.014 A 
BRANCH  34  35
ATOM     35  C   UNL A   1      37.683  32.440  31.407  1.00  0.00     0.031 A 
ATOM     36  C   UNL A   1      38.406  31.300  30.741  1.00  0.00     0.074 A 
ATOM     37  C   UNL A   1      38.095  32.885  32.608  1.00  0.00     0.049 A 
ATOM     38  N   UNL A   1      39.377  30.548  31.194  1.00  0.00    -0.248 NA
ATOM     39  C   UNL A   1      37.970  30.963  29.377  1.00  0.00     0.031 C 
ATOM     40  C   UNL A   1      37.515  34.008  33.340  1.00  0.00     0.029 A 
ATOM     41  N   UNL A   1      39.096  32.426  33.430  1.00  0.00    -0.354 N 
ATOM     42  C   UNL A   1      39.666  29.653  30.173  1.00  0.00     0.074 A 
ATOM     43  C   UNL A   1      38.743  29.927  29.093  1.00  0.00     0.031 C 
ATOM     44  C   UNL A   1      38.153  34.134  34.517  1.00  0.00     0.029 A 
ATOM     45  C   UNL A   1      39.160  33.080  34.636  1.00  0.00     0.049 A 
ATOM     46  H   UNL A   1      39.709  31.697  33.179  1.00  0.00     0.167 HD
ATOM     47  C   UNL A   1      40.624  28.696  30.131  1.00  0.00     0.037 A 
ATOM     48  C   UNL A   1      39.920  32.832  35.722  1.00  0.00     0.037 A 
ATOM     49  C   UNL A   1      41.535  28.413  31.209  1.00  0.00     0.049 A 
ATOM     50  C   UNL A   1      40.918  31.698  35.688  1.00  0.00     0.074 A 
ATOM     51  C   UNL A   1      42.533  27.457  31.266  1.00  0.00     0.029 A 
ATOM     52  N   UNL A   1      41.554  29.083  32.423  1.00  0.00    -0.354 N 
ATOM     53  N   UNL A   1      41.195  30.862  34.716  1.00  0.00    -0.248 NA
ATOM     54  C   UNL A   1      41.715  31.478  36.905  1.00  0.00     0.031 C 
ATOM     55  C   UNL A   1      43.120  27.511  32.534  1.00  0.00     0.029 A 
ATOM     56  C   UNL A   1      42.534  28.546  33.243  1.00  0.00     0.049 A 
ATOM     57  H   UNL A   1      40.959  29.829  32.667  1.00  0.00     0.167 HD
ATOM     58  C   UNL A   1      42.214  30.045  35.189  1.00  0.00     0.074 A 
ATOM     59  C   UNL A   1      42.522  30.496  36.529  1.00  0.00     0.031 C 
ATOM     60  C   UNL A   1      42.841  29.012  34.571  1.00  0.00     0.037 A 
BRANCH  47  61
ATOM     61  C   UNL A   1      40.726  27.869  28.882  1.00  0.00     0.064 A 
ATOM     62  C   UNL A   1      39.959  26.707  28.706  1.00  0.00     0.173 A 
ATOM     63  C   UNL A   1      41.565  28.266  27.831  1.00  0.00     0.173 A 
ATOM     64  F   UNL A   1      39.152  26.275  29.687  1.00  0.00    -0.203 F 
ATOM     65  C   UNL A   1      40.045  25.963  27.533  1.00  0.00     0.198 A 
ATOM     66  C   UNL A   1      41.625  27.538  26.647  1.00  0.00     0.198 A 
ATOM     67  F   UNL A   1      42.319  29.370  27.946  1.00  0.00    -0.203 F 
ATOM     68  F   UNL A   1      39.338  24.831  27.405  1.00  0.00    -0.200 F 
ATOM     69  C   UNL A   1      40.870  26.383  26.501  1.00  0.00     0.200 A 
ATOM     70  F   UNL A   1      42.412  27.953  25.645  1.00  0.00    -0.200 F 
ATOM     71  F   UNL A   1      40.942  25.673  25.366  1.00  0.00    -0.200 F 
ENDBRANCH  47  61
BRANCH  48  72
ATOM     72  C   UNL A   1      39.750  33.645  36.959  1.00  0.00     0.064 A 
ATOM     73  C   UNL A   1      38.869  33.252  37.976  1.00  0.00     0.173 A 
ATOM     74  C   UNL A   1      40.427  34.864  37.121  1.00  0.00     0.173 A 
ATOM     75  F   UNL A   1      38.173  32.111  37.856  1.00  0.00    -0.203 F 
ATOM     76  C   UNL A   1      38.646  34.061  39.090  1.00  0.00     0.198 A 
ATOM     77  C   UNL A   1      40.230  35.654  38.252  1.00  0.00     0.198 A 
ATOM     78  F   UNL A   1      41.275  35.294  36.176  1.00  0.00    -0.203 F 
ATOM     79  F   UNL A   1      37.744  33.694  40.011  1.00  0.00    -0.200 F 
ATOM     80  C   UNL A   1      39.330  35.258  39.229  1.00  0.00     0.200 A 
ATOM     81  F   UNL A   1      40.900  36.807  38.386  1.00  0.00    -0.200 F 
ATOM     82  F   UNL A   1      39.109  36.039  40.295  1.00  0.00    -0.200 F 
ENDBRANCH  48  72
BRANCH  60  83
ATOM     83  C   UNL A   1      43.955  28.328  35.314  1.00  0.00     0.064 A 
ATOM     84  C   UNL A   1      45.291  28.740  35.195  1.00  0.00     0.173 A 
ATOM     85  C   UNL A   1      43.675  27.267  36.190  1.00  0.00     0.173 A 
ATOM     86  F   UNL A   1      45.617  29.742  34.364  1.00  0.00    -0.203 F 
ATOM     87  C   UNL A   1      46.306  28.094  35.897  1.00  0.00     0.198 A 
ATOM     88  C   UNL A   1      44.687  26.648  36.919  1.00  0.00     0.198 A 
ATOM     89  F   UNL A   1      42.414  26.838  36.353  1.00  0.00    -0.203 F 
ATOM     90  F   UNL A   1      47.581  28.468  35.722  1.00  0.00    -0.200 F 
ATOM     91  C   UNL A   1      46.004  27.054  36.763  1.00  0.00     0.200 A 
ATOM     92  F   UNL A   1      44.389  25.656  37.769  1.00  0.00    -0.200 F 
ATOM     93  F   UNL A   1      46.981  26.440  37.442  1.00  0.00    -0.200 F 
ENDBRANCH  60  83
ENDBRANCH  34  35
ENDBRANCH  27  29
ENDBRANCH  26  27
ENDBRANCH  25  26
ENDBRANCH  24  25
ENDBRANCH  23  24
ENDBRANCH  22  23
ENDBRANCH   1  22
TORSDOF 19
ENDMDL
MODEL 3
REMARK VINA RESULT:     -10.3      3.530      9.074
REMARK SMILES C[C@@H]1C[NH+](CC2(C(=O)OCCOCCOCCOC(=O)c3ccc(-c4c5nc(c(-c6c(F)c(F)c(F)c(F)c6F)c6ccc([nH]6)c(-c6c(F)c(F)c(F)c(F)c6F)c6nc(c(-c7c(F)c(F)c(F)c(F)c7F)c7ccc4[nH]7)C=C6)C=C5)cc3)CCCC2)C[C@H]1C
REMARK SMILES IDX 13 1 12 2 11 3 10 4 9 5 7 6 8 7 6 8 84 9 87 10 85 11 86 12
REMARK SMILES IDX 5 13 4 14 1 15 2 16 3 17 89 18 88 19 90 20 14 22 15 23 16 24
REMARK SMILES IDX 17 25 18 26 19 27 20 28 21 29 22 30 83 31 23 32 82 33 24 34
REMARK SMILES IDX 25 35 26 36 76 37 27 38 81 39 75 40 77 41 28 42 80 43 74 44
REMARK SMILES IDX 73 45 29 47 61 48 41 49 60 50 42 51 45 52 59 53 78 54 43 55
REMARK SMILES IDX 44 56 58 58 79 59 46 60 30 61 31 62 39 63 32 64 33 65 37 66
REMARK SMILES IDX 40 67 34 68 35 69 38 70 36 71 62 72 63 73 71 74 64 75 65 76
REMARK SMILES IDX 69 77 72 78 66 79 67 80 70 81 68 82 47 83 48 84 56 85 49 86
REMARK SMILES IDX 50 87 54 88 57 89 51 90 52 91 55 92 53 93
REMARK H PARENT 4 21 77 46 45 57
REMARK Flexibility Score: inf
ROOT
ATOM      1  C   UNL A   1      35.366  21.355  25.619  1.00  0.00     0.188 C 
ENDROOT
BRANCH   1   2
ATOM      2  O   UNL A   1      35.435  22.424  26.551  1.00  0.00    -0.376 OA
BRANCH   2   3
ATOM      3  C   UNL A   1      34.391  22.597  27.505  1.00  0.00     0.202 C 
BRANCH   3   4
ATOM      4  C   UNL A   1      32.941  22.265  27.114  1.00  0.00     0.261 C 
BRANCH   4   5
ATOM      5  O   UNL A   1      32.421  23.000  25.988  1.00  0.00    -0.463 OA
BRANCH   5   6
ATOM      6  C   UNL A   1      31.705  24.114  26.279  1.00  0.00     0.317 C 
ATOM      7  O   UNL A   1      31.055  24.241  27.315  1.00  0.00    -0.251 OA
BRANCH   6   8
ATOM      8  C   UNL A   1      31.741  25.221  25.191  1.00  0.00     0.117 C 
ATOM      9  C   UNL A   1      30.342  25.102  24.540  1.00  0.00     0.025 C 
ATOM     10  C   UNL A   1      32.722  24.976  24.009  1.00  0.00     0.025 C 
ATOM     11  C   UNL A   1      30.565  24.283  23.271  1.00  0.00     0.001 C 
ATOM     12  C   UNL A   1      31.892  24.788  22.750  1.00  0.00     0.001 C 
BRANCH   8  13
ATOM     13  C   UNL A   1      32.083  26.525  26.022  1.00  0.00     0.281 C 
BRANCH  13  14
ATOM     14  N   UNL A   1      32.333  27.874  25.509  1.00  0.00    -0.334 N 
ATOM     15  C   UNL A   1      30.839  29.243  22.407  1.00  0.00     0.014 C 
ATOM     16  C   UNL A   1      31.702  28.434  23.351  1.00  0.00     0.049 C 
ATOM     17  C   UNL A   1      31.237  28.511  24.796  1.00  0.00     0.265 C 
ATOM     18  C   UNL A   1      33.164  28.845  23.485  1.00  0.00     0.049 C 
ATOM     19  C   UNL A   1      33.582  28.168  24.803  1.00  0.00     0.265 C 
ATOM     20  C   UNL A   1      34.032  28.434  22.306  1.00  0.00     0.014 C 
ATOM     21  H   UNL A   1      32.440  28.294  26.432  1.00  0.00     0.348 HD
ENDBRANCH  13  14
ENDBRANCH   8  13
ENDBRANCH   6   8
ENDBRANCH   5   6
ENDBRANCH   4   5
ENDBRANCH   3   4
ENDBRANCH   2   3
ENDBRANCH   1   2
BRANCH   1  22
ATOM     22  C   UNL A   1      36.611  20.992  24.798  1.00  0.00     0.188 C 
BRANCH  22  23
ATOM     23  O   UNL A   1      37.667  21.918  24.890  1.00  0.00    -0.376 OA
BRANCH  23  24
ATOM     24  C   UNL A   1      38.811  21.553  25.644  1.00  0.00     0.202 C 
BRANCH  24  25
ATOM     25  C   UNL A   1      39.389  20.130  25.517  1.00  0.00     0.261 C 
BRANCH  25  26
ATOM     26  O   UNL A   1      40.322  19.708  26.529  1.00  0.00    -0.460 OA
BRANCH  26  27
ATOM     27  C   UNL A   1      41.620  19.587  26.173  1.00  0.00     0.338 C 
ATOM     28  O   UNL A   1      42.114  18.707  25.483  1.00  0.00    -0.246 OA
BRANCH  27  29
ATOM     29  C   UNL A   1      42.309  20.846  26.548  1.00  0.00     0.060 A 
ATOM     30  C   UNL A   1      42.380  21.208  27.903  1.00  0.00     0.016 A 
ATOM     31  C   UNL A   1      42.908  21.648  25.577  1.00  0.00     0.016 A 
ATOM     32  C   UNL A   1      43.032  22.383  28.285  1.00  0.00     0.010 A 
ATOM     33  C   UNL A   1      43.534  22.840  25.958  1.00  0.00     0.010 A 
ATOM     34  C   UNL A   1      43.575  23.229  27.310  1.00  0.00    -0.014 A 
BRANCH  34  35
ATOM     35  C   UNL A   1      44.011  24.603  27.671  1.00  0.00     0.031 A 
ATOM     36  C   UNL A   1      42.953  25.620  28.005  1.00  0.00     0.074 A 
ATOM     37  C   UNL A   1      45.310  24.948  27.716  1.00  0.00     0.049 A 
ATOM     38  N   UNL A   1      43.072  26.898  28.258  1.00  0.00    -0.248 NA
ATOM     39  C   UNL A   1      41.568  25.123  28.056  1.00  0.00     0.031 C 
ATOM     40  C   UNL A   1      46.434  24.051  27.463  1.00  0.00     0.029 A 
ATOM     41  N   UNL A   1      45.898  26.163  27.975  1.00  0.00    -0.354 N 
ATOM     42  C   UNL A   1      41.784  27.356  28.498  1.00  0.00     0.074 A 
ATOM     43  C   UNL A   1      40.892  26.230  28.321  1.00  0.00     0.031 C 
ATOM     44  C   UNL A   1      47.578  24.753  27.553  1.00  0.00     0.029 A 
ATOM     45  C   UNL A   1      47.265  26.153  27.834  1.00  0.00     0.049 A 
ATOM     46  H   UNL A   1      45.389  26.964  28.238  1.00  0.00     0.167 HD
ATOM     47  C   UNL A   1      41.379  28.600  28.849  1.00  0.00     0.037 A 
ATOM     48  C   UNL A   1      48.152  27.167  27.890  1.00  0.00     0.037 A 
ATOM     49  C   UNL A   1      42.261  29.725  29.013  1.00  0.00     0.049 A 
ATOM     50  C   UNL A   1      47.667  28.566  28.190  1.00  0.00     0.074 A 
ATOM     51  C   UNL A   1      41.945  31.027  29.356  1.00  0.00     0.029 A 
ATOM     52  N   UNL A   1      43.637  29.680  28.839  1.00  0.00    -0.354 N 
ATOM     53  N   UNL A   1      46.449  28.991  28.427  1.00  0.00    -0.248 NA
ATOM     54  C   UNL A   1      48.685  29.627  28.236  1.00  0.00     0.031 C 
ATOM     55  C   UNL A   1      43.121  31.783  29.337  1.00  0.00     0.029 A 
ATOM     56  C   UNL A   1      44.180  30.938  29.049  1.00  0.00     0.049 A 
ATOM     57  H   UNL A   1      44.151  28.874  28.602  1.00  0.00     0.167 HD
ATOM     58  C   UNL A   1      46.559  30.352  28.682  1.00  0.00     0.074 A 
ATOM     59  C   UNL A   1      47.964  30.681  28.589  1.00  0.00     0.031 C 
ATOM     60  C   UNL A   1      45.584  31.252  28.967  1.00  0.00     0.037 A 
BRANCH  47  61
ATOM     61  C   UNL A   1      39.908  28.817  29.062  1.00  0.00     0.064 A 
ATOM     62  C   UNL A   1      39.315  28.643  30.322  1.00  0.00     0.173 A 
ATOM     63  C   UNL A   1      39.091  29.248  28.007  1.00  0.00     0.173 A 
ATOM     64  F   UNL A   1      40.050  28.217  31.361  1.00  0.00    -0.203 F 
ATOM     65  C   UNL A   1      37.955  28.870  30.511  1.00  0.00     0.198 A 
ATOM     66  C   UNL A   1      37.738  29.506  28.207  1.00  0.00     0.198 A 
ATOM     67  F   UNL A   1      39.607  29.432  26.782  1.00  0.00    -0.203 F 
ATOM     68  F   UNL A   1      37.401  28.653  31.713  1.00  0.00    -0.200 F 
ATOM     69  C   UNL A   1      37.170  29.311  29.457  1.00  0.00     0.200 A 
ATOM     70  F   UNL A   1      36.984  29.945  27.190  1.00  0.00    -0.200 F 
ATOM     71  F   UNL A   1      35.863  29.542  29.644  1.00  0.00    -0.200 F 
ENDBRANCH  47  61
BRANCH  48  72
ATOM     72  C   UNL A   1      49.596  26.915  27.621  1.00  0.00     0.064 A 
ATOM     73  C   UNL A   1      50.096  26.860  26.313  1.00  0.00     0.173 A 
ATOM     74  C   UNL A   1      50.495  26.669  28.671  1.00  0.00     0.173 A 
ATOM     75  F   UNL A   1      49.273  27.055  25.272  1.00  0.00    -0.203 F 
ATOM     76  C   UNL A   1      51.429  26.535  26.063  1.00  0.00     0.198 A 
ATOM     77  C   UNL A   1      51.835  26.380  28.421  1.00  0.00     0.198 A 
ATOM     78  F   UNL A   1      50.069  26.701  29.942  1.00  0.00    -0.203 F 
ATOM     79  F   UNL A   1      51.862  26.417  24.800  1.00  0.00    -0.200 F 
ATOM     80  C   UNL A   1      52.298  26.300  27.117  1.00  0.00     0.200 A 
ATOM     81  F   UNL A   1      52.673  26.163  29.444  1.00  0.00    -0.200 F 
ATOM     82  F   UNL A   1      53.577  25.980  26.877  1.00  0.00    -0.200 F 
ENDBRANCH  48  72
BRANCH  60  83
ATOM     83  C   UNL A   1      46.003  32.668  29.248  1.00  0.00     0.064 A 
ATOM     84  C   UNL A   1      46.078  33.637  28.236  1.00  0.00     0.173 A 
ATOM     85  C   UNL A   1      46.297  33.072  30.561  1.00  0.00     0.173 A 
ATOM     86  F   UNL A   1      45.818  33.304  26.963  1.00  0.00    -0.203 F 
ATOM     87  C   UNL A   1      46.465  34.944  28.522  1.00  0.00     0.198 A 
ATOM     88  C   UNL A   1      46.647  34.389  30.848  1.00  0.00     0.198 A 
ATOM     89  F   UNL A   1      46.231  32.191  31.571  1.00  0.00    -0.203 F 
ATOM     90  F   UNL A   1      46.584  35.837  27.529  1.00  0.00    -0.200 F 
ATOM     91  C   UNL A   1      46.741  35.321  29.827  1.00  0.00     0.200 A 
ATOM     92  F   UNL A   1      46.895  34.754  32.113  1.00  0.00    -0.200 F 
ATOM     93  F   UNL A   1      47.105  36.581  30.100  1.00  0.00    -0.200 F 
ENDBRANCH  60  83
ENDBRANCH  34  35
ENDBRANCH  27  29
ENDBRANCH  26  27
ENDBRANCH  25  26
ENDBRANCH  24  25
ENDBRANCH  23  24
ENDBRANCH  22  23
ENDBRANCH   1  22
TORSDOF 19
ENDMDL
