MODEL 1
REMARK VINA RESULT:     -11.7      0.000      0.000
REMARK SMILES CC1(C)CC[N@H+](CCOc2ccc(C(=O)OCCOCCOCCOC(=O)c3ccc(-c4c5nc(c(-c6c(F)c(F)c(F)c(F)c6F)c6ccc([nH]6)c(-c6c(F)c(F)c(F)c(F)c6F)c6nc(c(-c7c(F)c(F)c(F)c(F)c7F)c7ccc4[nH]7)C=C6)C=C5)cc3)cc2)C1
REMARK SMILES IDX 20 1 19 2 18 3 17 4 16 5 14 6 15 7 13 8 10 9 11 10 92 11
REMARK SMILES IDX 12 12 91 13 9 14 8 15 7 16 6 17 1 18 2 19 3 20 4 21 93 22
REMARK SMILES IDX 5 23 21 25 22 26 23 27 24 28 25 29 26 30 27 31 28 32 29 33
REMARK SMILES IDX 90 34 30 35 89 36 31 37 32 38 33 39 83 40 34 41 88 42 82 43
REMARK SMILES IDX 84 44 35 45 87 46 81 47 80 48 36 50 68 51 48 52 67 53 49 54
REMARK SMILES IDX 52 55 66 56 85 57 50 58 51 59 65 61 86 62 53 63 37 64 38 65
REMARK SMILES IDX 46 66 39 67 40 68 44 69 47 70 41 71 42 72 45 73 43 74 69 75
REMARK SMILES IDX 70 76 78 77 71 78 72 79 76 80 79 81 73 82 74 83 77 84 75 85
REMARK SMILES IDX 54 86 55 87 63 88 56 89 57 90 61 91 64 92 58 93 59 94 62 95
REMARK SMILES IDX 60 96
REMARK H PARENT 6 24 84 49 52 60
REMARK Flexibility Score: inf
ROOT
ATOM      1  C   UNL A   1      44.059  19.142  24.956  1.00  0.00     0.188 C 
ENDROOT
BRANCH   1   2
ATOM      2  O   UNL A   1      42.727  19.551  25.199  1.00  0.00    -0.376 OA
BRANCH   2   3
ATOM      3  C   UNL A   1      42.154  19.366  26.480  1.00  0.00     0.202 C 
BRANCH   3   4
ATOM      4  C   UNL A   1      41.095  20.342  27.019  1.00  0.00     0.261 C 
BRANCH   4   5
ATOM      5  O   UNL A   1      40.085  20.750  26.081  1.00  0.00    -0.460 OA
BRANCH   5   6
ATOM      6  C   UNL A   1      39.345  21.839  26.417  1.00  0.00     0.338 C 
ATOM      7  O   UNL A   1      39.621  22.635  27.302  1.00  0.00    -0.246 OA
BRANCH   6   8
ATOM      8  C   UNL A   1      38.095  21.956  25.591  1.00  0.00     0.060 A 
ATOM      9  C   UNL A   1      35.422  22.181  24.897  1.00  0.00     0.119 A 
ATOM     10  C   UNL A   1      36.143  23.333  25.206  1.00  0.00     0.047 A 
ATOM     11  C   UNL A   1      36.073  20.989  24.629  1.00  0.00     0.047 A 
ATOM     12  C   UNL A   1      37.496  23.221  25.537  1.00  0.00     0.019 A 
ATOM     13  C   UNL A   1      37.393  20.857  25.057  1.00  0.00     0.019 A 
BRANCH   9  14
ATOM     14  O   UNL A   1      34.062  22.117  25.050  1.00  0.00    -0.488 OA
BRANCH  14  15
ATOM     15  C   UNL A   1      33.644  20.797  25.497  1.00  0.00     0.290 C 
BRANCH  15  16
ATOM     16  C   UNL A   1      33.203  19.840  24.345  1.00  0.00     0.304 C 
BRANCH  16  17
ATOM     17  N   UNL A   1      32.575  18.514  24.576  1.00  0.00    -0.332 N 
ATOM     18  C   UNL A   1      32.727  15.130  25.110  1.00  0.00     0.017 C 
ATOM     19  C   UNL A   1      33.653  16.345  24.945  1.00  0.00     0.019 C 
ATOM     20  C   UNL A   1      35.074  15.953  25.372  1.00  0.00     0.017 C 
ATOM     21  C   UNL A   1      33.618  16.744  23.487  1.00  0.00     0.073 C 
ATOM     22  C   UNL A   1      33.170  17.652  25.623  1.00  0.00     0.268 C 
ATOM     23  C   UNL A   1      32.452  17.699  23.378  1.00  0.00     0.263 C 
ATOM     24  H   UNL A   1      31.663  18.822  24.912  1.00  0.00     0.348 HD
ENDBRANCH  16  17
ENDBRANCH  15  16
ENDBRANCH  14  15
ENDBRANCH   9  14
ENDBRANCH   6   8
ENDBRANCH   5   6
ENDBRANCH   4   5
ENDBRANCH   3   4
ENDBRANCH   2   3
ENDBRANCH   1   2
BRANCH   1  25
ATOM     25  C   UNL A   1      45.241  20.031  25.372  1.00  0.00     0.188 C 
BRANCH  25  26
ATOM     26  O   UNL A   1      46.115  20.589  24.430  1.00  0.00    -0.376 OA
BRANCH  26  27
ATOM     27  C   UNL A   1      46.257  21.993  24.377  1.00  0.00     0.202 C 
BRANCH  27  28
ATOM     28  C   UNL A   1      45.739  22.944  25.478  1.00  0.00     0.261 C 
BRANCH  28  29
ATOM     29  O   UNL A   1      44.981  24.097  25.071  1.00  0.00    -0.460 OA
BRANCH  29  30
ATOM     30  C   UNL A   1      43.632  23.936  25.001  1.00  0.00     0.338 C 
ATOM     31  O   UNL A   1      43.030  23.010  24.473  1.00  0.00    -0.246 OA
BRANCH  30  32
ATOM     32  C   UNL A   1      42.965  24.928  25.880  1.00  0.00     0.060 A 
ATOM     33  C   UNL A   1      43.439  26.252  25.910  1.00  0.00     0.016 A 
ATOM     34  C   UNL A   1      41.892  24.555  26.686  1.00  0.00     0.016 A 
ATOM     35  C   UNL A   1      42.860  27.195  26.764  1.00  0.00     0.010 A 
ATOM     36  C   UNL A   1      41.334  25.491  27.565  1.00  0.00     0.010 A 
ATOM     37  C   UNL A   1      41.835  26.807  27.634  1.00  0.00    -0.014 A 
BRANCH  37  38
ATOM     38  C   UNL A   1      41.430  27.690  28.760  1.00  0.00     0.031 A 
ATOM     39  C   UNL A   1      42.203  27.596  30.050  1.00  0.00     0.074 A 
ATOM     40  C   UNL A   1      40.402  28.551  28.662  1.00  0.00     0.049 A 
ATOM     41  N   UNL A   1      41.980  28.170  31.205  1.00  0.00    -0.248 NA
ATOM     42  C   UNL A   1      43.389  26.723  30.032  1.00  0.00     0.031 C 
ATOM     43  C   UNL A   1      39.602  28.784  27.463  1.00  0.00     0.029 A 
ATOM     44  N   UNL A   1      39.843  29.379  29.607  1.00  0.00    -0.354 N 
ATOM     45  C   UNL A   1      42.985  27.719  32.051  1.00  0.00     0.074 A 
ATOM     46  C   UNL A   1      43.801  26.800  31.287  1.00  0.00     0.031 C 
ATOM     47  C   UNL A   1      38.640  29.679  27.749  1.00  0.00     0.029 A 
ATOM     48  C   UNL A   1      38.732  30.054  29.162  1.00  0.00     0.049 A 
ATOM     49  H   UNL A   1      40.205  29.480  30.518  1.00  0.00     0.167 HD
ATOM     50  C   UNL A   1      43.213  28.045  33.346  1.00  0.00     0.037 A 
ATOM     51  C   UNL A   1      37.874  30.855  29.826  1.00  0.00     0.037 A 
ATOM     52  C   UNL A   1      42.400  28.955  34.109  1.00  0.00     0.049 A 
ATOM     53  C   UNL A   1      38.097  31.135  31.293  1.00  0.00     0.074 A 
ATOM     54  C   UNL A   1      42.557  29.357  35.424  1.00  0.00     0.029 A 
ATOM     55  N   UNL A   1      41.270  29.599  33.628  1.00  0.00    -0.354 N 
ATOM     56  N   UNL A   1      39.058  30.720  32.083  1.00  0.00    -0.248 NA
ATOM     57  C   UNL A   1      37.113  32.000  31.961  1.00  0.00     0.031 C 
ATOM     58  C   UNL A   1      41.488  30.193  35.757  1.00  0.00     0.029 A 
ATOM     59  C   UNL A   1      40.705  30.373  34.629  1.00  0.00     0.049 A 
ATOM     60  H   UNL A   1      40.920  29.517  32.711  1.00  0.00     0.167 HD
ATOM     61  C   UNL A   1      38.818  31.305  33.322  1.00  0.00     0.074 A 
ATOM     62  C   UNL A   1      37.626  32.111  33.178  1.00  0.00     0.031 C 
ATOM     63  C   UNL A   1      39.526  31.188  34.473  1.00  0.00     0.037 A 
BRANCH  50  64
ATOM     64  C   UNL A   1      44.374  27.383  34.034  1.00  0.00     0.064 A 
ATOM     65  C   UNL A   1      45.656  27.953  34.034  1.00  0.00     0.173 A 
ATOM     66  C   UNL A   1      44.193  26.178  34.729  1.00  0.00     0.173 A 
ATOM     67  F   UNL A   1      45.888  29.097  33.372  1.00  0.00    -0.203 F 
ATOM     68  C   UNL A   1      46.719  27.326  34.679  1.00  0.00     0.198 A 
ATOM     69  C   UNL A   1      45.249  25.572  35.403  1.00  0.00     0.198 A 
ATOM     70  F   UNL A   1      42.986  25.592  34.766  1.00  0.00    -0.203 F 
ATOM     71  F   UNL A   1      47.946  27.860  34.621  1.00  0.00    -0.200 F 
ATOM     72  C   UNL A   1      46.512  26.141  35.370  1.00  0.00     0.200 A 
ATOM     73  F   UNL A   1      45.043  24.436  36.084  1.00  0.00    -0.200 F 
ATOM     74  F   UNL A   1      47.534  25.543  35.998  1.00  0.00    -0.200 F 
ENDBRANCH  50  64
BRANCH  51  75
ATOM     75  C   UNL A   1      36.704  31.447  29.120  1.00  0.00     0.064 A 
ATOM     76  C   UNL A   1      36.661  32.815  28.813  1.00  0.00     0.173 A 
ATOM     77  C   UNL A   1      35.589  30.669  28.776  1.00  0.00     0.173 A 
ATOM     78  F   UNL A   1      37.688  33.609  29.150  1.00  0.00    -0.203 F 
ATOM     79  C   UNL A   1      35.540  33.385  28.212  1.00  0.00     0.198 A 
ATOM     80  C   UNL A   1      34.482  31.234  28.144  1.00  0.00     0.198 A 
ATOM     81  F   UNL A   1      35.572  29.357  29.054  1.00  0.00    -0.203 F 
ATOM     82  F   UNL A   1      35.503  34.706  27.986  1.00  0.00    -0.200 F 
ATOM     83  C   UNL A   1      34.455  32.593  27.872  1.00  0.00     0.200 A 
ATOM     84  F   UNL A   1      33.438  30.464  27.810  1.00  0.00    -0.200 F 
ATOM     85  F   UNL A   1      33.376  33.142  27.295  1.00  0.00    -0.200 F 
ENDBRANCH  51  75
BRANCH  63  86
ATOM     86  C   UNL A   1      39.074  31.997  35.658  1.00  0.00     0.064 A 
ATOM     87  C   UNL A   1      38.260  31.456  36.664  1.00  0.00     0.173 A 
ATOM     88  C   UNL A   1      39.504  33.325  35.811  1.00  0.00     0.173 A 
ATOM     89  F   UNL A   1      37.813  30.195  36.566  1.00  0.00    -0.203 F 
ATOM     90  C   UNL A   1      37.869  32.222  37.760  1.00  0.00     0.198 A 
ATOM     91  C   UNL A   1      39.141  34.076  36.925  1.00  0.00     0.198 A 
ATOM     92  F   UNL A   1      40.293  33.892  34.885  1.00  0.00    -0.203 F 
ATOM     93  F   UNL A   1      37.047  31.701  38.681  1.00  0.00    -0.200 F 
ATOM     94  C   UNL A   1      38.315  33.528  37.894  1.00  0.00     0.200 A 
ATOM     95  F   UNL A   1      39.591  35.332  37.061  1.00  0.00    -0.200 F 
ATOM     96  F   UNL A   1      37.946  34.261  38.953  1.00  0.00    -0.200 F 
ENDBRANCH  63  86
ENDBRANCH  37  38
ENDBRANCH  30  32
ENDBRANCH  29  30
ENDBRANCH  28  29
ENDBRANCH  27  28
ENDBRANCH  26  27
ENDBRANCH  25  26
ENDBRANCH   1  25
TORSDOF 21
ENDMDL
MODEL 2
REMARK VINA RESULT:     -11.2      5.012     10.178
REMARK SMILES CC1(C)CC[N@H+](CCOc2ccc(C(=O)OCCOCCOCCOC(=O)c3ccc(-c4c5nc(c(-c6c(F)c(F)c(F)c(F)c6F)c6ccc([nH]6)c(-c6c(F)c(F)c(F)c(F)c6F)c6nc(c(-c7c(F)c(F)c(F)c(F)c7F)c7ccc4[nH]7)C=C6)C=C5)cc3)cc2)C1
REMARK SMILES IDX 20 1 19 2 18 3 17 4 16 5 14 6 15 7 13 8 10 9 11 10 92 11
REMARK SMILES IDX 12 12 91 13 9 14 8 15 7 16 6 17 1 18 2 19 3 20 4 21 93 22
REMARK SMILES IDX 5 23 21 25 22 26 23 27 24 28 25 29 26 30 27 31 28 32 29 33
REMARK SMILES IDX 90 34 30 35 89 36 31 37 32 38 33 39 83 40 34 41 88 42 82 43
REMARK SMILES IDX 84 44 35 45 87 46 81 47 80 48 36 50 68 51 48 52 67 53 49 54
REMARK SMILES IDX 52 55 66 56 85 57 50 58 51 59 65 61 86 62 53 63 37 64 38 65
REMARK SMILES IDX 46 66 39 67 40 68 44 69 47 70 41 71 42 72 45 73 43 74 69 75
REMARK SMILES IDX 70 76 78 77 71 78 72 79 76 80 79 81 73 82 74 83 77 84 75 85
REMARK SMILES IDX 54 86 55 87 63 88 56 89 57 90 61 91 64 92 58 93 59 94 62 95
REMARK SMILES IDX 60 96
REMARK H PARENT 6 24 84 49 52 60
REMARK Flexibility Score: inf
ROOT
ATOM      1  C   UNL A   1      35.504  22.712  24.554  1.00  0.00     0.188 C 
ENDROOT
BRANCH   1   2
ATOM      2  O   UNL A   1      34.885  22.383  25.782  1.00  0.00    -0.376 OA
BRANCH   2   3
ATOM      3  C   UNL A   1      34.233  21.135  25.933  1.00  0.00     0.202 C 
BRANCH   3   4
ATOM      4  C   UNL A   1      33.390  20.542  24.792  1.00  0.00     0.261 C 
BRANCH   4   5
ATOM      5  O   UNL A   1      32.209  21.281  24.437  1.00  0.00    -0.460 OA
BRANCH   5   6
ATOM      6  C   UNL A   1      32.147  21.757  23.166  1.00  0.00     0.338 C 
ATOM      7  O   UNL A   1      32.129  21.071  22.155  1.00  0.00    -0.246 OA
BRANCH   6   8
ATOM      8  C   UNL A   1      32.136  23.259  23.118  1.00  0.00     0.060 A 
ATOM      9  C   UNL A   1      31.492  25.856  22.397  1.00  0.00     0.119 A 
ATOM     10  C   UNL A   1      30.710  25.200  23.347  1.00  0.00     0.047 A 
ATOM     11  C   UNL A   1      32.738  25.365  22.046  1.00  0.00     0.047 A 
ATOM     12  C   UNL A   1      31.048  23.898  23.725  1.00  0.00     0.019 A 
ATOM     13  C   UNL A   1      33.021  24.033  22.340  1.00  0.00     0.019 A 
BRANCH   9  14
ATOM     14  O   UNL A   1      30.991  26.870  21.625  1.00  0.00    -0.488 OA
BRANCH  14  15
ATOM     15  C   UNL A   1      30.650  28.030  22.436  1.00  0.00     0.290 C 
BRANCH  15  16
ATOM     16  C   UNL A   1      31.822  29.042  22.631  1.00  0.00     0.304 C 
BRANCH  16  17
ATOM     17  N   UNL A   1      32.452  29.324  23.946  1.00  0.00    -0.332 N 
ATOM     18  C   UNL A   1      33.845  28.343  26.922  1.00  0.00     0.017 C 
ATOM     19  C   UNL A   1      33.279  27.742  25.625  1.00  0.00     0.019 C 
ATOM     20  C   UNL A   1      33.661  26.258  25.551  1.00  0.00     0.017 C 
ATOM     21  C   UNL A   1      31.778  27.914  25.667  1.00  0.00     0.073 C 
ATOM     22  C   UNL A   1      33.630  28.509  24.325  1.00  0.00     0.268 C 
ATOM     23  C   UNL A   1      31.529  29.279  25.068  1.00  0.00     0.263 C 
ATOM     24  H   UNL A   1      32.779  30.274  23.770  1.00  0.00     0.348 HD
ENDBRANCH  16  17
ENDBRANCH  15  16
ENDBRANCH  14  15
ENDBRANCH   9  14
ENDBRANCH   6   8
ENDBRANCH   5   6
ENDBRANCH   4   5
ENDBRANCH   3   4
ENDBRANCH   2   3
ENDBRANCH   1   2
BRANCH   1  25
ATOM     25  C   UNL A   1      36.978  22.359  24.300  1.00  0.00     0.188 C 
BRANCH  25  26
ATOM     26  O   UNL A   1      37.720  21.584  25.201  1.00  0.00    -0.376 OA
BRANCH  26  27
ATOM     27  C   UNL A   1      37.800  20.188  24.997  1.00  0.00     0.202 C 
BRANCH  27  28
ATOM     28  C   UNL A   1      39.032  19.340  25.383  1.00  0.00     0.261 C 
BRANCH  28  29
ATOM     29  O   UNL A   1      39.917  19.859  26.392  1.00  0.00    -0.460 OA
BRANCH  29  30
ATOM     30  C   UNL A   1      41.239  19.581  26.233  1.00  0.00     0.338 C 
ATOM     31  O   UNL A   1      41.721  18.565  25.748  1.00  0.00    -0.246 OA
BRANCH  30  32
ATOM     32  C   UNL A   1      42.042  20.796  26.509  1.00  0.00     0.060 A 
ATOM     33  C   UNL A   1      42.280  21.179  27.841  1.00  0.00     0.016 A 
ATOM     34  C   UNL A   1      42.543  21.569  25.464  1.00  0.00     0.016 A 
ATOM     35  C   UNL A   1      42.993  22.346  28.129  1.00  0.00     0.010 A 
ATOM     36  C   UNL A   1      43.229  22.755  25.753  1.00  0.00     0.010 A 
ATOM     37  C   UNL A   1      43.430  23.169  27.086  1.00  0.00    -0.014 A 
BRANCH  37  38
ATOM     38  C   UNL A   1      43.897  24.553  27.363  1.00  0.00     0.031 A 
ATOM     39  C   UNL A   1      42.880  25.568  27.816  1.00  0.00     0.074 A 
ATOM     40  C   UNL A   1      45.182  24.919  27.214  1.00  0.00     0.049 A 
ATOM     41  N   UNL A   1      43.011  26.856  28.013  1.00  0.00    -0.248 NA
ATOM     42  C   UNL A   1      41.524  25.056  28.075  1.00  0.00     0.031 C 
ATOM     43  C   UNL A   1      46.278  24.033  26.836  1.00  0.00     0.029 A 
ATOM     44  N   UNL A   1      45.776  26.152  27.350  1.00  0.00    -0.354 N 
ATOM     45  C   UNL A   1      41.757  27.307  28.402  1.00  0.00     0.074 A 
ATOM     46  C   UNL A   1      40.870  26.163  28.385  1.00  0.00     0.031 C 
ATOM     47  C   UNL A   1      47.410  24.754  26.745  1.00  0.00     0.029 A 
ATOM     48  C   UNL A   1      47.111  26.160  27.024  1.00  0.00     0.049 A 
ATOM     49  H   UNL A   1      45.291  26.954  27.651  1.00  0.00     0.167 HD
ATOM     50  C   UNL A   1      41.377  28.560  28.750  1.00  0.00     0.037 A 
ATOM     51  C   UNL A   1      47.980  27.188  26.932  1.00  0.00     0.037 A 
ATOM     52  C   UNL A   1      42.255  29.700  28.763  1.00  0.00     0.049 A 
ATOM     53  C   UNL A   1      47.513  28.591  27.240  1.00  0.00     0.074 A 
ATOM     54  C   UNL A   1      41.966  31.008  29.111  1.00  0.00     0.029 A 
ATOM     55  N   UNL A   1      43.595  29.670  28.404  1.00  0.00    -0.354 N 
ATOM     56  N   UNL A   1      46.331  29.009  27.624  1.00  0.00    -0.248 NA
ATOM     57  C   UNL A   1      48.506  29.666  27.101  1.00  0.00     0.031 C 
ATOM     58  C   UNL A   1      43.111  31.781  28.902  1.00  0.00     0.029 A 
ATOM     59  C   UNL A   1      44.136  30.943  28.495  1.00  0.00     0.049 A 
ATOM     60  H   UNL A   1      44.087  28.865  28.123  1.00  0.00     0.167 HD
ATOM     61  C   UNL A   1      46.451  30.382  27.813  1.00  0.00     0.074 A 
ATOM     62  C   UNL A   1      47.822  30.726  27.509  1.00  0.00     0.031 C 
ATOM     63  C   UNL A   1      45.509  31.275  28.208  1.00  0.00     0.037 A 
BRANCH  50  64
ATOM     64  C   UNL A   1      39.934  28.772  29.113  1.00  0.00     0.064 A 
ATOM     65  C   UNL A   1      39.472  28.618  30.429  1.00  0.00     0.173 A 
ATOM     66  C   UNL A   1      39.008  29.166  28.136  1.00  0.00     0.173 A 
ATOM     67  F   UNL A   1      40.311  28.228  31.399  1.00  0.00    -0.203 F 
ATOM     68  C   UNL A   1      38.131  28.821  30.745  1.00  0.00     0.198 A 
ATOM     69  C   UNL A   1      37.675  29.403  28.463  1.00  0.00     0.198 A 
ATOM     70  F   UNL A   1      39.397  29.334  26.862  1.00  0.00    -0.203 F 
ATOM     71  F   UNL A   1      37.701  28.615  31.998  1.00  0.00    -0.200 F 
ATOM     72  C   UNL A   1      37.236  29.222  29.764  1.00  0.00     0.200 A 
ATOM     73  F   UNL A   1      36.817  29.807  27.515  1.00  0.00    -0.200 F 
ATOM     74  F   UNL A   1      35.948  29.426  30.072  1.00  0.00    -0.200 F 
ENDBRANCH  50  64
BRANCH  51  75
ATOM     75  C   UNL A   1      49.388  26.942  26.516  1.00  0.00     0.064 A 
ATOM     76  C   UNL A   1      49.765  26.999  25.166  1.00  0.00     0.173 A 
ATOM     77  C   UNL A   1      50.377  26.604  27.452  1.00  0.00     0.173 A 
ATOM     78  F   UNL A   1      48.849  27.285  24.228  1.00  0.00    -0.203 F 
ATOM     79  C   UNL A   1      51.067  26.705  24.766  1.00  0.00     0.198 A 
ATOM     80  C   UNL A   1      51.688  26.343  27.055  1.00  0.00     0.198 A 
ATOM     81  F   UNL A   1      50.072  26.526  28.755  1.00  0.00    -0.203 F 
ATOM     82  F   UNL A   1      51.382  26.707  23.463  1.00  0.00    -0.200 F 
ATOM     83  C   UNL A   1      52.029  26.383  25.711  1.00  0.00     0.200 A 
ATOM     84  F   UNL A   1      52.617  26.041  27.972  1.00  0.00    -0.200 F 
ATOM     85  F   UNL A   1      53.281  26.100  25.326  1.00  0.00    -0.200 F 
ENDBRANCH  51  75
BRANCH  63  86
ATOM     86  C   UNL A   1      45.937  32.705  28.399  1.00  0.00     0.064 A 
ATOM     87  C   UNL A   1      45.842  33.655  27.372  1.00  0.00     0.173 A 
ATOM     88  C   UNL A   1      46.406  33.139  29.649  1.00  0.00     0.173 A 
ATOM     89  F   UNL A   1      45.410  33.294  26.155  1.00  0.00    -0.203 F 
ATOM     90  C   UNL A   1      46.231  34.977  27.580  1.00  0.00     0.198 A 
ATOM     91  C   UNL A   1      46.759  34.469  29.864  1.00  0.00     0.198 A 
ATOM     92  F   UNL A   1      46.507  32.276  30.671  1.00  0.00    -0.203 F 
ATOM     93  F   UNL A   1      46.182  35.856  26.569  1.00  0.00    -0.200 F 
ATOM     94  C   UNL A   1      46.681  35.385  28.827  1.00  0.00     0.200 A 
ATOM     95  F   UNL A   1      47.174  34.863  31.076  1.00  0.00    -0.200 F 
ATOM     96  F   UNL A   1      47.045  36.658  29.029  1.00  0.00    -0.200 F 
ENDBRANCH  63  86
ENDBRANCH  37  38
ENDBRANCH  30  32
ENDBRANCH  29  30
ENDBRANCH  28  29
ENDBRANCH  27  28
ENDBRANCH  26  27
ENDBRANCH  25  26
ENDBRANCH   1  25
TORSDOF 21
ENDMDL
MODEL 3
REMARK VINA RESULT:     -11.1      2.702      4.659
REMARK SMILES CC1(C)CC[N@H+](CCOc2ccc(C(=O)OCCOCCOCCOC(=O)c3ccc(-c4c5nc(c(-c6c(F)c(F)c(F)c(F)c6F)c6ccc([nH]6)c(-c6c(F)c(F)c(F)c(F)c6F)c6nc(c(-c7c(F)c(F)c(F)c(F)c7F)c7ccc4[nH]7)C=C6)C=C5)cc3)cc2)C1
REMARK SMILES IDX 20 1 19 2 18 3 17 4 16 5 14 6 15 7 13 8 10 9 11 10 92 11
REMARK SMILES IDX 12 12 91 13 9 14 8 15 7 16 6 17 1 18 2 19 3 20 4 21 93 22
REMARK SMILES IDX 5 23 21 25 22 26 23 27 24 28 25 29 26 30 27 31 28 32 29 33
REMARK SMILES IDX 90 34 30 35 89 36 31 37 32 38 33 39 83 40 34 41 88 42 82 43
REMARK SMILES IDX 84 44 35 45 87 46 81 47 80 48 36 50 68 51 48 52 67 53 49 54
REMARK SMILES IDX 52 55 66 56 85 57 50 58 51 59 65 61 86 62 53 63 37 64 38 65
REMARK SMILES IDX 46 66 39 67 40 68 44 69 47 70 41 71 42 72 45 73 43 74 69 75
REMARK SMILES IDX 70 76 78 77 71 78 72 79 76 80 79 81 73 82 74 83 77 84 75 85
REMARK SMILES IDX 54 86 55 87 63 88 56 89 57 90 61 91 64 92 58 93 59 94 62 95
REMARK SMILES IDX 60 96
REMARK H PARENT 6 24 84 49 52 60
REMARK Flexibility Score: inf
ROOT
ATOM      1  C   UNL A   1      39.448  21.328  25.926  1.00  0.00     0.188 C 
ENDROOT
BRANCH   1   2
ATOM      2  O   UNL A   1      38.253  21.564  25.209  1.00  0.00    -0.376 OA
BRANCH   2   3
ATOM      3  C   UNL A   1      37.001  21.300  25.815  1.00  0.00     0.202 C 
BRANCH   3   4
ATOM      4  C   UNL A   1      35.865  20.637  25.019  1.00  0.00     0.261 C 
BRANCH   4   5
ATOM      5  O   UNL A   1      34.704  21.453  24.786  1.00  0.00    -0.460 OA
BRANCH   5   6
ATOM      6  C   UNL A   1      33.994  21.830  25.881  1.00  0.00     0.338 C 
ATOM      7  O   UNL A   1      33.518  21.070  26.710  1.00  0.00    -0.246 OA
BRANCH   6   8
ATOM      8  C   UNL A   1      33.814  23.320  25.959  1.00  0.00     0.060 A 
ATOM      9  C   UNL A   1      33.010  25.901  25.347  1.00  0.00     0.119 A 
ATOM     10  C   UNL A   1      32.149  25.073  26.066  1.00  0.00     0.047 A 
ATOM     11  C   UNL A   1      34.348  25.578  25.206  1.00  0.00     0.047 A 
ATOM     12  C   UNL A   1      32.563  23.779  26.392  1.00  0.00     0.019 A 
ATOM     13  C   UNL A   1      34.728  24.257  25.437  1.00  0.00     0.019 A 
BRANCH   9  14
ATOM     14  O   UNL A   1      32.543  26.935  24.580  1.00  0.00    -0.488 OA
BRANCH  14  15
ATOM     15  C   UNL A   1      32.137  26.471  23.261  1.00  0.00     0.290 C 
BRANCH  15  16
ATOM     16  C   UNL A   1      31.142  27.422  22.525  1.00  0.00     0.304 C 
BRANCH  16  17
ATOM     17  N   UNL A   1      30.796  28.782  23.011  1.00  0.00    -0.332 N 
ATOM     18  C   UNL A   1      28.563  31.305  23.652  1.00  0.00     0.017 C 
ATOM     19  C   UNL A   1      28.597  29.856  23.142  1.00  0.00     0.019 C 
ATOM     20  C   UNL A   1      27.169  29.296  23.127  1.00  0.00     0.017 C 
ATOM     21  C   UNL A   1      29.182  29.882  21.749  1.00  0.00     0.073 C 
ATOM     22  C   UNL A   1      29.594  28.915  23.866  1.00  0.00     0.268 C 
ATOM     23  C   UNL A   1      30.676  29.776  21.956  1.00  0.00     0.263 C 
ATOM     24  H   UNL A   1      31.612  28.959  23.596  1.00  0.00     0.348 HD
ENDBRANCH  16  17
ENDBRANCH  15  16
ENDBRANCH  14  15
ENDBRANCH   9  14
ENDBRANCH   6   8
ENDBRANCH   5   6
ENDBRANCH   4   5
ENDBRANCH   3   4
ENDBRANCH   2   3
ENDBRANCH   1   2
BRANCH   1  25
ATOM     25  C   UNL A   1      40.065  19.921  25.984  1.00  0.00     0.188 C 
BRANCH  25  26
ATOM     26  O   UNL A   1      41.451  19.719  25.950  1.00  0.00    -0.376 OA
BRANCH  26  27
ATOM     27  C   UNL A   1      42.279  20.529  26.757  1.00  0.00     0.202 C 
BRANCH  27  28
ATOM     28  C   UNL A   1      43.230  21.606  26.192  1.00  0.00     0.261 C 
BRANCH  28  29
ATOM     29  O   UNL A   1      42.705  22.520  25.212  1.00  0.00    -0.460 OA
BRANCH  29  30
ATOM     30  C   UNL A   1      43.364  23.701  25.076  1.00  0.00     0.338 C 
ATOM     31  O   UNL A   1      44.218  23.974  24.241  1.00  0.00    -0.246 OA
BRANCH  30  32
ATOM     32  C   UNL A   1      42.730  24.729  25.937  1.00  0.00     0.060 A 
ATOM     33  C   UNL A   1      43.239  26.040  25.935  1.00  0.00     0.016 A 
ATOM     34  C   UNL A   1      41.653  24.402  26.759  1.00  0.00     0.016 A 
ATOM     35  C   UNL A   1      42.691  27.016  26.772  1.00  0.00     0.010 A 
ATOM     36  C   UNL A   1      41.127  25.372  27.620  1.00  0.00     0.010 A 
ATOM     37  C   UNL A   1      41.663  26.675  27.657  1.00  0.00    -0.014 A 
BRANCH  37  38
ATOM     38  C   UNL A   1      41.290  27.593  28.767  1.00  0.00     0.031 A 
ATOM     39  C   UNL A   1      42.078  27.515  30.048  1.00  0.00     0.074 A 
ATOM     40  C   UNL A   1      40.277  28.471  28.661  1.00  0.00     0.049 A 
ATOM     41  N   UNL A   1      41.881  28.121  31.192  1.00  0.00    -0.248 NA
ATOM     42  C   UNL A   1      43.246  26.619  30.037  1.00  0.00     0.031 C 
ATOM     43  C   UNL A   1      39.466  28.691  27.467  1.00  0.00     0.029 A 
ATOM     44  N   UNL A   1      39.747  29.333  29.592  1.00  0.00    -0.354 N 
ATOM     45  C   UNL A   1      42.888  27.671  32.036  1.00  0.00     0.074 A 
ATOM     46  C   UNL A   1      43.676  26.718  31.284  1.00  0.00     0.031 C 
ATOM     47  C   UNL A   1      38.525  29.611  27.743  1.00  0.00     0.029 A 
ATOM     48  C   UNL A   1      38.643  30.017  29.145  1.00  0.00     0.049 A 
ATOM     49  H   UNL A   1      40.122  29.448  30.495  1.00  0.00     0.167 HD
ATOM     50  C   UNL A   1      43.140  28.024  33.319  1.00  0.00     0.037 A 
ATOM     51  C   UNL A   1      37.809  30.851  29.800  1.00  0.00     0.037 A 
ATOM     52  C   UNL A   1      42.354  28.967  34.070  1.00  0.00     0.049 A 
ATOM     53  C   UNL A   1      38.057  31.162  31.257  1.00  0.00     0.074 A 
ATOM     54  C   UNL A   1      42.537  29.398  35.372  1.00  0.00     0.029 A 
ATOM     55  N   UNL A   1      41.230  29.622  33.588  1.00  0.00    -0.354 N 
ATOM     56  N   UNL A   1      39.020  30.748  32.044  1.00  0.00    -0.248 NA
ATOM     57  C   UNL A   1      37.099  32.062  31.916  1.00  0.00     0.031 C 
ATOM     58  C   UNL A   1      41.488  30.263  35.699  1.00  0.00     0.029 A 
ATOM     59  C   UNL A   1      40.694  30.431  34.577  1.00  0.00     0.049 A 
ATOM     60  H   UNL A   1      40.867  29.524  32.678  1.00  0.00     0.167 HD
ATOM     61  C   UNL A   1      38.808  31.367  33.272  1.00  0.00     0.074 A 
ATOM     62  C   UNL A   1      37.629  32.192  33.123  1.00  0.00     0.031 C 
ATOM     63  C   UNL A   1      39.529  31.264  34.416  1.00  0.00     0.037 A 
BRANCH  50  64
ATOM     64  C   UNL A   1      44.297  27.356  34.008  1.00  0.00     0.064 A 
ATOM     65  C   UNL A   1      44.177  26.086  34.592  1.00  0.00     0.173 A 
ATOM     66  C   UNL A   1      45.551  27.983  34.055  1.00  0.00     0.173 A 
ATOM     67  F   UNL A   1      42.997  25.449  34.589  1.00  0.00    -0.203 F 
ATOM     68  C   UNL A   1      45.262  25.484  35.224  1.00  0.00     0.198 A 
ATOM     69  C   UNL A   1      46.643  27.362  34.655  1.00  0.00     0.198 A 
ATOM     70  F   UNL A   1      45.723  29.196  33.506  1.00  0.00    -0.203 F 
ATOM     71  F   UNL A   1      45.110  24.295  35.822  1.00  0.00    -0.200 F 
ATOM     72  C   UNL A   1      46.495  26.118  35.247  1.00  0.00     0.200 A 
ATOM     73  F   UNL A   1      47.837  27.970  34.661  1.00  0.00    -0.200 F 
ATOM     74  F   UNL A   1      47.540  25.532  35.847  1.00  0.00    -0.200 F 
ENDBRANCH  50  64
BRANCH  51  75
ATOM     75  C   UNL A   1      36.642  31.448  29.095  1.00  0.00     0.064 A 
ATOM     76  C   UNL A   1      36.614  32.813  28.769  1.00  0.00     0.173 A 
ATOM     77  C   UNL A   1      35.514  30.681  28.770  1.00  0.00     0.173 A 
ATOM     78  F   UNL A   1      37.654  33.598  29.088  1.00  0.00    -0.203 F 
ATOM     79  C   UNL A   1      35.496  33.389  28.168  1.00  0.00     0.198 A 
ATOM     80  C   UNL A   1      34.410  31.251  28.139  1.00  0.00     0.198 A 
ATOM     81  F   UNL A   1      35.482  29.373  29.066  1.00  0.00    -0.203 F 
ATOM     82  F   UNL A   1      35.474  34.707  27.924  1.00  0.00    -0.200 F 
ATOM     83  C   UNL A   1      34.398  32.607  27.848  1.00  0.00     0.200 A 
ATOM     84  F   UNL A   1      33.353  30.490  27.823  1.00  0.00    -0.200 F 
ATOM     85  F   UNL A   1      33.322  33.161  27.271  1.00  0.00    -0.200 F 
ENDBRANCH  51  75
BRANCH  63  86
ATOM     86  C   UNL A   1      39.108  32.110  35.587  1.00  0.00     0.064 A 
ATOM     87  C   UNL A   1      38.291  31.612  36.612  1.00  0.00     0.173 A 
ATOM     88  C   UNL A   1      39.571  33.431  35.705  1.00  0.00     0.173 A 
ATOM     89  F   UNL A   1      37.813  30.360  36.547  1.00  0.00    -0.203 F 
ATOM     90  C   UNL A   1      37.929  32.412  37.694  1.00  0.00     0.198 A 
ATOM     91  C   UNL A   1      39.237  34.216  36.806  1.00  0.00     0.198 A 
ATOM     92  F   UNL A   1      40.364  33.957  34.760  1.00  0.00    -0.203 F 
ATOM     93  F   UNL A   1      37.104  31.931  38.635  1.00  0.00    -0.200 F 
ATOM     94  C   UNL A   1      38.408  33.710  37.794  1.00  0.00     0.200 A 
ATOM     95  F   UNL A   1      39.718  35.463  36.908  1.00  0.00    -0.200 F 
ATOM     96  F   UNL A   1      38.067  34.474  38.840  1.00  0.00    -0.200 F 
ENDBRANCH  63  86
ENDBRANCH  37  38
ENDBRANCH  30  32
ENDBRANCH  29  30
ENDBRANCH  28  29
ENDBRANCH  27  28
ENDBRANCH  26  27
ENDBRANCH  25  26
ENDBRANCH   1  25
TORSDOF 21
ENDMDL
