MODEL 1
REMARK VINA RESULT:     -11.8      0.000      0.000
REMARK SMILES Cc1cc2c(=O)c3ccccc3oc2c(C(=O)OCCOCCOCCOC(=O)c2ccc(-c3c4nc(c(-c5c(F)c(F)c(F)c(F)c5F)c5ccc([nH]5)c(-c5c(F)c(F)c(F)c(F)c5F)c5nc(c(-c6c(F)c(F)c(F)c(F)c6F)c6ccc3[nH]6)C=C5)C=C4)cc2)c1C
REMARK SMILES IDX 23 1 22 2 21 3 20 4 19 5 18 6 16 7 17 8 15 9 1 10 2 11 3 12
REMARK SMILES IDX 93 13 4 14 94 15 5 16 14 17 6 18 7 19 13 20 8 21 12 22 9 23
REMARK SMILES IDX 11 24 10 25 24 26 25 27 26 28 27 29 28 30 29 31 30 32 31 33
REMARK SMILES IDX 92 34 32 35 91 36 33 37 34 38 35 39 85 40 36 41 90 42 84 43
REMARK SMILES IDX 86 44 37 45 89 46 83 47 82 48 38 50 70 51 50 52 69 53 51 54
REMARK SMILES IDX 54 55 68 56 87 57 52 58 53 59 67 61 88 62 55 63 39 64 40 65
REMARK SMILES IDX 48 66 41 67 42 68 46 69 49 70 43 71 44 72 47 73 45 74 71 75
REMARK SMILES IDX 72 76 80 77 73 78 74 79 78 80 81 81 75 82 76 83 79 84 77 85
REMARK SMILES IDX 56 86 57 87 65 88 58 89 59 90 63 91 66 92 60 93 61 94 64 95
REMARK SMILES IDX 62 96
REMARK H PARENT 86 49 54 60
REMARK Flexibility Score: inf
ROOT
ATOM      1  C   UNL A   1      34.698  23.654  24.450  1.00  0.00     0.188 C 
ENDROOT
BRANCH   1   2
ATOM      2  C   UNL A   1      33.477  24.579  24.253  1.00  0.00     0.188 C 
BRANCH   2   3
ATOM      3  O   UNL A   1      33.636  25.857  23.670  1.00  0.00    -0.376 OA
BRANCH   3   4
ATOM      4  C   UNL A   1      33.307  26.061  22.304  1.00  0.00     0.202 C 
BRANCH   4   5
ATOM      5  C   UNL A   1      31.865  26.292  21.836  1.00  0.00     0.261 C 
BRANCH   5   6
ATOM      6  O   UNL A   1      31.319  27.565  22.206  1.00  0.00    -0.460 OA
BRANCH   6   7
ATOM      7  C   UNL A   1      30.570  27.594  23.339  1.00  0.00     0.342 C 
ATOM      8  O   UNL A   1      30.211  26.626  23.985  1.00  0.00    -0.246 OA
BRANCH   7   9
ATOM      9  C   UNL A   1      30.320  29.001  23.767  1.00  0.00     0.106 A 
ATOM     10  C   UNL A   1      27.913  31.985  23.274  1.00  0.00     0.044 C 
ATOM     11  C   UNL A   1      29.026  31.078  23.729  1.00  0.00    -0.046 A 
ATOM     12  C   UNL A   1      29.831  31.563  24.768  1.00  0.00     0.019 A 
ATOM     13  C   UNL A   1      29.253  29.776  23.222  1.00  0.00    -0.030 A 
ATOM     14  C   UNL A   1      30.899  30.813  25.255  1.00  0.00     0.067 A 
ATOM     15  C   UNL A   1      28.439  29.259  22.060  1.00  0.00     0.046 C 
ATOM     16  C   UNL A   1      31.762  31.395  26.290  1.00  0.00     0.200 A 
ATOM     17  C   UNL A   1      31.169  29.542  24.759  1.00  0.00     0.153 A 
ATOM     18  O   UNL A   1      31.524  32.487  26.787  1.00  0.00    -0.288 OA
ATOM     19  C   UNL A   1      32.934  30.617  26.682  1.00  0.00     0.065 A 
ATOM     20  O   UNL A   1      32.270  28.816  25.170  1.00  0.00    -0.455 OA
ATOM     21  C   UNL A   1      33.837  31.129  27.621  1.00  0.00     0.016 A 
ATOM     22  C   UNL A   1      33.127  29.371  26.093  1.00  0.00     0.138 A 
ATOM     23  C   UNL A   1      34.947  30.375  27.983  1.00  0.00     0.001 A 
ATOM     24  C   UNL A   1      34.243  28.621  26.460  1.00  0.00     0.048 A 
ATOM     25  C   UNL A   1      35.143  29.122  27.410  1.00  0.00     0.004 A 
ENDBRANCH   7   9
ENDBRANCH   6   7
ENDBRANCH   5   6
ENDBRANCH   4   5
ENDBRANCH   3   4
ENDBRANCH   2   3
ENDBRANCH   1   2
BRANCH   1  26
ATOM     26  O   UNL A   1      35.437  23.182  23.344  1.00  0.00    -0.376 OA
BRANCH  26  27
ATOM     27  C   UNL A   1      36.700  22.567  23.535  1.00  0.00     0.202 C 
BRANCH  27  28
ATOM     28  C   UNL A   1      36.933  21.393  24.499  1.00  0.00     0.261 C 
BRANCH  28  29
ATOM     29  O   UNL A   1      37.388  21.732  25.812  1.00  0.00    -0.460 OA
BRANCH  29  30
ATOM     30  C   UNL A   1      38.699  21.482  26.060  1.00  0.00     0.338 C 
ATOM     31  O   UNL A   1      39.325  20.468  25.802  1.00  0.00    -0.246 OA
BRANCH  30  32
ATOM     32  C   UNL A   1      39.326  22.727  26.536  1.00  0.00     0.060 A 
ATOM     33  C   UNL A   1      40.446  22.670  27.367  1.00  0.00     0.016 A 
ATOM     34  C   UNL A   1      38.776  23.961  26.158  1.00  0.00     0.016 A 
ATOM     35  C   UNL A   1      41.029  23.859  27.807  1.00  0.00     0.010 A 
ATOM     36  C   UNL A   1      39.344  25.148  26.623  1.00  0.00     0.010 A 
ATOM     37  C   UNL A   1      40.488  25.103  27.433  1.00  0.00    -0.014 A 
BRANCH  37  38
ATOM     38  C   UNL A   1      41.220  26.346  27.766  1.00  0.00     0.031 A 
ATOM     39  C   UNL A   1      42.588  26.624  27.229  1.00  0.00     0.074 A 
ATOM     40  C   UNL A   1      40.602  27.246  28.551  1.00  0.00     0.049 A 
ATOM     41  N   UNL A   1      43.379  27.641  27.466  1.00  0.00    -0.248 NA
ATOM     42  C   UNL A   1      43.148  25.626  26.310  1.00  0.00     0.031 C 
ATOM     43  C   UNL A   1      39.254  27.090  29.098  1.00  0.00     0.029 A 
ATOM     44  N   UNL A   1      41.004  28.480  28.993  1.00  0.00    -0.354 N 
ATOM     45  C   UNL A   1      44.557  27.377  26.781  1.00  0.00     0.074 A 
ATOM     46  C   UNL A   1      44.359  26.122  26.083  1.00  0.00     0.031 C 
ATOM     47  C   UNL A   1      38.915  28.211  29.750  1.00  0.00     0.029 A 
ATOM     48  C   UNL A   1      40.038  29.144  29.707  1.00  0.00     0.049 A 
ATOM     49  H   UNL A   1      41.897  28.853  28.815  1.00  0.00     0.167 HD
ATOM     50  C   UNL A   1      45.701  28.107  26.774  1.00  0.00     0.037 A 
ATOM     51  C   UNL A   1      40.052  30.374  30.253  1.00  0.00     0.037 A 
ATOM     52  C   UNL A   1      45.834  29.404  27.397  1.00  0.00     0.049 A 
ATOM     53  C   UNL A   1      41.287  31.222  30.117  1.00  0.00     0.074 A 
ATOM     54  C   UNL A   1      46.926  30.258  27.386  1.00  0.00     0.029 A 
ATOM     55  N   UNL A   1      44.834  30.053  28.109  1.00  0.00    -0.354 N 
ATOM     56  N   UNL A   1      42.416  30.944  29.513  1.00  0.00    -0.248 NA
ATOM     57  C   UNL A   1      41.247  32.554  30.734  1.00  0.00     0.031 C 
ATOM     58  C   UNL A   1      46.598  31.405  28.113  1.00  0.00     0.029 A 
ATOM     59  C   UNL A   1      45.283  31.296  28.532  1.00  0.00     0.049 A 
ATOM     60  H   UNL A   1      43.939  29.685  28.288  1.00  0.00     0.167 HD
ATOM     61  C   UNL A   1      43.218  32.066  29.666  1.00  0.00     0.074 A 
ATOM     62  C   UNL A   1      42.433  33.042  30.394  1.00  0.00     0.031 C 
ATOM     63  C   UNL A   1      44.492  32.264  29.251  1.00  0.00     0.037 A 
BRANCH  50  64
ATOM     64  C   UNL A   1      46.920  27.531  26.105  1.00  0.00     0.064 A 
ATOM     65  C   UNL A   1      47.200  27.735  24.747  1.00  0.00     0.173 A 
ATOM     66  C   UNL A   1      47.877  26.834  26.866  1.00  0.00     0.173 A 
ATOM     67  F   UNL A   1      46.326  28.389  23.968  1.00  0.00    -0.203 F 
ATOM     68  C   UNL A   1      48.374  27.247  24.173  1.00  0.00     0.198 A 
ATOM     69  C   UNL A   1      49.068  26.388  26.300  1.00  0.00     0.198 A 
ATOM     70  F   UNL A   1      47.671  26.614  28.174  1.00  0.00    -0.203 F 
ATOM     71  F   UNL A   1      48.595  27.418  22.862  1.00  0.00    -0.200 F 
ATOM     72  C   UNL A   1      49.313  26.589  24.951  1.00  0.00     0.200 A 
ATOM     73  F   UNL A   1      49.985  25.776  27.063  1.00  0.00    -0.200 F 
ATOM     74  F   UNL A   1      50.453  26.148  24.402  1.00  0.00    -0.200 F 
ENDBRANCH  50  64
BRANCH  51  75
ATOM     75  C   UNL A   1      38.832  30.890  30.924  1.00  0.00     0.064 A 
ATOM     76  C   UNL A   1      38.659  30.729  32.305  1.00  0.00     0.173 A 
ATOM     77  C   UNL A   1      37.843  31.588  30.217  1.00  0.00     0.173 A 
ATOM     78  F   UNL A   1      39.572  30.056  33.022  1.00  0.00    -0.203 F 
ATOM     79  C   UNL A   1      37.537  31.239  32.953  1.00  0.00     0.198 A 
ATOM     80  C   UNL A   1      36.737  32.125  30.871  1.00  0.00     0.198 A 
ATOM     81  F   UNL A   1      37.969  31.776  28.895  1.00  0.00    -0.203 F 
ATOM     82  F   UNL A   1      37.378  31.042  34.268  1.00  0.00    -0.200 F 
ATOM     83  C   UNL A   1      36.581  31.945  32.237  1.00  0.00     0.200 A 
ATOM     84  F   UNL A   1      35.827  32.824  30.179  1.00  0.00    -0.200 F 
ATOM     85  F   UNL A   1      35.511  32.450  32.864  1.00  0.00    -0.200 F 
ENDBRANCH  51  75
BRANCH  63  86
ATOM     86  C   UNL A   1      45.124  33.593  29.553  1.00  0.00     0.064 A 
ATOM     87  C   UNL A   1      45.844  33.812  30.738  1.00  0.00     0.173 A 
ATOM     88  C   UNL A   1      45.070  34.637  28.616  1.00  0.00     0.173 A 
ATOM     89  F   UNL A   1      45.916  32.850  31.671  1.00  0.00    -0.203 F 
ATOM     90  C   UNL A   1      46.469  35.031  30.981  1.00  0.00     0.198 A 
ATOM     91  C   UNL A   1      45.722  35.845  28.849  1.00  0.00     0.198 A 
ATOM     92  F   UNL A   1      44.403  34.477  27.464  1.00  0.00    -0.203 F 
ATOM     93  F   UNL A   1      47.119  35.230  32.136  1.00  0.00    -0.200 F 
ATOM     94  C   UNL A   1      46.417  36.043  30.033  1.00  0.00     0.200 A 
ATOM     95  F   UNL A   1      45.684  36.814  27.926  1.00  0.00    -0.200 F 
ATOM     96  F   UNL A   1      47.034  37.210  30.262  1.00  0.00    -0.200 F 
ENDBRANCH  63  86
ENDBRANCH  37  38
ENDBRANCH  30  32
ENDBRANCH  29  30
ENDBRANCH  28  29
ENDBRANCH  27  28
ENDBRANCH  26  27
ENDBRANCH   1  26
TORSDOF 17
ENDMDL
MODEL 2
REMARK VINA RESULT:     -11.6      2.784      8.850
REMARK SMILES Cc1cc2c(=O)c3ccccc3oc2c(C(=O)OCCOCCOCCOC(=O)c2ccc(-c3c4nc(c(-c5c(F)c(F)c(F)c(F)c5F)c5ccc([nH]5)c(-c5c(F)c(F)c(F)c(F)c5F)c5nc(c(-c6c(F)c(F)c(F)c(F)c6F)c6ccc3[nH]6)C=C5)C=C4)cc2)c1C
REMARK SMILES IDX 23 1 22 2 21 3 20 4 19 5 18 6 16 7 17 8 15 9 1 10 2 11 3 12
REMARK SMILES IDX 93 13 4 14 94 15 5 16 14 17 6 18 7 19 13 20 8 21 12 22 9 23
REMARK SMILES IDX 11 24 10 25 24 26 25 27 26 28 27 29 28 30 29 31 30 32 31 33
REMARK SMILES IDX 92 34 32 35 91 36 33 37 34 38 35 39 85 40 36 41 90 42 84 43
REMARK SMILES IDX 86 44 37 45 89 46 83 47 82 48 38 50 70 51 50 52 69 53 51 54
REMARK SMILES IDX 54 55 68 56 87 57 52 58 53 59 67 61 88 62 55 63 39 64 40 65
REMARK SMILES IDX 48 66 41 67 42 68 46 69 49 70 43 71 44 72 47 73 45 74 71 75
REMARK SMILES IDX 72 76 80 77 73 78 74 79 78 80 81 81 75 82 76 83 79 84 77 85
REMARK SMILES IDX 56 86 57 87 65 88 58 89 59 90 63 91 66 92 60 93 61 94 64 95
REMARK SMILES IDX 62 96
REMARK H PARENT 86 49 54 60
REMARK Flexibility Score: inf
ROOT
ATOM      1  C   UNL A   1      42.215  21.225  26.993  1.00  0.00     0.188 C 
ENDROOT
BRANCH   1   2
ATOM      2  C   UNL A   1      41.060  21.793  26.139  1.00  0.00     0.188 C 
BRANCH   2   3
ATOM      3  O   UNL A   1      39.847  22.186  26.748  1.00  0.00    -0.376 OA
BRANCH   3   4
ATOM      4  C   UNL A   1      39.591  23.560  26.999  1.00  0.00     0.202 C 
BRANCH   4   5
ATOM      5  C   UNL A   1      38.320  24.259  26.502  1.00  0.00     0.261 C 
BRANCH   5   6
ATOM      6  O   UNL A   1      37.165  23.412  26.438  1.00  0.00    -0.460 OA
BRANCH   6   7
ATOM      7  C   UNL A   1      36.465  23.433  25.274  1.00  0.00     0.342 C 
ATOM      8  O   UNL A   1      36.914  23.700  24.173  1.00  0.00    -0.246 OA
BRANCH   7   9
ATOM      9  C   UNL A   1      35.063  22.976  25.496  1.00  0.00     0.106 A 
ATOM     10  C   UNL A   1      32.864  19.808  25.752  1.00  0.00     0.044 C 
ATOM     11  C   UNL A   1      33.368  21.227  25.735  1.00  0.00    -0.046 A 
ATOM     12  C   UNL A   1      32.445  22.214  26.104  1.00  0.00     0.019 A 
ATOM     13  C   UNL A   1      34.702  21.597  25.439  1.00  0.00    -0.030 A 
ATOM     14  C   UNL A   1      32.801  23.561  26.106  1.00  0.00     0.067 A 
ATOM     15  C   UNL A   1      35.696  20.557  24.979  1.00  0.00     0.046 C 
ATOM     16  C   UNL A   1      31.777  24.564  26.423  1.00  0.00     0.200 A 
ATOM     17  C   UNL A   1      34.094  23.962  25.792  1.00  0.00     0.153 A 
ATOM     18  O   UNL A   1      30.644  24.246  26.756  1.00  0.00    -0.288 OA
ATOM     19  C   UNL A   1      32.170  25.965  26.299  1.00  0.00     0.065 A 
ATOM     20  O   UNL A   1      34.445  25.295  25.710  1.00  0.00    -0.455 OA
ATOM     21  C   UNL A   1      31.236  26.982  26.528  1.00  0.00     0.016 A 
ATOM     22  C   UNL A   1      33.484  26.253  25.941  1.00  0.00     0.138 A 
ATOM     23  C   UNL A   1      31.628  28.310  26.405  1.00  0.00     0.001 A 
ATOM     24  C   UNL A   1      33.870  27.587  25.819  1.00  0.00     0.048 A 
ATOM     25  C   UNL A   1      32.943  28.609  26.061  1.00  0.00     0.004 A 
ENDBRANCH   7   9
ENDBRANCH   6   7
ENDBRANCH   5   6
ENDBRANCH   4   5
ENDBRANCH   3   4
ENDBRANCH   2   3
ENDBRANCH   1   2
BRANCH   1  26
ATOM     26  O   UNL A   1      42.281  19.850  27.301  1.00  0.00    -0.376 OA
BRANCH  26  27
ATOM     27  C   UNL A   1      42.267  18.881  26.266  1.00  0.00     0.202 C 
BRANCH  27  28
ATOM     28  C   UNL A   1      43.525  18.438  25.503  1.00  0.00     0.261 C 
BRANCH  28  29
ATOM     29  O   UNL A   1      43.762  19.081  24.247  1.00  0.00    -0.460 OA
BRANCH  29  30
ATOM     30  C   UNL A   1      45.018  19.563  24.065  1.00  0.00     0.338 C 
ATOM     31  O   UNL A   1      45.933  19.045  23.447  1.00  0.00    -0.246 OA
BRANCH  30  32
ATOM     32  C   UNL A   1      45.064  20.941  24.584  1.00  0.00     0.060 A 
ATOM     33  C   UNL A   1      45.619  21.196  25.838  1.00  0.00     0.016 A 
ATOM     34  C   UNL A   1      44.532  21.984  23.812  1.00  0.00     0.016 A 
ATOM     35  C   UNL A   1      45.657  22.506  26.314  1.00  0.00     0.010 A 
ATOM     36  C   UNL A   1      44.544  23.291  24.302  1.00  0.00     0.010 A 
ATOM     37  C   UNL A   1      45.128  23.561  25.548  1.00  0.00    -0.014 A 
BRANCH  37  38
ATOM     38  C   UNL A   1      45.333  24.959  25.992  1.00  0.00     0.031 A 
ATOM     39  C   UNL A   1      44.256  25.733  26.685  1.00  0.00     0.074 A 
ATOM     40  C   UNL A   1      46.540  25.513  25.781  1.00  0.00     0.049 A 
ATOM     41  N   UNL A   1      44.263  26.979  27.090  1.00  0.00    -0.248 NA
ATOM     42  C   UNL A   1      43.002  25.018  26.951  1.00  0.00     0.031 C 
ATOM     43  C   UNL A   1      47.670  24.833  25.148  1.00  0.00     0.029 A 
ATOM     44  N   UNL A   1      47.030  26.751  26.106  1.00  0.00    -0.354 N 
ATOM     45  C   UNL A   1      42.995  27.221  27.600  1.00  0.00     0.074 A 
ATOM     46  C   UNL A   1      42.259  25.977  27.491  1.00  0.00     0.031 C 
ATOM     47  C   UNL A   1      48.741  25.640  25.186  1.00  0.00     0.029 A 
ATOM     48  C   UNL A   1      48.360  26.908  25.803  1.00  0.00     0.049 A 
ATOM     49  H   UNL A   1      46.482  27.458  26.518  1.00  0.00     0.167 HD
ATOM     50  C   UNL A   1      42.496  28.389  28.078  1.00  0.00     0.037 A 
ATOM     51  C   UNL A   1      49.182  27.952  26.014  1.00  0.00     0.037 A 
ATOM     52  C   UNL A   1      43.285  29.586  28.269  1.00  0.00     0.049 A 
ATOM     53  C   UNL A   1      48.640  29.191  26.670  1.00  0.00     0.074 A 
ATOM     54  C   UNL A   1      42.894  30.798  28.814  1.00  0.00     0.029 A 
ATOM     55  N   UNL A   1      44.632  29.710  27.956  1.00  0.00    -0.354 N 
ATOM     56  N   UNL A   1      47.426  29.433  27.101  1.00  0.00    -0.248 NA
ATOM     57  C   UNL A   1      49.580  30.300  26.873  1.00  0.00     0.031 C 
ATOM     58  C   UNL A   1      43.992  31.663  28.805  1.00  0.00     0.029 A 
ATOM     59  C   UNL A   1      45.085  30.974  28.307  1.00  0.00     0.049 A 
ATOM     60  H   UNL A   1      45.185  29.006  27.547  1.00  0.00     0.167 HD
ATOM     61  C   UNL A   1      47.457  30.713  27.635  1.00  0.00     0.074 A 
ATOM     62  C   UNL A   1      48.820  31.187  27.501  1.00  0.00     0.031 C 
ATOM     63  C   UNL A   1      46.446  31.434  28.176  1.00  0.00     0.037 A 
BRANCH  50  64
ATOM     64  C   UNL A   1      41.030  28.466  28.409  1.00  0.00     0.064 A 
ATOM     65  C   UNL A   1      40.525  28.134  29.673  1.00  0.00     0.173 A 
ATOM     66  C   UNL A   1      40.121  28.973  27.461  1.00  0.00     0.173 A 
ATOM     67  F   UNL A   1      41.340  27.642  30.617  1.00  0.00    -0.203 F 
ATOM     68  C   UNL A   1      39.170  28.283  29.969  1.00  0.00     0.198 A 
ATOM     69  C   UNL A   1      38.778  29.163  27.775  1.00  0.00     0.198 A 
ATOM     70  F   UNL A   1      40.545  29.318  26.235  1.00  0.00    -0.203 F 
ATOM     71  F   UNL A   1      38.707  27.914  31.171  1.00  0.00    -0.200 F 
ATOM     72  C   UNL A   1      38.301  28.811  29.027  1.00  0.00     0.200 A 
ATOM     73  F   UNL A   1      37.948  29.700  26.869  1.00  0.00    -0.200 F 
ATOM     74  F   UNL A   1      37.006  28.981  29.325  1.00  0.00    -0.200 F 
ENDBRANCH  50  64
BRANCH  51  75
ATOM     75  C   UNL A   1      50.617  27.837  25.649  1.00  0.00     0.064 A 
ATOM     76  C   UNL A   1      51.030  28.022  24.323  1.00  0.00     0.173 A 
ATOM     77  C   UNL A   1      51.603  27.589  26.614  1.00  0.00     0.173 A 
ATOM     78  F   UNL A   1      50.122  28.248  23.363  1.00  0.00    -0.203 F 
ATOM     79  C   UNL A   1      52.376  27.952  23.974  1.00  0.00     0.198 A 
ATOM     80  C   UNL A   1      52.952  27.551  26.269  1.00  0.00     0.198 A 
ATOM     81  F   UNL A   1      51.258  27.415  27.898  1.00  0.00    -0.203 F 
ATOM     82  F   UNL A   1      52.742  28.098  22.693  1.00  0.00    -0.200 F 
ATOM     83  C   UNL A   1      53.337  27.726  24.948  1.00  0.00     0.200 A 
ATOM     84  F   UNL A   1      53.878  27.353  27.216  1.00  0.00    -0.200 F 
ATOM     85  F   UNL A   1      54.633  27.677  24.614  1.00  0.00    -0.200 F 
ENDBRANCH  51  75
BRANCH  63  86
ATOM     86  C   UNL A   1      46.766  32.810  28.685  1.00  0.00     0.064 A 
ATOM     87  C   UNL A   1      47.205  33.024  30.001  1.00  0.00     0.173 A 
ATOM     88  C   UNL A   1      46.701  33.920  27.828  1.00  0.00     0.173 A 
ATOM     89  F   UNL A   1      47.274  31.999  30.863  1.00  0.00    -0.203 F 
ATOM     90  C   UNL A   1      47.549  34.298  30.443  1.00  0.00     0.198 A 
ATOM     91  C   UNL A   1      47.074  35.189  28.265  1.00  0.00     0.198 A 
ATOM     92  F   UNL A   1      46.297  33.770  26.558  1.00  0.00    -0.203 F 
ATOM     93  F   UNL A   1      47.929  34.483  31.715  1.00  0.00    -0.200 F 
ATOM     94  C   UNL A   1      47.493  35.377  29.574  1.00  0.00     0.200 A 
ATOM     95  F   UNL A   1      47.035  36.226  27.419  1.00  0.00    -0.200 F 
ATOM     96  F   UNL A   1      47.840  36.600  29.997  1.00  0.00    -0.200 F 
ENDBRANCH  63  86
ENDBRANCH  37  38
ENDBRANCH  30  32
ENDBRANCH  29  30
ENDBRANCH  28  29
ENDBRANCH  27  28
ENDBRANCH  26  27
ENDBRANCH   1  26
TORSDOF 17
ENDMDL
MODEL 3
REMARK VINA RESULT:     -11.6      2.701      8.158
REMARK SMILES Cc1cc2c(=O)c3ccccc3oc2c(C(=O)OCCOCCOCCOC(=O)c2ccc(-c3c4nc(c(-c5c(F)c(F)c(F)c(F)c5F)c5ccc([nH]5)c(-c5c(F)c(F)c(F)c(F)c5F)c5nc(c(-c6c(F)c(F)c(F)c(F)c6F)c6ccc3[nH]6)C=C5)C=C4)cc2)c1C
REMARK SMILES IDX 23 1 22 2 21 3 20 4 19 5 18 6 16 7 17 8 15 9 1 10 2 11 3 12
REMARK SMILES IDX 93 13 4 14 94 15 5 16 14 17 6 18 7 19 13 20 8 21 12 22 9 23
REMARK SMILES IDX 11 24 10 25 24 26 25 27 26 28 27 29 28 30 29 31 30 32 31 33
REMARK SMILES IDX 92 34 32 35 91 36 33 37 34 38 35 39 85 40 36 41 90 42 84 43
REMARK SMILES IDX 86 44 37 45 89 46 83 47 82 48 38 50 70 51 50 52 69 53 51 54
REMARK SMILES IDX 54 55 68 56 87 57 52 58 53 59 67 61 88 62 55 63 39 64 40 65
REMARK SMILES IDX 48 66 41 67 42 68 46 69 49 70 43 71 44 72 47 73 45 74 71 75
REMARK SMILES IDX 72 76 80 77 73 78 74 79 78 80 81 81 75 82 76 83 79 84 77 85
REMARK SMILES IDX 56 86 57 87 65 88 58 89 59 90 63 91 66 92 60 93 61 94 64 95
REMARK SMILES IDX 62 96
REMARK H PARENT 86 49 54 60
REMARK Flexibility Score: inf
ROOT
ATOM      1  C   UNL A   1      34.036  33.606  29.432  1.00  0.00     0.188 C 
ENDROOT
BRANCH   1   2
ATOM      2  C   UNL A   1      34.522  33.435  27.976  1.00  0.00     0.188 C 
BRANCH   2   3
ATOM      3  O   UNL A   1      35.594  32.563  27.679  1.00  0.00    -0.376 OA
BRANCH   3   4
ATOM      4  C   UNL A   1      35.394  31.157  27.704  1.00  0.00     0.202 C 
BRANCH   4   5
ATOM      5  C   UNL A   1      34.032  30.520  27.407  1.00  0.00     0.261 C 
BRANCH   5   6
ATOM      6  O   UNL A   1      34.076  29.440  26.463  1.00  0.00    -0.460 OA
BRANCH   6   7
ATOM      7  C   UNL A   1      33.055  28.547  26.521  1.00  0.00     0.342 C 
ATOM      8  O   UNL A   1      32.493  28.165  27.533  1.00  0.00    -0.246 OA
BRANCH   7   9
ATOM      9  C   UNL A   1      32.622  28.156  25.148  1.00  0.00     0.106 A 
ATOM     10  C   UNL A   1      30.504  29.334  22.138  1.00  0.00     0.044 C 
ATOM     11  C   UNL A   1      31.408  28.563  23.063  1.00  0.00    -0.046 A 
ATOM     12  C   UNL A   1      32.017  27.423  22.522  1.00  0.00     0.019 A 
ATOM     13  C   UNL A   1      31.717  28.954  24.388  1.00  0.00    -0.030 A 
ATOM     14  C   UNL A   1      32.859  26.627  23.295  1.00  0.00     0.067 A 
ATOM     15  C   UNL A   1      31.025  30.143  25.011  1.00  0.00     0.046 C 
ATOM     16  C   UNL A   1      33.410  25.399  22.708  1.00  0.00     0.200 A 
ATOM     17  C   UNL A   1      33.161  26.965  24.609  1.00  0.00     0.153 A 
ATOM     18  O   UNL A   1      33.210  25.098  21.539  1.00  0.00    -0.288 OA
ATOM     19  C   UNL A   1      34.192  24.541  23.594  1.00  0.00     0.065 A 
ATOM     20  O   UNL A   1      33.927  26.148  25.416  1.00  0.00    -0.455 OA
ATOM     21  C   UNL A   1      34.704  23.326  23.126  1.00  0.00     0.016 A 
ATOM     22  C   UNL A   1      34.402  24.962  24.904  1.00  0.00     0.138 A 
ATOM     23  C   UNL A   1      35.446  22.521  23.983  1.00  0.00     0.001 A 
ATOM     24  C   UNL A   1      35.146  24.150  25.759  1.00  0.00     0.048 A 
ATOM     25  C   UNL A   1      35.672  22.938  25.292  1.00  0.00     0.004 A 
ENDBRANCH   7   9
ENDBRANCH   6   7
ENDBRANCH   5   6
ENDBRANCH   4   5
ENDBRANCH   3   4
ENDBRANCH   2   3
ENDBRANCH   1   2
BRANCH   1  26
ATOM     26  O   UNL A   1      34.481  34.686  30.223  1.00  0.00    -0.376 OA
BRANCH  26  27
ATOM     27  C   UNL A   1      34.642  34.532  31.623  1.00  0.00     0.202 C 
BRANCH  27  28
ATOM     28  C   UNL A   1      34.293  33.240  32.378  1.00  0.00     0.261 C 
BRANCH  28  29
ATOM     29  O   UNL A   1      35.158  32.122  32.155  1.00  0.00    -0.460 OA
BRANCH  29  30
ATOM     30  C   UNL A   1      36.269  32.078  32.933  1.00  0.00     0.338 C 
ATOM     31  O   UNL A   1      36.352  32.316  34.126  1.00  0.00    -0.246 OA
BRANCH  30  32
ATOM     32  C   UNL A   1      37.368  31.500  32.140  1.00  0.00     0.060 A 
ATOM     33  C   UNL A   1      37.408  31.693  30.759  1.00  0.00     0.016 A 
ATOM     34  C   UNL A   1      38.358  30.745  32.787  1.00  0.00     0.016 A 
ATOM     35  C   UNL A   1      38.457  31.141  30.023  1.00  0.00     0.010 A 
ATOM     36  C   UNL A   1      39.390  30.169  32.045  1.00  0.00     0.010 A 
ATOM     37  C   UNL A   1      39.457  30.384  30.661  1.00  0.00    -0.014 A 
BRANCH  37  38
ATOM     38  C   UNL A   1      40.648  29.955  29.892  1.00  0.00     0.031 A 
ATOM     39  C   UNL A   1      40.720  28.614  29.231  1.00  0.00     0.074 A 
ATOM     40  C   UNL A   1      41.666  30.826  29.776  1.00  0.00     0.049 A 
ATOM     41  N   UNL A   1      41.709  28.072  28.566  1.00  0.00    -0.248 NA
ATOM     42  C   UNL A   1      39.527  27.765  29.337  1.00  0.00     0.031 C 
ATOM     43  C   UNL A   1      41.681  32.171  30.350  1.00  0.00     0.029 A 
ATOM     44  N   UNL A   1      42.860  30.729  29.110  1.00  0.00    -0.354 N 
ATOM     45  C   UNL A   1      41.288  26.793  28.229  1.00  0.00     0.074 A 
ATOM     46  C   UNL A   1      39.934  26.658  28.728  1.00  0.00     0.031 C 
ATOM     47  C   UNL A   1      42.801  32.798  29.960  1.00  0.00     0.029 A 
ATOM     48  C   UNL A   1      43.601  31.884  29.150  1.00  0.00     0.049 A 
ATOM     49  H   UNL A   1      43.156  29.912  28.648  1.00  0.00     0.167 HD
ATOM     50  C   UNL A   1      41.991  25.823  27.593  1.00  0.00     0.037 A 
ATOM     51  C   UNL A   1      44.786  32.176  28.583  1.00  0.00     0.037 A 
ATOM     52  C   UNL A   1      43.302  26.021  27.017  1.00  0.00     0.049 A 
ATOM     53  C   UNL A   1      45.487  31.125  27.767  1.00  0.00     0.074 A 
ATOM     54  C   UNL A   1      44.069  25.125  26.289  1.00  0.00     0.029 A 
ATOM     55  N   UNL A   1      44.025  27.206  27.070  1.00  0.00    -0.354 N 
ATOM     56  N   UNL A   1      45.107  29.900  27.498  1.00  0.00    -0.248 NA
ATOM     57  C   UNL A   1      46.777  31.498  27.174  1.00  0.00     0.031 C 
ATOM     58  C   UNL A   1      45.263  25.755  25.929  1.00  0.00     0.029 A 
ATOM     59  C   UNL A   1      45.221  27.063  26.381  1.00  0.00     0.049 A 
ATOM     60  H   UNL A   1      43.732  28.027  27.529  1.00  0.00     0.167 HD
ATOM     61  C   UNL A   1      46.103  29.359  26.697  1.00  0.00     0.074 A 
ATOM     62  C   UNL A   1      47.090  30.400  26.498  1.00  0.00     0.031 C 
ATOM     63  C   UNL A   1      46.195  28.109  26.183  1.00  0.00     0.037 A 
BRANCH  50  64
ATOM     64  C   UNL A   1      41.395  24.444  27.498  1.00  0.00     0.064 A 
ATOM     65  C   UNL A   1      40.297  24.154  26.677  1.00  0.00     0.173 A 
ATOM     66  C   UNL A   1      41.997  23.369  28.178  1.00  0.00     0.173 A 
ATOM     67  F   UNL A   1      39.678  25.137  26.006  1.00  0.00    -0.203 F 
ATOM     68  C   UNL A   1      39.811  22.852  26.556  1.00  0.00     0.198 A 
ATOM     69  C   UNL A   1      41.537  22.064  28.020  1.00  0.00     0.198 A 
ATOM     70  F   UNL A   1      43.057  23.580  28.973  1.00  0.00    -0.203 F 
ATOM     71  F   UNL A   1      38.732  22.612  25.799  1.00  0.00    -0.200 F 
ATOM     72  C   UNL A   1      40.440  21.807  27.215  1.00  0.00     0.200 A 
ATOM     73  F   UNL A   1      42.166  21.053  28.637  1.00  0.00    -0.200 F 
ATOM     74  F   UNL A   1      39.989  20.553  27.073  1.00  0.00    -0.200 F 
ENDBRANCH  50  64
BRANCH  51  75
ATOM     75  C   UNL A   1      45.346  33.543  28.725  1.00  0.00     0.064 A 
ATOM     76  C   UNL A   1      46.184  33.861  29.802  1.00  0.00     0.173 A 
ATOM     77  C   UNL A   1      45.097  34.542  27.773  1.00  0.00     0.173 A 
ATOM     78  F   UNL A   1      46.439  32.942  30.746  1.00  0.00    -0.203 F 
ATOM     79  C   UNL A   1      46.745  35.129  29.927  1.00  0.00     0.198 A 
ATOM     80  C   UNL A   1      45.684  35.801  27.882  1.00  0.00     0.198 A 
ATOM     81  F   UNL A   1      44.310  34.284  26.718  1.00  0.00    -0.203 F 
ATOM     82  F   UNL A   1      47.515  35.417  30.985  1.00  0.00    -0.200 F 
ATOM     83  C   UNL A   1      46.502  36.095  28.963  1.00  0.00     0.200 A 
ATOM     84  F   UNL A   1      45.464  36.724  26.937  1.00  0.00    -0.200 F 
ATOM     85  F   UNL A   1      47.056  37.310  29.075  1.00  0.00    -0.200 F 
ENDBRANCH  51  75
BRANCH  63  86
ATOM     86  C   UNL A   1      47.394  27.790  25.338  1.00  0.00     0.064 A 
ATOM     87  C   UNL A   1      48.608  27.378  25.909  1.00  0.00     0.173 A 
ATOM     88  C   UNL A   1      47.309  27.830  23.937  1.00  0.00     0.173 A 
ATOM     89  F   UNL A   1      48.745  27.334  27.243  1.00  0.00    -0.203 F 
ATOM     90  C   UNL A   1      49.695  27.034  25.111  1.00  0.00     0.198 A 
ATOM     91  C   UNL A   1      48.390  27.457  23.141  1.00  0.00     0.198 A 
ATOM     92  F   UNL A   1      46.170  28.208  23.339  1.00  0.00    -0.203 F 
ATOM     93  F   UNL A   1      50.856  26.680  25.679  1.00  0.00    -0.200 F 
ATOM     94  C   UNL A   1      49.583  27.064  23.729  1.00  0.00     0.200 A 
ATOM     95  F   UNL A   1      48.274  27.471  21.807  1.00  0.00    -0.200 F 
ATOM     96  F   UNL A   1      50.626  26.718  22.962  1.00  0.00    -0.200 F 
ENDBRANCH  63  86
ENDBRANCH  37  38
ENDBRANCH  30  32
ENDBRANCH  29  30
ENDBRANCH  28  29
ENDBRANCH  27  28
ENDBRANCH  26  27
ENDBRANCH   1  26
TORSDOF 17
ENDMDL
