MODEL 1
REMARK VINA RESULT:      -9.4      0.000      0.000
REMARK SMILES C[C@H](O)[C@H](C)[NH2+]C1(C(=O)OCCOCCOCCOC(=O)c2ccc(-c3c4nc(c(-c5c(F)c(F)c(F)c(F)c5F)c5ccc([nH]5)c(-c5c(F)c(F)c(F)c(F)c5F)c5nc(c(-c6c(F)c(F)c(F)c(F)c6F)c6ccc3[nH]6)C=C5)C=C4)cc2)CC1
REMARK SMILES IDX 14 1 13 2 12 3 11 4 10 5 8 6 9 7 7 8 85 9 86 10 6 11 4 14
REMARK SMILES IDX 5 15 2 16 1 17 3 18 15 20 16 21 17 22 18 23 19 24 20 25
REMARK SMILES IDX 21 26 22 27 23 28 84 29 24 30 83 31 25 32 26 33 27 34 77 35
REMARK SMILES IDX 28 36 82 37 76 38 78 39 29 40 81 41 75 42 74 43 30 45 62 46
REMARK SMILES IDX 42 47 61 48 43 49 46 50 60 51 79 52 44 53 45 54 59 56 80 57
REMARK SMILES IDX 47 58 31 59 32 60 40 61 33 62 34 63 38 64 41 65 35 66 36 67
REMARK SMILES IDX 39 68 37 69 63 70 64 71 72 72 65 73 66 74 70 75 73 76 67 77
REMARK SMILES IDX 68 78 71 79 69 80 48 81 49 82 57 83 50 84 51 85 55 86 58 87
REMARK SMILES IDX 52 88 53 89 56 90 54 91
REMARK H PARENT 6 12 6 13 3 19 78 44 46 55
REMARK Flexibility Score: inf
ROOT
ATOM      1  C   UNL A   1      31.634  27.743  24.595  1.00  0.00     0.188 C 
ENDROOT
BRANCH   1   2
ATOM      2  O   UNL A   1      30.387  27.077  24.610  1.00  0.00    -0.376 OA
BRANCH   2   3
ATOM      3  C   UNL A   1      30.388  25.673  24.388  1.00  0.00     0.202 C 
BRANCH   3   4
ATOM      4  C   UNL A   1      31.604  24.783  24.737  1.00  0.00     0.261 C 
BRANCH   4   5
ATOM      5  O   UNL A   1      31.282  23.475  25.217  1.00  0.00    -0.459 OA
BRANCH   5   6
ATOM      6  C   UNL A   1      31.715  23.111  26.451  1.00  0.00     0.368 C 
ATOM      7  O   UNL A   1      31.101  23.269  27.495  1.00  0.00    -0.245 OA
BRANCH   6   8
ATOM      8  C   UNL A   1      33.051  22.376  26.393  1.00  0.00     0.195 C 
ATOM      9  C   UNL A   1      33.686  21.892  27.683  1.00  0.00     0.088 C 
ATOM     10  C   UNL A   1      34.286  23.060  26.983  1.00  0.00     0.088 C 
BRANCH   8  11
ATOM     11  N   UNL A   1      33.298  21.609  25.123  1.00  0.00    -0.328 N 
ATOM     12  H   UNL A   1      33.051  22.215  24.341  1.00  0.00     0.347 HD
ATOM     13  H   UNL A   1      34.283  21.341  25.155  1.00  0.00     0.347 HD
BRANCH  11  14
ATOM     14  C   UNL A   1      32.550  20.340  24.965  1.00  0.00     0.208 C 
ATOM     15  C   UNL A   1      32.261  20.192  23.456  1.00  0.00     0.078 C 
BRANCH  14  16
ATOM     16  C   UNL A   1      33.347  19.095  25.449  1.00  0.00     0.169 C 
ATOM     17  C   UNL A   1      33.771  18.142  24.339  1.00  0.00     0.045 C 
BRANCH  16  18
ATOM     18  O   UNL A   1      32.550  18.389  26.417  1.00  0.00    -0.387 OA
ATOM     19  H   UNL A   1      32.090  19.028  26.984  1.00  0.00     0.211 HD
ENDBRANCH  16  18
ENDBRANCH  14  16
ENDBRANCH  11  14
ENDBRANCH   8  11
ENDBRANCH   6   8
ENDBRANCH   5   6
ENDBRANCH   4   5
ENDBRANCH   3   4
ENDBRANCH   2   3
ENDBRANCH   1   2
BRANCH   1  20
ATOM     20  C   UNL A   1      31.516  29.237  24.231  1.00  0.00     0.188 C 
BRANCH  20  21
ATOM     21  O   UNL A   1      31.368  30.224  25.243  1.00  0.00    -0.376 OA
BRANCH  21  22
ATOM     22  C   UNL A   1      31.886  29.948  26.538  1.00  0.00     0.202 C 
BRANCH  22  23
ATOM     23  C   UNL A   1      32.879  30.913  27.218  1.00  0.00     0.261 C 
BRANCH  23  24
ATOM     24  O   UNL A   1      34.236  30.454  27.351  1.00  0.00    -0.460 OA
BRANCH  24  25
ATOM     25  C   UNL A   1      34.950  31.024  28.355  1.00  0.00     0.338 C 
ATOM     26  O   UNL A   1      34.588  31.899  29.121  1.00  0.00    -0.246 OA
BRANCH  25  27
ATOM     27  C   UNL A   1      36.221  30.290  28.532  1.00  0.00     0.060 A 
ATOM     28  C   UNL A   1      36.486  29.683  29.770  1.00  0.00     0.016 A 
ATOM     29  C   UNL A   1      37.169  30.253  27.511  1.00  0.00     0.016 A 
ATOM     30  C   UNL A   1      37.702  29.044  29.996  1.00  0.00     0.010 A 
ATOM     31  C   UNL A   1      38.405  29.645  27.752  1.00  0.00     0.010 A 
ATOM     32  C   UNL A   1      38.687  29.062  29.002  1.00  0.00    -0.014 A 
BRANCH  32  33
ATOM     33  C   UNL A   1      40.071  28.644  29.330  1.00  0.00     0.031 A 
ATOM     34  C   UNL A   1      40.916  29.566  30.164  1.00  0.00     0.074 A 
ATOM     35  C   UNL A   1      40.563  27.468  28.908  1.00  0.00     0.049 A 
ATOM     36  N   UNL A   1      42.177  29.465  30.498  1.00  0.00    -0.248 NA
ATOM     37  C   UNL A   1      40.247  30.767  30.690  1.00  0.00     0.031 C 
ATOM     38  C   UNL A   1      39.822  26.463  28.149  1.00  0.00     0.029 A 
ATOM     39  N   UNL A   1      41.817  26.928  29.050  1.00  0.00    -0.354 N 
ATOM     40  C   UNL A   1      42.456  30.594  31.256  1.00  0.00     0.074 A 
ATOM     41  C   UNL A   1      41.241  31.378  31.317  1.00  0.00     0.031 C 
ATOM     42  C   UNL A   1      40.643  25.433  27.877  1.00  0.00     0.029 A 
ATOM     43  C   UNL A   1      41.973  25.725  28.408  1.00  0.00     0.049 A 
ATOM     44  H   UNL A   1      42.536  27.362  29.565  1.00  0.00     0.167 HD
ATOM     45  C   UNL A   1      43.621  30.943  31.852  1.00  0.00     0.037 A 
ATOM     46  C   UNL A   1      43.075  24.966  28.245  1.00  0.00     0.037 A 
ATOM     47  C   UNL A   1      44.826  30.158  31.792  1.00  0.00     0.049 A 
ATOM     48  C   UNL A   1      44.382  25.422  28.844  1.00  0.00     0.074 A 
ATOM     49  C   UNL A   1      46.053  30.418  32.375  1.00  0.00     0.029 A 
ATOM     50  N   UNL A   1      44.956  28.963  31.100  1.00  0.00    -0.354 N 
ATOM     51  N   UNL A   1      44.640  26.483  29.571  1.00  0.00    -0.248 NA
ATOM     52  C   UNL A   1      45.556  24.569  28.599  1.00  0.00     0.031 C 
ATOM     53  C   UNL A   1      46.943  29.411  31.988  1.00  0.00     0.029 A 
ATOM     54  C   UNL A   1      46.253  28.488  31.218  1.00  0.00     0.049 A 
ATOM     55  H   UNL A   1      44.235  28.518  30.600  1.00  0.00     0.167 HD
ATOM     56  C   UNL A   1      45.989  26.407  29.898  1.00  0.00     0.074 A 
ATOM     57  C   UNL A   1      46.494  25.189  29.301  1.00  0.00     0.031 C 
ATOM     58  C   UNL A   1      46.740  27.267  30.630  1.00  0.00     0.037 A 
BRANCH  45  59
ATOM     59  C   UNL A   1      43.662  32.247  32.593  1.00  0.00     0.064 A 
ATOM     60  C   UNL A   1      43.393  32.328  33.967  1.00  0.00     0.173 A 
ATOM     61  C   UNL A   1      44.020  33.428  31.925  1.00  0.00     0.173 A 
ATOM     62  F   UNL A   1      43.032  31.230  34.650  1.00  0.00    -0.203 F 
ATOM     63  C   UNL A   1      43.460  33.545  34.641  1.00  0.00     0.198 A 
ATOM     64  C   UNL A   1      44.116  34.637  32.606  1.00  0.00     0.198 A 
ATOM     65  F   UNL A   1      44.289  33.407  30.610  1.00  0.00    -0.203 F 
ATOM     66  F   UNL A   1      43.157  33.606  35.944  1.00  0.00    -0.200 F 
ATOM     67  C   UNL A   1      43.831  34.696  33.962  1.00  0.00     0.200 A 
ATOM     68  F   UNL A   1      44.490  35.746  31.951  1.00  0.00    -0.200 F 
ATOM     69  F   UNL A   1      43.909  35.864  34.614  1.00  0.00    -0.200 F 
ENDBRANCH  45  59
BRANCH  46  70
ATOM     70  C   UNL A   1      43.002  23.699  27.470  1.00  0.00     0.064 A 
ATOM     71  C   UNL A   1      43.387  23.657  26.122  1.00  0.00     0.173 A 
ATOM     72  C   UNL A   1      42.517  22.516  28.047  1.00  0.00     0.173 A 
ATOM     73  F   UNL A   1      43.830  24.768  25.517  1.00  0.00    -0.203 F 
ATOM     74  C   UNL A   1      43.271  22.486  25.377  1.00  0.00     0.198 A 
ATOM     75  C   UNL A   1      42.431  21.338  27.308  1.00  0.00     0.198 A 
ATOM     76  F   UNL A   1      42.129  22.503  29.330  1.00  0.00    -0.203 F 
ATOM     77  F   UNL A   1      43.596  22.486  24.077  1.00  0.00    -0.200 F 
ATOM     78  C   UNL A   1      42.798  21.326  25.972  1.00  0.00     0.200 A 
ATOM     79  F   UNL A   1      41.984  20.216  27.890  1.00  0.00    -0.200 F 
ATOM     80  F   UNL A   1      42.688  20.199  25.254  1.00  0.00    -0.200 F 
ENDBRANCH  46  70
BRANCH  58  81
ATOM     81  C   UNL A   1      48.176  26.900  30.875  1.00  0.00     0.064 A 
ATOM     82  C   UNL A   1      49.207  27.329  30.027  1.00  0.00     0.173 A 
ATOM     83  C   UNL A   1      48.531  26.146  32.007  1.00  0.00     0.173 A 
ATOM     84  F   UNL A   1      48.923  28.041  28.925  1.00  0.00    -0.203 F 
ATOM     85  C   UNL A   1      50.534  26.993  30.284  1.00  0.00     0.198 A 
ATOM     86  C   UNL A   1      49.861  25.842  32.280  1.00  0.00     0.198 A 
ATOM     87  F   UNL A   1      47.587  25.719  32.858  1.00  0.00    -0.203 F 
ATOM     88  F   UNL A   1      51.497  27.371  29.431  1.00  0.00    -0.200 F 
ATOM     89  C   UNL A   1      50.861  26.259  31.415  1.00  0.00     0.200 A 
ATOM     90  F   UNL A   1      50.176  25.149  33.382  1.00  0.00    -0.200 F 
ATOM     91  F   UNL A   1      52.140  25.946  31.666  1.00  0.00    -0.200 F 
ENDBRANCH  58  81
ENDBRANCH  32  33
ENDBRANCH  25  27
ENDBRANCH  24  25
ENDBRANCH  23  24
ENDBRANCH  22  23
ENDBRANCH  21  22
ENDBRANCH  20  21
ENDBRANCH   1  20
TORSDOF 21
ENDMDL
MODEL 2
REMARK VINA RESULT:      -9.3      0.988      2.280
REMARK SMILES C[C@H](O)[C@H](C)[NH2+]C1(C(=O)OCCOCCOCCOC(=O)c2ccc(-c3c4nc(c(-c5c(F)c(F)c(F)c(F)c5F)c5ccc([nH]5)c(-c5c(F)c(F)c(F)c(F)c5F)c5nc(c(-c6c(F)c(F)c(F)c(F)c6F)c6ccc3[nH]6)C=C5)C=C4)cc2)CC1
REMARK SMILES IDX 14 1 13 2 12 3 11 4 10 5 8 6 9 7 7 8 85 9 86 10 6 11 4 14
REMARK SMILES IDX 5 15 2 16 1 17 3 18 15 20 16 21 17 22 18 23 19 24 20 25
REMARK SMILES IDX 21 26 22 27 23 28 84 29 24 30 83 31 25 32 26 33 27 34 77 35
REMARK SMILES IDX 28 36 82 37 76 38 78 39 29 40 81 41 75 42 74 43 30 45 62 46
REMARK SMILES IDX 42 47 61 48 43 49 46 50 60 51 79 52 44 53 45 54 59 56 80 57
REMARK SMILES IDX 47 58 31 59 32 60 40 61 33 62 34 63 38 64 41 65 35 66 36 67
REMARK SMILES IDX 39 68 37 69 63 70 64 71 72 72 65 73 66 74 70 75 73 76 67 77
REMARK SMILES IDX 68 78 71 79 69 80 48 81 49 82 57 83 50 84 51 85 55 86 58 87
REMARK SMILES IDX 52 88 53 89 56 90 54 91
REMARK H PARENT 6 12 6 13 3 19 78 44 46 55
REMARK Flexibility Score: inf
ROOT
ATOM      1  C   UNL A   1      32.128  28.035  24.603  1.00  0.00     0.188 C 
ENDROOT
BRANCH   1   2
ATOM      2  O   UNL A   1      31.317  26.948  25.003  1.00  0.00    -0.376 OA
BRANCH   2   3
ATOM      3  C   UNL A   1      31.948  25.687  25.184  1.00  0.00     0.202 C 
BRANCH   3   4
ATOM      4  C   UNL A   1      33.486  25.532  25.218  1.00  0.00     0.261 C 
BRANCH   4   5
ATOM      5  O   UNL A   1      33.985  24.308  24.671  1.00  0.00    -0.459 OA
BRANCH   5   6
ATOM      6  C   UNL A   1      35.160  23.817  25.142  1.00  0.00     0.368 C 
ATOM      7  O   UNL A   1      35.942  24.416  25.865  1.00  0.00    -0.245 OA
BRANCH   6   8
ATOM      8  C   UNL A   1      35.371  22.361  24.740  1.00  0.00     0.195 C 
ATOM      9  C   UNL A   1      36.502  21.574  25.376  1.00  0.00     0.088 C 
ATOM     10  C   UNL A   1      36.634  21.997  23.955  1.00  0.00     0.088 C 
BRANCH   8  11
ATOM     11  N   UNL A   1      34.127  21.635  24.309  1.00  0.00    -0.328 N 
ATOM     12  H   UNL A   1      33.495  22.319  23.895  1.00  0.00     0.347 HD
ATOM     13  H   UNL A   1      34.445  20.909  23.665  1.00  0.00     0.347 HD
BRANCH  11  14
ATOM     14  C   UNL A   1      33.383  20.919  25.372  1.00  0.00     0.208 C 
ATOM     15  C   UNL A   1      31.957  21.511  25.376  1.00  0.00     0.078 C 
BRANCH  14  16
ATOM     16  C   UNL A   1      33.290  19.386  25.127  1.00  0.00     0.169 C 
ATOM     17  C   UNL A   1      32.592  18.990  23.832  1.00  0.00     0.045 C 
BRANCH  16  18
ATOM     18  O   UNL A   1      32.615  18.784  26.245  1.00  0.00    -0.387 OA
ATOM     19  H   UNL A   1      33.213  18.758  27.008  1.00  0.00     0.211 HD
ENDBRANCH  16  18
ENDBRANCH  14  16
ENDBRANCH  11  14
ENDBRANCH   8  11
ENDBRANCH   6   8
ENDBRANCH   5   6
ENDBRANCH   4   5
ENDBRANCH   3   4
ENDBRANCH   2   3
ENDBRANCH   1   2
BRANCH   1  20
ATOM     20  C   UNL A   1      31.326  29.332  24.367  1.00  0.00     0.188 C 
BRANCH  20  21
ATOM     21  O   UNL A   1      31.188  30.300  25.397  1.00  0.00    -0.376 OA
BRANCH  21  22
ATOM     22  C   UNL A   1      31.859  30.077  26.630  1.00  0.00     0.202 C 
BRANCH  22  23
ATOM     23  C   UNL A   1      32.955  31.045  27.124  1.00  0.00     0.261 C 
BRANCH  23  24
ATOM     24  O   UNL A   1      34.264  30.484  27.330  1.00  0.00    -0.460 OA
BRANCH  24  25
ATOM     25  C   UNL A   1      34.969  31.013  28.363  1.00  0.00     0.338 C 
ATOM     26  O   UNL A   1      34.603  31.862  29.156  1.00  0.00    -0.246 OA
BRANCH  25  27
ATOM     27  C   UNL A   1      36.235  30.267  28.526  1.00  0.00     0.060 A 
ATOM     28  C   UNL A   1      36.488  29.623  29.747  1.00  0.00     0.016 A 
ATOM     29  C   UNL A   1      37.189  30.255  27.511  1.00  0.00     0.016 A 
ATOM     30  C   UNL A   1      37.699  28.969  29.962  1.00  0.00     0.010 A 
ATOM     31  C   UNL A   1      38.420  29.632  27.742  1.00  0.00     0.010 A 
ATOM     32  C   UNL A   1      38.690  29.011  28.976  1.00  0.00    -0.014 A 
BRANCH  32  33
ATOM     33  C   UNL A   1      40.069  28.576  29.300  1.00  0.00     0.031 A 
ATOM     34  C   UNL A   1      40.924  29.480  30.144  1.00  0.00     0.074 A 
ATOM     35  C   UNL A   1      40.550  27.398  28.866  1.00  0.00     0.049 A 
ATOM     36  N   UNL A   1      42.184  29.363  30.478  1.00  0.00    -0.248 NA
ATOM     37  C   UNL A   1      40.267  30.682  30.683  1.00  0.00     0.031 C 
ATOM     38  C   UNL A   1      39.799  26.409  28.097  1.00  0.00     0.029 A 
ATOM     39  N   UNL A   1      41.799  26.845  29.004  1.00  0.00    -0.354 N 
ATOM     40  C   UNL A   1      42.474  30.481  31.248  1.00  0.00     0.074 A 
ATOM     41  C   UNL A   1      41.267  31.276  31.316  1.00  0.00     0.031 C 
ATOM     42  C   UNL A   1      40.609  25.374  27.815  1.00  0.00     0.029 A 
ATOM     43  C   UNL A   1      41.942  25.647  28.349  1.00  0.00     0.049 A 
ATOM     44  H   UNL A   1      42.522  27.266  29.523  1.00  0.00     0.167 HD
ATOM     45  C   UNL A   1      43.642  30.811  31.848  1.00  0.00     0.037 A 
ATOM     46  C   UNL A   1      43.036  24.878  28.180  1.00  0.00     0.037 A 
ATOM     47  C   UNL A   1      44.838  30.014  31.781  1.00  0.00     0.049 A 
ATOM     48  C   UNL A   1      44.348  25.314  28.784  1.00  0.00     0.074 A 
ATOM     49  C   UNL A   1      46.068  30.256  32.368  1.00  0.00     0.029 A 
ATOM     50  N   UNL A   1      44.957  28.826  31.077  1.00  0.00    -0.354 N 
ATOM     51  N   UNL A   1      44.616  26.365  29.521  1.00  0.00    -0.248 NA
ATOM     52  C   UNL A   1      45.513  24.451  28.531  1.00  0.00     0.031 C 
ATOM     53  C   UNL A   1      46.947  29.244  31.970  1.00  0.00     0.029 A 
ATOM     54  C   UNL A   1      46.248  28.336  31.191  1.00  0.00     0.049 A 
ATOM     55  H   UNL A   1      44.231  28.393  30.571  1.00  0.00     0.167 HD
ATOM     56  C   UNL A   1      45.964  26.271  29.849  1.00  0.00     0.074 A 
ATOM     57  C   UNL A   1      46.457  25.055  29.240  1.00  0.00     0.031 C 
ATOM     58  C   UNL A   1      46.723  27.116  30.591  1.00  0.00     0.037 A 
BRANCH  45  59
ATOM     59  C   UNL A   1      43.695  32.107  32.603  1.00  0.00     0.064 A 
ATOM     60  C   UNL A   1      43.988  33.324  31.968  1.00  0.00     0.173 A 
ATOM     61  C   UNL A   1      43.404  32.137  33.976  1.00  0.00     0.173 A 
ATOM     62  F   UNL A   1      44.287  33.348  30.661  1.00  0.00    -0.203 F 
ATOM     63  C   UNL A   1      44.007  34.518  32.684  1.00  0.00     0.198 A 
ATOM     64  C   UNL A   1      43.395  33.336  34.681  1.00  0.00     0.198 A 
ATOM     65  F   UNL A   1      43.116  31.002  34.631  1.00  0.00    -0.203 F 
ATOM     66  F   UNL A   1      44.331  35.662  32.066  1.00  0.00    -0.200 F 
ATOM     67  C   UNL A   1      43.701  34.524  34.036  1.00  0.00     0.200 A 
ATOM     68  F   UNL A   1      43.083  33.342  35.985  1.00  0.00    -0.200 F 
ATOM     69  F   UNL A   1      43.706  35.677  34.721  1.00  0.00    -0.200 F 
ENDBRANCH  45  59
BRANCH  46  70
ATOM     70  C   UNL A   1      42.951  23.620  27.391  1.00  0.00     0.064 A 
ATOM     71  C   UNL A   1      42.471  22.437  27.971  1.00  0.00     0.173 A 
ATOM     72  C   UNL A   1      43.374  23.565  26.055  1.00  0.00     0.173 A 
ATOM     73  F   UNL A   1      42.081  22.431  29.254  1.00  0.00    -0.203 F 
ATOM     74  C   UNL A   1      42.439  21.244  27.253  1.00  0.00     0.198 A 
ATOM     75  C   UNL A   1      43.312  22.378  25.328  1.00  0.00     0.198 A 
ATOM     76  F   UNL A   1      43.848  24.666  25.453  1.00  0.00    -0.203 F 
ATOM     77  F   UNL A   1      42.026  20.117  27.848  1.00  0.00    -0.200 F 
ATOM     78  C   UNL A   1      42.854  21.217  25.930  1.00  0.00     0.200 A 
ATOM     79  F   UNL A   1      43.704  22.359  24.046  1.00  0.00    -0.200 F 
ATOM     80  F   UNL A   1      42.821  20.069  25.238  1.00  0.00    -0.200 F 
ENDBRANCH  46  70
BRANCH  58  81
ATOM     81  C   UNL A   1      48.156  26.732  30.833  1.00  0.00     0.064 A 
ATOM     82  C   UNL A   1      48.526  25.861  31.868  1.00  0.00     0.173 A 
ATOM     83  C   UNL A   1      49.169  27.206  29.983  1.00  0.00     0.173 A 
ATOM     84  F   UNL A   1      47.600  25.388  32.717  1.00  0.00    -0.203 F 
ATOM     85  C   UNL A   1      49.858  25.503  32.062  1.00  0.00     0.198 A 
ATOM     86  C   UNL A   1      50.494  26.819  30.158  1.00  0.00     0.198 A 
ATOM     87  F   UNL A   1      48.870  28.033  28.970  1.00  0.00    -0.203 F 
ATOM     88  F   UNL A   1      50.194  24.711  33.090  1.00  0.00    -0.200 F 
ATOM     89  C   UNL A   1      50.839  25.974  31.202  1.00  0.00     0.200 A 
ATOM     90  F   UNL A   1      51.437  27.261  29.315  1.00  0.00    -0.200 F 
ATOM     91  F   UNL A   1      52.119  25.621  31.385  1.00  0.00    -0.200 F 
ENDBRANCH  58  81
ENDBRANCH  32  33
ENDBRANCH  25  27
ENDBRANCH  24  25
ENDBRANCH  23  24
ENDBRANCH  22  23
ENDBRANCH  21  22
ENDBRANCH  20  21
ENDBRANCH   1  20
TORSDOF 21
ENDMDL
MODEL 3
REMARK VINA RESULT:      -9.1      4.423      6.790
REMARK SMILES C[C@H](O)[C@H](C)[NH2+]C1(C(=O)OCCOCCOCCOC(=O)c2ccc(-c3c4nc(c(-c5c(F)c(F)c(F)c(F)c5F)c5ccc([nH]5)c(-c5c(F)c(F)c(F)c(F)c5F)c5nc(c(-c6c(F)c(F)c(F)c(F)c6F)c6ccc3[nH]6)C=C5)C=C4)cc2)CC1
REMARK SMILES IDX 14 1 13 2 12 3 11 4 10 5 8 6 9 7 7 8 85 9 86 10 6 11 4 14
REMARK SMILES IDX 5 15 2 16 1 17 3 18 15 20 16 21 17 22 18 23 19 24 20 25
REMARK SMILES IDX 21 26 22 27 23 28 84 29 24 30 83 31 25 32 26 33 27 34 77 35
REMARK SMILES IDX 28 36 82 37 76 38 78 39 29 40 81 41 75 42 74 43 30 45 62 46
REMARK SMILES IDX 42 47 61 48 43 49 46 50 60 51 79 52 44 53 45 54 59 56 80 57
REMARK SMILES IDX 47 58 31 59 32 60 40 61 33 62 34 63 38 64 41 65 35 66 36 67
REMARK SMILES IDX 39 68 37 69 63 70 64 71 72 72 65 73 66 74 70 75 73 76 67 77
REMARK SMILES IDX 68 78 71 79 69 80 48 81 49 82 57 83 50 84 51 85 55 86 58 87
REMARK SMILES IDX 52 88 53 89 56 90 54 91
REMARK H PARENT 6 12 6 13 3 19 78 44 46 55
REMARK Flexibility Score: inf
ROOT
ATOM      1  C   UNL A   1      33.638  31.207  27.788  1.00  0.00     0.188 C 
ENDROOT
BRANCH   1   2
ATOM      2  O   UNL A   1      34.295  30.341  26.882  1.00  0.00    -0.376 OA
BRANCH   2   3
ATOM      3  C   UNL A   1      33.486  29.490  26.080  1.00  0.00     0.202 C 
BRANCH   3   4
ATOM      4  C   UNL A   1      32.007  29.196  26.423  1.00  0.00     0.261 C 
BRANCH   4   5
ATOM      5  O   UNL A   1      31.445  28.058  25.763  1.00  0.00    -0.459 OA
BRANCH   5   6
ATOM      6  C   UNL A   1      30.778  28.248  24.595  1.00  0.00     0.368 C 
ATOM      7  O   UNL A   1      30.642  29.316  24.019  1.00  0.00    -0.245 OA
BRANCH   6   8
ATOM      8  C   UNL A   1      30.275  26.933  24.006  1.00  0.00     0.195 C 
ATOM      9  C   UNL A   1      28.781  26.702  23.879  1.00  0.00     0.088 C 
ATOM     10  C   UNL A   1      29.535  25.958  24.925  1.00  0.00     0.088 C 
BRANCH   8  11
ATOM     11  N   UNL A   1      31.202  26.287  23.014  1.00  0.00    -0.328 N 
ATOM     12  H   UNL A   1      30.793  25.392  22.744  1.00  0.00     0.347 HD
ATOM     13  H   UNL A   1      31.292  26.958  22.250  1.00  0.00     0.347 HD
BRANCH  11  14
ATOM     14  C   UNL A   1      32.585  26.028  23.478  1.00  0.00     0.208 C 
ATOM     15  C   UNL A   1      32.749  24.494  23.521  1.00  0.00     0.078 C 
BRANCH  14  16
ATOM     16  C   UNL A   1      33.668  26.622  22.532  1.00  0.00     0.169 C 
ATOM     17  C   UNL A   1      33.606  28.136  22.366  1.00  0.00     0.045 C 
BRANCH  16  18
ATOM     18  O   UNL A   1      33.552  25.987  21.247  1.00  0.00    -0.387 OA
ATOM     19  H   UNL A   1      34.436  25.755  20.920  1.00  0.00     0.211 HD
ENDBRANCH  16  18
ENDBRANCH  14  16
ENDBRANCH  11  14
ENDBRANCH   8  11
ENDBRANCH   6   8
ENDBRANCH   5   6
ENDBRANCH   4   5
ENDBRANCH   3   4
ENDBRANCH   2   3
ENDBRANCH   1   2
BRANCH   1  20
ATOM     20  C   UNL A   1      34.463  32.466  28.125  1.00  0.00     0.188 C 
BRANCH  20  21
ATOM     21  O   UNL A   1      34.039  33.751  27.693  1.00  0.00    -0.376 OA
BRANCH  21  22
ATOM     22  C   UNL A   1      34.358  34.877  28.501  1.00  0.00     0.202 C 
BRANCH  22  23
ATOM     23  C   UNL A   1      33.250  35.705  29.183  1.00  0.00     0.261 C 
BRANCH  23  24
ATOM     24  O   UNL A   1      32.545  35.071  30.265  1.00  0.00    -0.460 OA
BRANCH  24  25
ATOM     25  C   UNL A   1      32.723  35.635  31.487  1.00  0.00     0.338 C 
ATOM     26  O   UNL A   1      32.007  36.449  32.042  1.00  0.00    -0.246 OA
BRANCH  25  27
ATOM     27  C   UNL A   1      33.853  34.972  32.173  1.00  0.00     0.060 A 
ATOM     28  C   UNL A   1      35.114  35.589  32.152  1.00  0.00     0.016 A 
ATOM     29  C   UNL A   1      33.687  33.727  32.776  1.00  0.00     0.016 A 
ATOM     30  C   UNL A   1      36.216  34.960  32.727  1.00  0.00     0.010 A 
ATOM     31  C   UNL A   1      34.801  33.080  33.319  1.00  0.00     0.010 A 
ATOM     32  C   UNL A   1      36.074  33.681  33.273  1.00  0.00    -0.014 A 
BRANCH  32  33
ATOM     33  C   UNL A   1      37.278  32.891  33.622  1.00  0.00     0.031 A 
ATOM     34  C   UNL A   1      37.963  33.173  34.930  1.00  0.00     0.074 A 
ATOM     35  C   UNL A   1      37.748  31.936  32.802  1.00  0.00     0.049 A 
ATOM     36  N   UNL A   1      39.079  32.684  35.409  1.00  0.00    -0.248 NA
ATOM     37  C   UNL A   1      37.299  34.141  35.818  1.00  0.00     0.031 C 
ATOM     38  C   UNL A   1      37.137  31.527  31.540  1.00  0.00     0.029 A 
ATOM     39  N   UNL A   1      38.864  31.144  32.910  1.00  0.00    -0.354 N 
ATOM     40  C   UNL A   1      39.258  33.296  36.642  1.00  0.00     0.074 A 
ATOM     41  C   UNL A   1      38.150  34.208  36.831  1.00  0.00     0.031 C 
ATOM     42  C   UNL A   1      37.897  30.569  30.980  1.00  0.00     0.029 A 
ATOM     43  C   UNL A   1      39.065  30.328  31.825  1.00  0.00     0.049 A 
ATOM     44  H   UNL A   1      39.464  31.159  33.692  1.00  0.00     0.167 HD
ATOM     45  C   UNL A   1      40.257  33.111  37.538  1.00  0.00     0.037 A 
ATOM     46  C   UNL A   1      40.093  29.505  31.538  1.00  0.00     0.037 A 
ATOM     47  C   UNL A   1      41.354  32.200  37.347  1.00  0.00     0.049 A 
ATOM     48  C   UNL A   1      41.238  29.383  32.513  1.00  0.00     0.074 A 
ATOM     49  C   UNL A   1      42.407  31.929  38.203  1.00  0.00     0.029 A 
ATOM     50  N   UNL A   1      41.544  31.418  36.217  1.00  0.00    -0.354 N 
ATOM     51  N   UNL A   1      41.399  29.954  33.683  1.00  0.00    -0.248 NA
ATOM     52  C   UNL A   1      42.348  28.498  32.124  1.00  0.00     0.031 C 
ATOM     53  C   UNL A   1      43.266  31.028  37.566  1.00  0.00     0.029 A 
ATOM     54  C   UNL A   1      42.714  30.685  36.342  1.00  0.00     0.049 A 
ATOM     55  H   UNL A   1      40.938  31.387  35.442  1.00  0.00     0.167 HD
ATOM     56  C   UNL A   1      42.603  29.472  34.183  1.00  0.00     0.074 A 
ATOM     57  C   UNL A   1      43.126  28.552  33.196  1.00  0.00     0.031 C 
ATOM     58  C   UNL A   1      43.217  29.762  35.357  1.00  0.00     0.037 A 
BRANCH  45  59
ATOM     59  C   UNL A   1      40.228  33.933  38.792  1.00  0.00     0.064 A 
ATOM     60  C   UNL A   1      40.895  35.164  38.888  1.00  0.00     0.173 A 
ATOM     61  C   UNL A   1      39.485  33.503  39.902  1.00  0.00     0.173 A 
ATOM     62  F   UNL A   1      41.631  35.615  37.861  1.00  0.00    -0.203 F 
ATOM     63  C   UNL A   1      40.834  35.923  40.054  1.00  0.00     0.198 A 
ATOM     64  C   UNL A   1      39.401  34.278  41.055  1.00  0.00     0.198 A 
ATOM     65  F   UNL A   1      38.827  32.334  39.863  1.00  0.00    -0.203 F 
ATOM     66  F   UNL A   1      41.513  37.075  40.138  1.00  0.00    -0.200 F 
ATOM     67  C   UNL A   1      40.080  35.484  41.132  1.00  0.00     0.200 A 
ATOM     68  F   UNL A   1      38.660  33.858  42.090  1.00  0.00    -0.200 F 
ATOM     69  F   UNL A   1      40.011  36.222  42.248  1.00  0.00    -0.200 F 
ENDBRANCH  45  59
BRANCH  46  70
ATOM     70  C   UNL A   1      40.103  28.737  30.264  1.00  0.00     0.064 A 
ATOM     71  C   UNL A   1      40.699  29.264  29.110  1.00  0.00     0.173 A 
ATOM     72  C   UNL A   1      39.491  27.478  30.165  1.00  0.00     0.173 A 
ATOM     73  F   UNL A   1      41.272  30.475  29.146  1.00  0.00    -0.203 F 
ATOM     74  C   UNL A   1      40.664  28.572  27.901  1.00  0.00     0.198 A 
ATOM     75  C   UNL A   1      39.484  26.774  28.963  1.00  0.00     0.198 A 
ATOM     76  F   UNL A   1      38.900  26.932  31.237  1.00  0.00    -0.203 F 
ATOM     77  F   UNL A   1      41.195  29.122  26.801  1.00  0.00    -0.200 F 
ATOM     78  C   UNL A   1      40.062  27.325  27.830  1.00  0.00     0.200 A 
ATOM     79  F   UNL A   1      38.910  25.564  28.902  1.00  0.00    -0.200 F 
ATOM     80  F   UNL A   1      40.030  26.659  26.667  1.00  0.00    -0.200 F 
ENDBRANCH  46  70
BRANCH  58  81
ATOM     81  C   UNL A   1      44.499  29.042  35.668  1.00  0.00     0.064 A 
ATOM     82  C   UNL A   1      45.751  29.579  35.339  1.00  0.00     0.173 A 
ATOM     83  C   UNL A   1      44.472  27.814  36.351  1.00  0.00     0.173 A 
ATOM     84  F   UNL A   1      45.834  30.743  34.675  1.00  0.00    -0.203 F 
ATOM     85  C   UNL A   1      46.927  28.902  35.654  1.00  0.00     0.198 A 
ATOM     86  C   UNL A   1      45.650  27.158  36.696  1.00  0.00     0.198 A 
ATOM     87  F   UNL A   1      43.302  27.259  36.699  1.00  0.00    -0.203 F 
ATOM     88  F   UNL A   1      48.111  29.411  35.284  1.00  0.00    -0.200 F 
ATOM     89  C   UNL A   1      46.876  27.698  36.341  1.00  0.00     0.200 A 
ATOM     90  F   UNL A   1      45.598  26.004  37.374  1.00  0.00    -0.200 F 
ATOM     91  F   UNL A   1      48.009  27.054  36.652  1.00  0.00    -0.200 F 
ENDBRANCH  58  81
ENDBRANCH  32  33
ENDBRANCH  25  27
ENDBRANCH  24  25
ENDBRANCH  23  24
ENDBRANCH  22  23
ENDBRANCH  21  22
ENDBRANCH  20  21
ENDBRANCH   1  20
TORSDOF 21
ENDMDL
