MODEL 1
REMARK VINA RESULT:     -11.0      0.000      0.000
REMARK SMILES Cc1ccc2nc(CC3(CC(=O)OCCOCCOCCOC(=O)c4ccc(-c5c6nc(c(-c7c(F)c(F)c(F)c(F)c7F)c7ccc([nH]7)c(-c7c(F)c(F)c(F)c(F)c7F)c7nc(c(-c8c(F)c(F)c(F)c(F)c8F)c8ccc5[nH]8)C=C7)C=C6)cc4)CCCCC3)sc2c1
REMARK SMILES IDX 17 1 16 2 15 3 14 4 13 5 11 6 12 7 10 8 9 9 88 10 92 11
REMARK SMILES IDX 89 12 91 13 90 14 8 15 7 16 1 17 2 18 3 19 95 20 4 21 94 22
REMARK SMILES IDX 5 23 93 24 6 25 18 26 19 27 20 28 21 29 22 30 23 31 24 32
REMARK SMILES IDX 25 33 26 34 87 35 27 36 86 37 28 38 29 39 30 40 80 41 31 42
REMARK SMILES IDX 85 43 79 44 81 45 32 46 84 47 78 48 77 49 33 51 65 52 45 53
REMARK SMILES IDX 64 54 46 55 49 56 63 57 82 58 47 59 48 60 62 62 83 63 50 64
REMARK SMILES IDX 34 65 35 66 43 67 36 68 37 69 41 70 44 71 38 72 39 73 42 74
REMARK SMILES IDX 40 75 66 76 67 77 75 78 68 79 69 80 73 81 76 82 70 83 71 84
REMARK SMILES IDX 74 85 72 86 51 87 52 88 60 89 53 90 54 91 58 92 61 93 55 94
REMARK SMILES IDX 56 95 59 96 57 97
REMARK H PARENT 81 50 49 61
REMARK Flexibility Score: inf
ROOT
ATOM      1  C   UNL A   1      31.463  27.613  26.300  1.00  0.00     0.188 C 
ENDROOT
BRANCH   1   2
ATOM      2  O   UNL A   1      31.245  26.352  26.923  1.00  0.00    -0.376 OA
BRANCH   2   3
ATOM      3  C   UNL A   1      32.090  25.288  26.495  1.00  0.00     0.202 C 
BRANCH   3   4
ATOM      4  C   UNL A   1      31.560  23.866  26.730  1.00  0.00     0.261 C 
BRANCH   4   5
ATOM      5  O   UNL A   1      31.889  22.924  25.687  1.00  0.00    -0.463 OA
BRANCH   5   6
ATOM      6  C   UNL A   1      33.071  22.280  25.830  1.00  0.00     0.306 C 
ATOM      7  O   UNL A   1      33.490  21.826  26.892  1.00  0.00    -0.252 OA
BRANCH   6   8
ATOM      8  C   UNL A   1      33.838  22.040  24.539  1.00  0.00     0.130 C 
BRANCH   8   9
ATOM      9  C   UNL A   1      34.555  23.175  23.731  1.00  0.00    -0.013 C 
ATOM     10  C   UNL A   1      35.929  22.611  23.240  1.00  0.00     0.008 C 
ATOM     11  C   UNL A   1      34.838  24.439  24.579  1.00  0.00     0.008 C 
ATOM     12  C   UNL A   1      36.964  22.413  24.354  1.00  0.00     0.001 C 
ATOM     13  C   UNL A   1      35.792  24.177  25.738  1.00  0.00     0.001 C 
ATOM     14  C   UNL A   1      37.130  23.655  25.220  1.00  0.00     0.000 C 
BRANCH   9  15
ATOM     15  C   UNL A   1      33.680  23.494  22.477  1.00  0.00     0.075 C 
BRANCH  15  16
ATOM     16  C   UNL A   1      32.712  24.643  22.619  1.00  0.00     0.094 A 
ATOM     17  C   UNL A   1      29.070  29.657  22.775  1.00  0.00     0.044 C 
ATOM     18  C   UNL A   1      29.691  28.293  22.891  1.00  0.00    -0.050 A 
ATOM     19  C   UNL A   1      28.991  27.249  23.501  1.00  0.00     0.006 A 
ATOM     20  C   UNL A   1      30.979  28.067  22.376  1.00  0.00     0.024 A 
ATOM     21  C   UNL A   1      29.553  25.973  23.601  1.00  0.00     0.030 A 
ATOM     22  C   UNL A   1      31.545  26.786  22.510  1.00  0.00     0.055 A 
ATOM     23  C   UNL A   1      30.845  25.733  23.098  1.00  0.00     0.082 A 
ATOM     24  S   UNL A   1      33.108  26.221  22.051  1.00  0.00    -0.119 S 
ATOM     25  N   UNL A   1      31.508  24.521  23.131  1.00  0.00    -0.241 NA
ENDBRANCH  15  16
ENDBRANCH   9  15
ENDBRANCH   8   9
ENDBRANCH   6   8
ENDBRANCH   5   6
ENDBRANCH   4   5
ENDBRANCH   3   4
ENDBRANCH   2   3
ENDBRANCH   1   2
BRANCH   1  26
ATOM     26  C   UNL A   1      32.069  28.706  27.185  1.00  0.00     0.188 C 
BRANCH  26  27
ATOM     27  O   UNL A   1      31.734  30.020  26.766  1.00  0.00    -0.376 OA
BRANCH  27  28
ATOM     28  C   UNL A   1      32.619  31.092  27.100  1.00  0.00     0.202 C 
BRANCH  28  29
ATOM     29  C   UNL A   1      32.089  32.532  27.251  1.00  0.00     0.261 C 
BRANCH  29  30
ATOM     30  O   UNL A   1      33.095  33.561  27.207  1.00  0.00    -0.460 OA
BRANCH  30  31
ATOM     31  C   UNL A   1      33.259  34.304  28.325  1.00  0.00     0.338 C 
ATOM     32  O   UNL A   1      32.528  35.189  28.729  1.00  0.00    -0.246 OA
BRANCH  31  33
ATOM     33  C   UNL A   1      34.357  33.695  29.122  1.00  0.00     0.060 A 
ATOM     34  C   UNL A   1      35.674  34.062  28.818  1.00  0.00     0.016 A 
ATOM     35  C   UNL A   1      34.107  32.845  30.201  1.00  0.00     0.016 A 
ATOM     36  C   UNL A   1      36.746  33.549  29.550  1.00  0.00     0.010 A 
ATOM     37  C   UNL A   1      35.182  32.317  30.929  1.00  0.00     0.010 A 
ATOM     38  C   UNL A   1      36.509  32.637  30.583  1.00  0.00    -0.014 A 
BRANCH  38  39
ATOM     39  C   UNL A   1      37.636  31.849  31.144  1.00  0.00     0.031 A 
ATOM     40  C   UNL A   1      38.084  32.162  32.546  1.00  0.00     0.074 A 
ATOM     41  C   UNL A   1      38.236  30.859  30.458  1.00  0.00     0.049 A 
ATOM     42  N   UNL A   1      39.094  31.686  33.228  1.00  0.00    -0.248 NA
ATOM     43  C   UNL A   1      37.278  33.152  33.278  1.00  0.00     0.031 C 
ATOM     44  C   UNL A   1      37.860  30.401  29.125  1.00  0.00     0.029 A 
ATOM     45  N   UNL A   1      39.304  30.063  30.800  1.00  0.00    -0.354 N 
ATOM     46  C   UNL A   1      39.055  32.332  34.457  1.00  0.00     0.074 A 
ATOM     47  C   UNL A   1      37.938  33.250  34.420  1.00  0.00     0.031 C 
ATOM     48  C   UNL A   1      38.697  29.416  28.751  1.00  0.00     0.029 A 
ATOM     49  C   UNL A   1      39.691  29.202  29.803  1.00  0.00     0.049 A 
ATOM     50  H   UNL A   1      39.748  30.107  31.678  1.00  0.00     0.167 HD
ATOM     51  C   UNL A   1      39.873  32.173  35.523  1.00  0.00     0.037 A 
ATOM     52  C   UNL A   1      40.746  28.364  29.737  1.00  0.00     0.037 A 
ATOM     53  C   UNL A   1      40.981  31.255  35.568  1.00  0.00     0.049 A 
ATOM     54  C   UNL A   1      41.699  28.267  30.905  1.00  0.00     0.074 A 
ATOM     55  C   UNL A   1      41.859  31.015  36.609  1.00  0.00     0.029 A 
ATOM     56  N   UNL A   1      41.364  30.430  34.522  1.00  0.00    -0.354 N 
ATOM     57  N   UNL A   1      41.657  28.879  32.065  1.00  0.00    -0.248 NA
ATOM     58  C   UNL A   1      42.847  27.361  30.753  1.00  0.00     0.031 C 
ATOM     59  C   UNL A   1      42.810  30.089  36.174  1.00  0.00     0.029 A 
ATOM     60  C   UNL A   1      42.486  29.701  34.885  1.00  0.00     0.049 A 
ATOM     61  H   UNL A   1      40.908  30.370  33.652  1.00  0.00     0.167 HD
ATOM     62  C   UNL A   1      42.748  28.409  32.787  1.00  0.00     0.074 A 
ATOM     63  C   UNL A   1      43.429  27.454  31.941  1.00  0.00     0.031 C 
ATOM     64  C   UNL A   1      43.149  28.740  34.040  1.00  0.00     0.037 A 
BRANCH  51  65
ATOM     65  C   UNL A   1      39.626  33.045  36.719  1.00  0.00     0.064 A 
ATOM     66  C   UNL A   1      38.698  32.698  37.712  1.00  0.00     0.173 A 
ATOM     67  C   UNL A   1      40.346  34.238  36.880  1.00  0.00     0.173 A 
ATOM     68  F   UNL A   1      37.970  31.578  37.594  1.00  0.00    -0.203 F 
ATOM     69  C   UNL A   1      38.481  33.529  38.808  1.00  0.00     0.198 A 
ATOM     70  C   UNL A   1      40.150  35.049  37.994  1.00  0.00     0.198 A 
ATOM     71  F   UNL A   1      41.246  34.616  35.960  1.00  0.00    -0.203 F 
ATOM     72  F   UNL A   1      37.551  33.205  39.718  1.00  0.00    -0.200 F 
ATOM     73  C   UNL A   1      39.212  34.697  38.954  1.00  0.00     0.200 A 
ATOM     74  F   UNL A   1      40.868  36.172  38.138  1.00  0.00    -0.200 F 
ATOM     75  F   UNL A   1      39.007  35.492  40.013  1.00  0.00    -0.200 F 
ENDBRANCH  51  65
BRANCH  52  76
ATOM     76  C   UNL A   1      40.989  27.565  28.505  1.00  0.00     0.064 A 
ATOM     77  C   UNL A   1      41.850  28.024  27.498  1.00  0.00     0.173 A 
ATOM     78  C   UNL A   1      40.331  26.344  28.290  1.00  0.00     0.173 A 
ATOM     79  F   UNL A   1      42.475  29.201  27.638  1.00  0.00    -0.203 F 
ATOM     80  C   UNL A   1      42.029  27.303  26.318  1.00  0.00     0.198 A 
ATOM     81  C   UNL A   1      40.535  25.609  27.124  1.00  0.00     0.198 A 
ATOM     82  F   UNL A   1      39.487  25.864  29.216  1.00  0.00    -0.203 F 
ATOM     83  F   UNL A   1      42.814  27.794  25.349  1.00  0.00    -0.200 F 
ATOM     84  C   UNL A   1      41.376  26.093  26.136  1.00  0.00     0.200 A 
ATOM     85  F   UNL A   1      39.906  24.437  26.955  1.00  0.00    -0.200 F 
ATOM     86  F   UNL A   1      41.548  25.401  25.001  1.00  0.00    -0.200 F 
ENDBRANCH  52  76
BRANCH  64  87
ATOM     87  C   UNL A   1      44.350  28.031  34.601  1.00  0.00     0.064 A 
ATOM     88  C   UNL A   1      45.640  28.577  34.517  1.00  0.00     0.173 A 
ATOM     89  C   UNL A   1      44.198  26.812  35.282  1.00  0.00     0.173 A 
ATOM     90  F   UNL A   1      45.842  29.733  33.868  1.00  0.00    -0.203 F 
ATOM     91  C   UNL A   1      46.734  27.916  35.071  1.00  0.00     0.198 A 
ATOM     92  C   UNL A   1      45.289  26.172  35.863  1.00  0.00     0.198 A 
ATOM     93  F   UNL A   1      42.986  26.251  35.402  1.00  0.00    -0.203 F 
ATOM     94  F   UNL A   1      47.964  28.433  34.937  1.00  0.00    -0.200 F 
ATOM     95  C   UNL A   1      46.558  26.720  35.750  1.00  0.00     0.200 A 
ATOM     96  F   UNL A   1      45.114  25.026  36.534  1.00  0.00    -0.200 F 
ATOM     97  F   UNL A   1      47.611  26.092  36.291  1.00  0.00    -0.200 F 
ENDBRANCH  64  87
ENDBRANCH  38  39
ENDBRANCH  31  33
ENDBRANCH  30  31
ENDBRANCH  29  30
ENDBRANCH  28  29
ENDBRANCH  27  28
ENDBRANCH  26  27
ENDBRANCH   1  26
TORSDOF 20
ENDMDL
MODEL 2
REMARK VINA RESULT:     -10.8      3.062      8.194
REMARK SMILES Cc1ccc2nc(CC3(CC(=O)OCCOCCOCCOC(=O)c4ccc(-c5c6nc(c(-c7c(F)c(F)c(F)c(F)c7F)c7ccc([nH]7)c(-c7c(F)c(F)c(F)c(F)c7F)c7nc(c(-c8c(F)c(F)c(F)c(F)c8F)c8ccc5[nH]8)C=C7)C=C6)cc4)CCCCC3)sc2c1
REMARK SMILES IDX 17 1 16 2 15 3 14 4 13 5 11 6 12 7 10 8 9 9 88 10 92 11
REMARK SMILES IDX 89 12 91 13 90 14 8 15 7 16 1 17 2 18 3 19 95 20 4 21 94 22
REMARK SMILES IDX 5 23 93 24 6 25 18 26 19 27 20 28 21 29 22 30 23 31 24 32
REMARK SMILES IDX 25 33 26 34 87 35 27 36 86 37 28 38 29 39 30 40 80 41 31 42
REMARK SMILES IDX 85 43 79 44 81 45 32 46 84 47 78 48 77 49 33 51 65 52 45 53
REMARK SMILES IDX 64 54 46 55 49 56 63 57 82 58 47 59 48 60 62 62 83 63 50 64
REMARK SMILES IDX 34 65 35 66 43 67 36 68 37 69 41 70 44 71 38 72 39 73 42 74
REMARK SMILES IDX 40 75 66 76 67 77 75 78 68 79 69 80 73 81 76 82 70 83 71 84
REMARK SMILES IDX 74 85 72 86 51 87 52 88 60 89 53 90 54 91 58 92 61 93 55 94
REMARK SMILES IDX 56 95 59 96 57 97
REMARK H PARENT 81 50 49 61
REMARK Flexibility Score: inf
ROOT
ATOM      1  C   UNL A   1      40.028  21.111  26.720  1.00  0.00     0.188 C 
ENDROOT
BRANCH   1   2
ATOM      2  O   UNL A   1      39.656  22.130  25.799  1.00  0.00    -0.376 OA
BRANCH   2   3
ATOM      3  C   UNL A   1      38.966  23.249  26.349  1.00  0.00     0.202 C 
BRANCH   3   4
ATOM      4  C   UNL A   1      37.559  23.516  25.794  1.00  0.00     0.261 C 
BRANCH   4   5
ATOM      5  O   UNL A   1      36.585  22.501  26.115  1.00  0.00    -0.463 OA
BRANCH   5   6
ATOM      6  C   UNL A   1      36.225  21.690  25.093  1.00  0.00     0.306 C 
ATOM      7  O   UNL A   1      36.762  20.615  24.837  1.00  0.00    -0.252 OA
BRANCH   6   8
ATOM      8  C   UNL A   1      35.002  22.140  24.309  1.00  0.00     0.130 C 
BRANCH   8   9
ATOM      9  C   UNL A   1      33.548  22.137  24.892  1.00  0.00    -0.013 C 
ATOM     10  C   UNL A   1      33.421  20.900  25.842  1.00  0.00     0.008 C 
ATOM     11  C   UNL A   1      32.456  22.012  23.803  1.00  0.00     0.008 C 
ATOM     12  C   UNL A   1      33.396  19.549  25.117  1.00  0.00     0.001 C 
ATOM     13  C   UNL A   1      32.529  20.697  23.036  1.00  0.00     0.001 C 
ATOM     14  C   UNL A   1      32.373  19.514  23.988  1.00  0.00     0.000 C 
BRANCH   9  15
ATOM     15  C   UNL A   1      33.375  23.431  25.750  1.00  0.00     0.075 C 
BRANCH  15  16
ATOM     16  C   UNL A   1      32.646  24.574  25.086  1.00  0.00     0.094 A 
ATOM     17  C   UNL A   1      30.154  29.343  22.008  1.00  0.00     0.044 C 
ATOM     18  C   UNL A   1      30.438  28.128  22.845  1.00  0.00    -0.050 A 
ATOM     19  C   UNL A   1      29.398  27.465  23.502  1.00  0.00     0.006 A 
ATOM     20  C   UNL A   1      31.756  27.653  22.961  1.00  0.00     0.024 A 
ATOM     21  C   UNL A   1      29.648  26.325  24.271  1.00  0.00     0.030 A 
ATOM     22  C   UNL A   1      31.999  26.523  23.763  1.00  0.00     0.055 A 
ATOM     23  C   UNL A   1      30.964  25.842  24.403  1.00  0.00     0.082 A 
ATOM     24  S   UNL A   1      33.490  25.752  24.154  1.00  0.00    -0.119 S 
ATOM     25  N   UNL A   1      31.342  24.728  25.129  1.00  0.00    -0.241 NA
ENDBRANCH  15  16
ENDBRANCH   9  15
ENDBRANCH   8   9
ENDBRANCH   6   8
ENDBRANCH   5   6
ENDBRANCH   4   5
ENDBRANCH   3   4
ENDBRANCH   2   3
ENDBRANCH   1   2
BRANCH   1  26
ATOM     26  C   UNL A   1      40.350  19.742  26.115  1.00  0.00     0.188 C 
BRANCH  26  27
ATOM     27  O   UNL A   1      41.599  19.704  25.441  1.00  0.00    -0.376 OA
BRANCH  27  28
ATOM     28  C   UNL A   1      42.738  20.289  26.076  1.00  0.00     0.202 C 
BRANCH  28  29
ATOM     29  C   UNL A   1      43.547  21.398  25.375  1.00  0.00     0.261 C 
BRANCH  29  30
ATOM     30  O   UNL A   1      42.896  22.681  25.312  1.00  0.00    -0.460 OA
BRANCH  30  31
ATOM     31  C   UNL A   1      43.695  23.767  25.201  1.00  0.00     0.338 C 
ATOM     32  O   UNL A   1      44.384  24.074  24.246  1.00  0.00    -0.246 OA
BRANCH  31  33
ATOM     33  C   UNL A   1      43.405  24.667  26.348  1.00  0.00     0.060 A 
ATOM     34  C   UNL A   1      42.562  24.191  27.362  1.00  0.00     0.016 A 
ATOM     35  C   UNL A   1      44.006  25.920  26.480  1.00  0.00     0.016 A 
ATOM     36  C   UNL A   1      42.276  24.976  28.480  1.00  0.00     0.010 A 
ATOM     37  C   UNL A   1      43.710  26.716  27.595  1.00  0.00     0.010 A 
ATOM     38  C   UNL A   1      42.814  26.263  28.582  1.00  0.00    -0.014 A 
BRANCH  38  39
ATOM     39  C   UNL A   1      42.268  27.213  29.585  1.00  0.00     0.031 A 
ATOM     40  C   UNL A   1      42.966  27.310  30.914  1.00  0.00     0.074 A 
ATOM     41  C   UNL A   1      41.205  27.998  29.331  1.00  0.00     0.049 A 
ATOM     42  N   UNL A   1      42.639  27.989  31.984  1.00  0.00    -0.248 NA
ATOM     43  C   UNL A   1      44.207  26.530  31.053  1.00  0.00     0.031 C 
ATOM     44  C   UNL A   1      40.478  28.061  28.068  1.00  0.00     0.029 A 
ATOM     45  N   UNL A   1      40.550  28.894  30.144  1.00  0.00    -0.354 N 
ATOM     46  C   UNL A   1      43.620  27.702  32.925  1.00  0.00     0.074 A 
ATOM     47  C   UNL A   1      44.540  26.771  32.310  1.00  0.00     0.031 C 
ATOM     48  C   UNL A   1      39.463  28.935  28.193  1.00  0.00     0.029 A 
ATOM     49  C   UNL A   1      39.445  29.463  29.558  1.00  0.00     0.049 A 
ATOM     50  H   UNL A   1      40.845  29.106  31.058  1.00  0.00     0.167 HD
ATOM     51  C   UNL A   1      43.746  28.175  34.187  1.00  0.00     0.037 A 
ATOM     52  C   UNL A   1      38.512  30.287  30.077  1.00  0.00     0.037 A 
ATOM     53  C   UNL A   1      42.838  29.107  34.800  1.00  0.00     0.049 A 
ATOM     54  C   UNL A   1      38.623  30.732  31.516  1.00  0.00     0.074 A 
ATOM     55  C   UNL A   1      42.890  29.652  36.070  1.00  0.00     0.029 A 
ATOM     56  N   UNL A   1      41.709  29.628  34.187  1.00  0.00    -0.354 N 
ATOM     57  N   UNL A   1      39.553  30.459  32.400  1.00  0.00    -0.248 NA
ATOM     58  C   UNL A   1      37.553  31.601  32.028  1.00  0.00     0.031 C 
ATOM     59  C   UNL A   1      41.762  30.457  36.248  1.00  0.00     0.029 A 
ATOM     60  C   UNL A   1      41.041  30.467  35.065  1.00  0.00     0.049 A 
ATOM     61  H   UNL A   1      41.424  29.433  33.265  1.00  0.00     0.167 HD
ATOM     62  C   UNL A   1      39.196  31.145  33.556  1.00  0.00     0.074 A 
ATOM     63  C   UNL A   1      37.972  31.856  33.259  1.00  0.00     0.031 C 
ATOM     64  C   UNL A   1      39.829  31.183  34.756  1.00  0.00     0.037 A 
BRANCH  51  65
ATOM     65  C   UNL A   1      44.889  27.653  35.007  1.00  0.00     0.064 A 
ATOM     66  C   UNL A   1      46.130  28.305  35.049  1.00  0.00     0.173 A 
ATOM     67  C   UNL A   1      44.730  26.493  35.779  1.00  0.00     0.173 A 
ATOM     68  F   UNL A   1      46.340  29.407  34.314  1.00  0.00    -0.203 F 
ATOM     69  C   UNL A   1      47.179  27.798  35.813  1.00  0.00     0.198 A 
ATOM     70  C   UNL A   1      45.769  26.007  36.567  1.00  0.00     0.198 A 
ATOM     71  F   UNL A   1      43.562  25.832  35.775  1.00  0.00    -0.203 F 
ATOM     72  F   UNL A   1      48.373  28.406  35.796  1.00  0.00    -0.200 F 
ATOM     73  C   UNL A   1      46.995  26.656  36.577  1.00  0.00     0.200 A 
ATOM     74  F   UNL A   1      45.585  24.910  37.315  1.00  0.00    -0.200 F 
ATOM     75  F   UNL A   1      48.003  26.172  37.316  1.00  0.00    -0.200 F 
ENDBRANCH  51  65
BRANCH  52  76
ATOM     76  C   UNL A   1      37.359  30.727  29.244  1.00  0.00     0.064 A 
ATOM     77  C   UNL A   1      37.263  32.044  28.772  1.00  0.00     0.173 A 
ATOM     78  C   UNL A   1      36.308  29.849  28.937  1.00  0.00     0.173 A 
ATOM     79  F   UNL A   1      38.224  32.931  29.067  1.00  0.00    -0.203 F 
ATOM     80  C   UNL A   1      36.154  32.470  28.044  1.00  0.00     0.198 A 
ATOM     81  C   UNL A   1      35.214  30.267  28.183  1.00  0.00     0.198 A 
ATOM     82  F   UNL A   1      36.343  28.581  29.374  1.00  0.00    -0.203 F 
ATOM     83  F   UNL A   1      36.062  33.749  27.654  1.00  0.00    -0.200 F 
ATOM     84  C   UNL A   1      35.134  31.579  27.744  1.00  0.00     0.200 A 
ATOM     85  F   UNL A   1      34.234  29.401  27.891  1.00  0.00    -0.200 F 
ATOM     86  F   UNL A   1      34.067  31.990  27.044  1.00  0.00    -0.200 F 
ENDBRANCH  52  76
BRANCH  64  87
ATOM     87  C   UNL A   1      39.245  32.060  35.828  1.00  0.00     0.064 A 
ATOM     88  C   UNL A   1      38.302  31.577  36.748  1.00  0.00     0.173 A 
ATOM     89  C   UNL A   1      39.677  33.388  35.970  1.00  0.00     0.173 A 
ATOM     90  F   UNL A   1      37.847  30.318  36.651  1.00  0.00    -0.203 F 
ATOM     91  C   UNL A   1      37.796  32.399  37.753  1.00  0.00     0.198 A 
ATOM     92  C   UNL A   1      39.193  34.196  36.995  1.00  0.00     0.198 A 
ATOM     93  F   UNL A   1      40.585  33.898  35.124  1.00  0.00    -0.203 F 
ATOM     94  F   UNL A   1      36.862  31.930  38.592  1.00  0.00    -0.200 F 
ATOM     95  C   UNL A   1      38.248  33.703  37.881  1.00  0.00     0.200 A 
ATOM     96  F   UNL A   1      39.645  35.451  37.129  1.00  0.00    -0.200 F 
ATOM     97  F   UNL A   1      37.767  34.488  38.856  1.00  0.00    -0.200 F 
ENDBRANCH  64  87
ENDBRANCH  38  39
ENDBRANCH  31  33
ENDBRANCH  30  31
ENDBRANCH  29  30
ENDBRANCH  28  29
ENDBRANCH  27  28
ENDBRANCH  26  27
ENDBRANCH   1  26
TORSDOF 20
ENDMDL
MODEL 3
REMARK VINA RESULT:     -10.8      0.711      7.267
REMARK SMILES Cc1ccc2nc(CC3(CC(=O)OCCOCCOCCOC(=O)c4ccc(-c5c6nc(c(-c7c(F)c(F)c(F)c(F)c7F)c7ccc([nH]7)c(-c7c(F)c(F)c(F)c(F)c7F)c7nc(c(-c8c(F)c(F)c(F)c(F)c8F)c8ccc5[nH]8)C=C7)C=C6)cc4)CCCCC3)sc2c1
REMARK SMILES IDX 17 1 16 2 15 3 14 4 13 5 11 6 12 7 10 8 9 9 88 10 92 11
REMARK SMILES IDX 89 12 91 13 90 14 8 15 7 16 1 17 2 18 3 19 95 20 4 21 94 22
REMARK SMILES IDX 5 23 93 24 6 25 18 26 19 27 20 28 21 29 22 30 23 31 24 32
REMARK SMILES IDX 25 33 26 34 87 35 27 36 86 37 28 38 29 39 30 40 80 41 31 42
REMARK SMILES IDX 85 43 79 44 81 45 32 46 84 47 78 48 77 49 33 51 65 52 45 53
REMARK SMILES IDX 64 54 46 55 49 56 63 57 82 58 47 59 48 60 62 62 83 63 50 64
REMARK SMILES IDX 34 65 35 66 43 67 36 68 37 69 41 70 44 71 38 72 39 73 42 74
REMARK SMILES IDX 40 75 66 76 67 77 75 78 68 79 69 80 73 81 76 82 70 83 71 84
REMARK SMILES IDX 74 85 72 86 51 87 52 88 60 89 53 90 54 91 58 92 61 93 55 94
REMARK SMILES IDX 56 95 59 96 57 97
REMARK H PARENT 81 50 49 61
REMARK Flexibility Score: inf
ROOT
ATOM      1  C   UNL A   1      31.466  27.695  26.306  1.00  0.00     0.188 C 
ENDROOT
BRANCH   1   2
ATOM      2  O   UNL A   1      31.041  26.460  26.872  1.00  0.00    -0.376 OA
BRANCH   2   3
ATOM      3  C   UNL A   1      31.921  25.354  26.694  1.00  0.00     0.202 C 
BRANCH   3   4
ATOM      4  C   UNL A   1      31.313  23.962  26.920  1.00  0.00     0.261 C 
BRANCH   4   5
ATOM      5  O   UNL A   1      32.041  22.882  26.298  1.00  0.00    -0.463 OA
BRANCH   5   6
ATOM      6  C   UNL A   1      33.385  22.910  26.462  1.00  0.00     0.306 C 
ATOM      7  O   UNL A   1      33.972  22.481  27.452  1.00  0.00    -0.252 OA
BRANCH   6   8
ATOM      8  C   UNL A   1      34.173  23.418  25.265  1.00  0.00     0.130 C 
BRANCH   8   9
ATOM      9  C   UNL A   1      34.474  22.553  23.993  1.00  0.00    -0.013 C 
ATOM     10  C   UNL A   1      34.684  21.076  24.465  1.00  0.00     0.008 C 
ATOM     11  C   UNL A   1      35.754  22.999  23.245  1.00  0.00     0.008 C 
ATOM     12  C   UNL A   1      35.989  20.840  25.236  1.00  0.00     0.001 C 
ATOM     13  C   UNL A   1      37.017  22.843  24.083  1.00  0.00     0.001 C 
ATOM     14  C   UNL A   1      37.206  21.388  24.500  1.00  0.00     0.000 C 
BRANCH   9  15
ATOM     15  C   UNL A   1      33.212  22.599  23.075  1.00  0.00     0.075 C 
BRANCH  15  16
ATOM     16  C   UNL A   1      32.461  23.909  23.044  1.00  0.00     0.094 A 
ATOM     17  C   UNL A   1      29.787  29.474  22.493  1.00  0.00     0.044 C 
ATOM     18  C   UNL A   1      30.142  28.041  22.774  1.00  0.00    -0.050 A 
ATOM     19  C   UNL A   1      29.232  27.202  23.420  1.00  0.00     0.006 A 
ATOM     20  C   UNL A   1      31.395  27.542  22.376  1.00  0.00     0.024 A 
ATOM     21  C   UNL A   1      29.546  25.863  23.673  1.00  0.00     0.030 A 
ATOM     22  C   UNL A   1      31.711  26.202  22.663  1.00  0.00     0.055 A 
ATOM     23  C   UNL A   1      30.799  25.352  23.288  1.00  0.00     0.082 A 
ATOM     24  S   UNL A   1      33.168  25.328  22.371  1.00  0.00    -0.119 S 
ATOM     25  N   UNL A   1      31.229  24.051  23.476  1.00  0.00    -0.241 NA
ENDBRANCH  15  16
ENDBRANCH   9  15
ENDBRANCH   8   9
ENDBRANCH   6   8
ENDBRANCH   5   6
ENDBRANCH   4   5
ENDBRANCH   3   4
ENDBRANCH   2   3
ENDBRANCH   1   2
BRANCH   1  26
ATOM     26  C   UNL A   1      31.802  28.811  27.300  1.00  0.00     0.188 C 
BRANCH  26  27
ATOM     27  O   UNL A   1      31.747  30.109  26.728  1.00  0.00    -0.376 OA
BRANCH  27  28
ATOM     28  C   UNL A   1      32.668  31.100  27.190  1.00  0.00     0.202 C 
BRANCH  28  29
ATOM     29  C   UNL A   1      32.242  32.577  27.305  1.00  0.00     0.261 C 
BRANCH  29  30
ATOM     30  O   UNL A   1      33.326  33.523  27.361  1.00  0.00    -0.460 OA
BRANCH  30  31
ATOM     31  C   UNL A   1      33.367  34.344  28.435  1.00  0.00     0.338 C 
ATOM     32  O   UNL A   1      32.532  35.168  28.759  1.00  0.00    -0.246 OA
BRANCH  31  33
ATOM     33  C   UNL A   1      34.490  33.904  29.304  1.00  0.00     0.060 A 
ATOM     34  C   UNL A   1      35.779  34.357  28.996  1.00  0.00     0.016 A 
ATOM     35  C   UNL A   1      34.284  33.131  30.449  1.00  0.00     0.016 A 
ATOM     36  C   UNL A   1      36.871  34.004  29.791  1.00  0.00     0.010 A 
ATOM     37  C   UNL A   1      35.380  32.763  31.242  1.00  0.00     0.010 A 
ATOM     38  C   UNL A   1      36.684  33.167  30.896  1.00  0.00    -0.014 A 
BRANCH  38  39
ATOM     39  C   UNL A   1      37.858  32.532  31.546  1.00  0.00     0.031 A 
ATOM     40  C   UNL A   1      38.560  31.426  30.806  1.00  0.00     0.074 A 
ATOM     41  C   UNL A   1      38.324  32.933  32.743  1.00  0.00     0.049 A 
ATOM     42  N   UNL A   1      39.545  30.655  31.190  1.00  0.00    -0.248 NA
ATOM     43  C   UNL A   1      38.080  31.154  29.442  1.00  0.00     0.031 C 
ATOM     44  C   UNL A   1      37.791  34.036  33.536  1.00  0.00     0.029 A 
ATOM     45  N   UNL A   1      39.361  32.441  33.502  1.00  0.00    -0.354 N 
ATOM     46  C   UNL A   1      39.787  29.796  30.125  1.00  0.00     0.074 A 
ATOM     47  C   UNL A   1      38.832  30.124  29.089  1.00  0.00     0.031 C 
ATOM     48  C   UNL A   1      38.491  34.126  34.682  1.00  0.00     0.029 A 
ATOM     49  C   UNL A   1      39.496  33.063  34.719  1.00  0.00     0.049 A 
ATOM     50  H   UNL A   1      39.950  31.713  33.200  1.00  0.00     0.167 HD
ATOM     51  C   UNL A   1      40.722  28.825  30.017  1.00  0.00     0.037 A 
ATOM     52  C   UNL A   1      40.314  32.782  35.754  1.00  0.00     0.037 A 
ATOM     53  C   UNL A   1      41.679  28.500  31.041  1.00  0.00     0.049 A 
ATOM     54  C   UNL A   1      41.291  31.635  35.646  1.00  0.00     0.074 A 
ATOM     55  C   UNL A   1      42.673  27.539  31.018  1.00  0.00     0.029 A 
ATOM     56  N   UNL A   1      41.756  29.127  32.276  1.00  0.00    -0.354 N 
ATOM     57  N   UNL A   1      41.516  30.828  34.637  1.00  0.00    -0.248 NA
ATOM     58  C   UNL A   1      42.127  31.362  36.824  1.00  0.00     0.031 C 
ATOM     59  C   UNL A   1      43.314  27.543  32.260  1.00  0.00     0.029 A 
ATOM     60  C   UNL A   1      42.764  28.551  33.033  1.00  0.00     0.049 A 
ATOM     61  H   UNL A   1      41.181  29.870  32.570  1.00  0.00     0.167 HD
ATOM     62  C   UNL A   1      42.536  29.977  35.047  1.00  0.00     0.074 A 
ATOM     63  C   UNL A   1      42.895  30.371  36.391  1.00  0.00     0.031 C 
ATOM     64  C   UNL A   1      43.124  28.960  34.368  1.00  0.00     0.037 A 
BRANCH  51  65
ATOM     65  C   UNL A   1      40.727  28.009  28.757  1.00  0.00     0.064 A 
ATOM     66  C   UNL A   1      41.499  28.369  27.643  1.00  0.00     0.173 A 
ATOM     67  C   UNL A   1      39.960  26.837  28.675  1.00  0.00     0.173 A 
ATOM     68  F   UNL A   1      42.234  29.491  27.664  1.00  0.00    -0.203 F 
ATOM     69  C   UNL A   1      41.481  27.600  26.482  1.00  0.00     0.198 A 
ATOM     70  C   UNL A   1      39.971  26.053  27.525  1.00  0.00     0.198 A 
ATOM     71  F   UNL A   1      39.205  26.448  29.713  1.00  0.00    -0.203 F 
ATOM     72  F   UNL A   1      42.184  27.991  25.410  1.00  0.00    -0.200 F 
ATOM     73  C   UNL A   1      40.725  26.439  26.427  1.00  0.00     0.200 A 
ATOM     74  F   UNL A   1      39.248  24.925  27.479  1.00  0.00    -0.200 F 
ATOM     75  F   UNL A   1      40.713  25.696  25.312  1.00  0.00    -0.200 F 
ENDBRANCH  51  65
BRANCH  52  76
ATOM     76  C   UNL A   1      40.229  33.578  37.010  1.00  0.00     0.064 A 
ATOM     77  C   UNL A   1      39.306  33.255  38.015  1.00  0.00     0.173 A 
ATOM     78  C   UNL A   1      41.042  34.704  37.212  1.00  0.00     0.173 A 
ATOM     79  F   UNL A   1      38.482  32.210  37.855  1.00  0.00    -0.203 F 
ATOM     80  C   UNL A   1      39.187  34.037  39.162  1.00  0.00     0.198 A 
ATOM     81  C   UNL A   1      40.944  35.467  38.373  1.00  0.00     0.198 A 
ATOM     82  F   UNL A   1      41.934  35.065  36.277  1.00  0.00    -0.203 F 
ATOM     83  F   UNL A   1      38.257  33.738  40.080  1.00  0.00    -0.200 F 
ATOM     84  C   UNL A   1      40.011  35.138  39.344  1.00  0.00     0.200 A 
ATOM     85  F   UNL A   1      41.746  36.526  38.547  1.00  0.00    -0.200 F 
ATOM     86  F   UNL A   1      39.894  35.890  40.447  1.00  0.00    -0.200 F 
ENDBRANCH  52  76
BRANCH  64  87
ATOM     87  C   UNL A   1      44.254  28.230  35.039  1.00  0.00     0.064 A 
ATOM     88  C   UNL A   1      44.040  27.063  35.789  1.00  0.00     0.173 A 
ATOM     89  C   UNL A   1      45.576  28.675  34.883  1.00  0.00     0.173 A 
ATOM     90  F   UNL A   1      42.795  26.601  35.977  1.00  0.00    -0.203 F 
ATOM     91  C   UNL A   1      45.106  26.385  36.377  1.00  0.00     0.198 A 
ATOM     92  C   UNL A   1      46.641  27.977  35.446  1.00  0.00     0.198 A 
ATOM     93  F   UNL A   1      45.838  29.779  34.168  1.00  0.00    -0.203 F 
ATOM     94  F   UNL A   1      44.873  25.299  37.128  1.00  0.00    -0.200 F 
ATOM     95  C   UNL A   1      46.404  26.837  36.199  1.00  0.00     0.200 A 
ATOM     96  F   UNL A   1      47.897  28.405  35.257  1.00  0.00    -0.200 F 
ATOM     97  F   UNL A   1      47.428  26.177  36.758  1.00  0.00    -0.200 F 
ENDBRANCH  64  87
ENDBRANCH  38  39
ENDBRANCH  31  33
ENDBRANCH  30  31
ENDBRANCH  29  30
ENDBRANCH  28  29
ENDBRANCH  27  28
ENDBRANCH  26  27
ENDBRANCH   1  26
TORSDOF 20
ENDMDL
