MODEL 1
REMARK VINA RESULT:     -10.3      0.000      0.000
REMARK SMILES Cc1cc(C(=O)NC2(CC(=O)OCCOCCOCCOC(=O)c3ccc(-c4c5nc(c(-c6c(F)c(F)c(F)c(F)c6F)c6ccc([nH]6)c(-c6c(F)c(F)c(F)c(F)c6F)c6nc(c(-c7c(F)c(F)c(F)c(F)c7F)c7ccc4[nH]7)C=C6)C=C5)cc3)CCC2)sc1C
REMARK SMILES IDX 16 1 15 2 14 3 13 4 12 5 10 6 11 7 9 8 8 9 87 10 89 11 88 12
REMARK SMILES IDX 7 13 5 14 6 15 4 17 1 18 2 19 3 20 91 21 90 22 92 23 17 24
REMARK SMILES IDX 18 25 19 26 20 27 21 28 22 29 23 30 24 31 25 32 86 33 26 34
REMARK SMILES IDX 85 35 27 36 28 37 29 38 79 39 30 40 84 41 78 42 80 43 31 44
REMARK SMILES IDX 83 45 77 46 76 47 32 49 64 50 44 51 63 52 45 53 48 54 62 55
REMARK SMILES IDX 81 56 46 57 47 58 61 60 82 61 49 62 33 63 34 64 42 65 35 66
REMARK SMILES IDX 36 67 40 68 43 69 37 70 38 71 41 72 39 73 65 74 66 75 74 76
REMARK SMILES IDX 67 77 68 78 72 79 75 80 69 81 70 82 73 83 71 84 50 85 51 86
REMARK SMILES IDX 59 87 52 88 53 89 57 90 60 91 54 92 55 93 58 94 56 95
REMARK H PARENT 7 16 80 48 48 59
REMARK Flexibility Score: inf
ROOT
ATOM      1  C   UNL A   1      35.954  23.215  26.092  1.00  0.00     0.188 C 
ENDROOT
BRANCH   1   2
ATOM      2  O   UNL A   1      34.721  23.913  25.989  1.00  0.00    -0.376 OA
BRANCH   2   3
ATOM      3  C   UNL A   1      34.664  25.119  25.246  1.00  0.00     0.202 C 
BRANCH   3   4
ATOM      4  C   UNL A   1      33.655  26.158  25.724  1.00  0.00     0.261 C 
BRANCH   4   5
ATOM      5  O   UNL A   1      34.020  27.511  25.394  1.00  0.00    -0.463 OA
BRANCH   5   6
ATOM      6  C   UNL A   1      33.465  28.022  24.265  1.00  0.00     0.308 C 
ATOM      7  O   UNL A   1      34.080  28.566  23.358  1.00  0.00    -0.252 OA
BRANCH   6   8
ATOM      8  C   UNL A   1      31.965  27.942  24.291  1.00  0.00     0.151 C 
BRANCH   8   9
ATOM      9  C   UNL A   1      31.195  27.762  22.963  1.00  0.00     0.051 C 
ATOM     10  C   UNL A   1      30.744  29.174  22.519  1.00  0.00     0.029 C 
ATOM     11  C   UNL A   1      29.710  27.353  23.082  1.00  0.00     0.029 C 
ATOM     12  C   UNL A   1      29.327  28.843  23.024  1.00  0.00     0.005 C 
BRANCH   9  13
ATOM     13  N   UNL A   1      32.033  27.017  21.999  1.00  0.00    -0.345 N 
ATOM     14  C   UNL A   1      32.468  25.729  21.749  1.00  0.00     0.261 C 
ATOM     15  O   UNL A   1      33.134  25.687  20.704  1.00  0.00    -0.268 OA
ATOM     16  H   UNL A   1      32.397  27.632  21.322  1.00  0.00     0.164 HD
BRANCH  14  17
ATOM     17  C   UNL A   1      32.250  24.497  22.500  1.00  0.00     0.092 A 
ATOM     18  C   UNL A   1      30.744  22.926  25.604  1.00  0.00     0.045 C 
ATOM     19  C   UNL A   1      31.498  23.194  24.341  1.00  0.00    -0.037 A 
ATOM     20  C   UNL A   1      31.372  24.403  23.578  1.00  0.00     0.029 A 
ATOM     21  C   UNL A   1      32.447  22.368  23.770  1.00  0.00     0.005 A 
ATOM     22  S   UNL A   1      33.032  23.009  22.304  1.00  0.00    -0.135 S 
ATOM     23  C   UNL A   1      32.989  21.074  24.281  1.00  0.00     0.056 C 
ENDBRANCH  14  17
ENDBRANCH   9  13
ENDBRANCH   8   9
ENDBRANCH   6   8
ENDBRANCH   5   6
ENDBRANCH   4   5
ENDBRANCH   3   4
ENDBRANCH   2   3
ENDBRANCH   1   2
BRANCH   1  24
ATOM     24  C   UNL A   1      36.315  22.145  25.047  1.00  0.00     0.188 C 
BRANCH  24  25
ATOM     25  O   UNL A   1      37.599  21.538  25.086  1.00  0.00    -0.376 OA
BRANCH  25  26
ATOM     26  C   UNL A   1      37.685  20.144  24.807  1.00  0.00     0.202 C 
BRANCH  26  27
ATOM     27  C   UNL A   1      38.845  19.429  25.493  1.00  0.00     0.261 C 
BRANCH  27  28
ATOM     28  O   UNL A   1      39.820  20.383  25.948  1.00  0.00    -0.460 OA
BRANCH  28  29
ATOM     29  C   UNL A   1      41.091  19.944  25.976  1.00  0.00     0.338 C 
ATOM     30  O   UNL A   1      41.512  18.835  25.660  1.00  0.00    -0.246 OA
BRANCH  29  31
ATOM     31  C   UNL A   1      41.974  21.030  26.405  1.00  0.00     0.060 A 
ATOM     32  C   UNL A   1      42.320  21.131  27.754  1.00  0.00     0.016 A 
ATOM     33  C   UNL A   1      42.331  22.030  25.505  1.00  0.00     0.016 A 
ATOM     34  C   UNL A   1      42.983  22.262  28.228  1.00  0.00     0.010 A 
ATOM     35  C   UNL A   1      43.006  23.158  25.977  1.00  0.00     0.010 A 
ATOM     36  C   UNL A   1      43.301  23.300  27.347  1.00  0.00    -0.014 A 
BRANCH  36  37
ATOM     37  C   UNL A   1      43.798  24.606  27.840  1.00  0.00     0.031 A 
ATOM     38  C   UNL A   1      42.794  25.646  28.241  1.00  0.00     0.074 A 
ATOM     39  C   UNL A   1      45.112  24.881  27.903  1.00  0.00     0.049 A 
ATOM     40  N   UNL A   1      42.941  26.938  28.381  1.00  0.00    -0.248 NA
ATOM     41  C   UNL A   1      41.432  25.159  28.510  1.00  0.00     0.031 C 
ATOM     42  C   UNL A   1      46.191  23.928  27.664  1.00  0.00     0.029 A 
ATOM     43  N   UNL A   1      45.756  26.067  28.160  1.00  0.00    -0.354 N 
ATOM     44  C   UNL A   1      41.680  27.424  28.698  1.00  0.00     0.074 A 
ATOM     45  C   UNL A   1      40.783  26.289  28.747  1.00  0.00     0.031 C 
ATOM     46  C   UNL A   1      47.368  24.571  27.758  1.00  0.00     0.029 A 
ATOM     47  C   UNL A   1      47.115  25.995  27.982  1.00  0.00     0.049 A 
ATOM     48  H   UNL A   1      45.290  26.887  28.443  1.00  0.00     0.167 HD
ATOM     49  C   UNL A   1      41.310  28.709  28.907  1.00  0.00     0.037 A 
ATOM     50  C   UNL A   1      48.038  26.974  27.936  1.00  0.00     0.037 A 
ATOM     51  C   UNL A   1      42.223  29.821  28.886  1.00  0.00     0.049 A 
ATOM     52  C   UNL A   1      47.598  28.408  28.087  1.00  0.00     0.074 A 
ATOM     53  C   UNL A   1      41.955  31.167  29.062  1.00  0.00     0.029 A 
ATOM     54  N   UNL A   1      43.591  29.706  28.684  1.00  0.00    -0.354 N 
ATOM     55  N   UNL A   1      46.395  28.886  28.294  1.00  0.00    -0.248 NA
ATOM     56  C   UNL A   1      48.640  29.439  27.973  1.00  0.00     0.031 C 
ATOM     57  C   UNL A   1      43.157  31.870  28.934  1.00  0.00     0.029 A 
ATOM     58  C   UNL A   1      44.180  30.958  28.723  1.00  0.00     0.049 A 
ATOM     59  H   UNL A   1      44.072  28.860  28.537  1.00  0.00     0.167 HD
ATOM     60  C   UNL A   1      46.537  30.266  28.363  1.00  0.00     0.074 A 
ATOM     61  C   UNL A   1      47.944  30.551  28.176  1.00  0.00     0.031 C 
ATOM     62  C   UNL A   1      45.588  31.213  28.562  1.00  0.00     0.037 A 
BRANCH  49  63
ATOM     63  C   UNL A   1      39.851  28.987  29.118  1.00  0.00     0.064 A 
ATOM     64  C   UNL A   1      39.261  28.949  30.388  1.00  0.00     0.173 A 
ATOM     65  C   UNL A   1      39.037  29.323  28.024  1.00  0.00     0.173 A 
ATOM     66  F   UNL A   1      39.992  28.618  31.462  1.00  0.00    -0.203 F 
ATOM     67  C   UNL A   1      37.904  29.216  30.554  1.00  0.00     0.198 A 
ATOM     68  C   UNL A   1      37.687  29.614  28.197  1.00  0.00     0.198 A 
ATOM     69  F   UNL A   1      39.554  29.375  26.787  1.00  0.00    -0.203 F 
ATOM     70  F   UNL A   1      37.350  29.131  31.771  1.00  0.00    -0.200 F 
ATOM     71  C   UNL A   1      37.120  29.554  29.460  1.00  0.00     0.200 A 
ATOM     72  F   UNL A   1      36.935  29.951  27.140  1.00  0.00    -0.200 F 
ATOM     73  F   UNL A   1      35.816  29.815  29.623  1.00  0.00    -0.200 F 
ENDBRANCH  49  63
BRANCH  50  74
ATOM     74  C   UNL A   1      49.462  26.637  27.672  1.00  0.00     0.064 A 
ATOM     75  C   UNL A   1      50.381  26.511  28.722  1.00  0.00     0.173 A 
ATOM     76  C   UNL A   1      49.934  26.438  26.365  1.00  0.00     0.173 A 
ATOM     77  F   UNL A   1      49.985  26.724  29.985  1.00  0.00    -0.203 F 
ATOM     78  C   UNL A   1      51.718  26.204  28.475  1.00  0.00     0.198 A 
ATOM     79  C   UNL A   1      51.263  26.102  26.122  1.00  0.00     0.198 A 
ATOM     80  F   UNL A   1      49.097  26.556  25.323  1.00  0.00    -0.203 F 
ATOM     81  F   UNL A   1      52.584  26.130  29.495  1.00  0.00    -0.200 F 
ATOM     82  C   UNL A   1      52.156  25.992  27.176  1.00  0.00     0.200 A 
ATOM     83  F   UNL A   1      51.680  25.889  24.866  1.00  0.00    -0.200 F 
ATOM     84  F   UNL A   1      53.440  25.690  26.941  1.00  0.00    -0.200 F 
ENDBRANCH  50  74
BRANCH  62  85
ATOM     85  C   UNL A   1      46.039  32.639  28.652  1.00  0.00     0.064 A 
ATOM     86  C   UNL A   1      46.469  33.201  29.861  1.00  0.00     0.173 A 
ATOM     87  C   UNL A   1      46.118  33.426  27.492  1.00  0.00     0.173 A 
ATOM     88  F   UNL A   1      46.401  32.491  30.998  1.00  0.00    -0.203 F 
ATOM     89  C   UNL A   1      46.955  34.505  29.908  1.00  0.00     0.198 A 
ATOM     90  C   UNL A   1      46.624  34.721  27.539  1.00  0.00     0.198 A 
ATOM     91  F   UNL A   1      45.723  32.928  26.310  1.00  0.00    -0.203 F 
ATOM     92  F   UNL A   1      47.338  35.033  31.079  1.00  0.00    -0.200 F 
ATOM     93  C   UNL A   1      47.041  35.260  28.747  1.00  0.00     0.200 A 
ATOM     94  F   UNL A   1      46.718  35.443  26.414  1.00  0.00    -0.200 F 
ATOM     95  F   UNL A   1      47.524  36.509  28.792  1.00  0.00    -0.200 F 
ENDBRANCH  62  85
ENDBRANCH  36  37
ENDBRANCH  29  31
ENDBRANCH  28  29
ENDBRANCH  27  28
ENDBRANCH  26  27
ENDBRANCH  25  26
ENDBRANCH  24  25
ENDBRANCH   1  24
TORSDOF 20
ENDMDL
MODEL 2
REMARK VINA RESULT:     -10.1      4.544      9.533
REMARK SMILES Cc1cc(C(=O)NC2(CC(=O)OCCOCCOCCOC(=O)c3ccc(-c4c5nc(c(-c6c(F)c(F)c(F)c(F)c6F)c6ccc([nH]6)c(-c6c(F)c(F)c(F)c(F)c6F)c6nc(c(-c7c(F)c(F)c(F)c(F)c7F)c7ccc4[nH]7)C=C6)C=C5)cc3)CCC2)sc1C
REMARK SMILES IDX 16 1 15 2 14 3 13 4 12 5 10 6 11 7 9 8 8 9 87 10 89 11 88 12
REMARK SMILES IDX 7 13 5 14 6 15 4 17 1 18 2 19 3 20 91 21 90 22 92 23 17 24
REMARK SMILES IDX 18 25 19 26 20 27 21 28 22 29 23 30 24 31 25 32 86 33 26 34
REMARK SMILES IDX 85 35 27 36 28 37 29 38 79 39 30 40 84 41 78 42 80 43 31 44
REMARK SMILES IDX 83 45 77 46 76 47 32 49 64 50 44 51 63 52 45 53 48 54 62 55
REMARK SMILES IDX 81 56 46 57 47 58 61 60 82 61 49 62 33 63 34 64 42 65 35 66
REMARK SMILES IDX 36 67 40 68 43 69 37 70 38 71 41 72 39 73 65 74 66 75 74 76
REMARK SMILES IDX 67 77 68 78 72 79 75 80 69 81 70 82 73 83 71 84 50 85 51 86
REMARK SMILES IDX 59 87 52 88 53 89 57 90 60 91 54 92 55 93 58 94 56 95
REMARK H PARENT 7 16 80 48 48 59
REMARK Flexibility Score: inf
ROOT
ATOM      1  C   UNL A   1      39.744  21.942  26.471  1.00  0.00     0.188 C 
ENDROOT
BRANCH   1   2
ATOM      2  O   UNL A   1      39.040  21.180  25.501  1.00  0.00    -0.376 OA
BRANCH   2   3
ATOM      3  C   UNL A   1      37.674  21.465  25.250  1.00  0.00     0.202 C 
BRANCH   3   4
ATOM      4  C   UNL A   1      37.168  22.819  25.737  1.00  0.00     0.261 C 
BRANCH   4   5
ATOM      5  O   UNL A   1      36.742  23.692  24.674  1.00  0.00    -0.463 OA
BRANCH   5   6
ATOM      6  C   UNL A   1      35.415  23.683  24.388  1.00  0.00     0.308 C 
ATOM      7  O   UNL A   1      34.927  23.896  23.286  1.00  0.00    -0.252 OA
BRANCH   6   8
ATOM      8  C   UNL A   1      34.577  23.481  25.618  1.00  0.00     0.151 C 
BRANCH   8   9
ATOM      9  C   UNL A   1      33.410  22.468  25.579  1.00  0.00     0.051 C 
ATOM     10  C   UNL A   1      33.973  21.125  26.100  1.00  0.00     0.029 C 
ATOM     11  C   UNL A   1      33.134  21.794  24.216  1.00  0.00     0.029 C 
ATOM     12  C   UNL A   1      34.042  20.627  24.644  1.00  0.00     0.005 C 
BRANCH   9  13
ATOM     13  N   UNL A   1      32.251  23.015  26.317  1.00  0.00    -0.345 N 
ATOM     14  C   UNL A   1      31.450  24.141  26.344  1.00  0.00     0.261 C 
ATOM     15  O   UNL A   1      30.540  24.010  27.177  1.00  0.00    -0.268 OA
ATOM     16  H   UNL A   1      31.959  22.377  27.008  1.00  0.00     0.164 HD
BRANCH  14  17
ATOM     17  C   UNL A   1      31.526  25.373  25.566  1.00  0.00     0.092 A 
ATOM     18  C   UNL A   1      31.508  26.915  22.103  1.00  0.00     0.045 C 
ATOM     19  C   UNL A   1      31.620  26.665  23.573  1.00  0.00    -0.037 A 
ATOM     20  C   UNL A   1      31.230  25.438  24.205  1.00  0.00     0.029 A 
ATOM     21  C   UNL A   1      32.155  27.532  24.506  1.00  0.00     0.005 A 
ATOM     22  S   UNL A   1      32.046  26.898  26.083  1.00  0.00    -0.135 S 
ATOM     23  C   UNL A   1      32.794  28.864  24.286  1.00  0.00     0.056 C 
ENDBRANCH  14  17
ENDBRANCH   9  13
ENDBRANCH   8   9
ENDBRANCH   6   8
ENDBRANCH   5   6
ENDBRANCH   4   5
ENDBRANCH   3   4
ENDBRANCH   2   3
ENDBRANCH   1   2
BRANCH   1  24
ATOM     24  C   UNL A   1      40.483  21.225  27.615  1.00  0.00     0.188 C 
BRANCH  24  25
ATOM     25  O   UNL A   1      41.857  20.897  27.459  1.00  0.00    -0.376 OA
BRANCH  25  26
ATOM     26  C   UNL A   1      42.310  20.531  26.159  1.00  0.00     0.202 C 
BRANCH  26  27
ATOM     27  C   UNL A   1      43.458  21.382  25.625  1.00  0.00     0.261 C 
BRANCH  27  28
ATOM     28  O   UNL A   1      43.528  22.629  26.336  1.00  0.00    -0.460 OA
BRANCH  28  29
ATOM     29  C   UNL A   1      43.464  23.736  25.574  1.00  0.00     0.338 C 
ATOM     30  O   UNL A   1      43.847  23.877  24.416  1.00  0.00    -0.246 OA
BRANCH  29  31
ATOM     31  C   UNL A   1      42.792  24.803  26.318  1.00  0.00     0.060 A 
ATOM     32  C   UNL A   1      43.032  26.132  25.964  1.00  0.00     0.016 A 
ATOM     33  C   UNL A   1      42.051  24.495  27.455  1.00  0.00     0.016 A 
ATOM     34  C   UNL A   1      42.578  27.170  26.777  1.00  0.00     0.010 A 
ATOM     35  C   UNL A   1      41.585  25.534  28.263  1.00  0.00     0.010 A 
ATOM     36  C   UNL A   1      41.879  26.876  27.951  1.00  0.00    -0.014 A 
BRANCH  36  37
ATOM     37  C   UNL A   1      41.574  27.926  28.952  1.00  0.00     0.031 A 
ATOM     38  C   UNL A   1      42.439  28.017  30.175  1.00  0.00     0.074 A 
ATOM     39  C   UNL A   1      40.535  28.764  28.800  1.00  0.00     0.049 A 
ATOM     40  N   UNL A   1      42.202  28.596  31.323  1.00  0.00    -0.248 NA
ATOM     41  C   UNL A   1      43.747  27.351  30.091  1.00  0.00     0.031 C 
ATOM     42  C   UNL A   1      39.694  28.867  27.611  1.00  0.00     0.029 A 
ATOM     43  N   UNL A   1      39.993  29.670  29.679  1.00  0.00    -0.354 N 
ATOM     44  C   UNL A   1      43.305  28.316  32.117  1.00  0.00     0.074 A 
ATOM     45  C   UNL A   1      44.220  27.530  31.316  1.00  0.00     0.031 C 
ATOM     46  C   UNL A   1      38.722  29.767  27.842  1.00  0.00     0.029 A 
ATOM     47  C   UNL A   1      38.829  30.238  29.223  1.00  0.00     0.049 A 
ATOM     48  H   UNL A   1      40.399  29.891  30.548  1.00  0.00     0.167 HD
ATOM     49  C   UNL A   1      43.517  28.671  33.406  1.00  0.00     0.037 A 
ATOM     50  C   UNL A   1      37.921  30.993  29.869  1.00  0.00     0.037 A 
ATOM     51  C   UNL A   1      42.610  29.479  34.175  1.00  0.00     0.049 A 
ATOM     52  C   UNL A   1      38.130  31.308  31.328  1.00  0.00     0.074 A 
ATOM     53  C   UNL A   1      42.712  29.881  35.495  1.00  0.00     0.029 A 
ATOM     54  N   UNL A   1      41.432  30.020  33.681  1.00  0.00    -0.354 N 
ATOM     55  N   UNL A   1      39.124  30.970  32.113  1.00  0.00    -0.248 NA
ATOM     56  C   UNL A   1      37.078  32.090  31.997  1.00  0.00     0.031 C 
ATOM     57  C   UNL A   1      41.578  30.638  35.809  1.00  0.00     0.029 A 
ATOM     58  C   UNL A   1      40.793  30.745  34.671  1.00  0.00     0.049 A 
ATOM     59  H   UNL A   1      41.100  29.907  32.761  1.00  0.00     0.167 HD
ATOM     60  C   UNL A   1      38.834  31.518  33.356  1.00  0.00     0.074 A 
ATOM     61  C   UNL A   1      37.570  32.212  33.223  1.00  0.00     0.031 C 
ATOM     62  C   UNL A   1      39.549  31.452  34.506  1.00  0.00     0.037 A 
BRANCH  49  63
ATOM     63  C   UNL A   1      44.746  28.137  34.080  1.00  0.00     0.064 A 
ATOM     64  C   UNL A   1      44.755  26.905  34.747  1.00  0.00     0.173 A 
ATOM     65  C   UNL A   1      45.944  28.868  34.033  1.00  0.00     0.173 A 
ATOM     66  F   UNL A   1      43.632  26.177  34.834  1.00  0.00    -0.203 F 
ATOM     67  C   UNL A   1      45.912  26.432  35.361  1.00  0.00     0.198 A 
ATOM     68  C   UNL A   1      47.106  28.381  34.625  1.00  0.00     0.198 A 
ATOM     69  F   UNL A   1      45.990  30.053  33.405  1.00  0.00    -0.203 F 
ATOM     70  F   UNL A   1      45.888  25.273  36.031  1.00  0.00    -0.200 F 
ATOM     71  C   UNL A   1      47.088  27.167  35.294  1.00  0.00     0.200 A 
ATOM     72  F   UNL A   1      48.242  29.088  34.550  1.00  0.00    -0.200 F 
ATOM     73  F   UNL A   1      48.201  26.708  35.881  1.00  0.00    -0.200 F 
ENDBRANCH  49  63
BRANCH  50  74
ATOM     74  C   UNL A   1      36.696  31.447  29.158  1.00  0.00     0.064 A 
ATOM     75  C   UNL A   1      36.550  32.780  28.753  1.00  0.00     0.173 A 
ATOM     76  C   UNL A   1      35.648  30.559  28.871  1.00  0.00     0.173 A 
ATOM     77  F   UNL A   1      37.510  33.674  29.032  1.00  0.00    -0.203 F 
ATOM     78  C   UNL A   1      35.398  33.210  28.095  1.00  0.00     0.198 A 
ATOM     79  C   UNL A   1      34.511  30.983  28.187  1.00  0.00     0.198 A 
ATOM     80  F   UNL A   1      35.734  29.274  29.245  1.00  0.00    -0.203 F 
ATOM     81  F   UNL A   1      35.266  34.500  27.755  1.00  0.00    -0.200 F 
ATOM     82  C   UNL A   1      34.384  32.309  27.805  1.00  0.00     0.200 A 
ATOM     83  F   UNL A   1      33.538  30.108  27.901  1.00  0.00    -0.200 F 
ATOM     84  F   UNL A   1      33.282  32.722  27.166  1.00  0.00    -0.200 F 
ENDBRANCH  50  74
BRANCH  62  85
ATOM     85  C   UNL A   1      39.021  32.195  35.695  1.00  0.00     0.064 A 
ATOM     86  C   UNL A   1      38.245  31.562  36.674  1.00  0.00     0.173 A 
ATOM     87  C   UNL A   1      39.369  33.540  35.894  1.00  0.00     0.173 A 
ATOM     88  F   UNL A   1      37.877  30.281  36.521  1.00  0.00    -0.203 F 
ATOM     89  C   UNL A   1      37.827  32.253  37.809  1.00  0.00     0.198 A 
ATOM     90  C   UNL A   1      38.969  34.221  37.039  1.00  0.00     0.198 A 
ATOM     91  F   UNL A   1      40.117  34.186  34.986  1.00  0.00    -0.203 F 
ATOM     92  F   UNL A   1      37.064  31.637  38.723  1.00  0.00    -0.200 F 
ATOM     93  C   UNL A   1      38.197  33.577  37.995  1.00  0.00     0.200 A 
ATOM     94  F   UNL A   1      39.338  35.496  37.223  1.00  0.00    -0.200 F 
ATOM     95  F   UNL A   1      37.808  34.235  39.096  1.00  0.00    -0.200 F 
ENDBRANCH  62  85
ENDBRANCH  36  37
ENDBRANCH  29  31
ENDBRANCH  28  29
ENDBRANCH  27  28
ENDBRANCH  26  27
ENDBRANCH  25  26
ENDBRANCH  24  25
ENDBRANCH   1  24
TORSDOF 20
ENDMDL
MODEL 3
REMARK VINA RESULT:      -9.7      1.444      2.831
REMARK SMILES Cc1cc(C(=O)NC2(CC(=O)OCCOCCOCCOC(=O)c3ccc(-c4c5nc(c(-c6c(F)c(F)c(F)c(F)c6F)c6ccc([nH]6)c(-c6c(F)c(F)c(F)c(F)c6F)c6nc(c(-c7c(F)c(F)c(F)c(F)c7F)c7ccc4[nH]7)C=C6)C=C5)cc3)CCC2)sc1C
REMARK SMILES IDX 16 1 15 2 14 3 13 4 12 5 10 6 11 7 9 8 8 9 87 10 89 11 88 12
REMARK SMILES IDX 7 13 5 14 6 15 4 17 1 18 2 19 3 20 91 21 90 22 92 23 17 24
REMARK SMILES IDX 18 25 19 26 20 27 21 28 22 29 23 30 24 31 25 32 86 33 26 34
REMARK SMILES IDX 85 35 27 36 28 37 29 38 79 39 30 40 84 41 78 42 80 43 31 44
REMARK SMILES IDX 83 45 77 46 76 47 32 49 64 50 44 51 63 52 45 53 48 54 62 55
REMARK SMILES IDX 81 56 46 57 47 58 61 60 82 61 49 62 33 63 34 64 42 65 35 66
REMARK SMILES IDX 36 67 40 68 43 69 37 70 38 71 41 72 39 73 65 74 66 75 74 76
REMARK SMILES IDX 67 77 68 78 72 79 75 80 69 81 70 82 73 83 71 84 50 85 51 86
REMARK SMILES IDX 59 87 52 88 53 89 57 90 60 91 54 92 55 93 58 94 56 95
REMARK H PARENT 7 16 80 48 48 59
REMARK Flexibility Score: inf
ROOT
ATOM      1  C   UNL A   1      35.194  22.125  26.286  1.00  0.00     0.188 C 
ENDROOT
BRANCH   1   2
ATOM      2  O   UNL A   1      34.582  23.232  25.639  1.00  0.00    -0.376 OA
BRANCH   2   3
ATOM      3  C   UNL A   1      34.943  23.543  24.303  1.00  0.00     0.202 C 
BRANCH   3   4
ATOM      4  C   UNL A   1      34.046  24.541  23.580  1.00  0.00     0.261 C 
BRANCH   4   5
ATOM      5  O   UNL A   1      33.015  23.921  22.788  1.00  0.00    -0.463 OA
BRANCH   5   6
ATOM      6  C   UNL A   1      31.891  23.551  23.453  1.00  0.00     0.308 C 
ATOM      7  O   UNL A   1      31.762  22.526  24.109  1.00  0.00    -0.252 OA
BRANCH   6   8
ATOM      8  C   UNL A   1      30.755  24.503  23.210  1.00  0.00     0.151 C 
BRANCH   8   9
ATOM      9  C   UNL A   1      30.741  25.865  23.942  1.00  0.00     0.051 C 
ATOM     10  C   UNL A   1      31.112  25.577  25.416  1.00  0.00     0.029 C 
ATOM     11  C   UNL A   1      29.362  26.374  24.415  1.00  0.00     0.029 C 
ATOM     12  C   UNL A   1      29.622  25.718  25.783  1.00  0.00     0.005 C 
BRANCH   9  13
ATOM     13  N   UNL A   1      31.614  26.822  23.228  1.00  0.00    -0.345 N 
ATOM     14  C   UNL A   1      32.327  27.983  23.464  1.00  0.00     0.261 C 
ATOM     15  O   UNL A   1      32.962  28.318  22.454  1.00  0.00    -0.268 OA
ATOM     16  H   UNL A   1      31.720  26.547  22.289  1.00  0.00     0.164 HD
BRANCH  14  17
ATOM     17  C   UNL A   1      32.428  28.799  24.669  1.00  0.00     0.092 A 
ATOM     18  C   UNL A   1      31.134  31.834  26.535  1.00  0.00     0.045 C 
ATOM     19  C   UNL A   1      31.914  30.644  26.078  1.00  0.00    -0.037 A 
ATOM     20  C   UNL A   1      31.498  29.780  25.010  1.00  0.00     0.029 A 
ATOM     21  C   UNL A   1      33.145  30.245  26.561  1.00  0.00     0.005 A 
ATOM     22  S   UNL A   1      33.671  28.805  25.818  1.00  0.00    -0.135 S 
ATOM     23  C   UNL A   1      34.009  30.911  27.581  1.00  0.00     0.056 C 
ENDBRANCH  14  17
ENDBRANCH   9  13
ENDBRANCH   8   9
ENDBRANCH   6   8
ENDBRANCH   5   6
ENDBRANCH   4   5
ENDBRANCH   3   4
ENDBRANCH   2   3
ENDBRANCH   1   2
BRANCH   1  24
ATOM     24  C   UNL A   1      35.214  20.751  25.593  1.00  0.00     0.188 C 
BRANCH  24  25
ATOM     25  O   UNL A   1      36.396  20.320  24.933  1.00  0.00    -0.376 OA
BRANCH  25  26
ATOM     26  C   UNL A   1      37.609  21.007  25.225  1.00  0.00     0.202 C 
BRANCH  26  27
ATOM     27  C   UNL A   1      38.841  20.111  25.310  1.00  0.00     0.261 C 
BRANCH  27  28
ATOM     28  O   UNL A   1      39.787  20.652  26.248  1.00  0.00    -0.460 OA
BRANCH  28  29
ATOM     29  C   UNL A   1      41.052  20.212  26.114  1.00  0.00     0.338 C 
ATOM     30  O   UNL A   1      41.430  19.113  25.718  1.00  0.00    -0.246 OA
BRANCH  29  31
ATOM     31  C   UNL A   1      41.982  21.286  26.470  1.00  0.00     0.060 A 
ATOM     32  C   UNL A   1      42.419  21.395  27.791  1.00  0.00     0.016 A 
ATOM     33  C   UNL A   1      42.299  22.267  25.535  1.00  0.00     0.016 A 
ATOM     34  C   UNL A   1      43.133  22.519  28.206  1.00  0.00     0.010 A 
ATOM     35  C   UNL A   1      43.025  23.386  25.947  1.00  0.00     0.010 A 
ATOM     36  C   UNL A   1      43.412  23.539  27.293  1.00  0.00    -0.014 A 
BRANCH  36  37
ATOM     37  C   UNL A   1      43.967  24.840  27.734  1.00  0.00     0.031 A 
ATOM     38  C   UNL A   1      43.011  25.909  28.178  1.00  0.00     0.074 A 
ATOM     39  C   UNL A   1      45.288  25.086  27.715  1.00  0.00     0.049 A 
ATOM     40  N   UNL A   1      43.195  27.198  28.289  1.00  0.00    -0.248 NA
ATOM     41  C   UNL A   1      41.658  25.456  28.535  1.00  0.00     0.031 C 
ATOM     42  C   UNL A   1      46.330  24.106  27.426  1.00  0.00     0.029 A 
ATOM     43  N   UNL A   1      45.972  26.261  27.914  1.00  0.00    -0.354 N 
ATOM     44  C   UNL A   1      41.966  27.718  28.672  1.00  0.00     0.074 A 
ATOM     45  C   UNL A   1      41.049  26.605  28.792  1.00  0.00     0.031 C 
ATOM     46  C   UNL A   1      47.524  24.723  27.440  1.00  0.00     0.029 A 
ATOM     47  C   UNL A   1      47.316  26.155  27.656  1.00  0.00     0.049 A 
ATOM     48  H   UNL A   1      45.542  27.095  28.211  1.00  0.00     0.167 HD
ATOM     49  C   UNL A   1      41.637  29.014  28.883  1.00  0.00     0.037 A 
ATOM     50  C   UNL A   1      48.256  27.112  27.540  1.00  0.00     0.037 A 
ATOM     51  C   UNL A   1      42.571  30.104  28.789  1.00  0.00     0.049 A 
ATOM     52  C   UNL A   1      47.857  28.558  27.694  1.00  0.00     0.074 A 
ATOM     53  C   UNL A   1      42.344  31.458  28.960  1.00  0.00     0.029 A 
ATOM     54  N   UNL A   1      43.922  29.956  28.509  1.00  0.00    -0.354 N 
ATOM     55  N   UNL A   1      46.679  29.066  27.965  1.00  0.00    -0.248 NA
ATOM     56  C   UNL A   1      48.912  29.563  27.502  1.00  0.00     0.031 C 
ATOM     57  C   UNL A   1      43.552  32.132  28.749  1.00  0.00     0.029 A 
ATOM     58  C   UNL A   1      44.539  31.194  28.493  1.00  0.00     0.049 A 
ATOM     59  H   UNL A   1      44.375  29.097  28.347  1.00  0.00     0.167 HD
ATOM     60  C   UNL A   1      46.855  30.443  28.004  1.00  0.00     0.074 A 
ATOM     61  C   UNL A   1      48.255  30.693  27.729  1.00  0.00     0.031 C 
ATOM     62  C   UNL A   1      45.941  31.414  28.244  1.00  0.00     0.037 A 
BRANCH  49  63
ATOM     63  C   UNL A   1      40.200  29.328  29.175  1.00  0.00     0.064 A 
ATOM     64  C   UNL A   1      39.723  29.487  30.483  1.00  0.00     0.173 A 
ATOM     65  C   UNL A   1      39.291  29.497  28.118  1.00  0.00     0.173 A 
ATOM     66  F   UNL A   1      40.549  29.319  31.527  1.00  0.00    -0.203 F 
ATOM     67  C   UNL A   1      38.384  29.782  30.725  1.00  0.00     0.198 A 
ATOM     68  C   UNL A   1      37.959  29.818  28.362  1.00  0.00     0.198 A 
ATOM     69  F   UNL A   1      39.697  29.358  26.848  1.00  0.00    -0.203 F 
ATOM     70  F   UNL A   1      37.939  29.886  31.984  1.00  0.00    -0.200 F 
ATOM     71  C   UNL A   1      37.504  29.954  29.665  1.00  0.00     0.200 A 
ATOM     72  F   UNL A   1      37.115  29.994  27.337  1.00  0.00    -0.200 F 
ATOM     73  F   UNL A   1      36.218  30.244  29.900  1.00  0.00    -0.200 F 
ENDBRANCH  49  63
BRANCH  50  74
ATOM     74  C   UNL A   1      49.653  26.739  27.197  1.00  0.00     0.064 A 
ATOM     75  C   UNL A   1      50.075  26.668  25.862  1.00  0.00     0.173 A 
ATOM     76  C   UNL A   1      50.595  26.442  28.195  1.00  0.00     0.173 A 
ATOM     77  F   UNL A   1      49.203  26.911  24.872  1.00  0.00    -0.203 F 
ATOM     78  C   UNL A   1      51.382  26.309  25.538  1.00  0.00     0.198 A 
ATOM     79  C   UNL A   1      51.909  26.113  27.870  1.00  0.00     0.198 A 
ATOM     80  F   UNL A   1      50.241  26.486  29.487  1.00  0.00    -0.203 F 
ATOM     81  F   UNL A   1      51.747  26.209  24.253  1.00  0.00    -0.200 F 
ATOM     82  C   UNL A   1      52.300  26.040  26.543  1.00  0.00     0.200 A 
ATOM     83  F   UNL A   1      52.795  25.862  28.844  1.00  0.00    -0.200 F 
ATOM     84  F   UNL A   1      53.558  25.702  26.231  1.00  0.00    -0.200 F 
ENDBRANCH  50  74
BRANCH  62  85
ATOM     85  C   UNL A   1      46.428  32.831  28.284  1.00  0.00     0.064 A 
ATOM     86  C   UNL A   1      47.025  33.372  29.430  1.00  0.00     0.173 A 
ATOM     87  C   UNL A   1      46.368  33.628  27.130  1.00  0.00     0.173 A 
ATOM     88  F   UNL A   1      47.094  32.653  30.560  1.00  0.00    -0.203 F 
ATOM     89  C   UNL A   1      47.538  34.667  29.422  1.00  0.00     0.198 A 
ATOM     90  C   UNL A   1      46.901  34.913  27.120  1.00  0.00     0.198 A 
ATOM     91  F   UNL A   1      45.811  33.150  26.007  1.00  0.00    -0.203 F 
ATOM     92  F   UNL A   1      48.083  35.176  30.536  1.00  0.00    -0.200 F 
ATOM     93  C   UNL A   1      47.484  35.432  28.266  1.00  0.00     0.200 A 
ATOM     94  F   UNL A   1      46.859  35.645  25.998  1.00  0.00    -0.200 F 
ATOM     95  F   UNL A   1      47.993  36.671  28.256  1.00  0.00    -0.200 F 
ENDBRANCH  62  85
ENDBRANCH  36  37
ENDBRANCH  29  31
ENDBRANCH  28  29
ENDBRANCH  27  28
ENDBRANCH  26  27
ENDBRANCH  25  26
ENDBRANCH  24  25
ENDBRANCH   1  24
TORSDOF 20
ENDMDL
