MODEL 1
REMARK VINA RESULT:     -11.2      0.000      0.000
REMARK SMILES CCc1c(Cl)ccc2c1C=C(C(=O)OCCOCCOCCOC(=O)c1ccc(-c3c4nc(c(-c5c(F)c(F)c(F)c(F)c5F)c5ccc([nH]5)c(-c5c(F)c(F)c(F)c(F)c5F)c5nc(c(-c6c(F)c(F)c(F)c(F)c6F)c6ccc3[nH]6)C=C5)C=C4)cc1)[C@@H](C(F)(F)F)O2
REMARK SMILES IDX 19 1 18 2 17 3 16 4 15 5 14 6 12 7 13 8 11 9 3 10 4 11 9 12
REMARK SMILES IDX 5 13 6 14 8 15 10 16 7 17 94 18 89 19 2 20 1 21 90 22 91 23
REMARK SMILES IDX 92 24 93 25 20 26 21 27 22 28 23 29 24 30 25 31 26 32 27 33
REMARK SMILES IDX 88 34 28 35 87 36 29 37 30 38 31 39 81 40 32 41 86 42 80 43
REMARK SMILES IDX 82 44 33 45 85 46 79 47 78 48 34 50 66 51 46 52 65 53 47 54
REMARK SMILES IDX 50 55 64 56 83 57 48 58 49 59 63 61 84 62 51 63 35 64 36 65
REMARK SMILES IDX 44 66 37 67 38 68 42 69 45 70 39 71 40 72 43 73 41 74 67 75
REMARK SMILES IDX 68 76 76 77 69 78 70 79 74 80 77 81 71 82 72 83 75 84 73 85
REMARK SMILES IDX 52 86 53 87 61 88 54 89 55 90 59 91 62 92 56 93 57 94 60 95
REMARK SMILES IDX 58 96
REMARK H PARENT 82 49 50 60
REMARK Flexibility Score: inf
ROOT
ATOM      1  C   UNL A   1      33.765  20.288  24.612  1.00  0.00     0.188 C 
ENDROOT
BRANCH   1   2
ATOM      2  C   UNL A   1      32.900  20.759  25.801  1.00  0.00     0.188 C 
BRANCH   2   3
ATOM      3  O   UNL A   1      33.476  21.061  27.054  1.00  0.00    -0.376 OA
BRANCH   3   4
ATOM      4  C   UNL A   1      33.182  22.268  27.737  1.00  0.00     0.202 C 
BRANCH   4   5
ATOM      5  C   UNL A   1      32.600  23.499  27.034  1.00  0.00     0.261 C 
BRANCH   5   6
ATOM      6  O   UNL A   1      33.572  24.386  26.469  1.00  0.00    -0.460 OA
BRANCH   6   7
ATOM      7  C   UNL A   1      33.296  24.797  25.208  1.00  0.00     0.338 C 
ATOM      8  O   UNL A   1      33.301  24.115  24.197  1.00  0.00    -0.246 OA
BRANCH   7   9
ATOM      9  C   UNL A   1      32.820  26.193  25.231  1.00  0.00     0.087 C 
ATOM     10  C   UNL A   1      33.751  29.397  26.957  1.00  0.00    -0.019 A 
ATOM     11  C   UNL A   1      33.131  30.678  27.062  1.00  0.00     0.045 A 
ATOM     12  C   UNL A   1      33.104  28.428  26.140  1.00  0.00     0.022 A 
ATOM     13  Cl  UNL A   1      33.782  31.947  28.057  1.00  0.00    -0.084 Cl
ATOM     14  C   UNL A   1      31.958  30.995  26.378  1.00  0.00     0.024 A 
ATOM     15  C   UNL A   1      31.935  28.786  25.430  1.00  0.00     0.128 A 
ATOM     16  C   UNL A   1      33.524  27.038  25.995  1.00  0.00     0.027 C 
ATOM     17  C   UNL A   1      31.371  30.055  25.550  1.00  0.00     0.048 A 
ATOM     18  O   UNL A   1      31.249  27.971  24.570  1.00  0.00    -0.475 OA
ATOM     19  C   UNL A   1      31.610  26.577  24.449  1.00  0.00     0.316 C 
BRANCH  10  20
ATOM     20  C   UNL A   1      35.047  29.239  27.745  1.00  0.00     0.034 C 
ATOM     21  C   UNL A   1      36.382  29.832  27.333  1.00  0.00     0.009 C 
ENDBRANCH  10  20
BRANCH  19  22
ATOM     22  C   UNL A   1      30.390  25.718  24.815  1.00  0.00     0.430 C 
ATOM     23  F   UNL A   1      29.231  26.366  24.551  1.00  0.00    -0.167 F 
ATOM     24  F   UNL A   1      30.362  24.566  24.103  1.00  0.00    -0.167 F 
ATOM     25  F   UNL A   1      30.381  25.383  26.125  1.00  0.00    -0.167 F 
ENDBRANCH  19  22
ENDBRANCH   7   9
ENDBRANCH   6   7
ENDBRANCH   5   6
ENDBRANCH   4   5
ENDBRANCH   3   4
ENDBRANCH   2   3
ENDBRANCH   1   2
BRANCH   1  26
ATOM     26  O   UNL A   1      35.111  19.899  24.799  1.00  0.00    -0.376 OA
BRANCH  26  27
ATOM     27  C   UNL A   1      36.101  20.891  25.037  1.00  0.00     0.202 C 
BRANCH  27  28
ATOM     28  C   UNL A   1      37.589  20.544  24.954  1.00  0.00     0.261 C 
BRANCH  28  29
ATOM     29  O   UNL A   1      38.451  21.622  25.341  1.00  0.00    -0.460 OA
BRANCH  29  30
ATOM     30  C   UNL A   1      39.310  21.341  26.351  1.00  0.00     0.338 C 
ATOM     31  O   UNL A   1      39.691  20.242  26.719  1.00  0.00    -0.246 OA
BRANCH  30  32
ATOM     32  C   UNL A   1      39.891  22.599  26.850  1.00  0.00     0.060 A 
ATOM     33  C   UNL A   1      41.079  22.601  27.581  1.00  0.00     0.016 A 
ATOM     34  C   UNL A   1      39.231  23.800  26.552  1.00  0.00     0.016 A 
ATOM     35  C   UNL A   1      41.627  23.818  27.989  1.00  0.00     0.010 A 
ATOM     36  C   UNL A   1      39.772  25.014  26.975  1.00  0.00     0.010 A 
ATOM     37  C   UNL A   1      40.985  25.031  27.677  1.00  0.00    -0.014 A 
BRANCH  37  38
ATOM     38  C   UNL A   1      41.670  26.314  27.954  1.00  0.00     0.031 A 
ATOM     39  C   UNL A   1      43.028  26.616  27.406  1.00  0.00     0.074 A 
ATOM     40  C   UNL A   1      41.029  27.220  28.714  1.00  0.00     0.049 A 
ATOM     41  N   UNL A   1      43.732  27.715  27.504  1.00  0.00    -0.248 NA
ATOM     42  C   UNL A   1      43.690  25.539  26.661  1.00  0.00     0.031 C 
ATOM     43  C   UNL A   1      39.713  27.020  29.321  1.00  0.00     0.029 A 
ATOM     44  N   UNL A   1      41.384  28.489  29.090  1.00  0.00    -0.354 N 
ATOM     45  C   UNL A   1      44.922  27.466  26.836  1.00  0.00     0.074 A 
ATOM     46  C   UNL A   1      44.860  26.097  26.367  1.00  0.00     0.031 C 
ATOM     47  C   UNL A   1      39.352  28.143  29.958  1.00  0.00     0.029 A 
ATOM     48  C   UNL A   1      40.417  29.132  29.821  1.00  0.00     0.049 A 
ATOM     49  H   UNL A   1      42.248  28.901  28.857  1.00  0.00     0.167 HD
ATOM     50  C   UNL A   1      45.958  28.312  26.621  1.00  0.00     0.037 A 
ATOM     51  C   UNL A   1      40.384  30.386  30.309  1.00  0.00     0.037 A 
ATOM     52  C   UNL A   1      45.991  29.685  27.065  1.00  0.00     0.049 A 
ATOM     53  C   UNL A   1      41.539  31.310  30.043  1.00  0.00     0.074 A 
ATOM     54  C   UNL A   1      46.963  30.642  26.831  1.00  0.00     0.029 A 
ATOM     55  N   UNL A   1      45.008  30.295  27.830  1.00  0.00    -0.354 N 
ATOM     56  N   UNL A   1      42.633  31.086  29.356  1.00  0.00    -0.248 NA
ATOM     57  C   UNL A   1      41.454  32.661  30.616  1.00  0.00     0.031 C 
ATOM     58  C   UNL A   1      46.589  31.818  27.487  1.00  0.00     0.029 A 
ATOM     59  C   UNL A   1      45.361  31.609  28.094  1.00  0.00     0.049 A 
ATOM     60  H   UNL A   1      44.181  29.860  28.138  1.00  0.00     0.167 HD
ATOM     61  C   UNL A   1      43.359  32.268  29.402  1.00  0.00     0.074 A 
ATOM     62  C   UNL A   1      42.573  33.214  30.166  1.00  0.00     0.031 C 
ATOM     63  C   UNL A   1      44.572  32.539  28.862  1.00  0.00     0.037 A 
BRANCH  50  64
ATOM     64  C   UNL A   1      47.144  27.799  25.856  1.00  0.00     0.064 A 
ATOM     65  C   UNL A   1      47.178  27.828  24.454  1.00  0.00     0.173 A 
ATOM     66  C   UNL A   1      48.294  27.360  26.530  1.00  0.00     0.173 A 
ATOM     67  F   UNL A   1      46.103  28.236  23.761  1.00  0.00    -0.203 F 
ATOM     68  C   UNL A   1      48.311  27.421  23.755  1.00  0.00     0.198 A 
ATOM     69  C   UNL A   1      49.436  26.982  25.829  1.00  0.00     0.198 A 
ATOM     70  F   UNL A   1      48.320  27.324  27.871  1.00  0.00    -0.203 F 
ATOM     71  F   UNL A   1      48.308  27.430  22.415  1.00  0.00    -0.200 F 
ATOM     72  C   UNL A   1      49.442  27.008  24.442  1.00  0.00     0.200 A 
ATOM     73  F   UNL A   1      50.535  26.601  26.494  1.00  0.00    -0.200 F 
ATOM     74  F   UNL A   1      50.540  26.638  23.767  1.00  0.00    -0.200 F 
ENDBRANCH  50  64
BRANCH  51  75
ATOM     75  C   UNL A   1      39.180  30.849  31.040  1.00  0.00     0.064 A 
ATOM     76  C   UNL A   1      38.130  31.478  30.359  1.00  0.00     0.173 A 
ATOM     77  C   UNL A   1      39.032  30.628  32.417  1.00  0.00     0.173 A 
ATOM     78  F   UNL A   1      38.235  31.722  29.045  1.00  0.00    -0.203 F 
ATOM     79  C   UNL A   1      36.977  31.876  31.030  1.00  0.00     0.198 A 
ATOM     80  C   UNL A   1      37.867  31.004  33.081  1.00  0.00     0.198 A 
ATOM     81  F   UNL A   1      40.007  30.021  33.109  1.00  0.00    -0.203 F 
ATOM     82  F   UNL A   1      35.996  32.498  30.361  1.00  0.00    -0.200 F 
ATOM     83  C   UNL A   1      36.842  31.630  32.388  1.00  0.00     0.200 A 
ATOM     84  F   UNL A   1      37.734  30.751  34.390  1.00  0.00    -0.200 F 
ATOM     85  F   UNL A   1      35.725  31.998  33.030  1.00  0.00    -0.200 F 
ENDBRANCH  51  75
BRANCH  63  86
ATOM     86  C   UNL A   1      45.135  33.914  29.077  1.00  0.00     0.064 A 
ATOM     87  C   UNL A   1      45.992  34.189  30.153  1.00  0.00     0.173 A 
ATOM     88  C   UNL A   1      44.881  34.943  28.159  1.00  0.00     0.173 A 
ATOM     89  F   UNL A   1      46.254  33.241  31.066  1.00  0.00    -0.203 F 
ATOM     90  C   UNL A   1      46.566  35.448  30.307  1.00  0.00     0.198 A 
ATOM     91  C   UNL A   1      45.478  36.193  28.301  1.00  0.00     0.198 A 
ATOM     92  F   UNL A   1      44.073  34.729  27.109  1.00  0.00    -0.203 F 
ATOM     93  F   UNL A   1      47.358  35.697  31.358  1.00  0.00    -0.200 F 
ATOM     94  C   UNL A   1      46.316  36.445  29.375  1.00  0.00     0.200 A 
ATOM     95  F   UNL A   1      45.247  37.152  27.393  1.00  0.00    -0.200 F 
ATOM     96  F   UNL A   1      46.885  37.651  29.515  1.00  0.00    -0.200 F 
ENDBRANCH  63  86
ENDBRANCH  37  38
ENDBRANCH  30  32
ENDBRANCH  29  30
ENDBRANCH  28  29
ENDBRANCH  27  28
ENDBRANCH  26  27
ENDBRANCH   1  26
TORSDOF 19
ENDMDL
MODEL 2
REMARK VINA RESULT:     -11.0      2.686      8.194
REMARK SMILES CCc1c(Cl)ccc2c1C=C(C(=O)OCCOCCOCCOC(=O)c1ccc(-c3c4nc(c(-c5c(F)c(F)c(F)c(F)c5F)c5ccc([nH]5)c(-c5c(F)c(F)c(F)c(F)c5F)c5nc(c(-c6c(F)c(F)c(F)c(F)c6F)c6ccc3[nH]6)C=C5)C=C4)cc1)[C@@H](C(F)(F)F)O2
REMARK SMILES IDX 19 1 18 2 17 3 16 4 15 5 14 6 12 7 13 8 11 9 3 10 4 11 9 12
REMARK SMILES IDX 5 13 6 14 8 15 10 16 7 17 94 18 89 19 2 20 1 21 90 22 91 23
REMARK SMILES IDX 92 24 93 25 20 26 21 27 22 28 23 29 24 30 25 31 26 32 27 33
REMARK SMILES IDX 88 34 28 35 87 36 29 37 30 38 31 39 81 40 32 41 86 42 80 43
REMARK SMILES IDX 82 44 33 45 85 46 79 47 78 48 34 50 66 51 46 52 65 53 47 54
REMARK SMILES IDX 50 55 64 56 83 57 48 58 49 59 63 61 84 62 51 63 35 64 36 65
REMARK SMILES IDX 44 66 37 67 38 68 42 69 45 70 39 71 40 72 43 73 41 74 67 75
REMARK SMILES IDX 68 76 76 77 69 78 70 79 74 80 77 81 71 82 72 83 75 84 73 85
REMARK SMILES IDX 52 86 53 87 61 88 54 89 55 90 59 91 62 92 56 93 57 94 60 95
REMARK SMILES IDX 58 96
REMARK H PARENT 82 49 50 60
REMARK Flexibility Score: inf
ROOT
ATOM      1  C   UNL A   1      41.651  21.516  26.427  1.00  0.00     0.188 C 
ENDROOT
BRANCH   1   2
ATOM      2  C   UNL A   1      40.444  22.089  27.202  1.00  0.00     0.188 C 
BRANCH   2   3
ATOM      3  O   UNL A   1      39.343  22.659  26.528  1.00  0.00    -0.376 OA
BRANCH   3   4
ATOM      4  C   UNL A   1      38.445  21.869  25.765  1.00  0.00     0.202 C 
BRANCH   4   5
ATOM      5  C   UNL A   1      37.049  22.353  25.364  1.00  0.00     0.261 C 
BRANCH   5   6
ATOM      6  O   UNL A   1      36.010  21.376  25.495  1.00  0.00    -0.460 OA
BRANCH   6   7
ATOM      7  C   UNL A   1      34.889  21.823  26.110  1.00  0.00     0.338 C 
ATOM      8  O   UNL A   1      34.599  21.699  27.288  1.00  0.00    -0.246 OA
BRANCH   7   9
ATOM      9  C   UNL A   1      34.099  22.644  25.172  1.00  0.00     0.087 C 
ATOM     10  C   UNL A   1      32.579  26.078  25.117  1.00  0.00    -0.019 A 
ATOM     11  C   UNL A   1      31.674  26.743  24.237  1.00  0.00     0.045 A 
ATOM     12  C   UNL A   1      32.981  24.760  24.760  1.00  0.00     0.022 A 
ATOM     13  Cl  UNL A   1      31.061  28.337  24.564  1.00  0.00    -0.084 Cl
ATOM     14  C   UNL A   1      31.215  26.155  23.058  1.00  0.00     0.024 A 
ATOM     15  C   UNL A   1      32.529  24.201  23.542  1.00  0.00     0.128 A 
ATOM     16  C   UNL A   1      33.810  23.884  25.582  1.00  0.00     0.027 C 
ATOM     17  C   UNL A   1      31.657  24.893  22.704  1.00  0.00     0.048 A 
ATOM     18  O   UNL A   1      32.884  22.972  23.055  1.00  0.00    -0.475 OA
ATOM     19  C   UNL A   1      33.658  22.064  23.870  1.00  0.00     0.316 C 
BRANCH  10  20
ATOM     20  C   UNL A   1      33.002  26.885  26.340  1.00  0.00     0.034 C 
ATOM     21  C   UNL A   1      34.029  28.002  26.320  1.00  0.00     0.009 C 
ENDBRANCH  10  20
BRANCH  19  22
ATOM     22  C   UNL A   1      32.859  20.765  24.058  1.00  0.00     0.430 C 
ATOM     23  F   UNL A   1      32.136  20.465  22.953  1.00  0.00    -0.167 F 
ATOM     24  F   UNL A   1      33.676  19.709  24.286  1.00  0.00    -0.167 F 
ATOM     25  F   UNL A   1      32.000  20.845  25.099  1.00  0.00    -0.167 F 
ENDBRANCH  19  22
ENDBRANCH   7   9
ENDBRANCH   6   7
ENDBRANCH   5   6
ENDBRANCH   4   5
ENDBRANCH   3   4
ENDBRANCH   2   3
ENDBRANCH   1   2
BRANCH   1  26
ATOM     26  O   UNL A   1      42.294  20.331  26.854  1.00  0.00    -0.376 OA
BRANCH  26  27
ATOM     27  C   UNL A   1      42.191  19.155  26.062  1.00  0.00     0.202 C 
BRANCH  27  28
ATOM     28  C   UNL A   1      43.437  18.524  25.438  1.00  0.00     0.261 C 
BRANCH  28  29
ATOM     29  O   UNL A   1      43.834  19.139  24.205  1.00  0.00    -0.460 OA
BRANCH  29  30
ATOM     30  C   UNL A   1      45.093  19.640  24.189  1.00  0.00     0.338 C 
ATOM     31  O   UNL A   1      46.087  19.141  23.688  1.00  0.00    -0.246 OA
BRANCH  30  32
ATOM     32  C   UNL A   1      45.068  21.015  24.716  1.00  0.00     0.060 A 
ATOM     33  C   UNL A   1      45.535  21.301  25.999  1.00  0.00     0.016 A 
ATOM     34  C   UNL A   1      44.579  22.036  23.888  1.00  0.00     0.016 A 
ATOM     35  C   UNL A   1      45.545  22.624  26.443  1.00  0.00     0.010 A 
ATOM     36  C   UNL A   1      44.574  23.355  24.339  1.00  0.00     0.010 A 
ATOM     37  C   UNL A   1      45.078  23.659  25.612  1.00  0.00    -0.014 A 
BRANCH  37  38
ATOM     38  C   UNL A   1      45.266  25.070  26.024  1.00  0.00     0.031 A 
ATOM     39  C   UNL A   1      44.152  25.869  26.623  1.00  0.00     0.074 A 
ATOM     40  C   UNL A   1      46.481  25.621  25.854  1.00  0.00     0.049 A 
ATOM     41  N   UNL A   1      44.174  27.090  27.092  1.00  0.00    -0.248 NA
ATOM     42  C   UNL A   1      42.839  25.218  26.691  1.00  0.00     0.031 C 
ATOM     43  C   UNL A   1      47.630  24.940  25.257  1.00  0.00     0.029 A 
ATOM     44  N   UNL A   1      46.957  26.864  26.181  1.00  0.00    -0.354 N 
ATOM     45  C   UNL A   1      42.879  27.359  27.512  1.00  0.00     0.074 A 
ATOM     46  C   UNL A   1      42.089  26.185  27.208  1.00  0.00     0.031 C 
ATOM     47  C   UNL A   1      48.691  25.760  25.298  1.00  0.00     0.029 A 
ATOM     48  C   UNL A   1      48.291  27.026  25.906  1.00  0.00     0.049 A 
ATOM     49  H   UNL A   1      46.396  27.571  26.576  1.00  0.00     0.167 HD
ATOM     50  C   UNL A   1      42.406  28.477  28.113  1.00  0.00     0.037 A 
ATOM     51  C   UNL A   1      49.106  28.072  26.137  1.00  0.00     0.037 A 
ATOM     52  C   UNL A   1      43.214  29.627  28.441  1.00  0.00     0.049 A 
ATOM     53  C   UNL A   1      48.560  29.295  26.818  1.00  0.00     0.074 A 
ATOM     54  C   UNL A   1      42.841  30.777  29.117  1.00  0.00     0.029 A 
ATOM     55  N   UNL A   1      44.556  29.771  28.121  1.00  0.00    -0.354 N 
ATOM     56  N   UNL A   1      47.350  29.516  27.269  1.00  0.00    -0.248 NA
ATOM     57  C   UNL A   1      49.494  30.410  27.028  1.00  0.00     0.031 C 
ATOM     58  C   UNL A   1      43.945  31.632  29.170  1.00  0.00     0.029 A 
ATOM     59  C   UNL A   1      45.020  30.999  28.566  1.00  0.00     0.049 A 
ATOM     60  H   UNL A   1      45.099  29.100  27.648  1.00  0.00     0.167 HD
ATOM     61  C   UNL A   1      47.378  30.787  27.826  1.00  0.00     0.074 A 
ATOM     62  C   UNL A   1      48.731  31.281  27.676  1.00  0.00     0.031 C 
ATOM     63  C   UNL A   1      46.368  31.482  28.405  1.00  0.00     0.037 A 
BRANCH  50  64
ATOM     64  C   UNL A   1      40.951  28.522  28.480  1.00  0.00     0.064 A 
ATOM     65  C   UNL A   1      40.507  28.156  29.759  1.00  0.00     0.173 A 
ATOM     66  C   UNL A   1      40.000  29.022  27.575  1.00  0.00     0.173 A 
ATOM     67  F   UNL A   1      41.375  27.668  30.660  1.00  0.00    -0.203 F 
ATOM     68  C   UNL A   1      39.166  28.273  30.114  1.00  0.00     0.198 A 
ATOM     69  C   UNL A   1      38.665  29.165  27.944  1.00  0.00     0.198 A 
ATOM     70  F   UNL A   1      40.372  29.398  26.342  1.00  0.00    -0.203 F 
ATOM     71  F   UNL A   1      38.762  27.889  31.334  1.00  0.00    -0.200 F 
ATOM     72  C   UNL A   1      38.248  28.786  29.211  1.00  0.00     0.200 A 
ATOM     73  F   UNL A   1      37.782  29.678  27.076  1.00  0.00    -0.200 F 
ATOM     74  F   UNL A   1      36.961  28.918  29.563  1.00  0.00    -0.200 F 
ENDBRANCH  50  64
BRANCH  51  75
ATOM     75  C   UNL A   1      50.541  27.968  25.774  1.00  0.00     0.064 A 
ATOM     76  C   UNL A   1      51.504  27.678  26.748  1.00  0.00     0.173 A 
ATOM     77  C   UNL A   1      50.970  28.105  24.445  1.00  0.00     0.173 A 
ATOM     78  F   UNL A   1      51.141  27.552  28.033  1.00  0.00    -0.203 F 
ATOM     79  C   UNL A   1      52.847  27.535  26.409  1.00  0.00     0.198 A 
ATOM     80  C   UNL A   1      52.309  27.936  24.104  1.00  0.00     0.198 A 
ATOM     81  F   UNL A   1      50.081  28.374  23.477  1.00  0.00    -0.203 F 
ATOM     82  F   UNL A   1      53.753  27.281  27.363  1.00  0.00    -0.200 F 
ATOM     83  C   UNL A   1      53.247  27.654  25.086  1.00  0.00     0.200 A 
ATOM     84  F   UNL A   1      52.689  28.037  22.824  1.00  0.00    -0.200 F 
ATOM     85  F   UNL A   1      54.536  27.500  24.757  1.00  0.00    -0.200 F 
ENDBRANCH  51  75
BRANCH  63  86
ATOM     86  C   UNL A   1      46.679  32.857  28.920  1.00  0.00     0.064 A 
ATOM     87  C   UNL A   1      47.174  33.053  30.217  1.00  0.00     0.173 A 
ATOM     88  C   UNL A   1      46.556  33.978  28.086  1.00  0.00     0.173 A 
ATOM     89  F   UNL A   1      47.296  32.014  31.057  1.00  0.00    -0.203 F 
ATOM     90  C   UNL A   1      47.526  34.324  30.665  1.00  0.00     0.198 A 
ATOM     91  C   UNL A   1      46.934  35.243  28.528  1.00  0.00     0.198 A 
ATOM     92  F   UNL A   1      46.093  33.843  26.834  1.00  0.00    -0.203 F 
ATOM     93  F   UNL A   1      47.970  34.492  31.917  1.00  0.00    -0.200 F 
ATOM     94  C   UNL A   1      47.415  35.415  29.816  1.00  0.00     0.200 A 
ATOM     95  F   UNL A   1      46.839  36.295  27.702  1.00  0.00    -0.200 F 
ATOM     96  F   UNL A   1      47.772  36.635  30.242  1.00  0.00    -0.200 F 
ENDBRANCH  63  86
ENDBRANCH  37  38
ENDBRANCH  30  32
ENDBRANCH  29  30
ENDBRANCH  28  29
ENDBRANCH  27  28
ENDBRANCH  26  27
ENDBRANCH   1  26
TORSDOF 19
ENDMDL
MODEL 3
REMARK VINA RESULT:     -11.0      2.512      4.091
REMARK SMILES CCc1c(Cl)ccc2c1C=C(C(=O)OCCOCCOCCOC(=O)c1ccc(-c3c4nc(c(-c5c(F)c(F)c(F)c(F)c5F)c5ccc([nH]5)c(-c5c(F)c(F)c(F)c(F)c5F)c5nc(c(-c6c(F)c(F)c(F)c(F)c6F)c6ccc3[nH]6)C=C5)C=C4)cc1)[C@@H](C(F)(F)F)O2
REMARK SMILES IDX 19 1 18 2 17 3 16 4 15 5 14 6 12 7 13 8 11 9 3 10 4 11 9 12
REMARK SMILES IDX 5 13 6 14 8 15 10 16 7 17 94 18 89 19 2 20 1 21 90 22 91 23
REMARK SMILES IDX 92 24 93 25 20 26 21 27 22 28 23 29 24 30 25 31 26 32 27 33
REMARK SMILES IDX 88 34 28 35 87 36 29 37 30 38 31 39 81 40 32 41 86 42 80 43
REMARK SMILES IDX 82 44 33 45 85 46 79 47 78 48 34 50 66 51 46 52 65 53 47 54
REMARK SMILES IDX 50 55 64 56 83 57 48 58 49 59 63 61 84 62 51 63 35 64 36 65
REMARK SMILES IDX 44 66 37 67 38 68 42 69 45 70 39 71 40 72 43 73 41 74 67 75
REMARK SMILES IDX 68 76 76 77 69 78 70 79 74 80 77 81 71 82 72 83 75 84 73 85
REMARK SMILES IDX 52 86 53 87 61 88 54 89 55 90 59 91 62 92 56 93 57 94 60 95
REMARK SMILES IDX 58 96
REMARK H PARENT 82 49 50 60
REMARK Flexibility Score: inf
ROOT
ATOM      1  C   UNL A   1      41.388  21.635  26.430  1.00  0.00     0.188 C 
ENDROOT
BRANCH   1   2
ATOM      2  C   UNL A   1      40.224  22.470  27.005  1.00  0.00     0.188 C 
BRANCH   2   3
ATOM      3  O   UNL A   1      39.123  22.844  26.206  1.00  0.00    -0.376 OA
BRANCH   3   4
ATOM      4  C   UNL A   1      38.267  21.877  25.618  1.00  0.00     0.202 C 
BRANCH   4   5
ATOM      5  C   UNL A   1      36.741  21.941  25.734  1.00  0.00     0.261 C 
BRANCH   5   6
ATOM      6  O   UNL A   1      36.186  23.260  25.674  1.00  0.00    -0.460 OA
BRANCH   6   7
ATOM      7  C   UNL A   1      34.878  23.338  26.017  1.00  0.00     0.338 C 
ATOM      8  O   UNL A   1      34.333  22.785  26.958  1.00  0.00    -0.246 OA
BRANCH   7   9
ATOM      9  C   UNL A   1      34.199  24.336  25.169  1.00  0.00     0.087 C 
ATOM     10  C   UNL A   1      32.773  27.787  25.573  1.00  0.00    -0.019 A 
ATOM     11  C   UNL A   1      31.969  28.627  24.745  1.00  0.00     0.045 A 
ATOM     12  C   UNL A   1      33.174  26.534  25.031  1.00  0.00     0.022 A 
ATOM     13  Cl  UNL A   1      31.367  30.165  25.286  1.00  0.00    -0.084 Cl
ATOM     14  C   UNL A   1      31.606  28.264  23.448  1.00  0.00     0.024 A 
ATOM     15  C   UNL A   1      32.823  26.207  23.701  1.00  0.00     0.128 A 
ATOM     16  C   UNL A   1      33.903  25.500  25.760  1.00  0.00     0.027 C 
ATOM     17  C   UNL A   1      32.048  27.064  22.922  1.00  0.00     0.048 A 
ATOM     18  O   UNL A   1      33.191  25.064  23.043  1.00  0.00    -0.475 OA
ATOM     19  C   UNL A   1      33.865  24.002  23.754  1.00  0.00     0.316 C 
BRANCH  10  20
ATOM     20  C   UNL A   1      33.102  28.359  26.948  1.00  0.00     0.034 C 
ATOM     21  C   UNL A   1      34.289  29.257  27.245  1.00  0.00     0.009 C 
ENDBRANCH  10  20
BRANCH  19  22
ATOM     22  C   UNL A   1      33.021  22.723  23.647  1.00  0.00     0.430 C 
ATOM     23  F   UNL A   1      32.002  22.726  24.539  1.00  0.00    -0.167 F 
ATOM     24  F   UNL A   1      32.461  22.599  22.420  1.00  0.00    -0.167 F 
ATOM     25  F   UNL A   1      33.755  21.610  23.871  1.00  0.00    -0.167 F 
ENDBRANCH  19  22
ENDBRANCH   7   9
ENDBRANCH   6   7
ENDBRANCH   5   6
ENDBRANCH   4   5
ENDBRANCH   3   4
ENDBRANCH   2   3
ENDBRANCH   1   2
BRANCH   1  26
ATOM     26  O   UNL A   1      41.606  20.302  26.850  1.00  0.00    -0.376 OA
BRANCH  26  27
ATOM     27  C   UNL A   1      41.741  19.275  25.877  1.00  0.00     0.202 C 
BRANCH  27  28
ATOM     28  C   UNL A   1      43.119  18.707  25.530  1.00  0.00     0.261 C 
BRANCH  28  29
ATOM     29  O   UNL A   1      43.603  19.122  24.246  1.00  0.00    -0.460 OA
BRANCH  29  30
ATOM     30  C   UNL A   1      44.871  19.600  24.234  1.00  0.00     0.338 C 
ATOM     31  O   UNL A   1      45.851  19.096  23.710  1.00  0.00    -0.246 OA
BRANCH  30  32
ATOM     32  C   UNL A   1      44.876  20.959  24.801  1.00  0.00     0.060 A 
ATOM     33  C   UNL A   1      45.151  21.172  26.152  1.00  0.00     0.016 A 
ATOM     34  C   UNL A   1      44.616  22.038  23.944  1.00  0.00     0.016 A 
ATOM     35  C   UNL A   1      45.200  22.479  26.641  1.00  0.00     0.010 A 
ATOM     36  C   UNL A   1      44.649  23.342  24.437  1.00  0.00     0.010 A 
ATOM     37  C   UNL A   1      44.963  23.571  25.785  1.00  0.00    -0.014 A 
BRANCH  37  38
ATOM     38  C   UNL A   1      45.199  24.949  26.273  1.00  0.00     0.031 A 
ATOM     39  C   UNL A   1      46.541  25.601  26.170  1.00  0.00     0.074 A 
ATOM     40  C   UNL A   1      44.161  25.614  26.811  1.00  0.00     0.049 A 
ATOM     41  N   UNL A   1      46.892  26.820  26.492  1.00  0.00    -0.248 NA
ATOM     42  C   UNL A   1      47.636  24.773  25.652  1.00  0.00     0.031 C 
ATOM     43  C   UNL A   1      42.816  25.064  26.983  1.00  0.00     0.029 A 
ATOM     44  N   UNL A   1      44.067  26.894  27.291  1.00  0.00    -0.354 N 
ATOM     45  C   UNL A   1      48.249  26.910  26.218  1.00  0.00     0.074 A 
ATOM     46  C   UNL A   1      48.665  25.609  25.737  1.00  0.00     0.031 C 
ATOM     47  C   UNL A   1      42.019  26.015  27.491  1.00  0.00     0.029 A 
ATOM     48  C   UNL A   1      42.800  27.232  27.698  1.00  0.00     0.049 A 
ATOM     49  H   UNL A   1      44.832  27.512  27.338  1.00  0.00     0.167 HD
ATOM     50  C   UNL A   1      49.061  27.988  26.340  1.00  0.00     0.037 A 
ATOM     51  C   UNL A   1      42.319  28.398  28.166  1.00  0.00     0.037 A 
ATOM     52  C   UNL A   1      48.624  29.287  26.788  1.00  0.00     0.049 A 
ATOM     53  C   UNL A   1      43.237  29.582  28.278  1.00  0.00     0.074 A 
ATOM     54  C   UNL A   1      49.356  30.460  26.874  1.00  0.00     0.029 A 
ATOM     55  N   UNL A   1      47.341  29.587  27.222  1.00  0.00    -0.354 N 
ATOM     56  N   UNL A   1      44.504  29.676  27.957  1.00  0.00    -0.248 NA
ATOM     57  C   UNL A   1      42.658  30.822  28.812  1.00  0.00     0.031 C 
ATOM     58  C   UNL A   1      48.529  31.457  27.397  1.00  0.00     0.029 A 
ATOM     59  C   UNL A   1      47.267  30.919  27.597  1.00  0.00     0.049 A 
ATOM     60  H   UNL A   1      46.593  28.948  27.258  1.00  0.00     0.167 HD
ATOM     61  C   UNL A   1      44.871  30.985  28.236  1.00  0.00     0.074 A 
ATOM     62  C   UNL A   1      43.688  31.655  28.733  1.00  0.00     0.031 C 
ATOM     63  C   UNL A   1      46.084  31.574  28.097  1.00  0.00     0.037 A 
BRANCH  50  64
ATOM     64  C   UNL A   1      50.507  27.829  25.970  1.00  0.00     0.064 A 
ATOM     65  C   UNL A   1      50.937  27.933  24.638  1.00  0.00     0.173 A 
ATOM     66  C   UNL A   1      51.486  27.663  26.962  1.00  0.00     0.173 A 
ATOM     67  F   UNL A   1      50.041  28.088  23.651  1.00  0.00    -0.203 F 
ATOM     68  C   UNL A   1      52.289  27.861  24.313  1.00  0.00     0.198 A 
ATOM     69  C   UNL A   1      52.839  27.621  26.636  1.00  0.00     0.198 A 
ATOM     70  F   UNL A   1      51.132  27.571  28.253  1.00  0.00    -0.203 F 
ATOM     71  F   UNL A   1      52.671  27.933  23.030  1.00  0.00    -0.200 F 
ATOM     72  C   UNL A   1      53.239  27.715  25.311  1.00  0.00     0.200 A 
ATOM     73  F   UNL A   1      53.758  27.499  27.604  1.00  0.00    -0.200 F 
ATOM     74  F   UNL A   1      54.541  27.667  24.997  1.00  0.00    -0.200 F 
ENDBRANCH  50  64
BRANCH  51  75
ATOM     75  C   UNL A   1      40.877  28.506  28.499  1.00  0.00     0.064 A 
ATOM     76  C   UNL A   1      40.413  28.172  29.776  1.00  0.00     0.173 A 
ATOM     77  C   UNL A   1      39.948  28.992  27.567  1.00  0.00     0.173 A 
ATOM     78  F   UNL A   1      41.264  27.691  30.694  1.00  0.00    -0.203 F 
ATOM     79  C   UNL A   1      39.068  28.313  30.111  1.00  0.00     0.198 A 
ATOM     80  C   UNL A   1      38.608  29.156  27.911  1.00  0.00     0.198 A 
ATOM     81  F   UNL A   1      40.348  29.333  26.334  1.00  0.00    -0.203 F 
ATOM     82  F   UNL A   1      38.644  27.964  31.333  1.00  0.00    -0.200 F 
ATOM     83  C   UNL A   1      38.169  28.813  29.181  1.00  0.00     0.200 A 
ATOM     84  F   UNL A   1      37.746  29.654  27.015  1.00  0.00    -0.200 F 
ATOM     85  F   UNL A   1      36.878  28.965  29.508  1.00  0.00    -0.200 F 
ENDBRANCH  51  75
BRANCH  63  86
ATOM     86  C   UNL A   1      46.203  33.017  28.490  1.00  0.00     0.064 A 
ATOM     87  C   UNL A   1      46.609  33.389  29.780  1.00  0.00     0.173 A 
ATOM     88  C   UNL A   1      45.987  34.035  27.549  1.00  0.00     0.173 A 
ATOM     89  F   UNL A   1      46.814  32.453  30.718  1.00  0.00    -0.203 F 
ATOM     90  C   UNL A   1      46.785  34.728  30.117  1.00  0.00     0.198 A 
ATOM     91  C   UNL A   1      46.189  35.372  27.882  1.00  0.00     0.198 A 
ATOM     92  F   UNL A   1      45.603  33.732  26.299  1.00  0.00    -0.203 F 
ATOM     93  F   UNL A   1      47.145  35.063  31.363  1.00  0.00    -0.200 F 
ATOM     94  C   UNL A   1      46.585  35.717  29.164  1.00  0.00     0.200 A 
ATOM     95  F   UNL A   1      46.009  36.326  26.957  1.00  0.00    -0.200 F 
ATOM     96  F   UNL A   1      46.773  37.005  29.485  1.00  0.00    -0.200 F 
ENDBRANCH  63  86
ENDBRANCH  37  38
ENDBRANCH  30  32
ENDBRANCH  29  30
ENDBRANCH  28  29
ENDBRANCH  27  28
ENDBRANCH  26  27
ENDBRANCH   1  26
TORSDOF 19
ENDMDL
