MODEL 1
REMARK VINA RESULT:     -10.9      0.000      0.000
REMARK SMILES COC(=O)c1ccc([C@H]2Nc3c(C(=O)OCCOCCOCCOC(=O)c4ccc(-c5c6nc(c(-c7c(F)c(F)c(F)c(F)c7F)c7ccc([nH]7)c(-c7c(F)c(F)c(F)c(F)c7F)c7nc(c(-c8c(F)c(F)c(F)c(F)c8F)c8ccc5[nH]8)C=C7)C=C6)cc4)cccc3[C@H]3[C@H]4CC[C@H](C4)[C@H]32)cc1
REMARK SMILES IDX 19 1 18 2 17 3 16 4 15 5 13 6 14 7 12 8 9 9 10 10 100 11
REMARK SMILES IDX 11 12 94 14 98 15 93 16 95 17 97 18 99 19 90 20 92 21 96 22
REMARK SMILES IDX 91 23 8 24 5 25 6 26 102 27 7 28 101 29 3 30 4 31 2 32 1 33
REMARK SMILES IDX 20 34 21 35 22 36 23 37 24 38 25 39 26 40 27 41 28 42 89 43
REMARK SMILES IDX 29 44 88 45 30 46 31 47 32 48 82 49 33 50 87 51 81 52 83 53
REMARK SMILES IDX 34 54 86 55 80 56 79 57 35 59 67 60 47 61 66 62 48 63 51 64
REMARK SMILES IDX 65 65 84 66 49 67 50 68 64 70 85 71 52 72 36 73 37 74 45 75
REMARK SMILES IDX 38 76 39 77 43 78 46 79 40 80 41 81 44 82 42 83 68 84 69 85
REMARK SMILES IDX 77 86 70 87 71 88 75 89 78 90 72 91 73 92 76 93 74 94 53 95
REMARK SMILES IDX 54 96 62 97 55 98 56 99 60 100 63 101 57 102 58 103 61 104
REMARK SMILES IDX 59 105
REMARK H PARENT 10 13 83 58 51 69
REMARK Flexibility Score: inf
ROOT
ATOM      1  C   UNL A   1      35.427  32.540  28.399  1.00  0.00     0.188 C 
ENDROOT
BRANCH   1   2
ATOM      2  O   UNL A   1      36.747  32.041  28.200  1.00  0.00    -0.376 OA
BRANCH   2   3
ATOM      3  C   UNL A   1      36.931  30.681  27.827  1.00  0.00     0.202 C 
BRANCH   3   4
ATOM      4  C   UNL A   1      35.793  29.708  28.135  1.00  0.00     0.261 C 
BRANCH   4   5
ATOM      5  O   UNL A   1      35.272  29.047  26.974  1.00  0.00    -0.460 OA
BRANCH   5   6
ATOM      6  C   UNL A   1      33.970  28.637  27.028  1.00  0.00     0.340 C 
ATOM      7  O   UNL A   1      33.208  28.736  27.958  1.00  0.00    -0.246 OA
BRANCH   6   8
ATOM      8  C   UNL A   1      33.595  28.197  25.658  1.00  0.00     0.083 A 
ATOM      9  C   UNL A   1      32.596  24.621  26.102  1.00  0.00     0.113 C 
ATOM     10  N   UNL A   1      32.640  26.056  26.459  1.00  0.00    -0.377 N 
ATOM     11  C   UNL A   1      31.574  24.439  24.936  1.00  0.00     0.027 C 
ATOM     12  C   UNL A   1      32.882  26.996  25.451  1.00  0.00     0.053 A 
ATOM     13  H   UNL A   1      32.501  26.345  27.390  1.00  0.00     0.161 HD
ATOM     14  C   UNL A   1      31.297  25.685  24.048  1.00  0.00     0.030 C 
ATOM     15  C   UNL A   1      31.605  23.310  23.879  1.00  0.00    -0.005 C 
ATOM     16  C   UNL A   1      32.322  26.779  24.178  1.00  0.00    -0.020 A 
ATOM     17  C   UNL A   1      31.006  25.073  22.646  1.00  0.00    -0.003 C 
ATOM     18  C   UNL A   1      32.750  23.467  22.853  1.00  0.00     0.004 C 
ATOM     19  C   UNL A   1      30.396  23.720  23.017  1.00  0.00     0.008 C 
ATOM     20  C   UNL A   1      33.883  29.063  24.591  1.00  0.00     0.018 A 
ATOM     21  C   UNL A   1      32.572  27.681  23.131  1.00  0.00     0.006 A 
ATOM     22  C   UNL A   1      32.284  24.603  21.947  1.00  0.00     0.004 C 
ATOM     23  C   UNL A   1      33.389  28.790  23.322  1.00  0.00     0.001 A 
BRANCH   9  24
ATOM     24  C   UNL A   1      34.000  23.998  26.094  1.00  0.00    -0.025 A 
ATOM     25  C   UNL A   1      36.556  22.789  25.918  1.00  0.00     0.060 A 
ATOM     26  C   UNL A   1      36.354  24.054  25.383  1.00  0.00     0.016 A 
ATOM     27  C   UNL A   1      35.547  22.186  26.666  1.00  0.00     0.016 A 
ATOM     28  C   UNL A   1      35.088  24.643  25.467  1.00  0.00     0.007 A 
ATOM     29  C   UNL A   1      34.307  22.823  26.800  1.00  0.00     0.007 A 
BRANCH  25  30
ATOM     30  C   UNL A   1      37.826  22.095  25.641  1.00  0.00     0.337 C 
ATOM     31  O   UNL A   1      37.920  21.046  25.030  1.00  0.00    -0.246 OA
BRANCH  30  32
ATOM     32  O   UNL A   1      38.810  22.757  26.298  1.00  0.00    -0.465 OA
ATOM     33  C   UNL A   1      39.920  21.953  26.695  1.00  0.00     0.282 C 
ENDBRANCH  30  32
ENDBRANCH  25  30
ENDBRANCH   9  24
ENDBRANCH   6   8
ENDBRANCH   5   6
ENDBRANCH   4   5
ENDBRANCH   3   4
ENDBRANCH   2   3
ENDBRANCH   1   2
BRANCH   1  34
ATOM     34  C   UNL A   1      35.116  34.014  28.070  1.00  0.00     0.188 C 
BRANCH  34  35
ATOM     35  O   UNL A   1      34.586  34.718  29.181  1.00  0.00    -0.376 OA
BRANCH  35  36
ATOM     36  C   UNL A   1      33.197  34.987  29.187  1.00  0.00     0.202 C 
BRANCH  36  37
ATOM     37  C   UNL A   1      32.736  36.282  29.868  1.00  0.00     0.261 C 
BRANCH  37  38
ATOM     38  O   UNL A   1      33.183  36.483  31.217  1.00  0.00    -0.460 OA
BRANCH  38  39
ATOM     39  C   UNL A   1      32.782  35.587  32.142  1.00  0.00     0.338 C 
ATOM     40  O   UNL A   1      31.639  35.255  32.398  1.00  0.00    -0.246 OA
BRANCH  39  41
ATOM     41  C   UNL A   1      33.987  34.944  32.712  1.00  0.00     0.060 A 
ATOM     42  C   UNL A   1      35.208  35.623  32.630  1.00  0.00     0.016 A 
ATOM     43  C   UNL A   1      33.921  33.681  33.310  1.00  0.00     0.016 A 
ATOM     44  C   UNL A   1      36.375  35.013  33.092  1.00  0.00     0.010 A 
ATOM     45  C   UNL A   1      35.094  33.067  33.767  1.00  0.00     0.010 A 
ATOM     46  C   UNL A   1      36.332  33.715  33.623  1.00  0.00    -0.014 A 
BRANCH  46  47
ATOM     47  C   UNL A   1      37.604  32.973  33.808  1.00  0.00     0.031 A 
ATOM     48  C   UNL A   1      38.399  33.227  35.060  1.00  0.00     0.074 A 
ATOM     49  C   UNL A   1      38.018  32.046  32.926  1.00  0.00     0.049 A 
ATOM     50  N   UNL A   1      39.507  32.668  35.476  1.00  0.00    -0.248 NA
ATOM     51  C   UNL A   1      37.862  34.249  35.973  1.00  0.00     0.031 C 
ATOM     52  C   UNL A   1      37.319  31.671  31.700  1.00  0.00     0.029 A 
ATOM     53  N   UNL A   1      39.133  31.244  32.940  1.00  0.00    -0.354 N 
ATOM     54  C   UNL A   1      39.793  33.262  36.698  1.00  0.00     0.074 A 
ATOM     55  C   UNL A   1      38.764  34.251  36.941  1.00  0.00     0.031 C 
ATOM     56  C   UNL A   1      38.021  30.705  31.078  1.00  0.00     0.029 A 
ATOM     57  C   UNL A   1      39.228  30.413  31.850  1.00  0.00     0.049 A 
ATOM     58  H   UNL A   1      39.801  31.263  33.662  1.00  0.00     0.167 HD
ATOM     59  C   UNL A   1      40.811  33.002  37.551  1.00  0.00     0.037 A 
ATOM     60  C   UNL A   1      40.187  29.527  31.518  1.00  0.00     0.037 A 
ATOM     61  C   UNL A   1      41.847  32.035  37.308  1.00  0.00     0.049 A 
ATOM     62  C   UNL A   1      41.368  29.328  32.436  1.00  0.00     0.074 A 
ATOM     63  C   UNL A   1      42.921  31.697  38.111  1.00  0.00     0.029 A 
ATOM     64  N   UNL A   1      41.943  31.259  36.162  1.00  0.00    -0.354 N 
ATOM     65  N   UNL A   1      41.612  29.866  33.607  1.00  0.00    -0.248 NA
ATOM     66  C   UNL A   1      42.408  28.390  31.984  1.00  0.00     0.031 C 
ATOM     67  C   UNL A   1      43.697  30.752  37.428  1.00  0.00     0.029 A 
ATOM     68  C   UNL A   1      43.075  30.462  36.225  1.00  0.00     0.049 A 
ATOM     69  H   UNL A   1      41.302  31.272  35.415  1.00  0.00     0.167 HD
ATOM     70  C   UNL A   1      42.806  29.306  34.047  1.00  0.00     0.074 A 
ATOM     71  C   UNL A   1      43.235  28.381  33.020  1.00  0.00     0.031 C 
ATOM     72  C   UNL A   1      43.482  29.532  35.202  1.00  0.00     0.037 A 
BRANCH  59  73
ATOM     73  C   UNL A   1      40.865  33.810  38.815  1.00  0.00     0.064 A 
ATOM     74  C   UNL A   1      40.199  33.400  39.981  1.00  0.00     0.173 A 
ATOM     75  C   UNL A   1      41.582  35.014  38.858  1.00  0.00     0.173 A 
ATOM     76  F   UNL A   1      39.483  32.266  39.986  1.00  0.00    -0.203 F 
ATOM     77  C   UNL A   1      40.221  34.184  41.131  1.00  0.00     0.198 A 
ATOM     78  C   UNL A   1      41.627  35.781  40.018  1.00  0.00     0.198 A 
ATOM     79  F   UNL A   1      42.238  35.450  37.771  1.00  0.00    -0.203 F 
ATOM     80  F   UNL A   1      39.529  33.802  42.214  1.00  0.00    -0.200 F 
ATOM     81  C   UNL A   1      40.938  35.371  41.151  1.00  0.00     0.200 A 
ATOM     82  F   UNL A   1      42.328  36.923  40.038  1.00  0.00    -0.200 F 
ATOM     83  F   UNL A   1      40.955  36.127  42.257  1.00  0.00    -0.200 F 
ENDBRANCH  59  73
BRANCH  60  84
ATOM     84  C   UNL A   1      40.077  28.743  30.260  1.00  0.00     0.064 A 
ATOM     85  C   UNL A   1      39.479  27.475  30.251  1.00  0.00     0.173 A 
ATOM     86  C   UNL A   1      40.600  29.225  29.051  1.00  0.00     0.173 A 
ATOM     87  F   UNL A   1      38.992  26.956  31.389  1.00  0.00    -0.203 F 
ATOM     88  C   UNL A   1      39.424  26.712  29.086  1.00  0.00     0.198 A 
ATOM     89  C   UNL A   1      40.522  28.473  27.881  1.00  0.00     0.198 A 
ATOM     90  F   UNL A   1      41.192  30.428  29.009  1.00  0.00    -0.203 F 
ATOM     91  F   UNL A   1      38.896  25.481  29.119  1.00  0.00    -0.200 F 
ATOM     92  C   UNL A   1      39.942  27.213  27.901  1.00  0.00     0.200 A 
ATOM     93  F   UNL A   1      41.022  28.962  26.738  1.00  0.00    -0.200 F 
ATOM     94  F   UNL A   1      39.897  26.477  26.784  1.00  0.00    -0.200 F 
ENDBRANCH  60  84
BRANCH  72  95
ATOM     95  C   UNL A   1      44.727  28.727  35.445  1.00  0.00     0.064 A 
ATOM     96  C   UNL A   1      45.995  29.188  35.061  1.00  0.00     0.173 A 
ATOM     97  C   UNL A   1      44.652  27.493  36.109  1.00  0.00     0.173 A 
ATOM     98  F   UNL A   1      46.121  30.356  34.413  1.00  0.00    -0.203 F 
ATOM     99  C   UNL A   1      47.137  28.430  35.309  1.00  0.00     0.198 A 
ATOM    100  C   UNL A   1      45.799  26.752  36.381  1.00  0.00     0.198 A 
ATOM    101  F   UNL A   1      43.465  27.009  36.505  1.00  0.00    -0.203 F 
ATOM    102  F   UNL A   1      48.333  28.867  34.889  1.00  0.00    -0.200 F 
ATOM    103  C   UNL A   1      47.039  27.216  35.973  1.00  0.00     0.200 A 
ATOM    104  F   UNL A   1      45.703  25.587  37.037  1.00  0.00    -0.200 F 
ATOM    105  F   UNL A   1      48.140  26.492  36.215  1.00  0.00    -0.200 F 
ENDBRANCH  72  95
ENDBRANCH  46  47
ENDBRANCH  39  41
ENDBRANCH  38  39
ENDBRANCH  37  38
ENDBRANCH  36  37
ENDBRANCH  35  36
ENDBRANCH  34  35
ENDBRANCH   1  34
TORSDOF 20
ENDMDL
MODEL 2
REMARK VINA RESULT:     -10.2      5.097     11.439
REMARK SMILES COC(=O)c1ccc([C@H]2Nc3c(C(=O)OCCOCCOCCOC(=O)c4ccc(-c5c6nc(c(-c7c(F)c(F)c(F)c(F)c7F)c7ccc([nH]7)c(-c7c(F)c(F)c(F)c(F)c7F)c7nc(c(-c8c(F)c(F)c(F)c(F)c8F)c8ccc5[nH]8)C=C7)C=C6)cc4)cccc3[C@H]3[C@H]4CC[C@H](C4)[C@H]32)cc1
REMARK SMILES IDX 19 1 18 2 17 3 16 4 15 5 13 6 14 7 12 8 9 9 10 10 100 11
REMARK SMILES IDX 11 12 94 14 98 15 93 16 95 17 97 18 99 19 90 20 92 21 96 22
REMARK SMILES IDX 91 23 8 24 5 25 6 26 102 27 7 28 101 29 3 30 4 31 2 32 1 33
REMARK SMILES IDX 20 34 21 35 22 36 23 37 24 38 25 39 26 40 27 41 28 42 89 43
REMARK SMILES IDX 29 44 88 45 30 46 31 47 32 48 82 49 33 50 87 51 81 52 83 53
REMARK SMILES IDX 34 54 86 55 80 56 79 57 35 59 67 60 47 61 66 62 48 63 51 64
REMARK SMILES IDX 65 65 84 66 49 67 50 68 64 70 85 71 52 72 36 73 37 74 45 75
REMARK SMILES IDX 38 76 39 77 43 78 46 79 40 80 41 81 44 82 42 83 68 84 69 85
REMARK SMILES IDX 77 86 70 87 71 88 75 89 78 90 72 91 73 92 76 93 74 94 53 95
REMARK SMILES IDX 54 96 62 97 55 98 56 99 60 100 63 101 57 102 58 103 61 104
REMARK SMILES IDX 59 105
REMARK H PARENT 10 13 83 58 51 69
REMARK Flexibility Score: inf
ROOT
ATOM      1  C   UNL A   1      42.005  20.062  26.311  1.00  0.00     0.188 C 
ENDROOT
BRANCH   1   2
ATOM      2  O   UNL A   1      42.071  21.386  25.787  1.00  0.00    -0.376 OA
BRANCH   2   3
ATOM      3  C   UNL A   1      42.067  22.492  26.681  1.00  0.00     0.202 C 
BRANCH   3   4
ATOM      4  C   UNL A   1      40.789  23.328  26.758  1.00  0.00     0.261 C 
BRANCH   4   5
ATOM      5  O   UNL A   1      40.946  24.665  26.264  1.00  0.00    -0.460 OA
BRANCH   5   6
ATOM      6  C   UNL A   1      40.120  25.619  26.786  1.00  0.00     0.340 C 
ATOM      7  O   UNL A   1      38.990  25.471  27.186  1.00  0.00    -0.246 OA
BRANCH   6   8
ATOM      8  C   UNL A   1      40.927  26.857  26.942  1.00  0.00     0.083 A 
ATOM      9  C   UNL A   1      40.147  28.009  30.413  1.00  0.00     0.113 C 
ATOM     10  N   UNL A   1      40.474  27.010  29.373  1.00  0.00    -0.377 N 
ATOM     11  C   UNL A   1      41.455  28.773  30.787  1.00  0.00     0.027 C 
ATOM     12  C   UNL A   1      41.137  27.431  28.215  1.00  0.00     0.053 A 
ATOM     13  H   UNL A   1      40.231  26.064  29.494  1.00  0.00     0.161 HD
ATOM     14  C   UNL A   1      42.581  28.798  29.713  1.00  0.00     0.030 C 
ATOM     15  C   UNL A   1      41.531  30.214  31.344  1.00  0.00    -0.005 C 
ATOM     16  C   UNL A   1      42.125  28.427  28.328  1.00  0.00    -0.020 A 
ATOM     17  C   UNL A   1      43.274  30.174  29.947  1.00  0.00    -0.003 C 
ATOM     18  C   UNL A   1      41.202  31.294  30.289  1.00  0.00     0.004 C 
ATOM     19  C   UNL A   1      43.059  30.379  31.449  1.00  0.00     0.008 C 
ATOM     20  C   UNL A   1      41.556  27.377  25.799  1.00  0.00     0.018 A 
ATOM     21  C   UNL A   1      42.786  28.903  27.184  1.00  0.00     0.006 A 
ATOM     22  C   UNL A   1      42.442  31.337  29.401  1.00  0.00     0.004 C 
ATOM     23  C   UNL A   1      42.468  28.417  25.920  1.00  0.00     0.001 A 
BRANCH   9  24
ATOM     24  C   UNL A   1      38.817  28.719  30.115  1.00  0.00    -0.025 A 
ATOM     25  C   UNL A   1      36.453  30.177  29.554  1.00  0.00     0.060 A 
ATOM     26  C   UNL A   1      37.253  29.733  28.510  1.00  0.00     0.016 A 
ATOM     27  C   UNL A   1      36.735  29.777  30.859  1.00  0.00     0.016 A 
ATOM     28  C   UNL A   1      38.423  29.020  28.794  1.00  0.00     0.007 A 
ATOM     29  C   UNL A   1      37.873  29.001  31.116  1.00  0.00     0.007 A 
BRANCH  25  30
ATOM     30  C   UNL A   1      35.345  31.101  29.257  1.00  0.00     0.337 C 
ATOM     31  O   UNL A   1      34.712  31.108  28.216  1.00  0.00    -0.246 OA
BRANCH  30  32
ATOM     32  O   UNL A   1      35.269  31.995  30.274  1.00  0.00    -0.465 OA
ATOM     33  C   UNL A   1      35.067  33.350  29.874  1.00  0.00     0.282 C 
ENDBRANCH  30  32
ENDBRANCH  25  30
ENDBRANCH   9  24
ENDBRANCH   6   8
ENDBRANCH   5   6
ENDBRANCH   4   5
ENDBRANCH   3   4
ENDBRANCH   2   3
ENDBRANCH   1   2
BRANCH   1  34
ATOM     34  C   UNL A   1      42.771  18.928  25.603  1.00  0.00     0.188 C 
BRANCH  34  35
ATOM     35  O   UNL A   1      44.173  19.016  25.795  1.00  0.00    -0.376 OA
BRANCH  35  36
ATOM     36  C   UNL A   1      45.002  18.902  24.654  1.00  0.00     0.202 C 
BRANCH  36  37
ATOM     37  C   UNL A   1      45.946  20.073  24.352  1.00  0.00     0.261 C 
BRANCH  37  38
ATOM     38  O   UNL A   1      45.671  21.303  25.038  1.00  0.00    -0.460 OA
BRANCH  38  39
ATOM     39  C   UNL A   1      45.159  22.317  24.310  1.00  0.00     0.338 C 
ATOM     40  O   UNL A   1      44.530  22.232  23.271  1.00  0.00    -0.246 OA
BRANCH  39  41
ATOM     41  C   UNL A   1      45.362  23.574  25.065  1.00  0.00     0.060 A 
ATOM     42  C   UNL A   1      46.595  23.785  25.692  1.00  0.00     0.016 A 
ATOM     43  C   UNL A   1      44.346  24.530  25.168  1.00  0.00     0.016 A 
ATOM     44  C   UNL A   1      46.792  24.925  26.472  1.00  0.00     0.010 A 
ATOM     45  C   UNL A   1      44.542  25.670  25.956  1.00  0.00     0.010 A 
ATOM     46  C   UNL A   1      45.754  25.852  26.645  1.00  0.00    -0.014 A 
BRANCH  46  47
ATOM     47  C   UNL A   1      45.872  26.872  27.716  1.00  0.00     0.031 A 
ATOM     48  C   UNL A   1      45.698  26.426  29.143  1.00  0.00     0.074 A 
ATOM     49  C   UNL A   1      46.190  28.150  27.446  1.00  0.00     0.049 A 
ATOM     50  N   UNL A   1      45.807  27.111  30.254  1.00  0.00    -0.248 NA
ATOM     51  C   UNL A   1      45.363  25.007  29.342  1.00  0.00     0.031 C 
ATOM     52  C   UNL A   1      46.431  28.701  26.116  1.00  0.00     0.029 A 
ATOM     53  N   UNL A   1      46.375  29.216  28.293  1.00  0.00    -0.354 N 
ATOM     54  C   UNL A   1      45.564  26.206  31.279  1.00  0.00     0.074 A 
ATOM     55  C   UNL A   1      45.265  24.932  30.660  1.00  0.00     0.031 C 
ATOM     56  C   UNL A   1      46.737  30.007  26.234  1.00  0.00     0.029 A 
ATOM     57  C   UNL A   1      46.689  30.386  27.646  1.00  0.00     0.049 A 
ATOM     58  H   UNL A   1      46.289  29.148  29.271  1.00  0.00     0.167 HD
ATOM     59  C   UNL A   1      45.598  26.409  32.616  1.00  0.00     0.037 A 
ATOM     60  C   UNL A   1      46.905  31.620  28.143  1.00  0.00     0.037 A 
ATOM     61  C   UNL A   1      45.876  27.676  33.238  1.00  0.00     0.049 A 
ATOM     62  C   UNL A   1      46.835  31.845  29.634  1.00  0.00     0.074 A 
ATOM     63  C   UNL A   1      45.935  27.985  34.585  1.00  0.00     0.029 A 
ATOM     64  N   UNL A   1      46.126  28.852  32.546  1.00  0.00    -0.354 N 
ATOM     65  N   UNL A   1      46.642  30.978  30.599  1.00  0.00    -0.248 NA
ATOM     66  C   UNL A   1      47.022  33.227  30.104  1.00  0.00     0.031 C 
ATOM     67  C   UNL A   1      46.171  29.360  34.708  1.00  0.00     0.029 A 
ATOM     68  C   UNL A   1      46.314  29.896  33.438  1.00  0.00     0.049 A 
ATOM     69  H   UNL A   1      46.165  28.934  31.565  1.00  0.00     0.167 HD
ATOM     70  C   UNL A   1      46.721  31.698  31.784  1.00  0.00     0.074 A 
ATOM     71  C   UNL A   1      46.987  33.074  31.420  1.00  0.00     0.031 C 
ATOM     72  C   UNL A   1      46.594  31.258  33.062  1.00  0.00     0.037 A 
BRANCH  59  73
ATOM     73  C   UNL A   1      45.291  25.231  33.494  1.00  0.00     0.064 A 
ATOM     74  C   UNL A   1      43.995  24.990  33.976  1.00  0.00     0.173 A 
ATOM     75  C   UNL A   1      46.307  24.340  33.866  1.00  0.00     0.173 A 
ATOM     76  F   UNL A   1      42.992  25.824  33.664  1.00  0.00    -0.203 F 
ATOM     77  C   UNL A   1      43.736  23.919  34.826  1.00  0.00     0.198 A 
ATOM     78  C   UNL A   1      46.039  23.252  34.693  1.00  0.00     0.198 A 
ATOM     79  F   UNL A   1      47.563  24.524  33.431  1.00  0.00    -0.203 F 
ATOM     80  F   UNL A   1      42.503  23.741  35.322  1.00  0.00    -0.200 F 
ATOM     81  C   UNL A   1      44.756  23.048  35.180  1.00  0.00     0.200 A 
ATOM     82  F   UNL A   1      47.024  22.408  35.027  1.00  0.00    -0.200 F 
ATOM     83  F   UNL A   1      44.506  22.021  36.004  1.00  0.00    -0.200 F 
ENDBRANCH  59  73
BRANCH  60  84
ATOM     84  C   UNL A   1      47.218  32.750  27.229  1.00  0.00     0.064 A 
ATOM     85  C   UNL A   1      48.545  33.117  26.965  1.00  0.00     0.173 A 
ATOM     86  C   UNL A   1      46.201  33.509  26.631  1.00  0.00     0.173 A 
ATOM     87  F   UNL A   1      49.553  32.441  27.539  1.00  0.00    -0.203 F 
ATOM     88  C   UNL A   1      48.843  34.211  26.155  1.00  0.00     0.198 A 
ATOM     89  C   UNL A   1      46.499  34.586  25.801  1.00  0.00     0.198 A 
ATOM     90  F   UNL A   1      44.914  33.205  26.861  1.00  0.00    -0.203 F 
ATOM     91  F   UNL A   1      50.119  34.572  25.965  1.00  0.00    -0.200 F 
ATOM     92  C   UNL A   1      47.820  34.942  25.570  1.00  0.00     0.200 A 
ATOM     93  F   UNL A   1      45.508  35.289  25.236  1.00  0.00    -0.200 F 
ATOM     94  F   UNL A   1      48.106  35.998  24.798  1.00  0.00    -0.200 F 
ENDBRANCH  60  84
BRANCH  72  95
ATOM     95  C   UNL A   1      46.795  32.259  34.163  1.00  0.00     0.064 A 
ATOM     96  C   UNL A   1      48.058  32.506  34.721  1.00  0.00     0.173 A 
ATOM     97  C   UNL A   1      45.710  33.012  34.641  1.00  0.00     0.173 A 
ATOM     98  F   UNL A   1      49.126  31.806  34.309  1.00  0.00    -0.203 F 
ATOM     99  C   UNL A   1      48.222  33.449  35.734  1.00  0.00     0.198 A 
ATOM    100  C   UNL A   1      45.883  33.974  35.632  1.00  0.00     0.198 A 
ATOM    101  F   UNL A   1      44.481  32.821  34.136  1.00  0.00    -0.203 F 
ATOM    102  F   UNL A   1      49.429  33.633  36.286  1.00  0.00    -0.200 F 
ATOM    103  C   UNL A   1      47.136  34.186  36.183  1.00  0.00     0.200 A 
ATOM    104  F   UNL A   1      44.835  34.695  36.054  1.00  0.00    -0.200 F 
ATOM    105  F   UNL A   1      47.298  35.096  37.154  1.00  0.00    -0.200 F 
ENDBRANCH  72  95
ENDBRANCH  46  47
ENDBRANCH  39  41
ENDBRANCH  38  39
ENDBRANCH  37  38
ENDBRANCH  36  37
ENDBRANCH  35  36
ENDBRANCH  34  35
ENDBRANCH   1  34
TORSDOF 20
ENDMDL
MODEL 3
REMARK VINA RESULT:      -9.6      5.244     10.576
REMARK SMILES COC(=O)c1ccc([C@H]2Nc3c(C(=O)OCCOCCOCCOC(=O)c4ccc(-c5c6nc(c(-c7c(F)c(F)c(F)c(F)c7F)c7ccc([nH]7)c(-c7c(F)c(F)c(F)c(F)c7F)c7nc(c(-c8c(F)c(F)c(F)c(F)c8F)c8ccc5[nH]8)C=C7)C=C6)cc4)cccc3[C@H]3[C@H]4CC[C@H](C4)[C@H]32)cc1
REMARK SMILES IDX 19 1 18 2 17 3 16 4 15 5 13 6 14 7 12 8 9 9 10 10 100 11
REMARK SMILES IDX 11 12 94 14 98 15 93 16 95 17 97 18 99 19 90 20 92 21 96 22
REMARK SMILES IDX 91 23 8 24 5 25 6 26 102 27 7 28 101 29 3 30 4 31 2 32 1 33
REMARK SMILES IDX 20 34 21 35 22 36 23 37 24 38 25 39 26 40 27 41 28 42 89 43
REMARK SMILES IDX 29 44 88 45 30 46 31 47 32 48 82 49 33 50 87 51 81 52 83 53
REMARK SMILES IDX 34 54 86 55 80 56 79 57 35 59 67 60 47 61 66 62 48 63 51 64
REMARK SMILES IDX 65 65 84 66 49 67 50 68 64 70 85 71 52 72 36 73 37 74 45 75
REMARK SMILES IDX 38 76 39 77 43 78 46 79 40 80 41 81 44 82 42 83 68 84 69 85
REMARK SMILES IDX 77 86 70 87 71 88 75 89 78 90 72 91 73 92 76 93 74 94 53 95
REMARK SMILES IDX 54 96 62 97 55 98 56 99 60 100 63 101 57 102 58 103 61 104
REMARK SMILES IDX 59 105
REMARK H PARENT 10 13 83 58 51 69
REMARK Flexibility Score: inf
ROOT
ATOM      1  C   UNL A   1      41.751  19.671  27.202  1.00  0.00     0.188 C 
ENDROOT
BRANCH   1   2
ATOM      2  O   UNL A   1      40.571  20.446  27.394  1.00  0.00    -0.376 OA
BRANCH   2   3
ATOM      3  C   UNL A   1      39.823  20.871  26.262  1.00  0.00     0.202 C 
BRANCH   3   4
ATOM      4  C   UNL A   1      39.179  22.256  26.325  1.00  0.00     0.261 C 
BRANCH   4   5
ATOM      5  O   UNL A   1      37.811  22.275  25.893  1.00  0.00    -0.460 OA
BRANCH   5   6
ATOM      6  C   UNL A   1      37.133  23.451  26.038  1.00  0.00     0.340 C 
ATOM      7  O   UNL A   1      37.569  24.569  25.909  1.00  0.00    -0.246 OA
BRANCH   6   8
ATOM      8  C   UNL A   1      35.697  23.108  26.214  1.00  0.00     0.083 A 
ATOM      9  C   UNL A   1      33.956  25.157  23.616  1.00  0.00     0.113 C 
ATOM     10  N   UNL A   1      35.022  24.273  24.134  1.00  0.00    -0.377 N 
ATOM     11  C   UNL A   1      32.694  24.285  23.329  1.00  0.00     0.027 C 
ATOM     12  C   UNL A   1      34.743  23.448  25.230  1.00  0.00     0.053 A 
ATOM     13  H   UNL A   1      35.913  24.264  23.715  1.00  0.00     0.161 HD
ATOM     14  C   UNL A   1      32.572  22.950  24.119  1.00  0.00     0.030 C 
ATOM     15  C   UNL A   1      31.230  24.784  23.343  1.00  0.00    -0.005 C 
ATOM     16  C   UNL A   1      33.469  22.859  25.324  1.00  0.00    -0.020 A 
ATOM     17  C   UNL A   1      31.035  22.772  24.295  1.00  0.00    -0.003 C 
ATOM     18  C   UNL A   1      30.701  25.082  24.764  1.00  0.00     0.004 C 
ATOM     19  C   UNL A   1      30.496  23.464  23.040  1.00  0.00     0.008 C 
ATOM     20  C   UNL A   1      35.340  22.347  27.339  1.00  0.00     0.018 A 
ATOM     21  C   UNL A   1      33.139  22.055  26.427  1.00  0.00     0.006 A 
ATOM     22  C   UNL A   1      30.468  23.701  25.371  1.00  0.00     0.004 C 
ATOM     23  C   UNL A   1      34.052  21.841  27.454  1.00  0.00     0.001 A 
BRANCH   9  24
ATOM     24  C   UNL A   1      33.900  26.486  24.385  1.00  0.00    -0.025 A 
ATOM     25  C   UNL A   1      33.628  28.907  25.831  1.00  0.00     0.060 A 
ATOM     26  C   UNL A   1      33.850  27.718  26.513  1.00  0.00     0.016 A 
ATOM     27  C   UNL A   1      33.690  28.927  24.439  1.00  0.00     0.016 A 
ATOM     28  C   UNL A   1      33.976  26.525  25.794  1.00  0.00     0.007 A 
ATOM     29  C   UNL A   1      33.889  27.732  23.736  1.00  0.00     0.007 A 
BRANCH  25  30
ATOM     30  C   UNL A   1      33.289  30.116  26.602  1.00  0.00     0.337 C 
ATOM     31  O   UNL A   1      32.284  30.782  26.433  1.00  0.00    -0.246 OA
BRANCH  30  32
ATOM     32  O   UNL A   1      34.343  30.403  27.405  1.00  0.00    -0.465 OA
ATOM     33  C   UNL A   1      34.376  31.739  27.905  1.00  0.00     0.282 C 
ENDBRANCH  30  32
ENDBRANCH  25  30
ENDBRANCH   9  24
ENDBRANCH   6   8
ENDBRANCH   5   6
ENDBRANCH   4   5
ENDBRANCH   3   4
ENDBRANCH   2   3
ENDBRANCH   1   2
BRANCH   1  34
ATOM     34  C   UNL A   1      42.366  19.563  25.792  1.00  0.00     0.188 C 
BRANCH  34  35
ATOM     35  O   UNL A   1      43.696  20.050  25.740  1.00  0.00    -0.376 OA
BRANCH  35  36
ATOM     36  C   UNL A   1      43.929  21.257  25.040  1.00  0.00     0.202 C 
BRANCH  36  37
ATOM     37  C   UNL A   1      43.281  22.530  25.601  1.00  0.00     0.261 C 
BRANCH  37  38
ATOM     38  O   UNL A   1      43.419  23.716  24.804  1.00  0.00    -0.460 OA
BRANCH  38  39
ATOM     39  C   UNL A   1      44.550  24.436  24.957  1.00  0.00     0.338 C 
ATOM     40  O   UNL A   1      45.617  24.257  24.398  1.00  0.00    -0.246 OA
BRANCH  39  41
ATOM     41  C   UNL A   1      44.243  25.596  25.823  1.00  0.00     0.060 A 
ATOM     42  C   UNL A   1      43.677  26.734  25.238  1.00  0.00     0.016 A 
ATOM     43  C   UNL A   1      44.522  25.572  27.194  1.00  0.00     0.016 A 
ATOM     44  C   UNL A   1      43.443  27.871  26.013  1.00  0.00     0.010 A 
ATOM     45  C   UNL A   1      44.293  26.715  27.969  1.00  0.00     0.010 A 
ATOM     46  C   UNL A   1      43.790  27.884  27.373  1.00  0.00    -0.014 A 
BRANCH  46  47
ATOM     47  C   UNL A   1      43.833  29.182  28.091  1.00  0.00     0.031 A 
ATOM     48  C   UNL A   1      45.082  30.014  27.980  1.00  0.00     0.074 A 
ATOM     49  C   UNL A   1      42.772  29.650  28.772  1.00  0.00     0.049 A 
ATOM     50  N   UNL A   1      45.344  31.201  28.465  1.00  0.00    -0.248 NA
ATOM     51  C   UNL A   1      46.186  29.426  27.203  1.00  0.00     0.031 C 
ATOM     52  C   UNL A   1      41.490  28.968  28.918  1.00  0.00     0.029 A 
ATOM     53  N   UNL A   1      42.612  30.826  29.464  1.00  0.00    -0.354 N 
ATOM     54  C   UNL A   1      46.633  31.503  28.047  1.00  0.00     0.074 A 
ATOM     55  C   UNL A   1      47.116  30.361  27.300  1.00  0.00     0.031 C 
ATOM     56  C   UNL A   1      40.668  29.740  29.652  1.00  0.00     0.029 A 
ATOM     57  C   UNL A   1      41.375  30.959  30.047  1.00  0.00     0.049 A 
ATOM     58  H   UNL A   1      43.317  31.510  29.535  1.00  0.00     0.167 HD
ATOM     59  C   UNL A   1      47.350  32.633  28.253  1.00  0.00     0.037 A 
ATOM     60  C   UNL A   1      40.882  31.949  30.816  1.00  0.00     0.037 A 
ATOM     61  C   UNL A   1      46.883  33.763  29.010  1.00  0.00     0.049 A 
ATOM     62  C   UNL A   1      41.737  33.154  31.118  1.00  0.00     0.074 A 
ATOM     63  C   UNL A   1      47.533  34.954  29.276  1.00  0.00     0.029 A 
ATOM     64  N   UNL A   1      45.649  33.831  29.640  1.00  0.00    -0.354 N 
ATOM     65  N   UNL A   1      42.941  33.450  30.689  1.00  0.00    -0.248 NA
ATOM     66  C   UNL A   1      41.158  34.169  32.012  1.00  0.00     0.031 C 
ATOM     67  C   UNL A   1      46.712  35.724  30.108  1.00  0.00     0.029 A 
ATOM     68  C   UNL A   1      45.528  35.035  30.315  1.00  0.00     0.049 A 
ATOM     69  H   UNL A   1      44.959  33.128  29.610  1.00  0.00     0.167 HD
ATOM     70  C   UNL A   1      43.246  34.694  31.226  1.00  0.00     0.074 A 
ATOM     71  C   UNL A   1      42.099  35.104  32.008  1.00  0.00     0.031 C 
ATOM     72  C   UNL A   1      44.373  35.437  31.077  1.00  0.00     0.037 A 
BRANCH  59  73
ATOM     73  C   UNL A   1      48.733  32.678  27.673  1.00  0.00     0.064 A 
ATOM     74  C   UNL A   1      49.820  32.061  28.312  1.00  0.00     0.173 A 
ATOM     75  C   UNL A   1      48.977  33.357  26.471  1.00  0.00     0.173 A 
ATOM     76  F   UNL A   1      49.642  31.414  29.474  1.00  0.00    -0.203 F 
ATOM     77  C   UNL A   1      51.105  32.151  27.785  1.00  0.00     0.198 A 
ATOM     78  C   UNL A   1      50.259  33.421  25.931  1.00  0.00     0.198 A 
ATOM     79  F   UNL A   1      47.973  33.963  25.820  1.00  0.00    -0.203 F 
ATOM     80  F   UNL A   1      52.138  31.604  28.442  1.00  0.00    -0.200 F 
ATOM     81  C   UNL A   1      51.323  32.827  26.594  1.00  0.00     0.200 A 
ATOM     82  F   UNL A   1      50.466  34.067  24.776  1.00  0.00    -0.200 F 
ATOM     83  F   UNL A   1      52.562  32.918  26.090  1.00  0.00    -0.200 F 
ENDBRANCH  59  73
BRANCH  60  84
ATOM     84  C   UNL A   1      39.499  31.858  31.354  1.00  0.00     0.064 A 
ATOM     85  C   UNL A   1      38.415  32.406  30.653  1.00  0.00     0.173 A 
ATOM     86  C   UNL A   1      39.236  31.258  32.594  1.00  0.00     0.173 A 
ATOM     87  F   UNL A   1      38.620  33.019  29.477  1.00  0.00    -0.203 F 
ATOM     88  C   UNL A   1      37.126  32.375  31.180  1.00  0.00     0.198 A 
ATOM     89  C   UNL A   1      37.943  31.204  33.109  1.00  0.00     0.198 A 
ATOM     90  F   UNL A   1      40.240  30.729  33.309  1.00  0.00    -0.203 F 
ATOM     91  F   UNL A   1      36.118  32.955  30.514  1.00  0.00    -0.200 F 
ATOM     92  C   UNL A   1      36.890  31.770  32.405  1.00  0.00     0.200 A 
ATOM     93  F   UNL A   1      37.719  30.617  34.293  1.00  0.00    -0.200 F 
ATOM     94  F   UNL A   1      35.652  31.747  32.916  1.00  0.00    -0.200 F 
ENDBRANCH  60  84
BRANCH  72  95
ATOM     95  C   UNL A   1      44.402  36.790  31.727  1.00  0.00     0.064 A 
ATOM     96  C   UNL A   1      44.011  37.951  31.042  1.00  0.00     0.173 A 
ATOM     97  C   UNL A   1      44.790  36.922  33.070  1.00  0.00     0.173 A 
ATOM     98  F   UNL A   1      43.643  37.883  29.754  1.00  0.00    -0.203 F 
ATOM     99  C   UNL A   1      44.035  39.195  31.670  1.00  0.00     0.198 A 
ATOM    100  C   UNL A   1      44.784  38.162  33.702  1.00  0.00     0.198 A 
ATOM    101  F   UNL A   1      45.165  35.843  33.773  1.00  0.00    -0.203 F 
ATOM    102  F   UNL A   1      43.704  40.296  30.981  1.00  0.00    -0.200 F 
ATOM    103  C   UNL A   1      44.414  39.298  33.000  1.00  0.00     0.200 A 
ATOM    104  F   UNL A   1      45.136  38.258  34.992  1.00  0.00    -0.200 F 
ATOM    105  F   UNL A   1      44.431  40.495  33.602  1.00  0.00    -0.200 F 
ENDBRANCH  72  95
ENDBRANCH  46  47
ENDBRANCH  39  41
ENDBRANCH  38  39
ENDBRANCH  37  38
ENDBRANCH  36  37
ENDBRANCH  35  36
ENDBRANCH  34  35
ENDBRANCH   1  34
TORSDOF 20
ENDMDL
