MODEL 1
REMARK VINA RESULT:     -11.8      0.000      0.000
REMARK SMILES CCc1ccc2[nH]c(C(=O)c3cc(C)ccn3)c(CC(=O)OCCOCCOCCOC(=O)c3ccc(-c4c5nc(c(-c6c(F)c(F)c(F)c(F)c6F)c6ccc([nH]6)c(-c6c(F)c(F)c(F)c(F)c6F)c6nc(c(-c7c(F)c(F)c(F)c(F)c7F)c7ccc4[nH]7)C=C6)C=C5)cc3)c2c1
REMARK SMILES IDX 26 1 25 2 24 3 23 4 22 5 20 6 21 7 19 8 18 9 3 10 4 11 98 12
REMARK SMILES IDX 5 13 97 14 6 15 7 16 8 17 2 19 1 20 9 21 10 22 11 23 12 24
REMARK SMILES IDX 17 25 13 26 16 27 14 28 15 29 27 30 28 31 29 32 30 33 31 34
REMARK SMILES IDX 32 35 33 36 34 37 35 38 96 39 36 40 95 41 37 42 38 43 39 44
REMARK SMILES IDX 89 45 40 46 94 47 88 48 90 49 41 50 93 51 87 52 86 53 42 55
REMARK SMILES IDX 74 56 54 57 73 58 55 59 58 60 72 61 91 62 56 63 57 64 71 66
REMARK SMILES IDX 92 67 59 68 43 69 44 70 52 71 45 72 46 73 50 74 53 75 47 76
REMARK SMILES IDX 48 77 51 78 49 79 75 80 76 81 84 82 77 83 78 84 82 85 85 86
REMARK SMILES IDX 79 87 80 88 83 89 81 90 60 91 61 92 69 93 62 94 63 95 67 96
REMARK SMILES IDX 70 97 64 98 65 99 68 100 66 101
REMARK H PARENT 7 18 90 54 58 65
REMARK Flexibility Score: inf
ROOT
ATOM      1  C   UNL A   1      35.127  32.378  28.045  1.00  0.00     0.188 C 
ENDROOT
BRANCH   1   2
ATOM      2  O   UNL A   1      34.302  31.250  27.762  1.00  0.00    -0.376 OA
BRANCH   2   3
ATOM      3  C   UNL A   1      34.933  29.988  27.583  1.00  0.00     0.202 C 
BRANCH   3   4
ATOM      4  C   UNL A   1      34.104  28.936  26.837  1.00  0.00     0.261 C 
BRANCH   4   5
ATOM      5  O   UNL A   1      32.709  28.997  27.205  1.00  0.00    -0.463 OA
BRANCH   5   6
ATOM      6  C   UNL A   1      31.830  29.356  26.235  1.00  0.00     0.310 C 
ATOM      7  O   UNL A   1      31.787  30.479  25.740  1.00  0.00    -0.252 OA
BRANCH   6   8
ATOM      8  C   UNL A   1      31.028  28.190  25.667  1.00  0.00     0.161 C 
BRANCH   8   9
ATOM      9  C   UNL A   1      31.253  27.789  24.229  1.00  0.00     0.000 A 
ATOM     10  C   UNL A   1      33.959  25.129  23.757  1.00  0.00    -0.048 A 
ATOM     11  C   UNL A   1      33.739  24.954  22.385  1.00  0.00     0.006 A 
ATOM     12  C   UNL A   1      33.276  26.151  24.439  1.00  0.00     0.014 A 
ATOM     13  C   UNL A   1      32.816  25.735  21.683  1.00  0.00     0.027 A 
ATOM     14  C   UNL A   1      32.272  26.885  23.778  1.00  0.00     0.004 A 
ATOM     15  C   UNL A   1      32.076  26.663  22.420  1.00  0.00     0.046 A 
ATOM     16  N   UNL A   1      31.045  27.480  22.029  1.00  0.00    -0.352 N 
ATOM     17  C   UNL A   1      30.382  27.955  23.141  1.00  0.00     0.093 A 
ATOM     18  H   UNL A   1      30.813  27.695  21.097  1.00  0.00     0.167 HD
BRANCH  10  19
ATOM     19  C   UNL A   1      34.912  24.210  24.487  1.00  0.00     0.032 C 
ATOM     20  C   UNL A   1      35.751  23.333  23.561  1.00  0.00     0.009 C 
ENDBRANCH  10  19
BRANCH  17  21
ATOM     21  C   UNL A   1      29.002  28.417  23.123  1.00  0.00     0.227 C 
ATOM     22  O   UNL A   1      28.058  27.725  23.500  1.00  0.00    -0.285 OA
BRANCH  21  23
ATOM     23  C   UNL A   1      28.685  29.770  22.582  1.00  0.00     0.113 A 
ATOM     24  C   UNL A   1      29.034  30.916  23.294  1.00  0.00     0.036 A 
ATOM     25  N   UNL A   1      28.145  29.789  21.338  1.00  0.00    -0.253 NA
ATOM     26  C   UNL A   1      28.841  32.160  22.682  1.00  0.00    -0.047 A 
ATOM     27  C   UNL A   1      28.027  31.001  20.752  1.00  0.00     0.112 A 
ATOM     28  C   UNL A   1      29.157  33.449  23.382  1.00  0.00     0.044 C 
ATOM     29  C   UNL A   1      28.366  32.193  21.369  1.00  0.00     0.023 A 
ENDBRANCH  21  23
ENDBRANCH  17  21
ENDBRANCH   8   9
ENDBRANCH   6   8
ENDBRANCH   5   6
ENDBRANCH   4   5
ENDBRANCH   3   4
ENDBRANCH   2   3
ENDBRANCH   1   2
BRANCH   1  30
ATOM     30  C   UNL A   1      34.879  33.186  29.337  1.00  0.00     0.188 C 
BRANCH  30  31
ATOM     31  O   UNL A   1      33.613  33.832  29.367  1.00  0.00    -0.376 OA
BRANCH  31  32
ATOM     32  C   UNL A   1      33.595  35.113  28.753  1.00  0.00     0.202 C 
BRANCH  32  33
ATOM     33  C   UNL A   1      32.887  36.142  29.631  1.00  0.00     0.261 C 
BRANCH  33  34
ATOM     34  O   UNL A   1      32.193  35.503  30.726  1.00  0.00    -0.460 OA
BRANCH  34  35
ATOM     35  C   UNL A   1      32.459  35.932  31.970  1.00  0.00     0.338 C 
ATOM     36  O   UNL A   1      31.874  36.830  32.574  1.00  0.00    -0.246 OA
BRANCH  35  37
ATOM     37  C   UNL A   1      33.618  35.205  32.536  1.00  0.00     0.060 A 
ATOM     38  C   UNL A   1      34.914  35.732  32.525  1.00  0.00     0.016 A 
ATOM     39  C   UNL A   1      33.419  33.905  32.998  1.00  0.00     0.016 A 
ATOM     40  C   UNL A   1      36.008  34.951  32.912  1.00  0.00     0.010 A 
ATOM     41  C   UNL A   1      34.506  33.147  33.447  1.00  0.00     0.010 A 
ATOM     42  C   UNL A   1      35.818  33.650  33.386  1.00  0.00    -0.014 A 
BRANCH  42  43
ATOM     43  C   UNL A   1      36.958  32.782  33.791  1.00  0.00     0.031 A 
ATOM     44  C   UNL A   1      37.628  32.998  35.120  1.00  0.00     0.074 A 
ATOM     45  C   UNL A   1      37.435  31.829  32.970  1.00  0.00     0.049 A 
ATOM     46  N   UNL A   1      38.794  32.581  35.546  1.00  0.00    -0.248 NA
ATOM     47  C   UNL A   1      36.881  33.802  36.099  1.00  0.00     0.031 C 
ATOM     48  C   UNL A   1      36.837  31.420  31.701  1.00  0.00     0.029 A 
ATOM     49  N   UNL A   1      38.558  31.042  33.078  1.00  0.00    -0.354 N 
ATOM     50  C   UNL A   1      38.944  33.110  36.821  1.00  0.00     0.074 A 
ATOM     51  C   UNL A   1      37.749  33.880  37.099  1.00  0.00     0.031 C 
ATOM     52  C   UNL A   1      37.593  30.459  31.149  1.00  0.00     0.029 A 
ATOM     53  C   UNL A   1      38.777  30.251  31.978  1.00  0.00     0.049 A 
ATOM     54  H   UNL A   1      39.146  31.046  33.867  1.00  0.00     0.167 HD
ATOM     55  C   UNL A   1      39.988  32.971  37.675  1.00  0.00     0.037 A 
ATOM     56  C   UNL A   1      39.836  29.489  31.642  1.00  0.00     0.037 A 
ATOM     57  C   UNL A   1      41.165  32.183  37.405  1.00  0.00     0.049 A 
ATOM     58  C   UNL A   1      41.039  29.447  32.544  1.00  0.00     0.074 A 
ATOM     59  C   UNL A   1      42.279  31.989  38.203  1.00  0.00     0.029 A 
ATOM     60  N   UNL A   1      41.377  31.452  36.244  1.00  0.00    -0.354 N 
ATOM     61  N   UNL A   1      41.220  30.013  33.713  1.00  0.00    -0.248 NA
ATOM     62  C   UNL A   1      42.197  28.680  32.064  1.00  0.00     0.031 C 
ATOM     63  C   UNL A   1      43.186  31.181  37.507  1.00  0.00     0.029 A 
ATOM     64  C   UNL A   1      42.615  30.827  36.296  1.00  0.00     0.049 A 
ATOM     65  H   UNL A   1      40.743  31.388  35.494  1.00  0.00     0.167 HD
ATOM     66  C   UNL A   1      42.498  29.650  34.119  1.00  0.00     0.074 A 
ATOM     67  C   UNL A   1      43.045  28.808  33.076  1.00  0.00     0.031 C 
ATOM     68  C   UNL A   1      43.155  29.987  35.257  1.00  0.00     0.037 A 
BRANCH  55  69
ATOM     69  C   UNL A   1      39.928  33.737  38.966  1.00  0.00     0.064 A 
ATOM     70  C   UNL A   1      40.558  34.980  39.126  1.00  0.00     0.173 A 
ATOM     71  C   UNL A   1      39.214  33.220  40.058  1.00  0.00     0.173 A 
ATOM     72  F   UNL A   1      41.266  35.513  38.119  1.00  0.00    -0.203 F 
ATOM     73  C   UNL A   1      40.505  35.658  40.341  1.00  0.00     0.198 A 
ATOM     74  C   UNL A   1      39.136  33.915  41.262  1.00  0.00     0.198 A 
ATOM     75  F   UNL A   1      38.587  32.038  39.959  1.00  0.00    -0.203 F 
ATOM     76  F   UNL A   1      41.166  36.816  40.490  1.00  0.00    -0.200 F 
ATOM     77  C   UNL A   1      39.791  35.129  41.407  1.00  0.00     0.200 A 
ATOM     78  F   UNL A   1      38.436  33.407  42.285  1.00  0.00    -0.200 F 
ATOM     79  F   UNL A   1      39.744  35.782  42.575  1.00  0.00    -0.200 F 
ENDBRANCH  55  69
BRANCH  56  80
ATOM     80  C   UNL A   1      39.822  28.731  30.364  1.00  0.00     0.064 A 
ATOM     81  C   UNL A   1      40.341  29.299  29.193  1.00  0.00     0.173 A 
ATOM     82  C   UNL A   1      39.301  27.431  30.285  1.00  0.00     0.173 A 
ATOM     83  F   UNL A   1      40.816  30.552  29.211  1.00  0.00    -0.203 F 
ATOM     84  C   UNL A   1      40.338  28.594  27.991  1.00  0.00     0.198 A 
ATOM     85  C   UNL A   1      39.327  26.717  29.091  1.00  0.00     0.198 A 
ATOM     86  F   UNL A   1      38.782  26.848  31.376  1.00  0.00    -0.203 F 
ATOM     87  F   UNL A   1      40.806  29.174  26.878  1.00  0.00    -0.200 F 
ATOM     88  C   UNL A   1      39.842  27.301  27.944  1.00  0.00     0.200 A 
ATOM     89  F   UNL A   1      38.854  25.464  29.051  1.00  0.00    -0.200 F 
ATOM     90  F   UNL A   1      39.850  26.620  26.789  1.00  0.00    -0.200 F 
ENDBRANCH  56  80
BRANCH  68  91
ATOM     91  C   UNL A   1      44.526  29.407  35.455  1.00  0.00     0.064 A 
ATOM     92  C   UNL A   1      44.719  28.148  36.042  1.00  0.00     0.173 A 
ATOM     93  C   UNL A   1      45.663  30.114  35.032  1.00  0.00     0.173 A 
ATOM     94  F   UNL A   1      43.668  27.439  36.480  1.00  0.00    -0.203 F 
ATOM     95  C   UNL A   1      46.000  27.629  36.222  1.00  0.00     0.198 A 
ATOM     96  C   UNL A   1      46.940  29.581  35.188  1.00  0.00     0.198 A 
ATOM     97  F   UNL A   1      45.535  31.321  34.460  1.00  0.00    -0.203 F 
ATOM     98  F   UNL A   1      46.163  26.447  36.830  1.00  0.00    -0.200 F 
ATOM     99  C   UNL A   1      47.108  28.343  35.790  1.00  0.00     0.200 A 
ATOM    100  F   UNL A   1      48.009  30.267  34.759  1.00  0.00    -0.200 F 
ATOM    101  F   UNL A   1      48.339  27.841  35.962  1.00  0.00    -0.200 F 
ENDBRANCH  68  91
ENDBRANCH  42  43
ENDBRANCH  35  37
ENDBRANCH  34  35
ENDBRANCH  33  34
ENDBRANCH  32  33
ENDBRANCH  31  32
ENDBRANCH  30  31
ENDBRANCH   1  30
TORSDOF 21
ENDMDL
MODEL 2
REMARK VINA RESULT:     -11.4      1.266      3.532
REMARK SMILES CCc1ccc2[nH]c(C(=O)c3cc(C)ccn3)c(CC(=O)OCCOCCOCCOC(=O)c3ccc(-c4c5nc(c(-c6c(F)c(F)c(F)c(F)c6F)c6ccc([nH]6)c(-c6c(F)c(F)c(F)c(F)c6F)c6nc(c(-c7c(F)c(F)c(F)c(F)c7F)c7ccc4[nH]7)C=C6)C=C5)cc3)c2c1
REMARK SMILES IDX 26 1 25 2 24 3 23 4 22 5 20 6 21 7 19 8 18 9 3 10 4 11 98 12
REMARK SMILES IDX 5 13 97 14 6 15 7 16 8 17 2 19 1 20 9 21 10 22 11 23 12 24
REMARK SMILES IDX 17 25 13 26 16 27 14 28 15 29 27 30 28 31 29 32 30 33 31 34
REMARK SMILES IDX 32 35 33 36 34 37 35 38 96 39 36 40 95 41 37 42 38 43 39 44
REMARK SMILES IDX 89 45 40 46 94 47 88 48 90 49 41 50 93 51 87 52 86 53 42 55
REMARK SMILES IDX 74 56 54 57 73 58 55 59 58 60 72 61 91 62 56 63 57 64 71 66
REMARK SMILES IDX 92 67 59 68 43 69 44 70 52 71 45 72 46 73 50 74 53 75 47 76
REMARK SMILES IDX 48 77 51 78 49 79 75 80 76 81 84 82 77 83 78 84 82 85 85 86
REMARK SMILES IDX 79 87 80 88 83 89 81 90 60 91 61 92 69 93 62 94 63 95 67 96
REMARK SMILES IDX 70 97 64 98 65 99 68 100 66 101
REMARK H PARENT 7 18 90 54 58 65
REMARK Flexibility Score: inf
ROOT
ATOM      1  C   UNL A   1      35.438  32.634  28.192  1.00  0.00     0.188 C 
ENDROOT
BRANCH   1   2
ATOM      2  O   UNL A   1      35.468  31.247  27.864  1.00  0.00    -0.376 OA
BRANCH   2   3
ATOM      3  C   UNL A   1      34.314  30.678  27.259  1.00  0.00     0.202 C 
BRANCH   3   4
ATOM      4  C   UNL A   1      34.296  29.146  27.183  1.00  0.00     0.261 C 
BRANCH   4   5
ATOM      5  O   UNL A   1      33.097  28.658  26.545  1.00  0.00    -0.463 OA
BRANCH   5   6
ATOM      6  C   UNL A   1      33.259  27.856  25.461  1.00  0.00     0.310 C 
ATOM      7  O   UNL A   1      33.783  26.747  25.509  1.00  0.00    -0.252 OA
BRANCH   6   8
ATOM      8  C   UNL A   1      32.555  28.365  24.208  1.00  0.00     0.161 C 
BRANCH   8   9
ATOM      9  C   UNL A   1      31.141  27.909  23.936  1.00  0.00     0.000 A 
ATOM     10  C   UNL A   1      28.673  30.762  23.314  1.00  0.00    -0.048 A 
ATOM     11  C   UNL A   1      27.594  29.936  22.972  1.00  0.00     0.006 A 
ATOM     12  C   UNL A   1      29.863  30.181  23.786  1.00  0.00     0.014 A 
ATOM     13  C   UNL A   1      27.687  28.542  23.036  1.00  0.00     0.027 A 
ATOM     14  C   UNL A   1      30.015  28.780  23.768  1.00  0.00     0.004 A 
ATOM     15  C   UNL A   1      28.922  28.002  23.402  1.00  0.00     0.046 A 
ATOM     16  N   UNL A   1      29.334  26.693  23.449  1.00  0.00    -0.352 N 
ATOM     17  C   UNL A   1      30.711  26.642  23.510  1.00  0.00     0.093 A 
ATOM     18  H   UNL A   1      28.738  25.910  23.441  1.00  0.00     0.167 HD
BRANCH  10  19
ATOM     19  C   UNL A   1      28.550  32.260  23.156  1.00  0.00     0.032 C 
ATOM     20  C   UNL A   1      28.321  32.710  21.716  1.00  0.00     0.009 C 
ENDBRANCH  10  19
BRANCH  17  21
ATOM     21  C   UNL A   1      31.496  25.492  23.086  1.00  0.00     0.227 C 
ATOM     22  O   UNL A   1      32.177  25.486  22.062  1.00  0.00    -0.285 OA
BRANCH  21  23
ATOM     23  C   UNL A   1      31.452  24.235  23.887  1.00  0.00     0.113 A 
ATOM     24  C   UNL A   1      31.998  23.056  23.383  1.00  0.00     0.036 A 
ATOM     25  N   UNL A   1      30.948  24.359  25.140  1.00  0.00    -0.253 NA
ATOM     26  C   UNL A   1      32.055  21.940  24.226  1.00  0.00    -0.047 A 
ATOM     27  C   UNL A   1      31.072  23.283  25.947  1.00  0.00     0.112 A 
ATOM     28  C   UNL A   1      32.595  20.619  23.763  1.00  0.00     0.044 C 
ATOM     29  C   UNL A   1      31.619  22.076  25.546  1.00  0.00     0.023 A 
ENDBRANCH  21  23
ENDBRANCH  17  21
ENDBRANCH   8   9
ENDBRANCH   6   8
ENDBRANCH   5   6
ENDBRANCH   4   5
ENDBRANCH   3   4
ENDBRANCH   2   3
ENDBRANCH   1   2
BRANCH   1  30
ATOM     30  C   UNL A   1      34.682  33.092  29.458  1.00  0.00     0.188 C 
BRANCH  30  31
ATOM     31  O   UNL A   1      33.511  33.847  29.177  1.00  0.00    -0.376 OA
BRANCH  31  32
ATOM     32  C   UNL A   1      33.760  35.193  28.797  1.00  0.00     0.202 C 
BRANCH  32  33
ATOM     33  C   UNL A   1      32.973  36.172  29.665  1.00  0.00     0.261 C 
BRANCH  33  34
ATOM     34  O   UNL A   1      32.292  35.485  30.739  1.00  0.00    -0.460 OA
BRANCH  34  35
ATOM     35  C   UNL A   1      32.538  35.889  31.995  1.00  0.00     0.338 C 
ATOM     36  O   UNL A   1      31.932  36.764  32.612  1.00  0.00    -0.246 OA
BRANCH  35  37
ATOM     37  C   UNL A   1      33.701  35.166  32.558  1.00  0.00     0.060 A 
ATOM     38  C   UNL A   1      34.989  35.711  32.571  1.00  0.00     0.016 A 
ATOM     39  C   UNL A   1      33.516  33.854  32.991  1.00  0.00     0.016 A 
ATOM     40  C   UNL A   1      36.091  34.937  32.953  1.00  0.00     0.010 A 
ATOM     41  C   UNL A   1      34.608  33.102  33.434  1.00  0.00     0.010 A 
ATOM     42  C   UNL A   1      35.913  33.625  33.398  1.00  0.00    -0.014 A 
BRANCH  42  43
ATOM     43  C   UNL A   1      37.061  32.763  33.797  1.00  0.00     0.031 A 
ATOM     44  C   UNL A   1      37.734  32.981  35.124  1.00  0.00     0.074 A 
ATOM     45  C   UNL A   1      37.543  31.817  32.970  1.00  0.00     0.049 A 
ATOM     46  N   UNL A   1      38.904  32.571  35.545  1.00  0.00    -0.248 NA
ATOM     47  C   UNL A   1      36.984  33.775  36.108  1.00  0.00     0.031 C 
ATOM     48  C   UNL A   1      36.945  31.408  31.702  1.00  0.00     0.029 A 
ATOM     49  N   UNL A   1      38.673  31.038  33.072  1.00  0.00    -0.354 N 
ATOM     50  C   UNL A   1      39.055  33.097  36.821  1.00  0.00     0.074 A 
ATOM     51  C   UNL A   1      37.854  33.857  37.106  1.00  0.00     0.031 C 
ATOM     52  C   UNL A   1      37.707  30.455  31.144  1.00  0.00     0.029 A 
ATOM     53  C   UNL A   1      38.895  30.253  31.969  1.00  0.00     0.049 A 
ATOM     54  H   UNL A   1      39.264  31.044  33.860  1.00  0.00     0.167 HD
ATOM     55  C   UNL A   1      40.102  32.963  37.672  1.00  0.00     0.037 A 
ATOM     56  C   UNL A   1      39.959  29.500  31.628  1.00  0.00     0.037 A 
ATOM     57  C   UNL A   1      41.284  32.186  37.395  1.00  0.00     0.049 A 
ATOM     58  C   UNL A   1      41.164  29.465  32.526  1.00  0.00     0.074 A 
ATOM     59  C   UNL A   1      42.403  31.997  38.189  1.00  0.00     0.029 A 
ATOM     60  N   UNL A   1      41.499  31.460  36.231  1.00  0.00    -0.354 N 
ATOM     61  N   UNL A   1      41.345  30.029  33.696  1.00  0.00    -0.248 NA
ATOM     62  C   UNL A   1      42.327  28.709  32.040  1.00  0.00     0.031 C 
ATOM     63  C   UNL A   1      43.313  31.199  37.488  1.00  0.00     0.029 A 
ATOM     64  C   UNL A   1      42.741  30.844  36.278  1.00  0.00     0.049 A 
ATOM     65  H   UNL A   1      40.863  31.393  35.483  1.00  0.00     0.167 HD
ATOM     66  C   UNL A   1      42.627  29.674  34.097  1.00  0.00     0.074 A 
ATOM     67  C   UNL A   1      43.177  28.840  33.049  1.00  0.00     0.031 C 
ATOM     68  C   UNL A   1      43.284  30.012  35.234  1.00  0.00     0.037 A 
BRANCH  55  69
ATOM     69  C   UNL A   1      40.040  33.724  38.965  1.00  0.00     0.064 A 
ATOM     70  C   UNL A   1      40.661  34.971  39.128  1.00  0.00     0.173 A 
ATOM     71  C   UNL A   1      39.333  33.198  40.058  1.00  0.00     0.173 A 
ATOM     72  F   UNL A   1      41.363  35.513  38.121  1.00  0.00    -0.203 F 
ATOM     73  C   UNL A   1      40.607  35.645  40.346  1.00  0.00     0.198 A 
ATOM     74  C   UNL A   1      39.253  33.889  41.264  1.00  0.00     0.198 A 
ATOM     75  F   UNL A   1      38.714  32.012  39.957  1.00  0.00    -0.203 F 
ATOM     76  F   UNL A   1      41.260  36.807  40.496  1.00  0.00    -0.200 F 
ATOM     77  C   UNL A   1      39.900  35.107  41.411  1.00  0.00     0.200 A 
ATOM     78  F   UNL A   1      38.560  33.372  42.288  1.00  0.00    -0.200 F 
ATOM     79  F   UNL A   1      39.851  35.756  42.582  1.00  0.00    -0.200 F 
ENDBRANCH  55  69
BRANCH  56  80
ATOM     80  C   UNL A   1      39.947  28.747  30.347  1.00  0.00     0.064 A 
ATOM     81  C   UNL A   1      40.490  29.309  29.184  1.00  0.00     0.173 A 
ATOM     82  C   UNL A   1      39.404  27.457  30.258  1.00  0.00     0.173 A 
ATOM     83  F   UNL A   1      40.987  30.553  29.212  1.00  0.00    -0.203 F 
ATOM     84  C   UNL A   1      40.489  28.608  27.980  1.00  0.00     0.198 A 
ATOM     85  C   UNL A   1      39.431  26.745  29.062  1.00  0.00     0.198 A 
ATOM     86  F   UNL A   1      38.860  26.880  31.340  1.00  0.00    -0.203 F 
ATOM     87  F   UNL A   1      40.981  29.182  26.874  1.00  0.00    -0.200 F 
ATOM     88  C   UNL A   1      39.970  27.324  27.922  1.00  0.00     0.200 A 
ATOM     89  F   UNL A   1      38.936  25.501  29.012  1.00  0.00    -0.200 F 
ATOM     90  F   UNL A   1      39.980  26.646  26.766  1.00  0.00    -0.200 F 
ENDBRANCH  56  80
BRANCH  68  91
ATOM     91  C   UNL A   1      44.661  29.442  35.426  1.00  0.00     0.064 A 
ATOM     92  C   UNL A   1      44.864  28.169  35.977  1.00  0.00     0.173 A 
ATOM     93  C   UNL A   1      45.793  30.174  35.033  1.00  0.00     0.173 A 
ATOM     94  F   UNL A   1      43.818  27.435  36.386  1.00  0.00    -0.203 F 
ATOM     95  C   UNL A   1      46.150  27.659  36.152  1.00  0.00     0.198 A 
ATOM     96  C   UNL A   1      47.075  29.651  35.184  1.00  0.00     0.198 A 
ATOM     97  F   UNL A   1      45.655  31.396  34.496  1.00  0.00    -0.203 F 
ATOM     98  F   UNL A   1      46.322  26.462  36.727  1.00  0.00    -0.200 F 
ATOM     99  C   UNL A   1      47.252  28.398  35.750  1.00  0.00     0.200 A 
ATOM    100  F   UNL A   1      48.138  30.362  34.783  1.00  0.00    -0.200 F 
ATOM    101  F   UNL A   1      48.488  27.906  35.917  1.00  0.00    -0.200 F 
ENDBRANCH  68  91
ENDBRANCH  42  43
ENDBRANCH  35  37
ENDBRANCH  34  35
ENDBRANCH  33  34
ENDBRANCH  32  33
ENDBRANCH  31  32
ENDBRANCH  30  31
ENDBRANCH   1  30
TORSDOF 21
ENDMDL
MODEL 3
REMARK VINA RESULT:     -11.3      1.091      2.252
REMARK SMILES CCc1ccc2[nH]c(C(=O)c3cc(C)ccn3)c(CC(=O)OCCOCCOCCOC(=O)c3ccc(-c4c5nc(c(-c6c(F)c(F)c(F)c(F)c6F)c6ccc([nH]6)c(-c6c(F)c(F)c(F)c(F)c6F)c6nc(c(-c7c(F)c(F)c(F)c(F)c7F)c7ccc4[nH]7)C=C6)C=C5)cc3)c2c1
REMARK SMILES IDX 26 1 25 2 24 3 23 4 22 5 20 6 21 7 19 8 18 9 3 10 4 11 98 12
REMARK SMILES IDX 5 13 97 14 6 15 7 16 8 17 2 19 1 20 9 21 10 22 11 23 12 24
REMARK SMILES IDX 17 25 13 26 16 27 14 28 15 29 27 30 28 31 29 32 30 33 31 34
REMARK SMILES IDX 32 35 33 36 34 37 35 38 96 39 36 40 95 41 37 42 38 43 39 44
REMARK SMILES IDX 89 45 40 46 94 47 88 48 90 49 41 50 93 51 87 52 86 53 42 55
REMARK SMILES IDX 74 56 54 57 73 58 55 59 58 60 72 61 91 62 56 63 57 64 71 66
REMARK SMILES IDX 92 67 59 68 43 69 44 70 52 71 45 72 46 73 50 74 53 75 47 76
REMARK SMILES IDX 48 77 51 78 49 79 75 80 76 81 84 82 77 83 78 84 82 85 85 86
REMARK SMILES IDX 79 87 80 88 83 89 81 90 60 91 61 92 69 93 62 94 63 95 67 96
REMARK SMILES IDX 70 97 64 98 65 99 68 100 66 101
REMARK H PARENT 7 18 90 54 58 65
REMARK Flexibility Score: inf
ROOT
ATOM      1  C   UNL A   1      35.444  32.694  28.157  1.00  0.00     0.188 C 
ENDROOT
BRANCH   1   2
ATOM      2  O   UNL A   1      35.676  31.358  27.718  1.00  0.00    -0.376 OA
BRANCH   2   3
ATOM      3  C   UNL A   1      34.549  30.557  27.389  1.00  0.00     0.202 C 
BRANCH   3   4
ATOM      4  C   UNL A   1      34.834  29.062  27.201  1.00  0.00     0.261 C 
BRANCH   4   5
ATOM      5  O   UNL A   1      34.051  28.500  26.126  1.00  0.00    -0.463 OA
BRANCH   5   6
ATOM      6  C   UNL A   1      32.945  27.793  26.473  1.00  0.00     0.310 C 
ATOM      7  O   UNL A   1      31.853  28.308  26.697  1.00  0.00    -0.252 OA
BRANCH   6   8
ATOM      8  C   UNL A   1      33.122  26.282  26.368  1.00  0.00     0.161 C 
BRANCH   8   9
ATOM      9  C   UNL A   1      33.368  25.674  25.008  1.00  0.00     0.000 A 
ATOM     10  C   UNL A   1      36.444  23.408  24.847  1.00  0.00    -0.048 A 
ATOM     11  C   UNL A   1      36.218  22.965  23.538  1.00  0.00     0.006 A 
ATOM     12  C   UNL A   1      35.628  24.420  25.383  1.00  0.00     0.014 A 
ATOM     13  C   UNL A   1      35.164  23.465  22.765  1.00  0.00     0.027 A 
ATOM     14  C   UNL A   1      34.504  24.869  24.662  1.00  0.00     0.004 A 
ATOM     15  C   UNL A   1      34.308  24.386  23.373  1.00  0.00     0.046 A 
ATOM     16  N   UNL A   1      33.152  24.959  22.906  1.00  0.00    -0.352 N 
ATOM     17  C   UNL A   1      32.453  25.516  23.956  1.00  0.00     0.093 A 
ATOM     18  H   UNL A   1      32.865  24.970  21.965  1.00  0.00     0.167 HD
BRANCH  10  19
ATOM     19  C   UNL A   1      37.548  22.784  25.669  1.00  0.00     0.032 C 
ATOM     20  C   UNL A   1      37.779  21.306  25.367  1.00  0.00     0.009 C 
ENDBRANCH  10  19
BRANCH  17  21
ATOM     21  C   UNL A   1      31.017  25.755  23.934  1.00  0.00     0.227 C 
ATOM     22  O   UNL A   1      30.195  24.947  24.362  1.00  0.00    -0.285 OA
BRANCH  21  23
ATOM     23  C   UNL A   1      30.490  27.011  23.325  1.00  0.00     0.113 A 
ATOM     24  C   UNL A   1      29.144  27.348  23.453  1.00  0.00     0.036 A 
ATOM     25  N   UNL A   1      31.419  27.815  22.750  1.00  0.00    -0.253 NA
ATOM     26  C   UNL A   1      28.727  28.599  22.985  1.00  0.00    -0.047 A 
ATOM     27  C   UNL A   1      30.997  29.038  22.363  1.00  0.00     0.112 A 
ATOM     28  C   UNL A   1      27.294  29.037  23.049  1.00  0.00     0.044 C 
ATOM     29  C   UNL A   1      29.687  29.473  22.469  1.00  0.00     0.023 A 
ENDBRANCH  21  23
ENDBRANCH  17  21
ENDBRANCH   8   9
ENDBRANCH   6   8
ENDBRANCH   5   6
ENDBRANCH   4   5
ENDBRANCH   3   4
ENDBRANCH   2   3
ENDBRANCH   1   2
BRANCH   1  30
ATOM     30  C   UNL A   1      34.501  32.940  29.355  1.00  0.00     0.188 C 
BRANCH  30  31
ATOM     31  O   UNL A   1      33.420  33.814  29.056  1.00  0.00    -0.376 OA
BRANCH  31  32
ATOM     32  C   UNL A   1      33.802  35.167  28.850  1.00  0.00     0.202 C 
BRANCH  32  33
ATOM     33  C   UNL A   1      32.925  36.122  29.656  1.00  0.00     0.261 C 
BRANCH  33  34
ATOM     34  O   UNL A   1      32.299  35.443  30.767  1.00  0.00    -0.460 OA
BRANCH  34  35
ATOM     35  C   UNL A   1      32.570  35.886  32.004  1.00  0.00     0.338 C 
ATOM     36  O   UNL A   1      31.986  36.791  32.600  1.00  0.00    -0.246 OA
BRANCH  35  37
ATOM     37  C   UNL A   1      33.731  35.166  32.574  1.00  0.00     0.060 A 
ATOM     38  C   UNL A   1      35.019  35.712  32.592  1.00  0.00     0.016 A 
ATOM     39  C   UNL A   1      33.546  33.855  33.010  1.00  0.00     0.016 A 
ATOM     40  C   UNL A   1      36.119  34.941  32.981  1.00  0.00     0.010 A 
ATOM     41  C   UNL A   1      34.637  33.105  33.460  1.00  0.00     0.010 A 
ATOM     42  C   UNL A   1      35.942  33.629  33.429  1.00  0.00    -0.014 A 
BRANCH  42  43
ATOM     43  C   UNL A   1      37.089  32.770  33.835  1.00  0.00     0.031 A 
ATOM     44  C   UNL A   1      37.752  32.989  35.167  1.00  0.00     0.074 A 
ATOM     45  C   UNL A   1      37.578  31.825  33.012  1.00  0.00     0.049 A 
ATOM     46  N   UNL A   1      38.920  32.581  35.596  1.00  0.00    -0.248 NA
ATOM     47  C   UNL A   1      36.994  33.781  36.146  1.00  0.00     0.031 C 
ATOM     48  C   UNL A   1      36.989  31.415  31.739  1.00  0.00     0.029 A 
ATOM     49  N   UNL A   1      38.709  31.049  33.121  1.00  0.00    -0.354 N 
ATOM     50  C   UNL A   1      39.061  33.107  36.873  1.00  0.00     0.074 A 
ATOM     51  C   UNL A   1      37.856  33.864  37.149  1.00  0.00     0.031 C 
ATOM     52  C   UNL A   1      37.757  30.464  31.186  1.00  0.00     0.029 A 
ATOM     53  C   UNL A   1      38.940  30.264  32.019  1.00  0.00     0.049 A 
ATOM     54  H   UNL A   1      39.294  31.056  33.913  1.00  0.00     0.167 HD
ATOM     55  C   UNL A   1      40.103  32.975  37.731  1.00  0.00     0.037 A 
ATOM     56  C   UNL A   1      40.008  29.514  31.685  1.00  0.00     0.037 A 
ATOM     57  C   UNL A   1      41.288  32.200  37.462  1.00  0.00     0.049 A 
ATOM     58  C   UNL A   1      41.207  29.481  32.591  1.00  0.00     0.074 A 
ATOM     59  C   UNL A   1      42.402  32.014  38.264  1.00  0.00     0.029 A 
ATOM     60  N   UNL A   1      41.512  31.475  36.299  1.00  0.00    -0.354 N 
ATOM     61  N   UNL A   1      41.379  30.045  33.762  1.00  0.00    -0.248 NA
ATOM     62  C   UNL A   1      42.375  28.727  32.113  1.00  0.00     0.031 C 
ATOM     63  C   UNL A   1      43.319  31.218  37.568  1.00  0.00     0.029 A 
ATOM     64  C   UNL A   1      42.756  30.862  36.354  1.00  0.00     0.049 A 
ATOM     65  H   UNL A   1      40.881  31.407  35.547  1.00  0.00     0.167 HD
ATOM     66  C   UNL A   1      42.658  29.693  34.172  1.00  0.00     0.074 A 
ATOM     67  C   UNL A   1      43.218  28.860  33.128  1.00  0.00     0.031 C 
ATOM     68  C   UNL A   1      43.308  30.031  35.313  1.00  0.00     0.037 A 
BRANCH  55  69
ATOM     69  C   UNL A   1      40.030  33.736  39.024  1.00  0.00     0.064 A 
ATOM     70  C   UNL A   1      39.357  33.235  40.147  1.00  0.00     0.173 A 
ATOM     71  C   UNL A   1      40.660  34.985  39.142  1.00  0.00     0.173 A 
ATOM     72  F   UNL A   1      38.725  32.053  40.085  1.00  0.00    -0.203 F 
ATOM     73  C   UNL A   1      39.286  33.972  41.328  1.00  0.00     0.198 A 
ATOM     74  C   UNL A   1      40.616  35.705  40.333  1.00  0.00     0.198 A 
ATOM     75  F   UNL A   1      41.325  35.510  38.100  1.00  0.00    -0.203 F 
ATOM     76  F   UNL A   1      38.586  33.500  42.369  1.00  0.00    -0.200 F 
ATOM     77  C   UNL A   1      39.919  35.203  41.422  1.00  0.00     0.200 A 
ATOM     78  F   UNL A   1      41.237  36.888  40.424  1.00  0.00    -0.200 F 
ATOM     79  F   UNL A   1      39.848  35.910  42.557  1.00  0.00    -0.200 F 
ENDBRANCH  55  69
BRANCH  56  80
ATOM     80  C   UNL A   1      40.006  28.761  30.404  1.00  0.00     0.064 A 
ATOM     81  C   UNL A   1      39.441  27.481  30.330  1.00  0.00     0.173 A 
ATOM     82  C   UNL A   1      40.559  29.301  29.233  1.00  0.00     0.173 A 
ATOM     83  F   UNL A   1      38.934  26.909  31.431  1.00  0.00    -0.203 F 
ATOM     84  C   UNL A   1      39.430  26.770  29.132  1.00  0.00     0.198 A 
ATOM     85  C   UNL A   1      40.519  28.602  28.030  1.00  0.00     0.198 A 
ATOM     86  F   UNL A   1      41.123  30.518  29.255  1.00  0.00    -0.203 F 
ATOM     87  F   UNL A   1      38.917  25.533  29.096  1.00  0.00    -0.200 F 
ATOM     88  C   UNL A   1      39.959  27.335  27.981  1.00  0.00     0.200 A 
ATOM     89  F   UNL A   1      41.023  29.155  26.918  1.00  0.00    -0.200 F 
ATOM     90  F   UNL A   1      39.937  26.654  26.827  1.00  0.00    -0.200 F 
ENDBRANCH  56  80
BRANCH  68  91
ATOM     91  C   UNL A   1      44.684  29.465  35.514  1.00  0.00     0.064 A 
ATOM     92  C   UNL A   1      44.889  28.222  36.131  1.00  0.00     0.173 A 
ATOM     93  C   UNL A   1      45.813  30.167  35.064  1.00  0.00     0.173 A 
ATOM     94  F   UNL A   1      43.846  27.519  36.596  1.00  0.00    -0.203 F 
ATOM     95  C   UNL A   1      46.175  27.715  36.314  1.00  0.00     0.198 A 
ATOM     96  C   UNL A   1      47.094  29.645  35.223  1.00  0.00     0.198 A 
ATOM     97  F   UNL A   1      45.673  31.359  34.464  1.00  0.00    -0.203 F 
ATOM     98  F   UNL A   1      46.350  26.550  36.950  1.00  0.00    -0.200 F 
ATOM     99  C   UNL A   1      47.275  28.424  35.854  1.00  0.00     0.200 A 
ATOM    100  F   UNL A   1      48.156  30.326  34.768  1.00  0.00    -0.200 F 
ATOM    101  F   UNL A   1      48.510  27.934  36.029  1.00  0.00    -0.200 F 
ENDBRANCH  68  91
ENDBRANCH  42  43
ENDBRANCH  35  37
ENDBRANCH  34  35
ENDBRANCH  33  34
ENDBRANCH  32  33
ENDBRANCH  31  32
ENDBRANCH  30  31
ENDBRANCH   1  30
TORSDOF 21
ENDMDL
