MODEL 1
REMARK VINA RESULT:     -12.0      0.000      0.000
REMARK SMILES COc1ccc([C@H]2CC(c3ccccc3)=NN2C(=O)CCCC(=O)OCCOCCOCCOC(=O)c2ccc(-c3c4nc(c(-c5c(F)c(F)c(F)c(F)c5F)c5ccc([nH]5)c(-c5c(F)c(F)c(F)c(F)c5F)c5nc(c(-c6c(F)c(F)c(F)c(F)c6F)c6ccc3[nH]6)C=C5)C=C4)cc2)cc1
REMARK SMILES IDX 27 1 26 2 25 3 23 4 24 5 22 6 21 7 20 8 18 9 19 10 17 11
REMARK SMILES IDX 7 12 8 13 9 14 16 15 6 16 3 17 4 18 101 19 5 20 100 21 2 22
REMARK SMILES IDX 1 23 10 24 11 25 15 26 12 27 14 28 13 29 28 30 29 31 30 32
REMARK SMILES IDX 31 33 32 34 33 35 34 36 35 37 36 38 37 39 38 40 99 41 39 42
REMARK SMILES IDX 98 43 40 44 41 45 42 46 92 47 43 48 97 49 91 50 93 51 44 52
REMARK SMILES IDX 96 53 90 54 89 55 45 57 77 58 57 59 76 60 58 61 61 62 75 63
REMARK SMILES IDX 94 64 59 65 60 66 74 68 95 69 62 70 46 71 47 72 55 73 48 74
REMARK SMILES IDX 49 75 53 76 56 77 50 78 51 79 54 80 52 81 78 82 79 83 87 84
REMARK SMILES IDX 80 85 81 86 85 87 88 88 82 89 83 90 86 91 84 92 63 93 64 94
REMARK SMILES IDX 72 95 65 96 66 97 70 98 73 99 67 100 68 101 71 102 69 103
REMARK H PARENT 93 56 61 67
REMARK Flexibility Score: inf
ROOT
ATOM      1  C   UNL A   1      42.127  19.779  26.138  1.00  0.00     0.202 C 
ENDROOT
BRANCH   1   2
ATOM      2  C   UNL A   1      40.604  19.839  25.961  1.00  0.00     0.261 C 
BRANCH   2   3
ATOM      3  O   UNL A   1      39.884  20.618  26.934  1.00  0.00    -0.463 OA
BRANCH   3   4
ATOM      4  C   UNL A   1      39.619  21.904  26.612  1.00  0.00     0.305 C 
ATOM      5  O   UNL A   1      40.122  22.865  27.182  1.00  0.00    -0.252 OA
BRANCH   4   6
ATOM      6  C   UNL A   1      38.628  22.029  25.468  1.00  0.00     0.123 C 
BRANCH   6   7
ATOM      7  C   UNL A   1      37.306  21.311  25.658  1.00  0.00     0.022 C 
BRANCH   7   8
ATOM      8  C   UNL A   1      36.455  21.235  24.398  1.00  0.00     0.103 C 
BRANCH   8   9
ATOM      9  C   UNL A   1      35.994  22.560  23.812  1.00  0.00     0.243 C 
ATOM     10  O   UNL A   1      36.693  23.099  22.947  1.00  0.00    -0.273 OA
BRANCH   9  11
ATOM     11  N   UNL A   1      34.724  23.012  24.140  1.00  0.00    -0.225 N 
ATOM     12  C   UNL A   1      33.393  22.650  23.606  1.00  0.00     0.147 C 
ATOM     13  C   UNL A   1      32.460  23.724  24.144  1.00  0.00     0.091 C 
ATOM     14  C   UNL A   1      33.427  24.504  24.975  1.00  0.00     0.071 C 
ATOM     15  N   UNL A   1      34.655  24.095  24.981  1.00  0.00    -0.174 NA
BRANCH  12  16
ATOM     16  C   UNL A   1      32.901  21.255  23.990  1.00  0.00    -0.023 A 
ATOM     17  C   UNL A   1      32.574  18.505  24.447  1.00  0.00     0.118 A 
ATOM     18  C   UNL A   1      32.251  19.035  23.203  1.00  0.00     0.047 A 
ATOM     19  C   UNL A   1      32.945  19.343  25.495  1.00  0.00     0.047 A 
ATOM     20  C   UNL A   1      32.379  20.411  22.987  1.00  0.00     0.010 A 
ATOM     21  C   UNL A   1      33.093  20.718  25.273  1.00  0.00     0.010 A 
BRANCH  17  22
ATOM     22  O   UNL A   1      32.734  17.153  24.581  1.00  0.00    -0.497 OA
ATOM     23  C   UNL A   1      33.715  16.645  23.684  1.00  0.00     0.278 C 
ENDBRANCH  17  22
ENDBRANCH  12  16
BRANCH  14  24
ATOM     24  C   UNL A   1      33.000  25.719  25.663  1.00  0.00    -0.002 A 
ATOM     25  C   UNL A   1      33.929  26.746  25.842  1.00  0.00     0.010 A 
ATOM     26  C   UNL A   1      31.693  25.835  26.132  1.00  0.00     0.010 A 
ATOM     27  C   UNL A   1      33.542  27.910  26.498  1.00  0.00     0.001 A 
ATOM     28  C   UNL A   1      31.318  26.996  26.805  1.00  0.00     0.001 A 
ATOM     29  C   UNL A   1      32.239  28.031  26.985  1.00  0.00     0.000 A 
ENDBRANCH  14  24
ENDBRANCH   9  11
ENDBRANCH   8   9
ENDBRANCH   7   8
ENDBRANCH   6   7
ENDBRANCH   4   6
ENDBRANCH   3   4
ENDBRANCH   2   3
ENDBRANCH   1   2
BRANCH   1  30
ATOM     30  O   UNL A   1      42.722  18.687  25.440  1.00  0.00    -0.376 OA
BRANCH  30  31
ATOM     31  C   UNL A   1      44.141  18.736  25.461  1.00  0.00     0.188 C 
BRANCH  31  32
ATOM     32  C   UNL A   1      44.789  18.982  24.105  1.00  0.00     0.188 C 
BRANCH  32  33
ATOM     33  O   UNL A   1      44.763  20.275  23.523  1.00  0.00    -0.376 OA
BRANCH  33  34
ATOM     34  C   UNL A   1      44.903  21.436  24.332  1.00  0.00     0.202 C 
BRANCH  34  35
ATOM     35  C   UNL A   1      44.303  22.755  23.817  1.00  0.00     0.261 C 
BRANCH  35  36
ATOM     36  O   UNL A   1      43.720  23.578  24.833  1.00  0.00    -0.460 OA
BRANCH  36  37
ATOM     37  C   UNL A   1      44.427  24.687  25.155  1.00  0.00     0.338 C 
ATOM     38  O   UNL A   1      45.501  25.026  24.687  1.00  0.00    -0.246 OA
BRANCH  37  39
ATOM     39  C   UNL A   1      43.568  25.547  26.015  1.00  0.00     0.060 A 
ATOM     40  C   UNL A   1      43.934  26.890  26.168  1.00  0.00     0.016 A 
ATOM     41  C   UNL A   1      42.371  25.081  26.578  1.00  0.00     0.016 A 
ATOM     42  C   UNL A   1      43.154  27.745  26.950  1.00  0.00     0.010 A 
ATOM     43  C   UNL A   1      41.586  25.938  27.356  1.00  0.00     0.010 A 
ATOM     44  C   UNL A   1      42.010  27.257  27.597  1.00  0.00    -0.014 A 
BRANCH  44  45
ATOM     45  C   UNL A   1      41.470  28.001  28.763  1.00  0.00     0.031 A 
ATOM     46  C   UNL A   1      42.175  27.807  30.082  1.00  0.00     0.074 A 
ATOM     47  C   UNL A   1      40.419  28.837  28.680  1.00  0.00     0.049 A 
ATOM     48  N   UNL A   1      41.929  28.343  31.251  1.00  0.00    -0.248 NA
ATOM     49  C   UNL A   1      43.316  26.873  30.081  1.00  0.00     0.031 C 
ATOM     50  C   UNL A   1      39.649  29.126  27.474  1.00  0.00     0.029 A 
ATOM     51  N   UNL A   1      39.814  29.595  29.656  1.00  0.00    -0.354 N 
ATOM     52  C   UNL A   1      42.878  27.811  32.113  1.00  0.00     0.074 A 
ATOM     53  C   UNL A   1      43.682  26.884  31.352  1.00  0.00     0.031 C 
ATOM     54  C   UNL A   1      38.659  29.985  27.786  1.00  0.00     0.029 A 
ATOM     55  C   UNL A   1      38.723  30.301  29.214  1.00  0.00     0.049 A 
ATOM     56  H   UNL A   1      40.135  29.628  30.586  1.00  0.00     0.167 HD
ATOM     57  C   UNL A   1      43.080  28.079  33.423  1.00  0.00     0.037 A 
ATOM     58  C   UNL A   1      37.872  31.098  29.892  1.00  0.00     0.037 A 
ATOM     59  C   UNL A   1      42.300  29.007  34.190  1.00  0.00     0.049 A 
ATOM     60  C   UNL A   1      38.094  31.349  31.368  1.00  0.00     0.074 A 
ATOM     61  C   UNL A   1      42.461  29.382  35.512  1.00  0.00     0.029 A 
ATOM     62  N   UNL A   1      41.200  29.697  33.706  1.00  0.00    -0.354 N 
ATOM     63  N   UNL A   1      39.044  30.904  32.154  1.00  0.00    -0.248 NA
ATOM     64  C   UNL A   1      37.125  32.226  32.046  1.00  0.00     0.031 C 
ATOM     65  C   UNL A   1      41.427  30.261  35.844  1.00  0.00     0.029 A 
ATOM     66  C   UNL A   1      40.653  30.472  34.714  1.00  0.00     0.049 A 
ATOM     67  H   UNL A   1      40.860  29.644  32.783  1.00  0.00     0.167 HD
ATOM     68  C   UNL A   1      38.806  31.469  33.402  1.00  0.00     0.074 A 
ATOM     69  C   UNL A   1      37.633  32.304  33.267  1.00  0.00     0.031 C 
ATOM     70  C   UNL A   1      39.494  31.310  34.560  1.00  0.00     0.037 A 
BRANCH  57  71
ATOM     71  C   UNL A   1      44.183  27.342  34.116  1.00  0.00     0.064 A 
ATOM     72  C   UNL A   1      43.964  26.107  34.742  1.00  0.00     0.173 A 
ATOM     73  C   UNL A   1      45.485  27.864  34.119  1.00  0.00     0.173 A 
ATOM     74  F   UNL A   1      42.731  25.580  34.784  1.00  0.00    -0.203 F 
ATOM     75  C   UNL A   1      45.009  25.424  35.359  1.00  0.00     0.198 A 
ATOM     76  C   UNL A   1      46.531  27.167  34.714  1.00  0.00     0.198 A 
ATOM     77  F   UNL A   1      45.741  29.045  33.537  1.00  0.00    -0.203 F 
ATOM     78  F   UNL A   1      44.772  24.263  35.982  1.00  0.00    -0.200 F 
ATOM     79  C   UNL A   1      46.292  25.950  35.336  1.00  0.00     0.200 A 
ATOM     80  F   UNL A   1      47.772  27.673  34.686  1.00  0.00    -0.200 F 
ATOM     81  F   UNL A   1      47.300  25.286  35.919  1.00  0.00    -0.200 F 
ENDBRANCH  57  71
BRANCH  58  82
ATOM     82  C   UNL A   1      36.708  31.721  29.205  1.00  0.00     0.064 A 
ATOM     83  C   UNL A   1      36.658  33.101  28.964  1.00  0.00     0.173 A 
ATOM     84  C   UNL A   1      35.584  30.959  28.854  1.00  0.00     0.173 A 
ATOM     85  F   UNL A   1      37.697  33.878  29.310  1.00  0.00    -0.203 F 
ATOM     86  C   UNL A   1      35.518  33.701  28.432  1.00  0.00     0.198 A 
ATOM     87  C   UNL A   1      34.455  31.555  28.296  1.00  0.00     0.198 A 
ATOM     88  F   UNL A   1      35.576  29.636  29.069  1.00  0.00    -0.203 F 
ATOM     89  F   UNL A   1      35.473  35.031  28.277  1.00  0.00    -0.200 F 
ATOM     90  C   UNL A   1      34.418  32.927  28.097  1.00  0.00     0.200 A 
ATOM     91  F   UNL A   1      33.396  30.803  27.966  1.00  0.00    -0.200 F 
ATOM     92  F   UNL A   1      33.316  33.505  27.599  1.00  0.00    -0.200 F 
ENDBRANCH  58  82
BRANCH  70  93
ATOM     93  C   UNL A   1      39.026  32.077  35.763  1.00  0.00     0.064 A 
ATOM     94  C   UNL A   1      38.203  31.491  36.736  1.00  0.00     0.173 A 
ATOM     95  C   UNL A   1      39.447  33.400  35.970  1.00  0.00     0.173 A 
ATOM     96  F   UNL A   1      37.764  30.233  36.580  1.00  0.00    -0.203 F 
ATOM     97  C   UNL A   1      37.797  32.211  37.858  1.00  0.00     0.198 A 
ATOM     98  C   UNL A   1      39.065  34.106  37.108  1.00  0.00     0.198 A 
ATOM     99  F   UNL A   1      40.244  34.004  35.076  1.00  0.00    -0.203 F 
ATOM    100  F   UNL A   1      36.971  31.646  38.750  1.00  0.00    -0.200 F 
ATOM    101  C   UNL A   1      38.233  33.513  38.046  1.00  0.00     0.200 A 
ATOM    102  F   UNL A   1      39.501  35.358  37.296  1.00  0.00    -0.200 F 
ATOM    103  F   UNL A   1      37.847  34.201  39.130  1.00  0.00    -0.200 F 
ENDBRANCH  70  93
ENDBRANCH  44  45
ENDBRANCH  37  39
ENDBRANCH  36  37
ENDBRANCH  35  36
ENDBRANCH  34  35
ENDBRANCH  33  34
ENDBRANCH  32  33
ENDBRANCH  31  32
ENDBRANCH  30  31
ENDBRANCH   1  30
TORSDOF 24
ENDMDL
MODEL 2
REMARK VINA RESULT:     -10.8      1.188      2.251
REMARK SMILES COc1ccc([C@H]2CC(c3ccccc3)=NN2C(=O)CCCC(=O)OCCOCCOCCOC(=O)c2ccc(-c3c4nc(c(-c5c(F)c(F)c(F)c(F)c5F)c5ccc([nH]5)c(-c5c(F)c(F)c(F)c(F)c5F)c5nc(c(-c6c(F)c(F)c(F)c(F)c6F)c6ccc3[nH]6)C=C5)C=C4)cc2)cc1
REMARK SMILES IDX 27 1 26 2 25 3 23 4 24 5 22 6 21 7 20 8 18 9 19 10 17 11
REMARK SMILES IDX 7 12 8 13 9 14 16 15 6 16 3 17 4 18 101 19 5 20 100 21 2 22
REMARK SMILES IDX 1 23 10 24 11 25 15 26 12 27 14 28 13 29 28 30 29 31 30 32
REMARK SMILES IDX 31 33 32 34 33 35 34 36 35 37 36 38 37 39 38 40 99 41 39 42
REMARK SMILES IDX 98 43 40 44 41 45 42 46 92 47 43 48 97 49 91 50 93 51 44 52
REMARK SMILES IDX 96 53 90 54 89 55 45 57 77 58 57 59 76 60 58 61 61 62 75 63
REMARK SMILES IDX 94 64 59 65 60 66 74 68 95 69 62 70 46 71 47 72 55 73 48 74
REMARK SMILES IDX 49 75 53 76 56 77 50 78 51 79 54 80 52 81 78 82 79 83 87 84
REMARK SMILES IDX 80 85 81 86 85 87 88 88 82 89 83 90 86 91 84 92 63 93 64 94
REMARK SMILES IDX 72 95 65 96 66 97 70 98 73 99 67 100 68 101 71 102 69 103
REMARK H PARENT 93 56 61 67
REMARK Flexibility Score: inf
ROOT
ATOM      1  C   UNL A   1      42.316  19.393  26.227  1.00  0.00     0.202 C 
ENDROOT
BRANCH   1   2
ATOM      2  C   UNL A   1      40.805  19.527  25.998  1.00  0.00     0.261 C 
BRANCH   2   3
ATOM      3  O   UNL A   1      40.073  20.241  27.010  1.00  0.00    -0.463 OA
BRANCH   3   4
ATOM      4  C   UNL A   1      40.199  21.588  27.021  1.00  0.00     0.305 C 
ATOM      5  O   UNL A   1      40.865  22.201  27.847  1.00  0.00    -0.252 OA
BRANCH   4   6
ATOM      6  C   UNL A   1      39.426  22.257  25.899  1.00  0.00     0.123 C 
BRANCH   6   7
ATOM      7  C   UNL A   1      38.041  21.702  25.630  1.00  0.00     0.022 C 
BRANCH   7   8
ATOM      8  C   UNL A   1      37.223  22.529  24.647  1.00  0.00     0.103 C 
BRANCH   8   9
ATOM      9  C   UNL A   1      36.282  23.560  25.250  1.00  0.00     0.243 C 
ATOM     10  O   UNL A   1      36.667  24.211  26.227  1.00  0.00    -0.273 OA
BRANCH   9  11
ATOM     11  N   UNL A   1      35.111  23.854  24.566  1.00  0.00    -0.225 N 
ATOM     12  C   UNL A   1      34.301  23.047  23.628  1.00  0.00     0.147 C 
ATOM     13  C   UNL A   1      33.348  24.044  22.988  1.00  0.00     0.091 C 
ATOM     14  C   UNL A   1      33.737  25.278  23.737  1.00  0.00     0.071 C 
ATOM     15  N   UNL A   1      34.685  25.159  24.609  1.00  0.00    -0.174 NA
BRANCH  12  16
ATOM     16  C   UNL A   1      33.534  21.890  24.269  1.00  0.00    -0.023 A 
ATOM     17  C   UNL A   1      32.643  19.417  25.253  1.00  0.00     0.118 A 
ATOM     18  C   UNL A   1      32.414  19.746  23.922  1.00  0.00     0.047 A 
ATOM     19  C   UNL A   1      33.203  20.349  26.123  1.00  0.00     0.047 A 
ATOM     20  C   UNL A   1      32.825  20.994  23.441  1.00  0.00     0.010 A 
ATOM     21  C   UNL A   1      33.633  21.590  25.637  1.00  0.00     0.010 A 
BRANCH  17  22
ATOM     22  O   UNL A   1      32.517  18.116  25.656  1.00  0.00    -0.497 OA
ATOM     23  C   UNL A   1      32.891  17.206  24.627  1.00  0.00     0.278 C 
ENDBRANCH  17  22
ENDBRANCH  12  16
BRANCH  14  24
ATOM     24  C   UNL A   1      33.123  26.564  23.415  1.00  0.00    -0.002 A 
ATOM     25  C   UNL A   1      31.744  26.608  23.195  1.00  0.00     0.010 A 
ATOM     26  C   UNL A   1      33.908  27.711  23.326  1.00  0.00     0.010 A 
ATOM     27  C   UNL A   1      31.142  27.823  22.883  1.00  0.00     0.001 A 
ATOM     28  C   UNL A   1      33.300  28.920  22.996  1.00  0.00     0.001 A 
ATOM     29  C   UNL A   1      31.921  28.976  22.778  1.00  0.00     0.000 A 
ENDBRANCH  14  24
ENDBRANCH   9  11
ENDBRANCH   8   9
ENDBRANCH   7   8
ENDBRANCH   6   7
ENDBRANCH   4   6
ENDBRANCH   3   4
ENDBRANCH   2   3
ENDBRANCH   1   2
BRANCH   1  30
ATOM     30  O   UNL A   1      42.964  18.630  25.210  1.00  0.00    -0.376 OA
BRANCH  30  31
ATOM     31  C   UNL A   1      44.375  18.606  25.364  1.00  0.00     0.188 C 
BRANCH  31  32
ATOM     32  C   UNL A   1      45.152  19.225  24.210  1.00  0.00     0.188 C 
BRANCH  32  33
ATOM     33  O   UNL A   1      44.980  20.594  23.885  1.00  0.00    -0.376 OA
BRANCH  33  34
ATOM     34  C   UNL A   1      44.788  21.563  24.909  1.00  0.00     0.202 C 
BRANCH  34  35
ATOM     35  C   UNL A   1      43.784  22.699  24.651  1.00  0.00     0.261 C 
BRANCH  35  36
ATOM     36  O   UNL A   1      43.573  23.568  25.770  1.00  0.00    -0.460 OA
BRANCH  36  37
ATOM     37  C   UNL A   1      43.987  24.845  25.597  1.00  0.00     0.338 C 
ATOM     38  O   UNL A   1      44.756  25.250  24.742  1.00  0.00    -0.246 OA
BRANCH  37  39
ATOM     39  C   UNL A   1      43.171  25.717  26.485  1.00  0.00     0.060 A 
ATOM     40  C   UNL A   1      43.372  27.100  26.406  1.00  0.00     0.016 A 
ATOM     41  C   UNL A   1      42.154  25.206  27.305  1.00  0.00     0.016 A 
ATOM     42  C   UNL A   1      42.622  27.966  27.205  1.00  0.00     0.010 A 
ATOM     43  C   UNL A   1      41.398  26.073  28.101  1.00  0.00     0.010 A 
ATOM     44  C   UNL A   1      41.674  27.451  28.100  1.00  0.00    -0.014 A 
BRANCH  44  45
ATOM     45  C   UNL A   1      41.234  28.289  29.244  1.00  0.00     0.031 A 
ATOM     46  C   UNL A   1      42.025  28.167  30.523  1.00  0.00     0.074 A 
ATOM     47  C   UNL A   1      40.201  29.148  29.174  1.00  0.00     0.049 A 
ATOM     48  N   UNL A   1      41.874  28.789  31.665  1.00  0.00    -0.248 NA
ATOM     49  C   UNL A   1      43.140  27.203  30.511  1.00  0.00     0.031 C 
ATOM     50  C   UNL A   1      39.356  29.375  28.006  1.00  0.00     0.029 A 
ATOM     51  N   UNL A   1      39.683  29.988  30.133  1.00  0.00    -0.354 N 
ATOM     52  C   UNL A   1      42.868  28.290  32.496  1.00  0.00     0.074 A 
ATOM     53  C   UNL A   1      43.594  27.290  31.749  1.00  0.00     0.031 C 
ATOM     54  C   UNL A   1      38.411  30.281  28.322  1.00  0.00     0.029 A 
ATOM     55  C   UNL A   1      38.581  30.693  29.716  1.00  0.00     0.049 A 
ATOM     56  H   UNL A   1      40.069  30.076  31.034  1.00  0.00     0.167 HD
ATOM     57  C   UNL A   1      43.167  28.643  33.767  1.00  0.00     0.037 A 
ATOM     58  C   UNL A   1      37.799  31.560  30.393  1.00  0.00     0.037 A 
ATOM     59  C   UNL A   1      42.464  29.643  34.517  1.00  0.00     0.049 A 
ATOM     60  C   UNL A   1      38.130  31.905  31.828  1.00  0.00     0.074 A 
ATOM     61  C   UNL A   1      42.727  30.103  35.795  1.00  0.00     0.029 A 
ATOM     62  N   UNL A   1      41.351  30.329  34.061  1.00  0.00    -0.354 N 
ATOM     63  N   UNL A   1      39.122  31.488  32.578  1.00  0.00    -0.248 NA
ATOM     64  C   UNL A   1      37.232  32.854  32.507  1.00  0.00     0.031 C 
ATOM     65  C   UNL A   1      41.740  31.033  36.134  1.00  0.00     0.029 A 
ATOM     66  C   UNL A   1      40.894  31.187  35.047  1.00  0.00     0.049 A 
ATOM     67  H   UNL A   1      40.946  30.222  33.170  1.00  0.00     0.167 HD
ATOM     68  C   UNL A   1      38.985  32.145  33.796  1.00  0.00     0.074 A 
ATOM     69  C   UNL A   1      37.825  33.001  33.683  1.00  0.00     0.031 C 
ATOM     70  C   UNL A   1      39.748  32.046  34.913  1.00  0.00     0.037 A 
BRANCH  57  71
ATOM     71  C   UNL A   1      44.298  27.924  34.434  1.00  0.00     0.064 A 
ATOM     72  C   UNL A   1      45.617  28.393  34.357  1.00  0.00     0.173 A 
ATOM     73  C   UNL A   1      44.049  26.770  35.192  1.00  0.00     0.173 A 
ATOM     74  F   UNL A   1      45.905  29.481  33.625  1.00  0.00    -0.203 F 
ATOM     75  C   UNL A   1      46.651  27.726  35.006  1.00  0.00     0.198 A 
ATOM     76  C   UNL A   1      45.082  26.120  35.860  1.00  0.00     0.198 A 
ATOM     77  F   UNL A   1      42.804  26.281  35.290  1.00  0.00    -0.203 F 
ATOM     78  F   UNL A   1      47.910  28.169  34.890  1.00  0.00    -0.200 F 
ATOM     79  C   UNL A   1      46.381  26.595  35.763  1.00  0.00     0.200 A 
ATOM     80  F   UNL A   1      44.819  25.032  36.598  1.00  0.00    -0.200 F 
ATOM     81  F   UNL A   1      47.376  25.960  36.398  1.00  0.00    -0.200 F 
ENDBRANCH  57  71
BRANCH  58  82
ATOM     82  C   UNL A   1      36.605  32.167  29.744  1.00  0.00     0.064 A 
ATOM     83  C   UNL A   1      35.513  31.380  29.350  1.00  0.00     0.173 A 
ATOM     84  C   UNL A   1      36.571  33.533  29.428  1.00  0.00     0.173 A 
ATOM     85  F   UNL A   1      35.513  30.062  29.601  1.00  0.00    -0.203 F 
ATOM     86  C   UNL A   1      34.451  31.928  28.633  1.00  0.00     0.198 A 
ATOM     87  C   UNL A   1      35.494  34.086  28.738  1.00  0.00     0.198 A 
ATOM     88  F   UNL A   1      37.592  34.328  29.777  1.00  0.00    -0.203 F 
ATOM     89  F   UNL A   1      33.454  31.140  28.208  1.00  0.00    -0.200 F 
ATOM     90  C   UNL A   1      34.441  33.281  28.329  1.00  0.00     0.200 A 
ATOM     91  F   UNL A   1      35.485  35.394  28.452  1.00  0.00    -0.200 F 
ATOM     92  F   UNL A   1      33.426  33.806  27.629  1.00  0.00    -0.200 F 
ENDBRANCH  58  82
BRANCH  70  93
ATOM     93  C   UNL A   1      39.383  32.908  36.087  1.00  0.00     0.064 A 
ATOM     94  C   UNL A   1      39.858  34.221  36.214  1.00  0.00     0.173 A 
ATOM     95  C   UNL A   1      38.504  32.430  37.073  1.00  0.00     0.173 A 
ATOM     96  F   UNL A   1      40.707  34.722  35.305  1.00  0.00    -0.203 F 
ATOM     97  C   UNL A   1      39.490  35.014  37.298  1.00  0.00     0.198 A 
ATOM     98  C   UNL A   1      38.114  33.236  38.139  1.00  0.00     0.198 A 
ATOM     99  F   UNL A   1      38.011  31.185  36.994  1.00  0.00    -0.203 F 
ATOM    100  F   UNL A   1      39.995  36.249  37.424  1.00  0.00    -0.200 F 
ATOM    101  C   UNL A   1      38.614  34.525  38.255  1.00  0.00     0.200 A 
ATOM    102  F   UNL A   1      37.254  32.767  39.053  1.00  0.00    -0.200 F 
ATOM    103  F   UNL A   1      38.255  35.292  39.293  1.00  0.00    -0.200 F 
ENDBRANCH  70  93
ENDBRANCH  44  45
ENDBRANCH  37  39
ENDBRANCH  36  37
ENDBRANCH  35  36
ENDBRANCH  34  35
ENDBRANCH  33  34
ENDBRANCH  32  33
ENDBRANCH  31  32
ENDBRANCH  30  31
ENDBRANCH   1  30
TORSDOF 24
ENDMDL
MODEL 3
REMARK VINA RESULT:     -10.1      4.093      9.289
REMARK SMILES COc1ccc([C@H]2CC(c3ccccc3)=NN2C(=O)CCCC(=O)OCCOCCOCCOC(=O)c2ccc(-c3c4nc(c(-c5c(F)c(F)c(F)c(F)c5F)c5ccc([nH]5)c(-c5c(F)c(F)c(F)c(F)c5F)c5nc(c(-c6c(F)c(F)c(F)c(F)c6F)c6ccc3[nH]6)C=C5)C=C4)cc2)cc1
REMARK SMILES IDX 27 1 26 2 25 3 23 4 24 5 22 6 21 7 20 8 18 9 19 10 17 11
REMARK SMILES IDX 7 12 8 13 9 14 16 15 6 16 3 17 4 18 101 19 5 20 100 21 2 22
REMARK SMILES IDX 1 23 10 24 11 25 15 26 12 27 14 28 13 29 28 30 29 31 30 32
REMARK SMILES IDX 31 33 32 34 33 35 34 36 35 37 36 38 37 39 38 40 99 41 39 42
REMARK SMILES IDX 98 43 40 44 41 45 42 46 92 47 43 48 97 49 91 50 93 51 44 52
REMARK SMILES IDX 96 53 90 54 89 55 45 57 77 58 57 59 76 60 58 61 61 62 75 63
REMARK SMILES IDX 94 64 59 65 60 66 74 68 95 69 62 70 46 71 47 72 55 73 48 74
REMARK SMILES IDX 49 75 53 76 56 77 50 78 51 79 54 80 52 81 78 82 79 83 87 84
REMARK SMILES IDX 80 85 81 86 85 87 88 88 82 89 83 90 86 91 84 92 63 93 64 94
REMARK SMILES IDX 72 95 65 96 66 97 70 98 73 99 67 100 68 101 71 102 69 103
REMARK H PARENT 93 56 61 67
REMARK Flexibility Score: inf
ROOT
ATOM      1  C   UNL A   1      32.759  28.115  27.000  1.00  0.00     0.202 C 
ENDROOT
BRANCH   1   2
ATOM      2  C   UNL A   1      32.109  27.058  26.096  1.00  0.00     0.261 C 
BRANCH   2   3
ATOM      3  O   UNL A   1      32.048  27.376  24.694  1.00  0.00    -0.463 OA
BRANCH   3   4
ATOM      4  C   UNL A   1      31.396  26.499  23.897  1.00  0.00     0.305 C 
ATOM      5  O   UNL A   1      30.507  26.820  23.117  1.00  0.00    -0.252 OA
BRANCH   4   6
ATOM      6  C   UNL A   1      31.886  25.072  24.074  1.00  0.00     0.123 C 
BRANCH   6   7
ATOM      7  C   UNL A   1      31.210  24.029  23.205  1.00  0.00     0.022 C 
BRANCH   7   8
ATOM      8  C   UNL A   1      31.905  22.675  23.210  1.00  0.00     0.103 C 
BRANCH   8   9
ATOM      9  C   UNL A   1      33.404  22.682  22.959  1.00  0.00     0.243 C 
ATOM     10  O   UNL A   1      33.837  23.309  21.985  1.00  0.00    -0.273 OA
BRANCH   9  11
ATOM     11  N   UNL A   1      34.232  22.143  23.933  1.00  0.00    -0.225 N 
ATOM     12  C   UNL A   1      33.976  21.127  24.977  1.00  0.00     0.147 C 
ATOM     13  C   UNL A   1      35.173  21.226  25.909  1.00  0.00     0.091 C 
ATOM     14  C   UNL A   1      35.971  22.262  25.185  1.00  0.00     0.071 C 
ATOM     15  N   UNL A   1      35.457  22.741  24.098  1.00  0.00    -0.174 NA
BRANCH  12  16
ATOM     16  C   UNL A   1      33.800  19.700  24.459  1.00  0.00    -0.023 A 
ATOM     17  C   UNL A   1      33.413  16.938  24.144  1.00  0.00     0.118 A 
ATOM     18  C   UNL A   1      34.687  17.424  24.417  1.00  0.00     0.047 A 
ATOM     19  C   UNL A   1      32.359  17.817  23.912  1.00  0.00     0.047 A 
ATOM     20  C   UNL A   1      34.886  18.803  24.537  1.00  0.00     0.010 A 
ATOM     21  C   UNL A   1      32.553  19.197  24.053  1.00  0.00     0.010 A 
BRANCH  17  22
ATOM     22  O   UNL A   1      33.150  15.606  24.313  1.00  0.00    -0.497 OA
ATOM     23  C   UNL A   1      32.545  15.343  25.575  1.00  0.00     0.278 C 
ENDBRANCH  17  22
ENDBRANCH  12  16
BRANCH  14  24
ATOM     24  C   UNL A   1      37.223  22.759  25.747  1.00  0.00    -0.002 A 
ATOM     25  C   UNL A   1      37.282  24.088  26.173  1.00  0.00     0.010 A 
ATOM     26  C   UNL A   1      38.330  21.917  25.844  1.00  0.00     0.010 A 
ATOM     27  C   UNL A   1      38.468  24.581  26.708  1.00  0.00     0.001 A 
ATOM     28  C   UNL A   1      39.519  22.424  26.364  1.00  0.00     0.001 A 
ATOM     29  C   UNL A   1      39.587  23.750  26.797  1.00  0.00     0.000 A 
ENDBRANCH  14  24
ENDBRANCH   9  11
ENDBRANCH   8   9
ENDBRANCH   7   8
ENDBRANCH   6   7
ENDBRANCH   4   6
ENDBRANCH   3   4
ENDBRANCH   2   3
ENDBRANCH   1   2
BRANCH   1  30
ATOM     30  O   UNL A   1      31.988  29.311  27.095  1.00  0.00    -0.376 OA
BRANCH  30  31
ATOM     31  C   UNL A   1      32.540  30.376  26.336  1.00  0.00     0.188 C 
BRANCH  31  32
ATOM     32  C   UNL A   1      33.246  31.445  27.160  1.00  0.00     0.188 C 
BRANCH  32  33
ATOM     33  O   UNL A   1      32.533  32.581  27.619  1.00  0.00    -0.376 OA
BRANCH  33  34
ATOM     34  C   UNL A   1      33.204  33.815  27.844  1.00  0.00     0.202 C 
BRANCH  34  35
ATOM     35  C   UNL A   1      34.058  33.954  29.116  1.00  0.00     0.261 C 
BRANCH  35  36
ATOM     36  O   UNL A   1      35.136  33.016  29.210  1.00  0.00    -0.460 OA
BRANCH  36  37
ATOM     37  C   UNL A   1      35.302  32.446  30.427  1.00  0.00     0.338 C 
ATOM     38  O   UNL A   1      34.492  32.426  31.337  1.00  0.00    -0.246 OA
BRANCH  37  39
ATOM     39  C   UNL A   1      36.558  31.648  30.393  1.00  0.00     0.060 A 
ATOM     40  C   UNL A   1      36.566  30.415  31.055  1.00  0.00     0.016 A 
ATOM     41  C   UNL A   1      37.675  32.044  29.642  1.00  0.00     0.016 A 
ATOM     42  C   UNL A   1      37.712  29.617  31.042  1.00  0.00     0.010 A 
ATOM     43  C   UNL A   1      38.822  31.243  29.623  1.00  0.00     0.010 A 
ATOM     44  C   UNL A   1      38.865  30.057  30.376  1.00  0.00    -0.014 A 
BRANCH  44  45
ATOM     45  C   UNL A   1      40.178  29.468  30.745  1.00  0.00     0.031 A 
ATOM     46  C   UNL A   1      40.887  30.071  31.932  1.00  0.00     0.074 A 
ATOM     47  C   UNL A   1      40.729  28.429  30.091  1.00  0.00     0.049 A 
ATOM     48  N   UNL A   1      42.030  29.744  32.480  1.00  0.00    -0.248 NA
ATOM     49  C   UNL A   1      40.212  31.205  32.588  1.00  0.00     0.031 C 
ATOM     50  C   UNL A   1      40.155  27.745  28.936  1.00  0.00     0.029 A 
ATOM     51  N   UNL A   1      41.918  27.775  30.314  1.00  0.00    -0.354 N 
ATOM     52  C   UNL A   1      42.204  30.629  33.536  1.00  0.00     0.074 A 
ATOM     53  C   UNL A   1      41.077  31.531  33.534  1.00  0.00     0.031 C 
ATOM     54  C   UNL A   1      41.004  26.778  28.538  1.00  0.00     0.029 A 
ATOM     55  C   UNL A   1      42.182  26.779  29.406  1.00  0.00     0.049 A 
ATOM     56  H   UNL A   1      42.524  28.000  31.056  1.00  0.00     0.167 HD
ATOM     57  C   UNL A   1      43.207  30.681  34.442  1.00  0.00     0.037 A 
ATOM     58  C   UNL A   1      43.259  25.974  29.290  1.00  0.00     0.037 A 
ATOM     59  C   UNL A   1      44.326  29.785  34.466  1.00  0.00     0.049 A 
ATOM     60  C   UNL A   1      44.387  26.082  30.293  1.00  0.00     0.074 A 
ATOM     61  C   UNL A   1      45.365  29.730  35.377  1.00  0.00     0.029 A 
ATOM     62  N   UNL A   1      44.559  28.794  33.526  1.00  0.00    -0.354 N 
ATOM     63  N   UNL A   1      44.503  26.868  31.335  1.00  0.00    -0.248 NA
ATOM     64  C   UNL A   1      45.532  25.176  30.103  1.00  0.00     0.031 C 
ATOM     65  C   UNL A   1      46.257  28.738  34.959  1.00  0.00     0.029 A 
ATOM     66  C   UNL A   1      45.745  28.143  33.818  1.00  0.00     0.049 A 
ATOM     67  H   UNL A   1      43.969  28.586  32.766  1.00  0.00     0.167 HD
ATOM     68  C   UNL A   1      45.709  26.531  31.939  1.00  0.00     0.074 A 
ATOM     69  C   UNL A   1      46.283  25.458  31.158  1.00  0.00     0.031 C 
ATOM     70  C   UNL A   1      46.295  27.064  33.040  1.00  0.00     0.037 A 
BRANCH  57  71
ATOM     71  C   UNL A   1      43.144  31.761  35.478  1.00  0.00     0.064 A 
ATOM     72  C   UNL A   1      42.537  31.551  36.724  1.00  0.00     0.173 A 
ATOM     73  C   UNL A   1      43.733  33.009  35.230  1.00  0.00     0.173 A 
ATOM     74  F   UNL A   1      41.940  30.380  36.997  1.00  0.00    -0.203 F 
ATOM     75  C   UNL A   1      42.512  32.559  37.684  1.00  0.00     0.198 A 
ATOM     76  C   UNL A   1      43.729  34.005  36.201  1.00  0.00     0.198 A 
ATOM     77  F   UNL A   1      44.321  33.257  34.051  1.00  0.00    -0.203 F 
ATOM     78  F   UNL A   1      41.896  32.351  38.855  1.00  0.00    -0.200 F 
ATOM     79  C   UNL A   1      43.115  33.781  37.425  1.00  0.00     0.200 A 
ATOM     80  F   UNL A   1      44.318  35.183  35.953  1.00  0.00    -0.200 F 
ATOM     81  F   UNL A   1      43.101  34.746  38.355  1.00  0.00    -0.200 F 
ENDBRANCH  57  71
BRANCH  58  82
ATOM     82  C   UNL A   1      43.353  24.993  28.176  1.00  0.00     0.064 A 
ATOM     83  C   UNL A   1      43.769  25.384  26.895  1.00  0.00     0.173 A 
ATOM     84  C   UNL A   1      42.947  23.661  28.349  1.00  0.00     0.173 A 
ATOM     85  F   UNL A   1      44.137  26.655  26.671  1.00  0.00    -0.203 F 
ATOM     86  C   UNL A   1      43.740  24.494  25.823  1.00  0.00     0.198 A 
ATOM     87  C   UNL A   1      42.947  22.764  27.283  1.00  0.00     0.198 A 
ATOM     88  F   UNL A   1      42.535  23.236  29.551  1.00  0.00    -0.203 F 
ATOM     89  F   UNL A   1      44.075  24.915  24.596  1.00  0.00    -0.200 F 
ATOM     90  C   UNL A   1      43.330  23.184  26.018  1.00  0.00     0.200 A 
ATOM     91  F   UNL A   1      42.558  21.497  27.477  1.00  0.00    -0.200 F 
ATOM     92  F   UNL A   1      43.289  22.331  24.985  1.00  0.00    -0.200 F 
ENDBRANCH  58  82
BRANCH  70  93
ATOM     93  C   UNL A   1      47.600  26.476  33.492  1.00  0.00     0.064 A 
ATOM     94  C   UNL A   1      47.652  25.363  34.343  1.00  0.00     0.173 A 
ATOM     95  C   UNL A   1      48.816  27.002  33.026  1.00  0.00     0.173 A 
ATOM     96  F   UNL A   1      46.520  24.828  34.824  1.00  0.00    -0.203 F 
ATOM     97  C   UNL A   1      48.872  24.816  34.733  1.00  0.00     0.198 A 
ATOM     98  C   UNL A   1      50.032  26.434  33.392  1.00  0.00     0.198 A 
ATOM     99  F   UNL A   1      48.823  28.060  32.200  1.00  0.00    -0.203 F 
ATOM    100  F   UNL A   1      48.898  23.782  35.586  1.00  0.00    -0.200 F 
ATOM    101  C   UNL A   1      50.059  25.346  34.253  1.00  0.00     0.200 A 
ATOM    102  F   UNL A   1      51.178  26.938  32.914  1.00  0.00    -0.200 F 
ATOM    103  F   UNL A   1      51.232  24.813  34.624  1.00  0.00    -0.200 F 
ENDBRANCH  70  93
ENDBRANCH  44  45
ENDBRANCH  37  39
ENDBRANCH  36  37
ENDBRANCH  35  36
ENDBRANCH  34  35
ENDBRANCH  33  34
ENDBRANCH  32  33
ENDBRANCH  31  32
ENDBRANCH  30  31
ENDBRANCH   1  30
TORSDOF 24
ENDMDL
