MODEL 1
REMARK VINA RESULT:     -10.0      0.000      0.000
REMARK SMILES CC1(C)[C@H](C(=O)Nc2ccc(NC(=O)C[NH+]3CCCCC3)cc2)[C@@H]1C(=O)OCCOCCOCCOC(=O)c1ccc(-c2c3nc(c(-c4c(F)c(F)c(F)c(F)c4F)c4ccc([nH]4)c(-c4c(F)c(F)c(F)c(F)c4F)c4nc(c(-c5c(F)c(F)c(F)c(F)c5F)c5ccc2[nH]5)C=C4)C=C3)cc1
REMARK SMILES IDX 30 1 29 2 28 3 27 4 25 5 26 6 24 7 1 8 2 9 3 10 4 11 5 12
REMARK SMILES IDX 6 13 7 14 8 16 9 17 23 18 10 19 22 20 11 21 12 22 13 23
REMARK SMILES IDX 14 25 15 26 16 27 17 28 21 29 18 31 20 32 19 33 31 34 32 35
REMARK SMILES IDX 33 36 34 37 35 38 36 39 37 40 38 41 39 42 40 43 101 44 41 45
REMARK SMILES IDX 100 46 42 47 43 48 44 49 94 50 45 51 99 52 93 53 95 54 46 55
REMARK SMILES IDX 98 56 92 57 91 58 47 60 79 61 59 62 78 63 60 64 63 65 77 66
REMARK SMILES IDX 96 67 61 68 62 69 76 71 97 72 64 73 48 74 49 75 57 76 50 77
REMARK SMILES IDX 51 78 55 79 58 80 52 81 53 82 56 83 54 84 80 85 81 86 89 87
REMARK SMILES IDX 82 88 83 89 87 90 90 91 84 92 85 93 88 94 86 95 65 96 66 97
REMARK SMILES IDX 74 98 67 99 68 100 72 101 75 102 69 103 70 104 73 105 71 106
REMARK H PARENT 7 15 12 24 16 30 95 59 63 70
REMARK Flexibility Score: inf
ROOT
ATOM      1  O   UNL A   1      37.595  20.883  24.870  1.00  0.00    -0.376 OA
ENDROOT
BRANCH   1   2
ATOM      2  C   UNL A   1      38.063  22.164  25.254  1.00  0.00     0.202 C 
BRANCH   2   3
ATOM      3  C   UNL A   1      37.173  23.063  26.113  1.00  0.00     0.261 C 
BRANCH   3   4
ATOM      4  O   UNL A   1      35.850  23.395  25.646  1.00  0.00    -0.463 OA
BRANCH   4   5
ATOM      5  C   UNL A   1      34.864  22.504  25.957  1.00  0.00     0.310 C 
ATOM      6  O   UNL A   1      35.022  21.486  26.631  1.00  0.00    -0.252 OA
BRANCH   5   7
ATOM      7  C   UNL A   1      33.517  23.031  25.657  1.00  0.00     0.118 C 
ATOM      8  C   UNL A   1      31.019  22.383  25.330  1.00  0.00     0.013 C 
ATOM      9  C   UNL A   1      32.446  22.326  24.814  1.00  0.00    -0.009 C 
ATOM     10  C   UNL A   1      32.717  21.015  24.137  1.00  0.00     0.013 C 
ATOM     11  C   UNL A   1      33.047  23.661  24.385  1.00  0.00     0.100 C 
BRANCH  11  12
ATOM     12  C   UNL A   1      33.772  24.058  23.140  1.00  0.00     0.228 C 
ATOM     13  O   UNL A   1      34.712  23.332  22.806  1.00  0.00    -0.274 OA
ATOM     14  N   UNL A   1      33.271  24.907  22.190  1.00  0.00    -0.326 N 
ATOM     15  H   UNL A   1      33.304  24.561  21.269  1.00  0.00     0.169 HD
BRANCH  14  16
ATOM     16  C   UNL A   1      32.724  26.177  22.315  1.00  0.00     0.041 A 
ATOM     17  C   UNL A   1      31.354  26.265  22.447  1.00  0.00     0.028 A 
ATOM     18  C   UNL A   1      33.483  27.336  22.343  1.00  0.00     0.028 A 
ATOM     19  C   UNL A   1      30.802  27.456  22.916  1.00  0.00     0.028 A 
ATOM     20  C   UNL A   1      32.907  28.546  22.761  1.00  0.00     0.028 A 
ATOM     21  C   UNL A   1      31.565  28.598  23.136  1.00  0.00     0.041 A 
BRANCH  21  22
ATOM     22  N   UNL A   1      31.118  29.750  23.812  1.00  0.00    -0.321 N 
ATOM     23  C   UNL A   1      31.213  30.201  25.103  1.00  0.00     0.279 C 
ATOM     24  H   UNL A   1      30.627  30.371  23.225  1.00  0.00     0.170 HD
ATOM     25  O   UNL A   1      30.867  31.371  25.317  1.00  0.00    -0.268 OA
BRANCH  23  26
ATOM     26  C   UNL A   1      31.719  29.338  26.269  1.00  0.00     0.363 C 
BRANCH  26  27
ATOM     27  N   UNL A   1      33.015  29.819  26.747  1.00  0.00    -0.327 N 
ATOM     28  C   UNL A   1      32.972  30.986  27.620  1.00  0.00     0.262 C 
ATOM     29  C   UNL A   1      33.904  28.782  27.254  1.00  0.00     0.262 C 
ATOM     30  H   UNL A   1      33.440  30.155  25.883  1.00  0.00     0.348 HD
ATOM     31  C   UNL A   1      34.358  31.639  27.586  1.00  0.00     0.062 C 
ATOM     32  C   UNL A   1      35.332  29.328  27.255  1.00  0.00     0.062 C 
ATOM     33  C   UNL A   1      35.443  30.654  28.010  1.00  0.00     0.012 C 
ENDBRANCH  26  27
ENDBRANCH  23  26
ENDBRANCH  21  22
ENDBRANCH  14  16
ENDBRANCH  11  12
ENDBRANCH   5   7
ENDBRANCH   4   5
ENDBRANCH   3   4
ENDBRANCH   2   3
ENDBRANCH   1   2
BRANCH   1  34
ATOM     34  C   UNL A   1      38.472  19.775  25.001  1.00  0.00     0.188 C 
BRANCH  34  35
ATOM     35  C   UNL A   1      39.815  19.964  25.741  1.00  0.00     0.188 C 
BRANCH  35  36
ATOM     36  O   UNL A   1      40.432  18.761  26.129  1.00  0.00    -0.376 OA
BRANCH  36  37
ATOM     37  C   UNL A   1      41.842  18.733  26.254  1.00  0.00     0.202 C 
BRANCH  37  38
ATOM     38  C   UNL A   1      42.794  19.713  25.529  1.00  0.00     0.261 C 
BRANCH  38  39
ATOM     39  O   UNL A   1      44.120  19.277  25.197  1.00  0.00    -0.460 OA
BRANCH  39  40
ATOM     40  C   UNL A   1      44.717  19.857  24.129  1.00  0.00     0.338 C 
ATOM     41  O   UNL A   1      44.745  19.433  22.987  1.00  0.00    -0.246 OA
BRANCH  40  42
ATOM     42  C   UNL A   1      45.154  21.222  24.509  1.00  0.00     0.060 A 
ATOM     43  C   UNL A   1      45.665  21.428  25.800  1.00  0.00     0.016 A 
ATOM     44  C   UNL A   1      45.081  22.285  23.607  1.00  0.00     0.016 A 
ATOM     45  C   UNL A   1      46.066  22.704  26.204  1.00  0.00     0.010 A 
ATOM     46  C   UNL A   1      45.451  23.570  24.024  1.00  0.00     0.010 A 
ATOM     47  C   UNL A   1      45.908  23.793  25.337  1.00  0.00    -0.014 A 
BRANCH  47  48
ATOM     48  C   UNL A   1      45.983  25.174  25.882  1.00  0.00     0.031 A 
ATOM     49  C   UNL A   1      47.317  25.871  25.857  1.00  0.00     0.074 A 
ATOM     50  C   UNL A   1      44.899  25.818  26.351  1.00  0.00     0.049 A 
ATOM     51  N   UNL A   1      47.649  27.061  26.289  1.00  0.00    -0.248 NA
ATOM     52  C   UNL A   1      48.432  25.116  25.262  1.00  0.00     0.031 C 
ATOM     53  C   UNL A   1      43.544  25.280  26.392  1.00  0.00     0.029 A 
ATOM     54  N   UNL A   1      44.780  27.077  26.892  1.00  0.00    -0.354 N 
ATOM     55  C   UNL A   1      49.007  27.192  26.023  1.00  0.00     0.074 A 
ATOM     56  C   UNL A   1      49.446  25.951  25.425  1.00  0.00     0.031 C 
ATOM     57  C   UNL A   1      42.727  26.197  26.942  1.00  0.00     0.029 A 
ATOM     58  C   UNL A   1      43.508  27.375  27.318  1.00  0.00     0.049 A 
ATOM     59  H   UNL A   1      45.535  27.704  26.968  1.00  0.00     0.167 HD
ATOM     60  C   UNL A   1      49.815  28.255  26.248  1.00  0.00     0.037 A 
ATOM     61  C   UNL A   1      43.039  28.467  27.955  1.00  0.00     0.037 A 
ATOM     62  C   UNL A   1      49.383  29.489  26.848  1.00  0.00     0.049 A 
ATOM     63  C   UNL A   1      43.976  29.611  28.265  1.00  0.00     0.074 A 
ATOM     64  C   UNL A   1      50.125  30.629  27.106  1.00  0.00     0.029 A 
ATOM     65  N   UNL A   1      48.094  29.740  27.294  1.00  0.00    -0.354 N 
ATOM     66  N   UNL A   1      45.251  29.739  27.985  1.00  0.00    -0.248 NA
ATOM     67  C   UNL A   1      43.404  30.764  28.974  1.00  0.00     0.031 C 
ATOM     68  C   UNL A   1      49.300  31.547  27.763  1.00  0.00     0.029 A 
ATOM     69  C   UNL A   1      48.026  31.008  27.850  1.00  0.00     0.049 A 
ATOM     70  H   UNL A   1      47.339  29.112  27.227  1.00  0.00     0.167 HD
ATOM     71  C   UNL A   1      45.621  30.998  28.447  1.00  0.00     0.074 A 
ATOM     72  C   UNL A   1      44.433  31.598  29.016  1.00  0.00     0.031 C 
ATOM     73  C   UNL A   1      46.834  31.603  28.400  1.00  0.00     0.037 A 
BRANCH  60  74
ATOM     74  C   UNL A   1      51.262  28.115  25.870  1.00  0.00     0.064 A 
ATOM     75  C   UNL A   1      51.725  28.432  24.584  1.00  0.00     0.173 A 
ATOM     76  C   UNL A   1      52.203  27.685  26.818  1.00  0.00     0.173 A 
ATOM     77  F   UNL A   1      50.865  28.832  23.635  1.00  0.00    -0.203 F 
ATOM     78  C   UNL A   1      53.071  28.294  24.252  1.00  0.00     0.198 A 
ATOM     79  C   UNL A   1      53.553  27.582  26.493  1.00  0.00     0.198 A 
ATOM     80  F   UNL A   1      51.815  27.373  28.063  1.00  0.00    -0.203 F 
ATOM     81  F   UNL A   1      53.481  28.551  23.003  1.00  0.00    -0.200 F 
ATOM     82  C   UNL A   1      53.984  27.878  25.210  1.00  0.00     0.200 A 
ATOM     83  F   UNL A   1      54.436  27.194  27.423  1.00  0.00    -0.200 F 
ATOM     84  F   UNL A   1      55.280  27.756  24.892  1.00  0.00    -0.200 F 
ENDBRANCH  60  74
BRANCH  61  85
ATOM     85  C   UNL A   1      41.607  28.539  28.357  1.00  0.00     0.064 A 
ATOM     86  C   UNL A   1      41.193  28.152  29.640  1.00  0.00     0.173 A 
ATOM     87  C   UNL A   1      40.619  28.959  27.454  1.00  0.00     0.173 A 
ATOM     88  F   UNL A   1      42.094  27.712  30.530  1.00  0.00    -0.203 F 
ATOM     89  C   UNL A   1      39.845  28.165  29.997  1.00  0.00     0.198 A 
ATOM     90  C   UNL A   1      39.275  29.001  27.823  1.00  0.00     0.198 A 
ATOM     91  F   UNL A   1      40.958  29.329  26.210  1.00  0.00    -0.203 F 
ATOM     92  F   UNL A   1      39.473  27.737  31.212  1.00  0.00    -0.200 F 
ATOM     93  C   UNL A   1      38.888  28.595  29.091  1.00  0.00     0.200 A 
ATOM     94  F   UNL A   1      38.354  29.425  26.946  1.00  0.00    -0.200 F 
ATOM     95  F   UNL A   1      37.594  28.607  29.435  1.00  0.00    -0.200 F 
ENDBRANCH  61  85
BRANCH  73  96
ATOM     96  C   UNL A   1      46.933  33.008  28.925  1.00  0.00     0.064 A 
ATOM     97  C   UNL A   1      46.706  34.127  28.108  1.00  0.00     0.173 A 
ATOM     98  C   UNL A   1      47.220  33.237  30.280  1.00  0.00     0.173 A 
ATOM     99  F   UNL A   1      46.439  33.967  26.804  1.00  0.00    -0.203 F 
ATOM    100  C   UNL A   1      46.796  35.419  28.621  1.00  0.00     0.198 A 
ATOM    101  C   UNL A   1      47.273  34.529  30.798  1.00  0.00     0.198 A 
ATOM    102  F   UNL A   1      47.433  32.204  31.110  1.00  0.00    -0.203 F 
ATOM    103  F   UNL A   1      46.630  36.473  27.809  1.00  0.00    -0.200 F 
ATOM    104  C   UNL A   1      47.071  35.619  29.965  1.00  0.00     0.200 A 
ATOM    105  F   UNL A   1      47.519  34.718  32.102  1.00  0.00    -0.200 F 
ATOM    106  F   UNL A   1      47.150  36.862  30.459  1.00  0.00    -0.200 F 
ENDBRANCH  73  96
ENDBRANCH  47  48
ENDBRANCH  40  42
ENDBRANCH  39  40
ENDBRANCH  38  39
ENDBRANCH  37  38
ENDBRANCH  36  37
ENDBRANCH  35  36
ENDBRANCH  34  35
ENDBRANCH   1  34
TORSDOF 22
ENDMDL
MODEL 2
REMARK VINA RESULT:      -9.8      3.253      8.158
REMARK SMILES CC1(C)[C@H](C(=O)Nc2ccc(NC(=O)C[NH+]3CCCCC3)cc2)[C@@H]1C(=O)OCCOCCOCCOC(=O)c1ccc(-c2c3nc(c(-c4c(F)c(F)c(F)c(F)c4F)c4ccc([nH]4)c(-c4c(F)c(F)c(F)c(F)c4F)c4nc(c(-c5c(F)c(F)c(F)c(F)c5F)c5ccc2[nH]5)C=C4)C=C3)cc1
REMARK SMILES IDX 30 1 29 2 28 3 27 4 25 5 26 6 24 7 1 8 2 9 3 10 4 11 5 12
REMARK SMILES IDX 6 13 7 14 8 16 9 17 23 18 10 19 22 20 11 21 12 22 13 23
REMARK SMILES IDX 14 25 15 26 16 27 17 28 21 29 18 31 20 32 19 33 31 34 32 35
REMARK SMILES IDX 33 36 34 37 35 38 36 39 37 40 38 41 39 42 40 43 101 44 41 45
REMARK SMILES IDX 100 46 42 47 43 48 44 49 94 50 45 51 99 52 93 53 95 54 46 55
REMARK SMILES IDX 98 56 92 57 91 58 47 60 79 61 59 62 78 63 60 64 63 65 77 66
REMARK SMILES IDX 96 67 61 68 62 69 76 71 97 72 64 73 48 74 49 75 57 76 50 77
REMARK SMILES IDX 51 78 55 79 58 80 52 81 53 82 56 83 54 84 80 85 81 86 89 87
REMARK SMILES IDX 82 88 83 89 87 90 90 91 84 92 85 93 88 94 86 95 65 96 66 97
REMARK SMILES IDX 74 98 67 99 68 100 72 101 75 102 69 103 70 104 73 105 71 106
REMARK H PARENT 7 15 12 24 16 30 95 59 63 70
REMARK Flexibility Score: inf
ROOT
ATOM      1  O   UNL A   1      38.425  24.083  26.222  1.00  0.00    -0.376 OA
ENDROOT
BRANCH   1   2
ATOM      2  C   UNL A   1      38.145  22.704  26.055  1.00  0.00     0.202 C 
BRANCH   2   3
ATOM      3  C   UNL A   1      37.133  22.265  24.995  1.00  0.00     0.261 C 
BRANCH   3   4
ATOM      4  O   UNL A   1      36.030  23.136  24.673  1.00  0.00    -0.463 OA
BRANCH   4   5
ATOM      5  C   UNL A   1      35.119  22.644  23.783  1.00  0.00     0.310 C 
ATOM      6  O   UNL A   1      35.079  22.929  22.586  1.00  0.00    -0.252 OA
BRANCH   5   7
ATOM      7  C   UNL A   1      34.360  21.501  24.332  1.00  0.00     0.118 C 
ATOM      8  C   UNL A   1      32.575  19.692  23.783  1.00  0.00     0.013 C 
ATOM      9  C   UNL A   1      32.901  21.157  24.009  1.00  0.00    -0.009 C 
ATOM     10  C   UNL A   1      32.064  22.033  23.123  1.00  0.00     0.013 C 
ATOM     11  C   UNL A   1      33.339  21.525  25.423  1.00  0.00     0.100 C 
BRANCH  11  12
ATOM     12  C   UNL A   1      32.884  22.612  26.342  1.00  0.00     0.228 C 
ATOM     13  O   UNL A   1      32.866  22.334  27.543  1.00  0.00    -0.274 OA
ATOM     14  N   UNL A   1      32.840  23.940  26.008  1.00  0.00    -0.326 N 
ATOM     15  H   UNL A   1      33.291  24.541  26.644  1.00  0.00     0.169 HD
BRANCH  14  16
ATOM     16  C   UNL A   1      32.262  24.575  24.916  1.00  0.00     0.041 A 
ATOM     17  C   UNL A   1      30.888  24.688  24.904  1.00  0.00     0.028 A 
ATOM     18  C   UNL A   1      32.995  25.116  23.872  1.00  0.00     0.028 A 
ATOM     19  C   UNL A   1      30.300  25.601  24.030  1.00  0.00     0.028 A 
ATOM     20  C   UNL A   1      32.384  25.991  22.960  1.00  0.00     0.028 A 
ATOM     21  C   UNL A   1      31.032  26.310  23.084  1.00  0.00     0.041 A 
BRANCH  21  22
ATOM     22  N   UNL A   1      30.544  27.397  22.333  1.00  0.00    -0.321 N 
ATOM     23  C   UNL A   1      30.362  28.731  22.586  1.00  0.00     0.279 C 
ATOM     24  H   UNL A   1      30.271  27.139  21.422  1.00  0.00     0.170 HD
ATOM     25  O   UNL A   1      30.086  29.455  21.619  1.00  0.00    -0.268 OA
BRANCH  23  26
ATOM     26  C   UNL A   1      30.485  29.356  23.984  1.00  0.00     0.363 C 
BRANCH  26  27
ATOM     27  N   UNL A   1      31.652  28.827  24.689  1.00  0.00    -0.327 N 
ATOM     28  C   UNL A   1      32.931  29.433  24.338  1.00  0.00     0.262 C 
ATOM     29  C   UNL A   1      31.485  28.684  26.130  1.00  0.00     0.262 C 
ATOM     30  H   UNL A   1      31.703  27.878  24.318  1.00  0.00     0.348 HD
ATOM     31  C   UNL A   1      34.034  28.450  24.743  1.00  0.00     0.062 C 
ATOM     32  C   UNL A   1      32.542  27.708  26.644  1.00  0.00     0.062 C 
ATOM     33  C   UNL A   1      33.957  28.114  26.229  1.00  0.00     0.012 C 
ENDBRANCH  26  27
ENDBRANCH  23  26
ENDBRANCH  21  22
ENDBRANCH  14  16
ENDBRANCH  11  12
ENDBRANCH   5   7
ENDBRANCH   4   5
ENDBRANCH   3   4
ENDBRANCH   2   3
ENDBRANCH   1   2
BRANCH   1  34
ATOM     34  C   UNL A   1      39.196  24.486  27.343  1.00  0.00     0.188 C 
BRANCH  34  35
ATOM     35  C   UNL A   1      40.356  25.483  27.138  1.00  0.00     0.188 C 
BRANCH  35  36
ATOM     36  O   UNL A   1      41.279  25.096  26.149  1.00  0.00    -0.376 OA
BRANCH  36  37
ATOM     37  C   UNL A   1      42.567  24.669  26.555  1.00  0.00     0.202 C 
BRANCH  37  38
ATOM     38  C   UNL A   1      43.054  23.202  26.484  1.00  0.00     0.261 C 
BRANCH  38  39
ATOM     39  O   UNL A   1      44.226  22.822  27.218  1.00  0.00    -0.460 OA
BRANCH  39  40
ATOM     40  C   UNL A   1      45.407  22.836  26.557  1.00  0.00     0.338 C 
ATOM     41  O   UNL A   1      45.894  21.926  25.910  1.00  0.00    -0.246 OA
BRANCH  40  42
ATOM     42  C   UNL A   1      45.933  24.223  26.549  1.00  0.00     0.060 A 
ATOM     43  C   UNL A   1      45.991  24.912  25.328  1.00  0.00     0.016 A 
ATOM     44  C   UNL A   1      46.348  24.848  27.727  1.00  0.00     0.016 A 
ATOM     45  C   UNL A   1      46.501  26.211  25.275  1.00  0.00     0.010 A 
ATOM     46  C   UNL A   1      46.891  26.138  27.668  1.00  0.00     0.010 A 
ATOM     47  C   UNL A   1      47.006  26.811  26.436  1.00  0.00    -0.014 A 
BRANCH  47  48
ATOM     48  C   UNL A   1      47.869  28.016  26.317  1.00  0.00     0.031 A 
ATOM     49  C   UNL A   1      47.235  29.363  26.547  1.00  0.00     0.074 A 
ATOM     50  C   UNL A   1      49.185  27.931  26.052  1.00  0.00     0.049 A 
ATOM     51  N   UNL A   1      47.762  30.559  26.481  1.00  0.00    -0.248 NA
ATOM     52  C   UNL A   1      45.806  29.354  26.900  1.00  0.00     0.031 C 
ATOM     53  C   UNL A   1      49.933  26.695  25.853  1.00  0.00     0.029 A 
ATOM     54  N   UNL A   1      50.125  28.923  25.901  1.00  0.00    -0.354 N 
ATOM     55  C   UNL A   1      46.730  31.441  26.777  1.00  0.00     0.074 A 
ATOM     56  C   UNL A   1      45.539  30.647  26.989  1.00  0.00     0.031 C 
ATOM     57  C   UNL A   1      51.217  26.999  25.591  1.00  0.00     0.029 A 
ATOM     58  C   UNL A   1      51.375  28.453  25.576  1.00  0.00     0.049 A 
ATOM     59  H   UNL A   1      49.922  29.880  26.013  1.00  0.00     0.167 HD
ATOM     60  C   UNL A   1      46.771  32.790  26.874  1.00  0.00     0.037 A 
ATOM     61  C   UNL A   1      52.507  29.124  25.283  1.00  0.00     0.037 A 
ATOM     62  C   UNL A   1      47.952  33.583  26.657  1.00  0.00     0.049 A 
ATOM     63  C   UNL A   1      52.511  30.634  25.322  1.00  0.00     0.074 A 
ATOM     64  C   UNL A   1      48.097  34.957  26.745  1.00  0.00     0.029 A 
ATOM     65  N   UNL A   1      49.191  33.071  26.300  1.00  0.00    -0.354 N 
ATOM     66  N   UNL A   1      51.540  31.460  25.631  1.00  0.00    -0.248 NA
ATOM     67  C   UNL A   1      53.773  31.304  24.978  1.00  0.00     0.031 C 
ATOM     68  C   UNL A   1      49.408  35.281  26.380  1.00  0.00     0.029 A 
ATOM     69  C   UNL A   1      50.099  34.105  26.137  1.00  0.00     0.049 A 
ATOM     70  H   UNL A   1      49.394  32.116  26.180  1.00  0.00     0.167 HD
ATOM     71  C   UNL A   1      52.082  32.738  25.556  1.00  0.00     0.074 A 
ATOM     72  C   UNL A   1      53.472  32.578  25.183  1.00  0.00     0.031 C 
ATOM     73  C   UNL A   1      51.485  33.935  25.780  1.00  0.00     0.037 A 
BRANCH  60  74
ATOM     74  C   UNL A   1      45.487  33.500  27.199  1.00  0.00     0.064 A 
ATOM     75  C   UNL A   1      45.112  33.781  28.521  1.00  0.00     0.173 A 
ATOM     76  C   UNL A   1      44.635  33.928  26.169  1.00  0.00     0.173 A 
ATOM     77  F   UNL A   1      45.882  33.380  29.543  1.00  0.00    -0.203 F 
ATOM     78  C   UNL A   1      43.916  34.439  28.802  1.00  0.00     0.198 A 
ATOM     79  C   UNL A   1      43.458  34.616  26.453  1.00  0.00     0.198 A 
ATOM     80  F   UNL A   1      44.948  33.687  24.888  1.00  0.00    -0.203 F 
ATOM     81  F   UNL A   1      43.552  34.650  30.074  1.00  0.00    -0.200 F 
ATOM     82  C   UNL A   1      43.096  34.863  27.767  1.00  0.00     0.200 A 
ATOM     83  F   UNL A   1      42.674  35.038  25.451  1.00  0.00    -0.200 F 
ATOM     84  F   UNL A   1      41.950  35.505  28.039  1.00  0.00    -0.200 F 
ENDBRANCH  60  74
BRANCH  61  85
ATOM     85  C   UNL A   1      53.743  28.379  24.916  1.00  0.00     0.064 A 
ATOM     86  C   UNL A   1      54.686  28.014  25.886  1.00  0.00     0.173 A 
ATOM     87  C   UNL A   1      54.024  28.052  23.580  1.00  0.00     0.173 A 
ATOM     88  F   UNL A   1      54.481  28.332  27.173  1.00  0.00    -0.203 F 
ATOM     89  C   UNL A   1      55.870  27.367  25.534  1.00  0.00     0.198 A 
ATOM     90  C   UNL A   1      55.194  27.377  23.234  1.00  0.00     0.198 A 
ATOM     91  F   UNL A   1      53.161  28.387  22.610  1.00  0.00    -0.203 F 
ATOM     92  F   UNL A   1      56.779  27.080  26.477  1.00  0.00    -0.200 F 
ATOM     93  C   UNL A   1      56.120  27.044  24.210  1.00  0.00     0.200 A 
ATOM     94  F   UNL A   1      55.427  27.059  21.953  1.00  0.00    -0.200 F 
ATOM     95  F   UNL A   1      57.258  26.423  23.873  1.00  0.00    -0.200 F 
ENDBRANCH  61  85
BRANCH  73  96
ATOM     96  C   UNL A   1      52.339  35.169  25.688  1.00  0.00     0.064 A 
ATOM     97  C   UNL A   1      53.009  35.698  26.802  1.00  0.00     0.173 A 
ATOM     98  C   UNL A   1      52.523  35.808  24.451  1.00  0.00     0.173 A 
ATOM     99  F   UNL A   1      52.860  35.133  28.009  1.00  0.00    -0.203 F 
ATOM    100  C   UNL A   1      53.801  36.838  26.687  1.00  0.00     0.198 A 
ATOM    101  C   UNL A   1      53.344  36.926  24.333  1.00  0.00     0.198 A 
ATOM    102  F   UNL A   1      51.917  35.339  23.350  1.00  0.00    -0.203 F 
ATOM    103  F   UNL A   1      54.386  37.357  27.776  1.00  0.00    -0.200 F 
ATOM    104  C   UNL A   1      53.974  37.446  25.453  1.00  0.00     0.200 A 
ATOM    105  F   UNL A   1      53.526  37.500  23.136  1.00  0.00    -0.200 F 
ATOM    106  F   UNL A   1      54.743  38.539  25.344  1.00  0.00    -0.200 F 
ENDBRANCH  73  96
ENDBRANCH  47  48
ENDBRANCH  40  42
ENDBRANCH  39  40
ENDBRANCH  38  39
ENDBRANCH  37  38
ENDBRANCH  36  37
ENDBRANCH  35  36
ENDBRANCH  34  35
ENDBRANCH   1  34
TORSDOF 22
ENDMDL
MODEL 3
REMARK VINA RESULT:      -9.4      6.778      9.159
REMARK SMILES CC1(C)[C@H](C(=O)Nc2ccc(NC(=O)C[NH+]3CCCCC3)cc2)[C@@H]1C(=O)OCCOCCOCCOC(=O)c1ccc(-c2c3nc(c(-c4c(F)c(F)c(F)c(F)c4F)c4ccc([nH]4)c(-c4c(F)c(F)c(F)c(F)c4F)c4nc(c(-c5c(F)c(F)c(F)c(F)c5F)c5ccc2[nH]5)C=C4)C=C3)cc1
REMARK SMILES IDX 30 1 29 2 28 3 27 4 25 5 26 6 24 7 1 8 2 9 3 10 4 11 5 12
REMARK SMILES IDX 6 13 7 14 8 16 9 17 23 18 10 19 22 20 11 21 12 22 13 23
REMARK SMILES IDX 14 25 15 26 16 27 17 28 21 29 18 31 20 32 19 33 31 34 32 35
REMARK SMILES IDX 33 36 34 37 35 38 36 39 37 40 38 41 39 42 40 43 101 44 41 45
REMARK SMILES IDX 100 46 42 47 43 48 44 49 94 50 45 51 99 52 93 53 95 54 46 55
REMARK SMILES IDX 98 56 92 57 91 58 47 60 79 61 59 62 78 63 60 64 63 65 77 66
REMARK SMILES IDX 96 67 61 68 62 69 76 71 97 72 64 73 48 74 49 75 57 76 50 77
REMARK SMILES IDX 51 78 55 79 58 80 52 81 53 82 56 83 54 84 80 85 81 86 89 87
REMARK SMILES IDX 82 88 83 89 87 90 90 91 84 92 85 93 88 94 86 95 65 96 66 97
REMARK SMILES IDX 74 98 67 99 68 100 72 101 75 102 69 103 70 104 73 105 71 106
REMARK H PARENT 7 15 12 24 16 30 95 59 63 70
REMARK Flexibility Score: inf
ROOT
ATOM      1  O   UNL A   1      37.849  22.194  25.327  1.00  0.00    -0.376 OA
ENDROOT
BRANCH   1   2
ATOM      2  C   UNL A   1      36.909  23.189  25.694  1.00  0.00     0.202 C 
BRANCH   2   3
ATOM      3  C   UNL A   1      35.505  22.771  26.135  1.00  0.00     0.261 C 
BRANCH   3   4
ATOM      4  O   UNL A   1      34.528  23.789  26.427  1.00  0.00    -0.463 OA
BRANCH   4   5
ATOM      5  C   UNL A   1      33.224  23.451  26.202  1.00  0.00     0.310 C 
ATOM      6  O   UNL A   1      32.815  22.303  26.030  1.00  0.00    -0.252 OA
BRANCH   5   7
ATOM      7  C   UNL A   1      32.299  24.569  26.478  1.00  0.00     0.118 C 
ATOM      8  C   UNL A   1      29.875  25.443  26.123  1.00  0.00     0.013 C 
ATOM      9  C   UNL A   1      31.226  25.102  25.520  1.00  0.00    -0.009 C 
ATOM     10  C   UNL A   1      31.067  24.550  24.133  1.00  0.00     0.013 C 
ATOM     11  C   UNL A   1      32.392  25.974  25.974  1.00  0.00     0.100 C 
BRANCH  11  12
ATOM     12  C   UNL A   1      33.448  26.688  25.195  1.00  0.00     0.228 C 
ATOM     13  O   UNL A   1      34.013  26.029  24.318  1.00  0.00    -0.274 OA
ATOM     14  N   UNL A   1      33.576  28.050  25.132  1.00  0.00    -0.326 N 
ATOM     15  H   UNL A   1      33.633  28.417  24.220  1.00  0.00     0.169 HD
BRANCH  14  16
ATOM     16  C   UNL A   1      33.637  28.997  26.145  1.00  0.00     0.041 A 
ATOM     17  C   UNL A   1      34.809  29.075  26.868  1.00  0.00     0.028 A 
ATOM     18  C   UNL A   1      32.602  29.871  26.437  1.00  0.00     0.028 A 
ATOM     19  C   UNL A   1      35.044  30.211  27.641  1.00  0.00     0.028 A 
ATOM     20  C   UNL A   1      32.829  30.983  27.263  1.00  0.00     0.028 A 
ATOM     21  C   UNL A   1      34.092  31.210  27.811  1.00  0.00     0.041 A 
BRANCH  21  22
ATOM     22  N   UNL A   1      34.339  32.473  28.385  1.00  0.00    -0.321 N 
ATOM     23  C   UNL A   1      34.875  32.896  29.573  1.00  0.00     0.279 C 
ATOM     24  H   UNL A   1      34.065  33.217  27.801  1.00  0.00     0.170 HD
ATOM     25  O   UNL A   1      35.127  34.104  29.677  1.00  0.00    -0.268 OA
BRANCH  23  26
ATOM     26  C   UNL A   1      35.170  31.959  30.754  1.00  0.00     0.363 C 
BRANCH  26  27
ATOM     27  N   UNL A   1      36.529  31.427  30.669  1.00  0.00    -0.327 N 
ATOM     28  C   UNL A   1      37.548  32.178  31.393  1.00  0.00     0.262 C 
ATOM     29  C   UNL A   1      36.640  29.991  30.888  1.00  0.00     0.262 C 
ATOM     30  H   UNL A   1      36.747  31.577  29.683  1.00  0.00     0.348 HD
ATOM     31  C   UNL A   1      38.908  31.815  30.787  1.00  0.00     0.062 C 
ATOM     32  C   UNL A   1      37.972  29.515  30.308  1.00  0.00     0.062 C 
ATOM     33  C   UNL A   1      39.159  30.312  30.852  1.00  0.00     0.012 C 
ENDBRANCH  26  27
ENDBRANCH  23  26
ENDBRANCH  21  22
ENDBRANCH  14  16
ENDBRANCH  11  12
ENDBRANCH   5   7
ENDBRANCH   4   5
ENDBRANCH   3   4
ENDBRANCH   2   3
ENDBRANCH   1   2
BRANCH   1  34
ATOM     34  C   UNL A   1      39.006  22.028  26.131  1.00  0.00     0.188 C 
BRANCH  34  35
ATOM     35  C   UNL A   1      39.656  23.270  26.778  1.00  0.00     0.188 C 
BRANCH  35  36
ATOM     36  O   UNL A   1      41.055  23.326  26.638  1.00  0.00    -0.376 OA
BRANCH  36  37
ATOM     37  C   UNL A   1      41.671  24.594  26.499  1.00  0.00     0.202 C 
BRANCH  37  38
ATOM     38  C   UNL A   1      40.944  25.856  25.979  1.00  0.00     0.261 C 
BRANCH  38  39
ATOM     39  O   UNL A   1      41.661  27.097  25.922  1.00  0.00    -0.460 OA
BRANCH  39  40
ATOM     40  C   UNL A   1      41.247  28.094  26.741  1.00  0.00     0.338 C 
ATOM     41  O   UNL A   1      40.393  28.930  26.502  1.00  0.00    -0.246 OA
BRANCH  40  42
ATOM     42  C   UNL A   1      41.837  27.883  28.085  1.00  0.00     0.060 A 
ATOM     43  C   UNL A   1      40.983  27.562  29.151  1.00  0.00     0.016 A 
ATOM     44  C   UNL A   1      43.214  27.982  28.296  1.00  0.00     0.016 A 
ATOM     45  C   UNL A   1      41.497  27.378  30.436  1.00  0.00     0.010 A 
ATOM     46  C   UNL A   1      43.725  27.832  29.591  1.00  0.00     0.010 A 
ATOM     47  C   UNL A   1      42.865  27.568  30.675  1.00  0.00    -0.014 A 
BRANCH  47  48
ATOM     48  C   UNL A   1      43.344  27.736  32.072  1.00  0.00     0.031 A 
ATOM     49  C   UNL A   1      44.012  26.561  32.736  1.00  0.00     0.074 A 
ATOM     50  C   UNL A   1      43.232  28.903  32.732  1.00  0.00     0.049 A 
ATOM     51  N   UNL A   1      44.495  26.445  33.947  1.00  0.00    -0.248 NA
ATOM     52  C   UNL A   1      44.153  25.347  31.914  1.00  0.00     0.031 C 
ATOM     53  C   UNL A   1      42.650  30.129  32.195  1.00  0.00     0.029 A 
ATOM     54  N   UNL A   1      43.607  29.239  34.012  1.00  0.00    -0.354 N 
ATOM     55  C   UNL A   1      44.987  25.149  34.032  1.00  0.00     0.074 A 
ATOM     56  C   UNL A   1      44.716  24.505  32.765  1.00  0.00     0.031 C 
ATOM     57  C   UNL A   1      42.693  31.083  33.143  1.00  0.00     0.029 A 
ATOM     58  C   UNL A   1      43.279  30.526  34.362  1.00  0.00     0.049 A 
ATOM     59  H   UNL A   1      44.065  28.614  34.620  1.00  0.00     0.167 HD
ATOM     60  C   UNL A   1      45.619  24.550  35.069  1.00  0.00     0.037 A 
ATOM     61  C   UNL A   1      43.420  31.170  35.539  1.00  0.00     0.037 A 
ATOM     62  C   UNL A   1      45.884  25.184  36.332  1.00  0.00     0.049 A 
ATOM     63  C   UNL A   1      44.059  30.455  36.707  1.00  0.00     0.074 A 
ATOM     64  C   UNL A   1      46.529  24.664  37.441  1.00  0.00     0.029 A 
ATOM     65  N   UNL A   1      45.508  26.479  36.659  1.00  0.00    -0.354 N 
ATOM     66  N   UNL A   1      44.548  29.241  36.772  1.00  0.00    -0.248 NA
ATOM     67  C   UNL A   1      44.169  31.209  37.965  1.00  0.00     0.031 C 
ATOM     68  C   UNL A   1      46.490  25.622  38.458  1.00  0.00     0.029 A 
ATOM     69  C   UNL A   1      45.885  26.765  37.962  1.00  0.00     0.049 A 
ATOM     70  H   UNL A   1      45.043  27.102  36.055  1.00  0.00     0.167 HD
ATOM     71  C   UNL A   1      45.057  29.099  38.059  1.00  0.00     0.074 A 
ATOM     72  C   UNL A   1      44.826  30.356  38.738  1.00  0.00     0.031 C 
ATOM     73  C   UNL A   1      45.665  28.026  38.624  1.00  0.00     0.037 A 
BRANCH  60  74
ATOM     74  C   UNL A   1      46.038  23.118  34.890  1.00  0.00     0.064 A 
ATOM     75  C   UNL A   1      45.119  22.061  34.983  1.00  0.00     0.173 A 
ATOM     76  C   UNL A   1      47.372  22.803  34.592  1.00  0.00     0.173 A 
ATOM     77  F   UNL A   1      43.834  22.306  35.282  1.00  0.00    -0.203 F 
ATOM     78  C   UNL A   1      45.528  20.740  34.815  1.00  0.00     0.198 A 
ATOM     79  C   UNL A   1      47.770  21.484  34.391  1.00  0.00     0.198 A 
ATOM     80  F   UNL A   1      48.290  23.775  34.489  1.00  0.00    -0.203 F 
ATOM     81  F   UNL A   1      44.644  19.743  34.962  1.00  0.00    -0.200 F 
ATOM     82  C   UNL A   1      46.850  20.454  34.511  1.00  0.00     0.200 A 
ATOM     83  F   UNL A   1      49.045  21.210  34.082  1.00  0.00    -0.200 F 
ATOM     84  F   UNL A   1      47.240  19.183  34.340  1.00  0.00    -0.200 F 
ENDBRANCH  60  74
BRANCH  61  85
ATOM     85  C   UNL A   1      42.942  32.571  35.685  1.00  0.00     0.064 A 
ATOM     86  C   UNL A   1      41.625  32.852  36.075  1.00  0.00     0.173 A 
ATOM     87  C   UNL A   1      43.782  33.659  35.401  1.00  0.00     0.173 A 
ATOM     88  F   UNL A   1      40.772  31.848  36.327  1.00  0.00    -0.203 F 
ATOM     89  C   UNL A   1      41.161  34.164  36.156  1.00  0.00     0.198 A 
ATOM     90  C   UNL A   1      43.325  34.972  35.513  1.00  0.00     0.198 A 
ATOM     91  F   UNL A   1      45.048  33.448  35.013  1.00  0.00    -0.203 F 
ATOM     92  F   UNL A   1      39.881  34.401  36.478  1.00  0.00    -0.200 F 
ATOM     93  C   UNL A   1      42.012  35.223  35.881  1.00  0.00     0.200 A 
ATOM     94  F   UNL A   1      44.155  35.992  35.254  1.00  0.00    -0.200 F 
ATOM     95  F   UNL A   1      41.565  36.484  35.960  1.00  0.00    -0.200 F 
ENDBRANCH  61  85
BRANCH  73  96
ATOM     96  C   UNL A   1      46.178  28.176  40.029  1.00  0.00     0.064 A 
ATOM     97  C   UNL A   1      47.398  28.808  40.314  1.00  0.00     0.173 A 
ATOM     98  C   UNL A   1      45.413  27.714  41.113  1.00  0.00     0.173 A 
ATOM     99  F   UNL A   1      48.174  29.257  39.317  1.00  0.00    -0.203 F 
ATOM    100  C   UNL A   1      47.848  28.941  41.625  1.00  0.00     0.198 A 
ATOM    101  C   UNL A   1      45.848  27.882  42.425  1.00  0.00     0.198 A 
ATOM    102  F   UNL A   1      44.233  27.114  40.900  1.00  0.00    -0.203 F 
ATOM    103  F   UNL A   1      49.042  29.498  41.869  1.00  0.00    -0.200 F 
ATOM    104  C   UNL A   1      47.070  28.485  42.679  1.00  0.00     0.200 A 
ATOM    105  F   UNL A   1      45.085  27.458  43.442  1.00  0.00    -0.200 F 
ATOM    106  F   UNL A   1      47.501  28.622  43.941  1.00  0.00    -0.200 F 
ENDBRANCH  73  96
ENDBRANCH  47  48
ENDBRANCH  40  42
ENDBRANCH  39  40
ENDBRANCH  38  39
ENDBRANCH  37  38
ENDBRANCH  36  37
ENDBRANCH  35  36
ENDBRANCH  34  35
ENDBRANCH   1  34
TORSDOF 22
ENDMDL
