MODEL 1
REMARK VINA RESULT:      -9.9      0.000      0.000
REMARK SMILES COc1cc(Cl)cc(/C=C/C(=O)OCCOCCOCCOC(=O)c2ccc(-c3c4nc(c(-c5c(F)c(F)c(F)c(F)c5F)c5ccc([nH]5)c(-c5c(F)c(F)c(F)c(F)c5F)c5nc(c(-c6c(F)c(F)c(F)c(F)c6F)c6ccc3[nH]6)C=C5)C=C4)cc2)c1OC
REMARK SMILES IDX 17 1 16 2 15 3 14 4 13 5 11 6 12 7 10 8 9 9 8 10 3 11 4 12
REMARK SMILES IDX 88 13 5 14 6 15 7 16 2 17 1 18 89 19 90 20 18 21 19 22 20 23
REMARK SMILES IDX 21 24 22 25 23 26 24 27 25 28 26 29 87 30 27 31 86 32 28 33
REMARK SMILES IDX 29 34 30 35 80 36 31 37 85 38 79 39 81 40 32 41 84 42 78 43
REMARK SMILES IDX 77 44 33 46 65 47 45 48 64 49 46 50 49 51 63 52 82 53 47 54
REMARK SMILES IDX 48 55 62 57 83 58 50 59 34 60 35 61 43 62 36 63 37 64 41 65
REMARK SMILES IDX 44 66 38 67 39 68 42 69 40 70 66 71 67 72 75 73 68 74 69 75
REMARK SMILES IDX 73 76 76 77 70 78 71 79 74 80 72 81 51 82 52 83 60 84 53 85
REMARK SMILES IDX 54 86 58 87 61 88 55 89 56 90 59 91 57 92
REMARK H PARENT 81 45 49 56
REMARK Flexibility Score: inf
ROOT
ATOM      1  C   UNL A   1      33.167  28.883  25.035  1.00  0.00     0.188 C 
ENDROOT
BRANCH   1   2
ATOM      2  O   UNL A   1      33.602  29.205  23.717  1.00  0.00    -0.376 OA
BRANCH   2   3
ATOM      3  C   UNL A   1      32.731  28.973  22.615  1.00  0.00     0.202 C 
BRANCH   3   4
ATOM      4  C   UNL A   1      31.224  28.824  22.871  1.00  0.00     0.261 C 
BRANCH   4   5
ATOM      5  O   UNL A   1      30.630  27.647  22.300  1.00  0.00    -0.460 OA
BRANCH   5   6
ATOM      6  C   UNL A   1      30.198  26.724  23.194  1.00  0.00     0.330 C 
ATOM      7  O   UNL A   1      29.044  26.559  23.565  1.00  0.00    -0.247 OA
BRANCH   6   8
ATOM      8  C   UNL A   1      31.263  25.797  23.630  1.00  0.00     0.094 C 
ATOM      9  C   UNL A   1      31.470  24.543  23.196  1.00  0.00     0.019 C 
BRANCH   9  10
ATOM     10  C   UNL A   1      32.571  23.699  23.718  1.00  0.00     0.022 A 
ATOM     11  C   UNL A   1      33.429  21.974  25.222  1.00  0.00     0.162 A 
ATOM     12  C   UNL A   1      34.684  22.076  24.605  1.00  0.00     0.071 A 
ATOM     13  C   UNL A   1      32.362  22.792  24.787  1.00  0.00     0.168 A 
ATOM     14  C   UNL A   1      34.893  23.008  23.596  1.00  0.00     0.045 A 
ATOM     15  Cl  UNL A   1      36.443  23.135  22.859  1.00  0.00    -0.084 Cl
ATOM     16  C   UNL A   1      33.855  23.822  23.159  1.00  0.00     0.032 A 
BRANCH  11  17
ATOM     17  O   UNL A   1      33.199  21.006  26.169  1.00  0.00    -0.493 OA
ATOM     18  C   UNL A   1      33.714  21.290  27.469  1.00  0.00     0.278 C 
ENDBRANCH  11  17
BRANCH  13  19
ATOM     19  O   UNL A   1      31.080  22.786  25.283  1.00  0.00    -0.492 OA
ATOM     20  C   UNL A   1      30.751  23.665  26.349  1.00  0.00     0.278 C 
ENDBRANCH  13  19
ENDBRANCH   9  10
ENDBRANCH   6   8
ENDBRANCH   5   6
ENDBRANCH   4   5
ENDBRANCH   3   4
ENDBRANCH   2   3
ENDBRANCH   1   2
BRANCH   1  21
ATOM     21  C   UNL A   1      32.939  30.010  26.065  1.00  0.00     0.188 C 
BRANCH  21  22
ATOM     22  O   UNL A   1      31.766  30.755  25.839  1.00  0.00    -0.376 OA
BRANCH  22  23
ATOM     23  C   UNL A   1      31.398  31.771  26.755  1.00  0.00     0.202 C 
BRANCH  23  24
ATOM     24  C   UNL A   1      32.167  33.100  26.883  1.00  0.00     0.261 C 
BRANCH  24  25
ATOM     25  O   UNL A   1      32.842  33.363  28.119  1.00  0.00    -0.460 OA
BRANCH  25  26
ATOM     26  C   UNL A   1      33.964  34.113  28.053  1.00  0.00     0.338 C 
ATOM     27  O   UNL A   1      34.051  35.299  27.798  1.00  0.00    -0.246 OA
BRANCH  26  28
ATOM     28  C   UNL A   1      35.095  33.274  28.497  1.00  0.00     0.060 A 
ATOM     29  C   UNL A   1      34.831  31.986  28.978  1.00  0.00     0.016 A 
ATOM     30  C   UNL A   1      36.402  33.764  28.457  1.00  0.00     0.016 A 
ATOM     31  C   UNL A   1      35.878  31.191  29.447  1.00  0.00     0.010 A 
ATOM     32  C   UNL A   1      37.447  32.973  28.943  1.00  0.00     0.010 A 
ATOM     33  C   UNL A   1      37.186  31.694  29.463  1.00  0.00    -0.014 A 
BRANCH  33  34
ATOM     34  C   UNL A   1      38.257  30.950  30.170  1.00  0.00     0.031 A 
ATOM     35  C   UNL A   1      38.515  31.260  31.618  1.00  0.00     0.074 A 
ATOM     36  C   UNL A   1      38.987  30.014  29.540  1.00  0.00     0.049 A 
ATOM     37  N   UNL A   1      39.427  30.780  32.424  1.00  0.00    -0.248 NA
ATOM     38  C   UNL A   1      37.622  32.251  32.241  1.00  0.00     0.031 C 
ATOM     39  C   UNL A   1      38.811  29.600  28.150  1.00  0.00     0.029 A 
ATOM     40  N   UNL A   1      40.034  29.249  29.991  1.00  0.00    -0.354 N 
ATOM     41  C   UNL A   1      39.222  31.411  33.643  1.00  0.00     0.074 A 
ATOM     42  C   UNL A   1      38.117  32.328  33.466  1.00  0.00     0.031 C 
ATOM     43  C   UNL A   1      39.730  28.664  27.855  1.00  0.00     0.029 A 
ATOM     44  C   UNL A   1      40.577  28.437  29.026  1.00  0.00     0.049 A 
ATOM     45  H   UNL A   1      40.364  29.280  30.918  1.00  0.00     0.167 HD
ATOM     46  C   UNL A   1      39.893  31.238  34.806  1.00  0.00     0.037 A 
ATOM     47  C   UNL A   1      41.650  27.624  29.080  1.00  0.00     0.037 A 
ATOM     48  C   UNL A   1      40.995  30.328  34.979  1.00  0.00     0.049 A 
ATOM     49  C   UNL A   1      42.425  27.501  30.368  1.00  0.00     0.074 A 
ATOM     50  C   UNL A   1      41.723  30.063  36.126  1.00  0.00     0.029 A 
ATOM     51  N   UNL A   1      41.534  29.543  33.972  1.00  0.00    -0.354 N 
ATOM     52  N   UNL A   1      42.205  28.075  31.525  1.00  0.00    -0.248 NA
ATOM     53  C   UNL A   1      43.597  26.614  30.354  1.00  0.00     0.031 C 
ATOM     54  C   UNL A   1      42.737  29.156  35.800  1.00  0.00     0.029 A 
ATOM     55  C   UNL A   1      42.605  28.813  34.464  1.00  0.00     0.049 A 
ATOM     56  H   UNL A   1      41.205  29.508  33.045  1.00  0.00     0.167 HD
ATOM     57  C   UNL A   1      43.189  27.598  32.383  1.00  0.00     0.074 A 
ATOM     58  C   UNL A   1      44.002  26.679  31.615  1.00  0.00     0.031 C 
ATOM     59  C   UNL A   1      43.399  27.893  33.690  1.00  0.00     0.037 A 
BRANCH  46  60
ATOM     60  C   UNL A   1      39.470  32.072  35.978  1.00  0.00     0.064 A 
ATOM     61  C   UNL A   1      40.058  33.318  36.247  1.00  0.00     0.173 A 
ATOM     62  C   UNL A   1      38.441  31.634  36.825  1.00  0.00     0.173 A 
ATOM     63  F   UNL A   1      41.056  33.774  35.476  1.00  0.00    -0.203 F 
ATOM     64  C   UNL A   1      39.646  34.083  37.335  1.00  0.00     0.198 A 
ATOM     65  C   UNL A   1      38.014  32.415  37.896  1.00  0.00     0.198 A 
ATOM     66  F   UNL A   1      37.845  30.452  36.610  1.00  0.00    -0.203 F 
ATOM     67  F   UNL A   1      40.251  35.249  37.600  1.00  0.00    -0.200 F 
ATOM     68  C   UNL A   1      38.621  33.635  38.154  1.00  0.00     0.200 A 
ATOM     69  F   UNL A   1      37.015  31.985  38.679  1.00  0.00    -0.200 F 
ATOM     70  F   UNL A   1      38.220  34.375  39.197  1.00  0.00    -0.200 F 
ENDBRANCH  46  60
BRANCH  47  71
ATOM     71  C   UNL A   1      42.069  26.865  27.871  1.00  0.00     0.064 A 
ATOM     72  C   UNL A   1      41.570  25.581  27.615  1.00  0.00     0.173 A 
ATOM     73  C   UNL A   1      42.994  27.400  26.963  1.00  0.00     0.173 A 
ATOM     74  F   UNL A   1      40.706  25.016  28.471  1.00  0.00    -0.203 F 
ATOM     75  C   UNL A   1      41.995  24.853  26.505  1.00  0.00     0.198 A 
ATOM     76  C   UNL A   1      43.398  26.682  25.840  1.00  0.00     0.198 A 
ATOM     77  F   UNL A   1      43.508  28.622  27.168  1.00  0.00    -0.203 F 
ATOM     78  F   UNL A   1      41.540  23.608  26.310  1.00  0.00    -0.200 F 
ATOM     79  C   UNL A   1      42.903  25.406  25.615  1.00  0.00     0.200 A 
ATOM     80  F   UNL A   1      44.270  27.223  24.978  1.00  0.00    -0.200 F 
ATOM     81  F   UNL A   1      43.311  24.704  24.549  1.00  0.00    -0.200 F 
ENDBRANCH  47  71
BRANCH  59  82
ATOM     82  C   UNL A   1      44.526  27.188  34.388  1.00  0.00     0.064 A 
ATOM     83  C   UNL A   1      44.355  25.928  34.977  1.00  0.00     0.173 A 
ATOM     84  C   UNL A   1      45.807  27.761  34.423  1.00  0.00     0.173 A 
ATOM     85  F   UNL A   1      43.148  25.342  34.982  1.00  0.00    -0.203 F 
ATOM     86  C   UNL A   1      45.420  25.276  35.596  1.00  0.00     0.198 A 
ATOM     87  C   UNL A   1      46.875  27.095  35.015  1.00  0.00     0.198 A 
ATOM     88  F   UNL A   1      46.027  28.962  33.866  1.00  0.00    -0.203 F 
ATOM     89  F   UNL A   1      45.223  24.091  36.191  1.00  0.00    -0.200 F 
ATOM     90  C   UNL A   1      46.679  25.856  35.608  1.00  0.00     0.200 A 
ATOM     91  F   UNL A   1      48.095  27.649  35.012  1.00  0.00    -0.200 F 
ATOM     92  F   UNL A   1      47.704  25.224  36.196  1.00  0.00    -0.200 F 
ENDBRANCH  59  82
ENDBRANCH  33  34
ENDBRANCH  26  28
ENDBRANCH  25  26
ENDBRANCH  24  25
ENDBRANCH  23  24
ENDBRANCH  22  23
ENDBRANCH  21  22
ENDBRANCH   1  21
TORSDOF 20
ENDMDL
MODEL 2
REMARK VINA RESULT:      -9.6      1.190      2.482
REMARK SMILES COc1cc(Cl)cc(/C=C/C(=O)OCCOCCOCCOC(=O)c2ccc(-c3c4nc(c(-c5c(F)c(F)c(F)c(F)c5F)c5ccc([nH]5)c(-c5c(F)c(F)c(F)c(F)c5F)c5nc(c(-c6c(F)c(F)c(F)c(F)c6F)c6ccc3[nH]6)C=C5)C=C4)cc2)c1OC
REMARK SMILES IDX 17 1 16 2 15 3 14 4 13 5 11 6 12 7 10 8 9 9 8 10 3 11 4 12
REMARK SMILES IDX 88 13 5 14 6 15 7 16 2 17 1 18 89 19 90 20 18 21 19 22 20 23
REMARK SMILES IDX 21 24 22 25 23 26 24 27 25 28 26 29 87 30 27 31 86 32 28 33
REMARK SMILES IDX 29 34 30 35 80 36 31 37 85 38 79 39 81 40 32 41 84 42 78 43
REMARK SMILES IDX 77 44 33 46 65 47 45 48 64 49 46 50 49 51 63 52 82 53 47 54
REMARK SMILES IDX 48 55 62 57 83 58 50 59 34 60 35 61 43 62 36 63 37 64 41 65
REMARK SMILES IDX 44 66 38 67 39 68 42 69 40 70 66 71 67 72 75 73 68 74 69 75
REMARK SMILES IDX 73 76 76 77 70 78 71 79 74 80 72 81 51 82 52 83 60 84 53 85
REMARK SMILES IDX 54 86 58 87 61 88 55 89 56 90 59 91 57 92
REMARK H PARENT 81 45 49 56
REMARK Flexibility Score: inf
ROOT
ATOM      1  C   UNL A   1      32.572  28.260  24.170  1.00  0.00     0.188 C 
ENDROOT
BRANCH   1   2
ATOM      2  O   UNL A   1      32.082  28.001  22.858  1.00  0.00    -0.376 OA
BRANCH   2   3
ATOM      3  C   UNL A   1      31.026  27.064  22.675  1.00  0.00     0.202 C 
BRANCH   3   4
ATOM      4  C   UNL A   1      30.114  26.725  23.863  1.00  0.00     0.261 C 
BRANCH   4   5
ATOM      5  O   UNL A   1      29.983  25.320  24.140  1.00  0.00    -0.460 OA
BRANCH   5   6
ATOM      6  C   UNL A   1      30.392  24.933  25.373  1.00  0.00     0.330 C 
ATOM      7  O   UNL A   1      30.055  25.431  26.438  1.00  0.00    -0.247 OA
BRANCH   6   8
ATOM      8  C   UNL A   1      31.233  23.718  25.349  1.00  0.00     0.094 C 
ATOM      9  C   UNL A   1      32.002  23.287  24.335  1.00  0.00     0.019 C 
BRANCH   9  10
ATOM     10  C   UNL A   1      32.798  22.040  24.423  1.00  0.00     0.022 A 
ATOM     11  C   UNL A   1      34.852  20.837  24.977  1.00  0.00     0.162 A 
ATOM     12  C   UNL A   1      34.223  19.630  24.640  1.00  0.00     0.071 A 
ATOM     13  C   UNL A   1      34.146  22.055  24.864  1.00  0.00     0.168 A 
ATOM     14  C   UNL A   1      32.920  19.632  24.156  1.00  0.00     0.045 A 
ATOM     15  Cl  UNL A   1      32.165  18.145  23.730  1.00  0.00    -0.084 Cl
ATOM     16  C   UNL A   1      32.213  20.822  24.037  1.00  0.00     0.032 A 
BRANCH  11  17
ATOM     17  O   UNL A   1      36.113  20.832  25.522  1.00  0.00    -0.493 OA
ATOM     18  C   UNL A   1      37.170  21.145  24.618  1.00  0.00     0.278 C 
ENDBRANCH  11  17
BRANCH  13  19
ATOM     19  O   UNL A   1      34.626  23.304  25.176  1.00  0.00    -0.492 OA
ATOM     20  C   UNL A   1      34.800  23.652  26.542  1.00  0.00     0.278 C 
ENDBRANCH  13  19
ENDBRANCH   9  10
ENDBRANCH   6   8
ENDBRANCH   5   6
ENDBRANCH   4   5
ENDBRANCH   3   4
ENDBRANCH   2   3
ENDBRANCH   1   2
BRANCH   1  21
ATOM     21  C   UNL A   1      32.466  29.681  24.763  1.00  0.00     0.188 C 
BRANCH  21  22
ATOM     22  O   UNL A   1      31.652  29.756  25.910  1.00  0.00    -0.376 OA
BRANCH  22  23
ATOM     23  C   UNL A   1      32.046  30.582  26.992  1.00  0.00     0.202 C 
BRANCH  23  24
ATOM     24  C   UNL A   1      32.500  32.042  26.806  1.00  0.00     0.261 C 
BRANCH  24  25
ATOM     25  O   UNL A   1      32.803  32.801  27.982  1.00  0.00    -0.460 OA
BRANCH  25  26
ATOM     26  C   UNL A   1      33.895  33.596  27.930  1.00  0.00     0.338 C 
ATOM     27  O   UNL A   1      33.937  34.783  27.671  1.00  0.00    -0.246 OA
BRANCH  26  28
ATOM     28  C   UNL A   1      35.052  32.806  28.396  1.00  0.00     0.060 A 
ATOM     29  C   UNL A   1      34.832  31.519  28.901  1.00  0.00     0.016 A 
ATOM     30  C   UNL A   1      36.341  33.341  28.352  1.00  0.00     0.016 A 
ATOM     31  C   UNL A   1      35.903  30.771  29.390  1.00  0.00     0.010 A 
ATOM     32  C   UNL A   1      37.411  32.597  28.858  1.00  0.00     0.010 A 
ATOM     33  C   UNL A   1      37.192  31.320  29.403  1.00  0.00    -0.014 A 
BRANCH  33  34
ATOM     34  C   UNL A   1      38.285  30.628  30.129  1.00  0.00     0.031 A 
ATOM     35  C   UNL A   1      38.536  30.988  31.566  1.00  0.00     0.074 A 
ATOM     36  C   UNL A   1      39.041  29.695  29.525  1.00  0.00     0.049 A 
ATOM     37  N   UNL A   1      39.462  30.557  32.385  1.00  0.00    -0.248 NA
ATOM     38  C   UNL A   1      37.615  31.970  32.162  1.00  0.00     0.031 C 
ATOM     39  C   UNL A   1      38.875  29.236  28.148  1.00  0.00     0.029 A 
ATOM     40  N   UNL A   1      40.110  28.974  29.996  1.00  0.00    -0.354 N 
ATOM     41  C   UNL A   1      39.240  31.218  33.585  1.00  0.00     0.074 A 
ATOM     42  C   UNL A   1      38.109  32.097  33.384  1.00  0.00     0.031 C 
ATOM     43  C   UNL A   1      39.821  28.318  27.879  1.00  0.00     0.029 A 
ATOM     44  C   UNL A   1      40.674  28.150  29.054  1.00  0.00     0.049 A 
ATOM     45  H   UNL A   1      40.440  29.042  30.921  1.00  0.00     0.167 HD
ATOM     46  C   UNL A   1      39.917  31.098  34.752  1.00  0.00     0.037 A 
ATOM     47  C   UNL A   1      41.771  27.370  29.130  1.00  0.00     0.037 A 
ATOM     48  C   UNL A   1      41.045  30.226  34.949  1.00  0.00     0.049 A 
ATOM     49  C   UNL A   1      42.550  27.307  30.419  1.00  0.00     0.074 A 
ATOM     50  C   UNL A   1      41.781  30.015  36.101  1.00  0.00     0.029 A 
ATOM     51  N   UNL A   1      41.605  29.427  33.964  1.00  0.00    -0.354 N 
ATOM     52  N   UNL A   1      42.316  27.908  31.560  1.00  0.00    -0.248 NA
ATOM     53  C   UNL A   1      43.748  26.454  30.429  1.00  0.00     0.031 C 
ATOM     54  C   UNL A   1      42.821  29.128  35.800  1.00  0.00     0.029 A 
ATOM     55  C   UNL A   1      42.697  28.743  34.475  1.00  0.00     0.049 A 
ATOM     56  H   UNL A   1      41.276  29.355  33.039  1.00  0.00     0.167 HD
ATOM     57  C   UNL A   1      43.314  27.485  32.430  1.00  0.00     0.074 A 
ATOM     58  C   UNL A   1      44.151  26.567  31.687  1.00  0.00     0.031 C 
ATOM     59  C   UNL A   1      43.517  27.824  33.726  1.00  0.00     0.037 A 
BRANCH  46  60
ATOM     60  C   UNL A   1      39.472  31.954  35.899  1.00  0.00     0.064 A 
ATOM     61  C   UNL A   1      38.435  31.556  36.758  1.00  0.00     0.173 A 
ATOM     62  C   UNL A   1      40.112  33.173  36.164  1.00  0.00     0.173 A 
ATOM     63  F   UNL A   1      37.782  30.405  36.539  1.00  0.00    -0.203 F 
ATOM     64  C   UNL A   1      38.042  32.360  37.825  1.00  0.00     0.198 A 
ATOM     65  C   UNL A   1      39.734  33.961  37.247  1.00  0.00     0.198 A 
ATOM     66  F   UNL A   1      41.111  33.598  35.374  1.00  0.00    -0.203 F 
ATOM     67  F   UNL A   1      37.021  31.982  38.605  1.00  0.00    -0.200 F 
ATOM     68  C   UNL A   1      38.696  33.557  38.073  1.00  0.00     0.200 A 
ATOM     69  F   UNL A   1      40.375  35.113  37.492  1.00  0.00    -0.200 F 
ATOM     70  F   UNL A   1      38.321  34.327  39.104  1.00  0.00    -0.200 F 
ENDBRANCH  46  60
BRANCH  47  71
ATOM     71  C   UNL A   1      42.210  26.589  27.943  1.00  0.00     0.064 A 
ATOM     72  C   UNL A   1      43.149  27.109  27.042  1.00  0.00     0.173 A 
ATOM     73  C   UNL A   1      41.682  25.318  27.674  1.00  0.00     0.173 A 
ATOM     74  F   UNL A   1      43.660  28.333  27.241  1.00  0.00    -0.203 F 
ATOM     75  C   UNL A   1      43.528  26.395  25.907  1.00  0.00     0.198 A 
ATOM     76  C   UNL A   1      42.082  24.594  26.554  1.00  0.00     0.198 A 
ATOM     77  F   UNL A   1      40.774  24.779  28.502  1.00  0.00    -0.203 F 
ATOM     78  F   UNL A   1      44.390  26.937  25.035  1.00  0.00    -0.200 F 
ATOM     79  C   UNL A   1      43.000  25.136  25.667  1.00  0.00     0.200 A 
ATOM     80  F   UNL A   1      41.574  23.374  26.329  1.00  0.00    -0.200 F 
ATOM     81  F   UNL A   1      43.366  24.451  24.575  1.00  0.00    -0.200 F 
ENDBRANCH  47  71
BRANCH  59  82
ATOM     82  C   UNL A   1      44.664  27.173  34.442  1.00  0.00     0.064 A 
ATOM     83  C   UNL A   1      45.929  27.773  34.510  1.00  0.00     0.173 A 
ATOM     84  C   UNL A   1      44.480  25.953  35.112  1.00  0.00     0.173 A 
ATOM     85  F   UNL A   1      46.161  28.933  33.876  1.00  0.00    -0.203 F 
ATOM     86  C   UNL A   1      46.974  27.166  35.203  1.00  0.00     0.198 A 
ATOM     87  C   UNL A   1      45.517  25.364  35.829  1.00  0.00     0.198 A 
ATOM     88  F   UNL A   1      43.286  25.340  35.087  1.00  0.00    -0.203 F 
ATOM     89  F   UNL A   1      48.186  27.737  35.218  1.00  0.00    -0.200 F 
ATOM     90  C   UNL A   1      46.766  25.967  35.868  1.00  0.00     0.200 A 
ATOM     91  F   UNL A   1      45.310  24.213  36.484  1.00  0.00    -0.200 F 
ATOM     92  F   UNL A   1      47.769  25.389  36.541  1.00  0.00    -0.200 F 
ENDBRANCH  59  82
ENDBRANCH  33  34
ENDBRANCH  26  28
ENDBRANCH  25  26
ENDBRANCH  24  25
ENDBRANCH  23  24
ENDBRANCH  22  23
ENDBRANCH  21  22
ENDBRANCH   1  21
TORSDOF 20
ENDMDL
MODEL 3
REMARK VINA RESULT:      -9.4      3.269      5.205
REMARK SMILES COc1cc(Cl)cc(/C=C/C(=O)OCCOCCOCCOC(=O)c2ccc(-c3c4nc(c(-c5c(F)c(F)c(F)c(F)c5F)c5ccc([nH]5)c(-c5c(F)c(F)c(F)c(F)c5F)c5nc(c(-c6c(F)c(F)c(F)c(F)c6F)c6ccc3[nH]6)C=C5)C=C4)cc2)c1OC
REMARK SMILES IDX 17 1 16 2 15 3 14 4 13 5 11 6 12 7 10 8 9 9 8 10 3 11 4 12
REMARK SMILES IDX 88 13 5 14 6 15 7 16 2 17 1 18 89 19 90 20 18 21 19 22 20 23
REMARK SMILES IDX 21 24 22 25 23 26 24 27 25 28 26 29 87 30 27 31 86 32 28 33
REMARK SMILES IDX 29 34 30 35 80 36 31 37 85 38 79 39 81 40 32 41 84 42 78 43
REMARK SMILES IDX 77 44 33 46 65 47 45 48 64 49 46 50 49 51 63 52 82 53 47 54
REMARK SMILES IDX 48 55 62 57 83 58 50 59 34 60 35 61 43 62 36 63 37 64 41 65
REMARK SMILES IDX 44 66 38 67 39 68 42 69 40 70 66 71 67 72 75 73 68 74 69 75
REMARK SMILES IDX 73 76 76 77 70 78 71 79 74 80 72 81 51 82 52 83 60 84 53 85
REMARK SMILES IDX 54 86 58 87 61 88 55 89 56 90 59 91 57 92
REMARK H PARENT 81 45 49 56
REMARK Flexibility Score: inf
ROOT
ATOM      1  C   UNL A   1      35.407  24.283  25.199  1.00  0.00     0.188 C 
ENDROOT
BRANCH   1   2
ATOM      2  O   UNL A   1      35.713  23.058  25.858  1.00  0.00    -0.376 OA
BRANCH   2   3
ATOM      3  C   UNL A   1      36.062  21.914  25.087  1.00  0.00     0.202 C 
BRANCH   3   4
ATOM      4  C   UNL A   1      35.008  20.824  24.847  1.00  0.00     0.261 C 
BRANCH   4   5
ATOM      5  O   UNL A   1      33.821  20.947  25.650  1.00  0.00    -0.460 OA
BRANCH   5   6
ATOM      6  C   UNL A   1      32.654  20.945  24.961  1.00  0.00     0.330 C 
ATOM      7  O   UNL A   1      31.787  20.084  25.006  1.00  0.00    -0.247 OA
BRANCH   6   8
ATOM      8  C   UNL A   1      32.433  22.188  24.193  1.00  0.00     0.094 C 
ATOM      9  C   UNL A   1      31.587  23.187  24.496  1.00  0.00     0.019 C 
BRANCH   9  10
ATOM     10  C   UNL A   1      31.443  24.387  23.639  1.00  0.00     0.022 A 
ATOM     11  C   UNL A   1      30.565  26.627  23.208  1.00  0.00     0.162 A 
ATOM     12  C   UNL A   1      31.276  26.662  22.000  1.00  0.00     0.071 A 
ATOM     13  C   UNL A   1      30.637  25.484  24.035  1.00  0.00     0.168 A 
ATOM     14  C   UNL A   1      32.019  25.559  21.594  1.00  0.00     0.045 A 
ATOM     15  Cl  UNL A   1      32.873  25.608  20.101  1.00  0.00    -0.084 Cl
ATOM     16  C   UNL A   1      32.097  24.426  22.395  1.00  0.00     0.032 A 
BRANCH  11  17
ATOM     17  O   UNL A   1      29.889  27.739  23.646  1.00  0.00    -0.493 OA
ATOM     18  C   UNL A   1      30.659  28.938  23.705  1.00  0.00     0.278 C 
ENDBRANCH  11  17
BRANCH  13  19
ATOM     19  O   UNL A   1      30.012  25.319  25.249  1.00  0.00    -0.492 OA
ATOM     20  C   UNL A   1      30.526  26.000  26.384  1.00  0.00     0.278 C 
ENDBRANCH  13  19
ENDBRANCH   9  10
ENDBRANCH   6   8
ENDBRANCH   5   6
ENDBRANCH   4   5
ENDBRANCH   3   4
ENDBRANCH   2   3
ENDBRANCH   1   2
BRANCH   1  21
ATOM     21  C   UNL A   1      34.300  25.201  25.758  1.00  0.00     0.188 C 
BRANCH  21  22
ATOM     22  O   UNL A   1      33.913  26.226  24.873  1.00  0.00    -0.376 OA
BRANCH  22  23
ATOM     23  C   UNL A   1      33.658  27.524  25.379  1.00  0.00     0.202 C 
BRANCH  23  24
ATOM     24  C   UNL A   1      34.631  28.262  26.318  1.00  0.00     0.261 C 
BRANCH  24  25
ATOM     25  O   UNL A   1      34.078  28.940  27.451  1.00  0.00    -0.460 OA
BRANCH  25  26
ATOM     26  C   UNL A   1      34.604  30.148  27.755  1.00  0.00     0.338 C 
ATOM     27  O   UNL A   1      34.031  31.220  27.791  1.00  0.00    -0.246 OA
BRANCH  26  28
ATOM     28  C   UNL A   1      35.998  29.936  28.194  1.00  0.00     0.060 A 
ATOM     29  C   UNL A   1      37.036  30.176  27.285  1.00  0.00     0.016 A 
ATOM     30  C   UNL A   1      36.275  29.484  29.486  1.00  0.00     0.016 A 
ATOM     31  C   UNL A   1      38.358  29.938  27.660  1.00  0.00     0.010 A 
ATOM     32  C   UNL A   1      37.599  29.230  29.855  1.00  0.00     0.010 A 
ATOM     33  C   UNL A   1      38.644  29.431  28.936  1.00  0.00    -0.014 A 
BRANCH  33  34
ATOM     34  C   UNL A   1      40.013  28.960  29.256  1.00  0.00     0.031 A 
ATOM     35  C   UNL A   1      40.913  29.854  30.060  1.00  0.00     0.074 A 
ATOM     36  C   UNL A   1      40.450  27.759  28.841  1.00  0.00     0.049 A 
ATOM     37  N   UNL A   1      42.161  29.681  30.416  1.00  0.00    -0.248 NA
ATOM     38  C   UNL A   1      40.325  31.121  30.526  1.00  0.00     0.031 C 
ATOM     39  C   UNL A   1      39.663  26.788  28.085  1.00  0.00     0.029 A 
ATOM     40  N   UNL A   1      41.675  27.156  28.994  1.00  0.00    -0.354 N 
ATOM     41  C   UNL A   1      42.507  30.813  31.140  1.00  0.00     0.074 A 
ATOM     42  C   UNL A   1      41.349  31.681  31.152  1.00  0.00     0.031 C 
ATOM     43  C   UNL A   1      40.430  25.714  27.825  1.00  0.00     0.029 A 
ATOM     44  C   UNL A   1      41.768  25.937  28.370  1.00  0.00     0.049 A 
ATOM     45  H   UNL A   1      42.415  27.561  29.501  1.00  0.00     0.167 HD
ATOM     46  C   UNL A   1      43.684  31.101  31.743  1.00  0.00     0.037 A 
ATOM     47  C   UNL A   1      42.824  25.110  28.236  1.00  0.00     0.037 A 
ATOM     48  C   UNL A   1      44.837  30.239  31.727  1.00  0.00     0.049 A 
ATOM     49  C   UNL A   1      44.145  25.486  28.857  1.00  0.00     0.074 A 
ATOM     50  C   UNL A   1      46.067  30.432  32.330  1.00  0.00     0.029 A 
ATOM     51  N   UNL A   1      44.903  29.025  31.061  1.00  0.00    -0.354 N 
ATOM     52  N   UNL A   1      44.457  26.542  29.568  1.00  0.00    -0.248 NA
ATOM     53  C   UNL A   1      45.263  24.551  28.657  1.00  0.00     0.031 C 
ATOM     54  C   UNL A   1      46.895  29.358  31.987  1.00  0.00     0.029 A 
ATOM     55  C   UNL A   1      46.163  28.469  31.216  1.00  0.00     0.049 A 
ATOM     56  H   UNL A   1      44.164  28.617  30.555  1.00  0.00     0.167 HD
ATOM     57  C   UNL A   1      45.791  26.386  29.925  1.00  0.00     0.074 A 
ATOM     58  C   UNL A   1      46.228  25.127  29.359  1.00  0.00     0.031 C 
ATOM     59  C   UNL A   1      46.582  27.210  30.656  1.00  0.00     0.037 A 
BRANCH  46  60
ATOM     60  C   UNL A   1      43.794  32.419  32.450  1.00  0.00     0.064 A 
ATOM     61  C   UNL A   1      43.441  32.563  33.801  1.00  0.00     0.173 A 
ATOM     62  C   UNL A   1      44.288  33.545  31.776  1.00  0.00     0.173 A 
ATOM     63  F   UNL A   1      42.949  31.520  34.485  1.00  0.00    -0.203 F 
ATOM     64  C   UNL A   1      43.558  33.793  34.444  1.00  0.00     0.198 A 
ATOM     65  C   UNL A   1      44.430  34.767  32.430  1.00  0.00     0.198 A 
ATOM     66  F   UNL A   1      44.642  33.460  30.485  1.00  0.00    -0.203 F 
ATOM     67  F   UNL A   1      43.174  33.919  35.721  1.00  0.00    -0.200 F 
ATOM     68  C   UNL A   1      44.059  34.891  33.760  1.00  0.00     0.200 A 
ATOM     69  F   UNL A   1      44.924  35.824  31.771  1.00  0.00    -0.200 F 
ATOM     70  F   UNL A   1      44.178  36.073  34.381  1.00  0.00    -0.200 F 
ENDBRANCH  46  60
BRANCH  47  71
ATOM     71  C   UNL A   1      42.683  23.843  27.470  1.00  0.00     0.064 A 
ATOM     72  C   UNL A   1      42.217  22.674  28.085  1.00  0.00     0.173 A 
ATOM     73  C   UNL A   1      43.035  23.772  26.114  1.00  0.00     0.173 A 
ATOM     74  F   UNL A   1      41.897  22.686  29.387  1.00  0.00    -0.203 F 
ATOM     75  C   UNL A   1      42.125  21.477  27.379  1.00  0.00     0.198 A 
ATOM     76  C   UNL A   1      42.917  22.580  25.401  1.00  0.00     0.198 A 
ATOM     77  F   UNL A   1      43.494  24.861  25.480  1.00  0.00    -0.203 F 
ATOM     78  F   UNL A   1      41.723  20.362  28.004  1.00  0.00    -0.200 F 
ATOM     79  C   UNL A   1      42.469  21.432  26.036  1.00  0.00     0.200 A 
ATOM     80  F   UNL A   1      43.244  22.543  24.102  1.00  0.00    -0.200 F 
ATOM     81  F   UNL A   1      42.381  20.280  25.358  1.00  0.00    -0.200 F 
ENDBRANCH  47  71
BRANCH  59  82
ATOM     82  C   UNL A   1      47.989  26.762  30.924  1.00  0.00     0.064 A 
ATOM     83  C   UNL A   1      49.065  27.196  30.136  1.00  0.00     0.173 A 
ATOM     84  C   UNL A   1      48.271  25.926  32.016  1.00  0.00     0.173 A 
ATOM     85  F   UNL A   1      48.848  27.985  29.073  1.00  0.00    -0.203 F 
ATOM     86  C   UNL A   1      50.369  26.791  30.418  1.00  0.00     0.198 A 
ATOM     87  C   UNL A   1      49.577  25.548  32.313  1.00  0.00     0.198 A 
ATOM     88  F   UNL A   1      47.279  25.489  32.807  1.00  0.00    -0.203 F 
ATOM     89  F   UNL A   1      51.375  27.183  29.625  1.00  0.00    -0.200 F 
ATOM     90  C   UNL A   1      50.624  25.975  31.509  1.00  0.00     0.200 A 
ATOM     91  F   UNL A   1      49.824  24.772  33.377  1.00  0.00    -0.200 F 
ATOM     92  F   UNL A   1      51.879  25.594  31.784  1.00  0.00    -0.200 F 
ENDBRANCH  59  82
ENDBRANCH  33  34
ENDBRANCH  26  28
ENDBRANCH  25  26
ENDBRANCH  24  25
ENDBRANCH  23  24
ENDBRANCH  22  23
ENDBRANCH  21  22
ENDBRANCH   1  21
TORSDOF 20
ENDMDL
