MODEL 1
REMARK VINA RESULT:     -10.6      0.000      0.000
REMARK SMILES C[C@H]1C[N@H+]2CCC[C@@H]2C[N@@H+]1CCC[C@](C)([NH3+])C(=O)OCCOCCOCCOC(=O)c1ccc(-c2c3nc(c(-c4c(F)c(F)c(F)c(F)c4F)c4ccc([nH]4)c(-c4c(F)c(F)c(F)c(F)c4F)c4nc(c(-c5c(F)c(F)c(F)c(F)c5F)c5ccc2[nH]5)C=C4)C=C3)cc1
REMARK SMILES IDX 23 1 22 2 21 3 20 4 19 5 17 6 18 7 14 8 15 9 13 10 12 11
REMARK SMILES IDX 11 12 10 13 1 14 2 15 3 16 4 17 9 18 5 20 8 21 6 23 7 24
REMARK SMILES IDX 16 25 24 29 25 30 26 31 27 32 28 33 29 34 30 35 31 36 32 37
REMARK SMILES IDX 93 38 33 39 92 40 34 41 35 42 36 43 86 44 37 45 91 46 85 47
REMARK SMILES IDX 87 48 38 49 90 50 84 51 83 52 39 54 71 55 51 56 70 57 52 58
REMARK SMILES IDX 55 59 69 60 88 61 53 62 54 63 68 65 89 66 56 67 40 68 41 69
REMARK SMILES IDX 49 70 42 71 43 72 47 73 50 74 44 75 45 76 48 77 46 78 72 79
REMARK SMILES IDX 73 80 81 81 74 82 75 83 79 84 82 85 76 86 77 87 80 88 78 89
REMARK SMILES IDX 57 90 58 91 66 92 59 93 60 94 64 95 67 96 61 97 62 98 65 99
REMARK SMILES IDX 63 100
REMARK H PARENT 10 19 4 22 16 26 16 27 16 28 87 53 55 64
REMARK Flexibility Score: inf
ROOT
ATOM      1  C   UNL A   1      32.249  27.905  26.769  1.00  0.00     0.188 C 
ENDROOT
BRANCH   1   2
ATOM      2  O   UNL A   1      31.007  27.244  26.833  1.00  0.00    -0.376 OA
BRANCH   2   3
ATOM      3  C   UNL A   1      30.681  26.195  25.939  1.00  0.00     0.202 C 
BRANCH   3   4
ATOM      4  C   UNL A   1      30.055  26.355  24.542  1.00  0.00     0.261 C 
BRANCH   4   5
ATOM      5  O   UNL A   1      30.768  25.828  23.425  1.00  0.00    -0.459 OA
BRANCH   5   6
ATOM      6  C   UNL A   1      31.198  26.764  22.537  1.00  0.00     0.367 C 
ATOM      7  O   UNL A   1      30.487  27.666  22.102  1.00  0.00    -0.245 OA
BRANCH   6   8
ATOM      8  C   UNL A   1      32.697  26.620  22.154  1.00  0.00     0.190 C 
ATOM      9  C   UNL A   1      32.757  25.603  20.996  1.00  0.00     0.092 C 
BRANCH   8  10
ATOM     10  C   UNL A   1      33.429  26.278  23.473  1.00  0.00     0.086 C 
BRANCH  10  11
ATOM     11  C   UNL A   1      34.172  24.940  23.531  1.00  0.00     0.068 C 
BRANCH  11  12
ATOM     12  C   UNL A   1      34.280  24.225  24.896  1.00  0.00     0.263 C 
BRANCH  12  13
ATOM     13  N   UNL A   1      33.473  23.015  25.136  1.00  0.00    -0.323 N 
ATOM     14  C   UNL A   1      34.073  22.571  27.468  1.00  0.00     0.081 C 
ATOM     15  C   UNL A   1      34.132  22.034  26.033  1.00  0.00     0.236 C 
ATOM     16  C   UNL A   1      33.553  20.587  26.004  1.00  0.00     0.328 C 
ATOM     17  N   UNL A   1      33.386  20.154  24.621  1.00  0.00    -0.323 N 
ATOM     18  C   UNL A   1      32.877  22.453  23.908  1.00  0.00     0.328 C 
ATOM     19  H   UNL A   1      32.661  23.320  25.674  1.00  0.00     0.348 HD
ATOM     20  C   UNL A   1      32.939  18.785  24.420  1.00  0.00     0.263 C 
ATOM     21  C   UNL A   1      32.377  21.011  23.993  1.00  0.00     0.240 C 
ATOM     22  H   UNL A   1      34.322  20.218  24.217  1.00  0.00     0.348 HD
ATOM     23  C   UNL A   1      32.236  18.829  23.058  1.00  0.00     0.068 C 
ATOM     24  C   UNL A   1      32.228  20.303  22.655  1.00  0.00     0.077 C 
ENDBRANCH  12  13
ENDBRANCH  11  12
ENDBRANCH  10  11
ENDBRANCH   8  10
BRANCH   8  25
ATOM     25  N   UNL A   1      33.289  27.885  21.646  1.00  0.00    -0.344 N 
ATOM     26  H   UNL A   1      34.297  27.772  21.544  1.00  0.00     0.345 HD
ATOM     27  H   UNL A   1      33.095  28.639  22.305  1.00  0.00     0.345 HD
ATOM     28  H   UNL A   1      32.879  28.112  20.741  1.00  0.00     0.345 HD
ENDBRANCH   8  25
ENDBRANCH   6   8
ENDBRANCH   5   6
ENDBRANCH   4   5
ENDBRANCH   3   4
ENDBRANCH   2   3
ENDBRANCH   1   2
BRANCH   1  29
ATOM     29  C   UNL A   1      32.342  29.372  27.225  1.00  0.00     0.188 C 
BRANCH  29  30
ATOM     30  O   UNL A   1      32.305  30.403  26.272  1.00  0.00    -0.376 OA
BRANCH  30  31
ATOM     31  C   UNL A   1      31.439  31.500  26.462  1.00  0.00     0.202 C 
BRANCH  31  32
ATOM     32  C   UNL A   1      31.806  32.786  27.231  1.00  0.00     0.261 C 
BRANCH  32  33
ATOM     33  O   UNL A   1      33.110  33.349  27.031  1.00  0.00    -0.460 OA
BRANCH  33  34
ATOM     34  C   UNL A   1      33.754  33.753  28.151  1.00  0.00     0.338 C 
ATOM     35  O   UNL A   1      33.347  34.552  28.991  1.00  0.00    -0.246 OA
BRANCH  34  36
ATOM     36  C   UNL A   1      34.975  32.949  28.358  1.00  0.00     0.060 A 
ATOM     37  C   UNL A   1      34.839  31.589  28.677  1.00  0.00     0.016 A 
ATOM     38  C   UNL A   1      36.238  33.540  28.324  1.00  0.00     0.016 A 
ATOM     39  C   UNL A   1      35.958  30.832  29.025  1.00  0.00     0.010 A 
ATOM     40  C   UNL A   1      37.359  32.785  28.695  1.00  0.00     0.010 A 
ATOM     41  C   UNL A   1      37.217  31.443  29.098  1.00  0.00    -0.014 A 
BRANCH  41  42
ATOM     42  C   UNL A   1      38.317  30.758  29.828  1.00  0.00     0.031 A 
ATOM     43  C   UNL A   1      38.536  31.111  31.278  1.00  0.00     0.074 A 
ATOM     44  C   UNL A   1      39.080  29.814  29.250  1.00  0.00     0.049 A 
ATOM     45  N   UNL A   1      39.442  30.677  32.118  1.00  0.00    -0.248 NA
ATOM     46  C   UNL A   1      37.602  32.091  31.855  1.00  0.00     0.031 C 
ATOM     47  C   UNL A   1      38.949  29.345  27.875  1.00  0.00     0.029 A 
ATOM     48  N   UNL A   1      40.130  29.087  29.758  1.00  0.00    -0.354 N 
ATOM     49  C   UNL A   1      39.190  31.335  33.316  1.00  0.00     0.074 A 
ATOM     50  C   UNL A   1      38.075  32.227  33.084  1.00  0.00     0.031 C 
ATOM     51  C   UNL A   1      39.894  28.416  27.641  1.00  0.00     0.029 A 
ATOM     52  C   UNL A   1      40.714  28.249  28.841  1.00  0.00     0.049 A 
ATOM     53  H   UNL A   1      40.435  29.160  30.691  1.00  0.00     0.167 HD
ATOM     54  C   UNL A   1      39.820  31.201  34.508  1.00  0.00     0.037 A 
ATOM     55  C   UNL A   1      41.798  27.454  28.953  1.00  0.00     0.037 A 
ATOM     56  C   UNL A   1      40.934  30.320  34.743  1.00  0.00     0.049 A 
ATOM     57  C   UNL A   1      42.531  27.374  30.271  1.00  0.00     0.074 A 
ATOM     58  C   UNL A   1      41.638  30.112  35.916  1.00  0.00     0.029 A 
ATOM     59  N   UNL A   1      41.512  29.506  33.781  1.00  0.00    -0.354 N 
ATOM     60  N   UNL A   1      42.275  27.984  31.404  1.00  0.00    -0.248 NA
ATOM     61  C   UNL A   1      43.699  26.481  30.326  1.00  0.00     0.031 C 
ATOM     62  C   UNL A   1      42.678  29.216  35.649  1.00  0.00     0.029 A 
ATOM     63  C   UNL A   1      42.578  28.810  34.327  1.00  0.00     0.049 A 
ATOM     64  H   UNL A   1      41.209  29.433  32.846  1.00  0.00     0.167 HD
ATOM     65  C   UNL A   1      43.224  27.524  32.311  1.00  0.00     0.074 A 
ATOM     66  C   UNL A   1      44.051  26.572  31.600  1.00  0.00     0.031 C 
ATOM     67  C   UNL A   1      43.391  27.855  33.616  1.00  0.00     0.037 A 
BRANCH  54  68
ATOM     68  C   UNL A   1      39.331  32.053  35.645  1.00  0.00     0.064 A 
ATOM     69  C   UNL A   1      38.413  31.570  36.590  1.00  0.00     0.173 A 
ATOM     70  C   UNL A   1      39.803  33.365  35.803  1.00  0.00     0.173 A 
ATOM     71  F   UNL A   1      37.919  30.327  36.479  1.00  0.00    -0.203 F 
ATOM     72  C   UNL A   1      37.960  32.378  37.630  1.00  0.00     0.198 A 
ATOM     73  C   UNL A   1      39.374  34.159  36.863  1.00  0.00     0.198 A 
ATOM     74  F   UNL A   1      40.684  33.877  34.932  1.00  0.00    -0.203 F 
ATOM     75  F   UNL A   1      37.039  31.914  38.486  1.00  0.00    -0.200 F 
ATOM     76  C   UNL A   1      38.446  33.670  37.770  1.00  0.00     0.200 A 
ATOM     77  F   UNL A   1      39.857  35.402  37.005  1.00  0.00    -0.200 F 
ATOM     78  F   UNL A   1      38.014  34.446  38.773  1.00  0.00    -0.200 F 
ENDBRANCH  54  68
BRANCH  55  79
ATOM     79  C   UNL A   1      42.271  26.672  27.780  1.00  0.00     0.064 A 
ATOM     80  C   UNL A   1      43.235  27.186  26.901  1.00  0.00     0.173 A 
ATOM     81  C   UNL A   1      41.743  25.403  27.495  1.00  0.00     0.173 A 
ATOM     82  F   UNL A   1      43.749  28.407  27.111  1.00  0.00    -0.203 F 
ATOM     83  C   UNL A   1      43.636  26.473  25.773  1.00  0.00     0.198 A 
ATOM     84  C   UNL A   1      42.169  24.677  26.384  1.00  0.00     0.198 A 
ATOM     85  F   UNL A   1      40.813  24.867  28.298  1.00  0.00    -0.203 F 
ATOM     86  F   UNL A   1      44.516  27.014  24.919  1.00  0.00    -0.200 F 
ATOM     87  C   UNL A   1      43.108  25.216  25.518  1.00  0.00     0.200 A 
ATOM     88  F   UNL A   1      41.662  23.459  26.148  1.00  0.00    -0.200 F 
ATOM     89  F   UNL A   1      43.494  24.532  24.434  1.00  0.00    -0.200 F 
ENDBRANCH  55  79
BRANCH  67  90
ATOM     90  C   UNL A   1      44.475  27.147  34.381  1.00  0.00     0.064 A 
ATOM     91  C   UNL A   1      45.770  27.672  34.499  1.00  0.00     0.173 A 
ATOM     92  C   UNL A   1      44.201  25.933  35.032  1.00  0.00     0.173 A 
ATOM     93  F   UNL A   1      46.090  28.824  33.890  1.00  0.00    -0.203 F 
ATOM     94  C   UNL A   1      46.760  26.990  35.205  1.00  0.00     0.198 A 
ATOM     95  C   UNL A   1      45.183  25.272  35.768  1.00  0.00     0.198 A 
ATOM     96  F   UNL A   1      42.978  25.389  34.964  1.00  0.00    -0.203 F 
ATOM     97  F   UNL A   1      48.006  27.481  35.250  1.00  0.00    -0.200 F 
ATOM     98  C   UNL A   1      46.464  25.796  35.843  1.00  0.00     0.200 A 
ATOM     99  F   UNL A   1      44.889  24.128  36.399  1.00  0.00    -0.200 F 
ATOM    100  F   UNL A   1      47.417  25.143  36.524  1.00  0.00    -0.200 F 
ENDBRANCH  67  90
ENDBRANCH  41  42
ENDBRANCH  34  36
ENDBRANCH  33  34
ENDBRANCH  32  33
ENDBRANCH  31  32
ENDBRANCH  30  31
ENDBRANCH  29  30
ENDBRANCH   1  29
TORSDOF 22
ENDMDL
MODEL 2
REMARK VINA RESULT:     -10.6      4.208      6.384
REMARK SMILES C[C@H]1C[N@H+]2CCC[C@@H]2C[N@@H+]1CCC[C@](C)([NH3+])C(=O)OCCOCCOCCOC(=O)c1ccc(-c2c3nc(c(-c4c(F)c(F)c(F)c(F)c4F)c4ccc([nH]4)c(-c4c(F)c(F)c(F)c(F)c4F)c4nc(c(-c5c(F)c(F)c(F)c(F)c5F)c5ccc2[nH]5)C=C4)C=C3)cc1
REMARK SMILES IDX 23 1 22 2 21 3 20 4 19 5 17 6 18 7 14 8 15 9 13 10 12 11
REMARK SMILES IDX 11 12 10 13 1 14 2 15 3 16 4 17 9 18 5 20 8 21 6 23 7 24
REMARK SMILES IDX 16 25 24 29 25 30 26 31 27 32 28 33 29 34 30 35 31 36 32 37
REMARK SMILES IDX 93 38 33 39 92 40 34 41 35 42 36 43 86 44 37 45 91 46 85 47
REMARK SMILES IDX 87 48 38 49 90 50 84 51 83 52 39 54 71 55 51 56 70 57 52 58
REMARK SMILES IDX 55 59 69 60 88 61 53 62 54 63 68 65 89 66 56 67 40 68 41 69
REMARK SMILES IDX 49 70 42 71 43 72 47 73 50 74 44 75 45 76 48 77 46 78 72 79
REMARK SMILES IDX 73 80 81 81 74 82 75 83 79 84 82 85 76 86 77 87 80 88 78 89
REMARK SMILES IDX 57 90 58 91 66 92 59 93 60 94 64 95 67 96 61 97 62 98 65 99
REMARK SMILES IDX 63 100
REMARK H PARENT 10 19 4 22 16 26 16 27 16 28 87 53 55 64
REMARK Flexibility Score: inf
ROOT
ATOM      1  C   UNL A   1      33.802  32.231  28.018  1.00  0.00     0.188 C 
ENDROOT
BRANCH   1   2
ATOM      2  O   UNL A   1      32.618  32.474  27.294  1.00  0.00    -0.376 OA
BRANCH   2   3
ATOM      3  C   UNL A   1      31.841  31.411  26.771  1.00  0.00     0.202 C 
BRANCH   3   4
ATOM      4  C   UNL A   1      32.189  29.914  26.837  1.00  0.00     0.261 C 
BRANCH   4   5
ATOM      5  O   UNL A   1      31.603  29.047  25.868  1.00  0.00    -0.459 OA
BRANCH   5   6
ATOM      6  C   UNL A   1      31.457  27.759  26.279  1.00  0.00     0.367 C 
ATOM      7  O   UNL A   1      31.348  27.429  27.457  1.00  0.00    -0.245 OA
BRANCH   6   8
ATOM      8  C   UNL A   1      31.390  26.734  25.112  1.00  0.00     0.190 C 
ATOM      9  C   UNL A   1      29.921  26.278  25.014  1.00  0.00     0.092 C 
BRANCH   8  10
ATOM     10  C   UNL A   1      32.472  25.676  25.430  1.00  0.00     0.086 C 
BRANCH  10  11
ATOM     11  C   UNL A   1      33.669  25.596  24.478  1.00  0.00     0.068 C 
BRANCH  11  12
ATOM     12  C   UNL A   1      34.283  24.207  24.194  1.00  0.00     0.263 C 
BRANCH  12  13
ATOM     13  N   UNL A   1      33.599  23.005  24.704  1.00  0.00    -0.323 N 
ATOM     14  C   UNL A   1      34.493  22.951  26.983  1.00  0.00     0.081 C 
ATOM     15  C   UNL A   1      34.427  22.208  25.643  1.00  0.00     0.236 C 
ATOM     16  C   UNL A   1      33.954  20.743  25.894  1.00  0.00     0.328 C 
ATOM     17  N   UNL A   1      33.663  20.098  24.619  1.00  0.00    -0.323 N 
ATOM     18  C   UNL A   1      32.908  22.232  23.653  1.00  0.00     0.328 C 
ATOM     19  H   UNL A   1      32.834  23.342  25.289  1.00  0.00     0.348 HD
ATOM     20  C   UNL A   1      33.296  18.692  24.674  1.00  0.00     0.263 C 
ATOM     21  C   UNL A   1      32.528  20.793  24.005  1.00  0.00     0.240 C 
ATOM     22  H   UNL A   1      34.538  20.151  24.098  1.00  0.00     0.348 HD
ATOM     23  C   UNL A   1      32.440  18.491  23.417  1.00  0.00     0.068 C 
ATOM     24  C   UNL A   1      32.278  19.885  22.812  1.00  0.00     0.077 C 
ENDBRANCH  12  13
ENDBRANCH  11  12
ENDBRANCH  10  11
ENDBRANCH   8  10
BRANCH   8  25
ATOM     25  N   UNL A   1      31.743  27.332  23.798  1.00  0.00    -0.344 N 
ATOM     26  H   UNL A   1      30.912  27.750  23.380  1.00  0.00     0.345 HD
ATOM     27  H   UNL A   1      32.105  26.605  23.180  1.00  0.00     0.345 HD
ATOM     28  H   UNL A   1      32.455  28.050  23.931  1.00  0.00     0.345 HD
ENDBRANCH   8  25
ENDBRANCH   6   8
ENDBRANCH   5   6
ENDBRANCH   4   5
ENDBRANCH   3   4
ENDBRANCH   2   3
ENDBRANCH   1   2
BRANCH   1  29
ATOM     29  C   UNL A   1      34.918  33.290  28.009  1.00  0.00     0.188 C 
BRANCH  29  30
ATOM     30  O   UNL A   1      34.767  34.471  28.753  1.00  0.00    -0.376 OA
BRANCH  30  31
ATOM     31  C   UNL A   1      33.991  34.462  29.931  1.00  0.00     0.202 C 
BRANCH  31  32
ATOM     32  C   UNL A   1      34.501  34.010  31.314  1.00  0.00     0.261 C 
BRANCH  32  33
ATOM     33  O   UNL A   1      34.555  32.604  31.594  1.00  0.00    -0.460 OA
BRANCH  33  34
ATOM     34  C   UNL A   1      35.526  32.212  32.453  1.00  0.00     0.338 C 
ATOM     35  O   UNL A   1      35.575  32.428  33.661  1.00  0.00    -0.246 OA
BRANCH  34  36
ATOM     36  C   UNL A   1      36.467  31.297  31.779  1.00  0.00     0.060 A 
ATOM     37  C   UNL A   1      37.481  30.695  32.540  1.00  0.00     0.016 A 
ATOM     38  C   UNL A   1      36.411  31.096  30.399  1.00  0.00     0.016 A 
ATOM     39  C   UNL A   1      38.478  29.944  31.917  1.00  0.00     0.010 A 
ATOM     40  C   UNL A   1      37.425  30.360  29.771  1.00  0.00     0.010 A 
ATOM     41  C   UNL A   1      38.491  29.825  30.520  1.00  0.00    -0.014 A 
BRANCH  41  42
ATOM     42  C   UNL A   1      39.733  29.371  29.840  1.00  0.00     0.031 A 
ATOM     43  C   UNL A   1      40.862  30.357  29.688  1.00  0.00     0.074 A 
ATOM     44  C   UNL A   1      39.888  28.109  29.403  1.00  0.00     0.049 A 
ATOM     45  N   UNL A   1      42.029  30.214  29.110  1.00  0.00    -0.248 NA
ATOM     46  C   UNL A   1      40.641  31.692  30.270  1.00  0.00     0.031 C 
ATOM     47  C   UNL A   1      38.899  27.043  29.525  1.00  0.00     0.029 A 
ATOM     48  N   UNL A   1      40.947  27.516  28.757  1.00  0.00    -0.354 N 
ATOM     49  C   UNL A   1      42.673  31.437  29.253  1.00  0.00     0.074 A 
ATOM     50  C   UNL A   1      41.755  32.323  29.935  1.00  0.00     0.031 C 
ATOM     51  C   UNL A   1      39.391  25.927  28.957  1.00  0.00     0.029 A 
ATOM     52  C   UNL A   1      40.717  26.209  28.407  1.00  0.00     0.049 A 
ATOM     53  H   UNL A   1      41.791  27.985  28.564  1.00  0.00     0.167 HD
ATOM     54  C   UNL A   1      43.922  31.791  28.865  1.00  0.00     0.037 A 
ATOM     55  C   UNL A   1      41.481  25.348  27.704  1.00  0.00     0.037 A 
ATOM     56  C   UNL A   1      44.837  30.914  28.181  1.00  0.00     0.049 A 
ATOM     57  C   UNL A   1      42.842  25.785  27.218  1.00  0.00     0.074 A 
ATOM     58  C   UNL A   1      46.125  31.179  27.749  1.00  0.00     0.029 A 
ATOM     59  N   UNL A   1      44.557  29.605  27.822  1.00  0.00    -0.354 N 
ATOM     60  N   UNL A   1      43.452  26.936  27.373  1.00  0.00    -0.248 NA
ATOM     61  C   UNL A   1      43.626  24.793  26.466  1.00  0.00     0.031 C 
ATOM     62  C   UNL A   1      46.602  30.048  27.078  1.00  0.00     0.029 A 
ATOM     63  C   UNL A   1      45.639  29.054  27.154  1.00  0.00     0.049 A 
ATOM     64  H   UNL A   1      43.713  29.135  28.014  1.00  0.00     0.167 HD
ATOM     65  C   UNL A   1      44.698  26.795  26.773  1.00  0.00     0.074 A 
ATOM     66  C   UNL A   1      44.764  25.441  26.264  1.00  0.00     0.031 C 
ATOM     67  C   UNL A   1      45.700  27.702  26.659  1.00  0.00     0.037 A 
BRANCH  54  68
ATOM     68  C   UNL A   1      44.359  33.200  29.149  1.00  0.00     0.064 A 
ATOM     69  C   UNL A   1      44.115  34.246  28.246  1.00  0.00     0.173 A 
ATOM     70  C   UNL A   1      45.016  33.511  30.349  1.00  0.00     0.173 A 
ATOM     71  F   UNL A   1      43.503  34.002  27.077  1.00  0.00    -0.203 F 
ATOM     72  C   UNL A   1      44.541  35.544  28.519  1.00  0.00     0.198 A 
ATOM     73  C   UNL A   1      45.410  34.816  30.634  1.00  0.00     0.198 A 
ATOM     74  F   UNL A   1      45.272  32.551  31.250  1.00  0.00    -0.203 F 
ATOM     75  F   UNL A   1      44.348  36.515  27.616  1.00  0.00    -0.200 F 
ATOM     76  C   UNL A   1      45.182  35.829  29.716  1.00  0.00     0.200 A 
ATOM     77  F   UNL A   1      46.015  35.091  31.798  1.00  0.00    -0.200 F 
ATOM     78  F   UNL A   1      45.587  37.079  29.980  1.00  0.00    -0.200 F 
ENDBRANCH  54  68
BRANCH  55  79
ATOM     79  C   UNL A   1      40.977  23.980  27.405  1.00  0.00     0.064 A 
ATOM     80  C   UNL A   1      41.559  22.846  27.988  1.00  0.00     0.173 A 
ATOM     81  C   UNL A   1      39.923  23.779  26.501  1.00  0.00     0.173 A 
ATOM     82  F   UNL A   1      42.590  22.982  28.835  1.00  0.00    -0.203 F 
ATOM     83  C   UNL A   1      41.120  21.563  27.663  1.00  0.00     0.198 A 
ATOM     84  C   UNL A   1      39.463  22.498  26.202  1.00  0.00     0.198 A 
ATOM     85  F   UNL A   1      39.336  24.829  25.909  1.00  0.00    -0.203 F 
ATOM     86  F   UNL A   1      41.732  20.494  28.190  1.00  0.00    -0.200 F 
ATOM     87  C   UNL A   1      40.069  21.390  26.776  1.00  0.00     0.200 A 
ATOM     88  F   UNL A   1      38.441  22.337  25.351  1.00  0.00    -0.200 F 
ATOM     89  F   UNL A   1      39.648  20.157  26.463  1.00  0.00    -0.200 F 
ENDBRANCH  55  79
BRANCH  67  90
ATOM     90  C   UNL A   1      46.978  27.250  26.006  1.00  0.00     0.064 A 
ATOM     91  C   UNL A   1      47.239  27.472  24.646  1.00  0.00     0.173 A 
ATOM     92  C   UNL A   1      47.971  26.610  26.765  1.00  0.00     0.173 A 
ATOM     93  F   UNL A   1      46.323  28.071  23.871  1.00  0.00    -0.203 F 
ATOM     94  C   UNL A   1      48.427  27.034  24.062  1.00  0.00     0.198 A 
ATOM     95  C   UNL A   1      49.172  26.206  26.187  1.00  0.00     0.198 A 
ATOM     96  F   UNL A   1      47.781  26.381  28.073  1.00  0.00    -0.203 F 
ATOM     97  F   UNL A   1      48.626  27.201  22.747  1.00  0.00    -0.200 F 
ATOM     98  C   UNL A   1      49.394  26.408  24.833  1.00  0.00     0.200 A 
ATOM     99  F   UNL A   1      50.112  25.619  26.939  1.00  0.00    -0.200 F 
ATOM    100  F   UNL A   1      50.536  25.990  24.271  1.00  0.00    -0.200 F 
ENDBRANCH  67  90
ENDBRANCH  41  42
ENDBRANCH  34  36
ENDBRANCH  33  34
ENDBRANCH  32  33
ENDBRANCH  31  32
ENDBRANCH  30  31
ENDBRANCH  29  30
ENDBRANCH   1  29
TORSDOF 22
ENDMDL
MODEL 3
REMARK VINA RESULT:     -10.5      3.591      8.809
REMARK SMILES C[C@H]1C[N@H+]2CCC[C@@H]2C[N@@H+]1CCC[C@](C)([NH3+])C(=O)OCCOCCOCCOC(=O)c1ccc(-c2c3nc(c(-c4c(F)c(F)c(F)c(F)c4F)c4ccc([nH]4)c(-c4c(F)c(F)c(F)c(F)c4F)c4nc(c(-c5c(F)c(F)c(F)c(F)c5F)c5ccc2[nH]5)C=C4)C=C3)cc1
REMARK SMILES IDX 23 1 22 2 21 3 20 4 19 5 17 6 18 7 14 8 15 9 13 10 12 11
REMARK SMILES IDX 11 12 10 13 1 14 2 15 3 16 4 17 9 18 5 20 8 21 6 23 7 24
REMARK SMILES IDX 16 25 24 29 25 30 26 31 27 32 28 33 29 34 30 35 31 36 32 37
REMARK SMILES IDX 93 38 33 39 92 40 34 41 35 42 36 43 86 44 37 45 91 46 85 47
REMARK SMILES IDX 87 48 38 49 90 50 84 51 83 52 39 54 71 55 51 56 70 57 52 58
REMARK SMILES IDX 55 59 69 60 88 61 53 62 54 63 68 65 89 66 56 67 40 68 41 69
REMARK SMILES IDX 49 70 42 71 43 72 47 73 50 74 44 75 45 76 48 77 46 78 72 79
REMARK SMILES IDX 73 80 81 81 74 82 75 83 79 84 82 85 76 86 77 87 80 88 78 89
REMARK SMILES IDX 57 90 58 91 66 92 59 93 60 94 64 95 67 96 61 97 62 98 65 99
REMARK SMILES IDX 63 100
REMARK H PARENT 10 19 4 22 16 26 16 27 16 28 87 53 55 64
REMARK Flexibility Score: inf
ROOT
ATOM      1  C   UNL A   1      39.495  22.101  26.026  1.00  0.00     0.188 C 
ENDROOT
BRANCH   1   2
ATOM      2  O   UNL A   1      38.178  22.096  26.525  1.00  0.00    -0.376 OA
BRANCH   2   3
ATOM      3  C   UNL A   1      37.084  22.509  25.725  1.00  0.00     0.202 C 
BRANCH   3   4
ATOM      4  C   UNL A   1      36.440  21.704  24.582  1.00  0.00     0.261 C 
BRANCH   4   5
ATOM      5  O   UNL A   1      35.152  22.108  24.122  1.00  0.00    -0.459 OA
BRANCH   5   6
ATOM      6  C   UNL A   1      34.126  21.335  24.570  1.00  0.00     0.367 C 
ATOM      7  O   UNL A   1      34.205  20.118  24.715  1.00  0.00    -0.245 OA
BRANCH   6   8
ATOM      8  C   UNL A   1      32.848  22.141  24.931  1.00  0.00     0.190 C 
ATOM      9  C   UNL A   1      31.995  22.206  23.648  1.00  0.00     0.092 C 
BRANCH   8  10
ATOM     10  C   UNL A   1      33.355  23.466  25.546  1.00  0.00     0.086 C 
BRANCH  10  11
ATOM     11  C   UNL A   1      32.296  24.482  25.983  1.00  0.00     0.068 C 
BRANCH  11  12
ATOM     12  C   UNL A   1      32.750  25.929  26.276  1.00  0.00     0.263 C 
BRANCH  12  13
ATOM     13  N   UNL A   1      32.546  26.965  25.248  1.00  0.00    -0.323 N 
ATOM     14  C   UNL A   1      34.075  28.687  26.080  1.00  0.00     0.081 C 
ATOM     15  C   UNL A   1      32.609  28.348  25.782  1.00  0.00     0.236 C 
ATOM     16  C   UNL A   1      32.003  29.460  24.872  1.00  0.00     0.328 C 
ATOM     17  N   UNL A   1      30.692  29.037  24.391  1.00  0.00    -0.323 N 
ATOM     18  C   UNL A   1      31.409  26.684  24.348  1.00  0.00     0.328 C 
ATOM     19  H   UNL A   1      33.355  26.912  24.629  1.00  0.00     0.348 HD
ATOM     20  C   UNL A   1      29.950  30.005  23.600  1.00  0.00     0.263 C 
ATOM     21  C   UNL A   1      30.878  27.864  23.534  1.00  0.00     0.240 C 
ATOM     22  H   UNL A   1      30.148  28.874  25.239  1.00  0.00     0.348 HD
ATOM     23  C   UNL A   1      29.040  29.136  22.724  1.00  0.00     0.068 C 
ATOM     24  C   UNL A   1      29.460  27.695  23.009  1.00  0.00     0.077 C 
ENDBRANCH  12  13
ENDBRANCH  11  12
ENDBRANCH  10  11
ENDBRANCH   8  10
BRANCH   8  25
ATOM     25  N   UNL A   1      32.017  21.474  25.966  1.00  0.00    -0.344 N 
ATOM     26  H   UNL A   1      32.197  21.902  26.875  1.00  0.00     0.345 HD
ATOM     27  H   UNL A   1      32.252  20.482  26.004  1.00  0.00     0.345 HD
ATOM     28  H   UNL A   1      31.030  21.580  25.730  1.00  0.00     0.345 HD
ENDBRANCH   8  25
ENDBRANCH   6   8
ENDBRANCH   5   6
ENDBRANCH   4   5
ENDBRANCH   3   4
ENDBRANCH   2   3
ENDBRANCH   1   2
BRANCH   1  29
ATOM     29  C   UNL A   1      40.419  20.909  26.334  1.00  0.00     0.188 C 
BRANCH  29  30
ATOM     30  O   UNL A   1      41.389  21.018  27.343  1.00  0.00    -0.376 OA
BRANCH  30  31
ATOM     31  C   UNL A   1      42.625  21.637  27.062  1.00  0.00     0.202 C 
BRANCH  31  32
ATOM     32  C   UNL A   1      43.141  21.963  25.646  1.00  0.00     0.261 C 
BRANCH  32  33
ATOM     33  O   UNL A   1      42.640  23.138  24.992  1.00  0.00    -0.460 OA
BRANCH  33  34
ATOM     34  C   UNL A   1      43.401  24.250  25.117  1.00  0.00     0.338 C 
ATOM     35  O   UNL A   1      44.470  24.482  24.557  1.00  0.00    -0.246 OA
BRANCH  34  36
ATOM     36  C   UNL A   1      42.681  25.278  25.894  1.00  0.00     0.060 A 
ATOM     37  C   UNL A   1      43.315  26.508  26.133  1.00  0.00     0.016 A 
ATOM     38  C   UNL A   1      41.432  25.012  26.455  1.00  0.00     0.016 A 
ATOM     39  C   UNL A   1      42.733  27.446  26.986  1.00  0.00     0.010 A 
ATOM     40  C   UNL A   1      40.858  25.946  27.328  1.00  0.00     0.010 A 
ATOM     41  C   UNL A   1      41.530  27.144  27.638  1.00  0.00    -0.014 A 
BRANCH  41  42
ATOM     42  C   UNL A   1      41.118  27.953  28.815  1.00  0.00     0.031 A 
ATOM     43  C   UNL A   1      41.899  27.796  30.095  1.00  0.00     0.074 A 
ATOM     44  C   UNL A   1      40.109  28.840  28.755  1.00  0.00     0.049 A 
ATOM     45  N   UNL A   1      41.719  28.364  31.262  1.00  0.00    -0.248 NA
ATOM     46  C   UNL A   1      43.040  26.867  30.049  1.00  0.00     0.031 C 
ATOM     47  C   UNL A   1      39.302  29.126  27.574  1.00  0.00     0.029 A 
ATOM     48  N   UNL A   1      39.590  29.662  29.727  1.00  0.00    -0.354 N 
ATOM     49  C   UNL A   1      42.717  27.856  32.086  1.00  0.00     0.074 A 
ATOM     50  C   UNL A   1      43.473  26.905  31.300  1.00  0.00     0.031 C 
ATOM     51  C   UNL A   1      38.376  30.048  27.893  1.00  0.00     0.029 A 
ATOM     52  C   UNL A   1      38.508  30.395  29.308  1.00  0.00     0.049 A 
ATOM     53  H   UNL A   1      39.959  29.719  30.638  1.00  0.00     0.167 HD
ATOM     54  C   UNL A   1      42.991  28.163  33.376  1.00  0.00     0.037 A 
ATOM     55  C   UNL A   1      37.705  31.233  29.994  1.00  0.00     0.037 A 
ATOM     56  C   UNL A   1      42.239  29.104  34.164  1.00  0.00     0.049 A 
ATOM     57  C   UNL A   1      37.984  31.507  31.453  1.00  0.00     0.074 A 
ATOM     58  C   UNL A   1      42.440  29.484  35.480  1.00  0.00     0.029 A 
ATOM     59  N   UNL A   1      41.134  29.808  33.710  1.00  0.00    -0.354 N 
ATOM     60  N   UNL A   1      38.940  31.038  32.219  1.00  0.00    -0.248 NA
ATOM     61  C   UNL A   1      37.075  32.437  32.138  1.00  0.00     0.031 C 
ATOM     62  C   UNL A   1      41.422  30.373  35.839  1.00  0.00     0.029 A 
ATOM     63  C   UNL A   1      40.628  30.603  34.725  1.00  0.00     0.049 A 
ATOM     64  H   UNL A   1      40.762  29.750  32.800  1.00  0.00     0.167 HD
ATOM     65  C   UNL A   1      38.769  31.642  33.460  1.00  0.00     0.074 A 
ATOM     66  C   UNL A   1      37.626  32.522  33.340  1.00  0.00     0.031 C 
ATOM     67  C   UNL A   1      39.496  31.486  34.595  1.00  0.00     0.037 A 
BRANCH  54  68
ATOM     68  C   UNL A   1      44.142  27.447  34.025  1.00  0.00     0.064 A 
ATOM     69  C   UNL A   1      43.979  26.204  34.656  1.00  0.00     0.173 A 
ATOM     70  C   UNL A   1      45.430  28.004  34.000  1.00  0.00     0.173 A 
ATOM     71  F   UNL A   1      42.766  25.633  34.721  1.00  0.00    -0.203 F 
ATOM     72  C   UNL A   1      45.054  25.562  35.266  1.00  0.00     0.198 A 
ATOM     73  C   UNL A   1      46.509  27.343  34.581  1.00  0.00     0.198 A 
ATOM     74  F   UNL A   1      45.644  29.188  33.408  1.00  0.00    -0.203 F 
ATOM     75  F   UNL A   1      44.862  24.403  35.912  1.00  0.00    -0.200 F 
ATOM     76  C   UNL A   1      46.319  26.128  35.221  1.00  0.00     0.200 A 
ATOM     77  F   UNL A   1      47.733  27.885  34.522  1.00  0.00    -0.200 F 
ATOM     78  F   UNL A   1      47.354  25.507  35.803  1.00  0.00    -0.200 F 
ENDBRANCH  54  68
BRANCH  55  79
ATOM     79  C   UNL A   1      36.546  31.875  29.316  1.00  0.00     0.064 A 
ATOM     80  C   UNL A   1      36.527  33.252  29.054  1.00  0.00     0.173 A 
ATOM     81  C   UNL A   1      35.418  31.127  28.946  1.00  0.00     0.173 A 
ATOM     82  F   UNL A   1      37.567  34.018  29.416  1.00  0.00    -0.203 F 
ATOM     83  C   UNL A   1      35.417  33.859  28.468  1.00  0.00     0.198 A 
ATOM     84  C   UNL A   1      34.322  31.729  28.331  1.00  0.00     0.198 A 
ATOM     85  F   UNL A   1      35.381  29.808  29.181  1.00  0.00    -0.203 F 
ATOM     86  F   UNL A   1      35.402  35.186  28.282  1.00  0.00    -0.200 F 
ATOM     87  C   UNL A   1      34.319  33.097  28.101  1.00  0.00     0.200 A 
ATOM     88  F   UNL A   1      33.268  30.986  27.970  1.00  0.00    -0.200 F 
ATOM     89  F   UNL A   1      33.252  33.680  27.539  1.00  0.00    -0.200 F 
ENDBRANCH  55  79
BRANCH  67  90
ATOM     90  C   UNL A   1      39.116  32.323  35.786  1.00  0.00     0.064 A 
ATOM     91  C   UNL A   1      38.291  31.833  36.809  1.00  0.00     0.173 A 
ATOM     92  C   UNL A   1      39.613  33.630  35.917  1.00  0.00     0.173 A 
ATOM     93  F   UNL A   1      37.781  30.594  36.731  1.00  0.00    -0.203 F 
ATOM     94  C   UNL A   1      37.945  32.632  37.897  1.00  0.00     0.198 A 
ATOM     95  C   UNL A   1      39.295  34.413  37.025  1.00  0.00     0.198 A 
ATOM     96  F   UNL A   1      40.416  34.147  34.976  1.00  0.00    -0.203 F 
ATOM     97  F   UNL A   1      37.105  32.164  38.830  1.00  0.00    -0.200 F 
ATOM     98  C   UNL A   1      38.452  33.918  38.007  1.00  0.00     0.200 A 
ATOM     99  F   UNL A   1      39.802  35.648  37.137  1.00  0.00    -0.200 F 
ATOM    100  F   UNL A   1      38.121  34.684  39.056  1.00  0.00    -0.200 F 
ENDBRANCH  67  90
ENDBRANCH  41  42
ENDBRANCH  34  36
ENDBRANCH  33  34
ENDBRANCH  32  33
ENDBRANCH  31  32
ENDBRANCH  30  31
ENDBRANCH  29  30
ENDBRANCH   1  29
TORSDOF 22
ENDMDL
