MODEL 1
REMARK VINA RESULT:     -11.3      0.000      0.000
REMARK SMILES CS(=O)(=O)c1ccc(/C=C(/C(=O)OCCOCCOCCOC(=O)c2ccc(-c3c4nc(c(-c5c(F)c(F)c(F)c(F)c5F)c5ccc([nH]5)c(-c5c(F)c(F)c(F)c(F)c5F)c5nc(c(-c6c(F)c(F)c(F)c(F)c6F)c6ccc3[nH]6)C=C5)C=C4)cc2)c2cccc(Br)c2)cc1
REMARK SMILES IDX 17 1 16 2 15 3 14 4 13 5 11 6 12 7 10 8 9 9 8 10 5 11 6 12
REMARK SMILES IDX 96 13 7 14 95 15 2 16 1 17 3 18 4 19 88 20 89 21 94 22 90 23
REMARK SMILES IDX 92 24 91 25 93 26 18 27 19 28 20 29 21 30 22 31 23 32 24 33
REMARK SMILES IDX 25 34 26 35 87 36 27 37 86 38 28 39 29 40 30 41 80 42 31 43
REMARK SMILES IDX 85 44 79 45 81 46 32 47 84 48 78 49 77 50 33 52 65 53 45 54
REMARK SMILES IDX 64 55 46 56 49 57 63 58 82 59 47 60 48 61 62 63 83 64 50 65
REMARK SMILES IDX 34 66 35 67 43 68 36 69 37 70 41 71 44 72 38 73 39 74 42 75
REMARK SMILES IDX 40 76 66 77 67 78 75 79 68 80 69 81 73 82 76 83 70 84 71 85
REMARK SMILES IDX 74 86 72 87 51 88 52 89 60 90 53 91 54 92 58 93 61 94 55 95
REMARK SMILES IDX 56 96 59 97 57 98
REMARK H PARENT 81 51 49 62
REMARK Flexibility Score: inf
ROOT
ATOM      1  C   UNL A   1      32.475  27.145  25.457  1.00  0.00     0.188 C 
ENDROOT
BRANCH   1   2
ATOM      2  O   UNL A   1      33.335  27.652  24.465  1.00  0.00    -0.376 OA
BRANCH   2   3
ATOM      3  C   UNL A   1      34.019  26.741  23.624  1.00  0.00     0.202 C 
BRANCH   3   4
ATOM      4  C   UNL A   1      33.509  26.328  22.226  1.00  0.00     0.261 C 
BRANCH   4   5
ATOM      5  O   UNL A   1      33.100  24.967  22.034  1.00  0.00    -0.460 OA
BRANCH   5   6
ATOM      6  C   UNL A   1      32.087  24.506  22.809  1.00  0.00     0.338 C 
ATOM      7  O   UNL A   1      30.994  25.041  22.931  1.00  0.00    -0.246 OA
BRANCH   6   8
ATOM      8  C   UNL A   1      32.423  23.165  23.407  1.00  0.00     0.067 C 
ATOM      9  C   UNL A   1      31.741  22.059  23.017  1.00  0.00     0.024 C 
BRANCH   9  10
ATOM     10  C   UNL A   1      32.028  20.640  23.356  1.00  0.00    -0.025 A 
ATOM     11  C   UNL A   1      33.122  18.088  23.769  1.00  0.00     0.067 A 
ATOM     12  C   UNL A   1      32.876  18.925  24.857  1.00  0.00     0.021 A 
ATOM     13  C   UNL A   1      32.684  18.450  22.496  1.00  0.00     0.021 A 
ATOM     14  C   UNL A   1      32.291  20.176  24.650  1.00  0.00     0.009 A 
ATOM     15  C   UNL A   1      32.140  19.725  22.296  1.00  0.00     0.009 A 
BRANCH  11  16
ATOM     16  S   UNL A   1      34.095  16.632  24.065  1.00  0.00     0.175 S 
ATOM     17  C   UNL A   1      33.152  15.563  25.110  1.00  0.00     0.163 C 
ATOM     18  O   UNL A   1      35.259  17.054  24.820  1.00  0.00    -0.224 OA
ATOM     19  O   UNL A   1      34.231  15.974  22.779  1.00  0.00    -0.224 OA
ENDBRANCH  11  16
ENDBRANCH   9  10
BRANCH   8  20
ATOM     20  C   UNL A   1      33.512  23.126  24.408  1.00  0.00    -0.010 A 
ATOM     21  C   UNL A   1      33.234  23.491  25.737  1.00  0.00     0.009 A 
ATOM     22  C   UNL A   1      34.777  22.616  24.093  1.00  0.00     0.024 A 
ATOM     23  C   UNL A   1      34.188  23.319  26.739  1.00  0.00     0.002 A 
ATOM     24  C   UNL A   1      35.720  22.432  25.105  1.00  0.00     0.018 A 
ATOM     25  C   UNL A   1      35.432  22.779  26.424  1.00  0.00     0.016 A 
ATOM     26  Br  UNL A   1      37.385  21.639  24.695  1.00  0.00    -0.051 Br
ENDBRANCH   8  20
ENDBRANCH   6   8
ENDBRANCH   5   6
ENDBRANCH   4   5
ENDBRANCH   3   4
ENDBRANCH   2   3
ENDBRANCH   1   2
BRANCH   1  27
ATOM     27  C   UNL A   1      31.108  27.862  25.507  1.00  0.00     0.188 C 
BRANCH  27  28
ATOM     28  O   UNL A   1      30.794  28.880  24.568  1.00  0.00    -0.376 OA
BRANCH  28  29
ATOM     29  C   UNL A   1      31.031  30.239  24.907  1.00  0.00     0.202 C 
BRANCH  29  30
ATOM     30  C   UNL A   1      31.554  30.616  26.304  1.00  0.00     0.261 C 
BRANCH  30  31
ATOM     31  O   UNL A   1      32.979  30.553  26.487  1.00  0.00    -0.460 OA
BRANCH  31  32
ATOM     32  C   UNL A   1      33.506  31.545  27.247  1.00  0.00     0.338 C 
ATOM     33  O   UNL A   1      32.948  32.551  27.644  1.00  0.00    -0.246 OA
BRANCH  32  34
ATOM     34  C   UNL A   1      34.857  31.159  27.706  1.00  0.00     0.060 A 
ATOM     35  C   UNL A   1      35.098  29.805  27.984  1.00  0.00     0.016 A 
ATOM     36  C   UNL A   1      35.848  32.113  27.942  1.00  0.00     0.016 A 
ATOM     37  C   UNL A   1      36.312  29.406  28.537  1.00  0.00     0.010 A 
ATOM     38  C   UNL A   1      37.059  31.716  28.523  1.00  0.00     0.010 A 
ATOM     39  C   UNL A   1      37.278  30.368  28.860  1.00  0.00    -0.014 A 
BRANCH  39  40
ATOM     40  C   UNL A   1      38.402  29.981  29.749  1.00  0.00     0.031 A 
ATOM     41  C   UNL A   1      39.431  29.019  29.222  1.00  0.00     0.074 A 
ATOM     42  C   UNL A   1      38.543  30.513  30.976  1.00  0.00     0.049 A 
ATOM     43  N   UNL A   1      40.509  28.552  29.798  1.00  0.00    -0.248 NA
ATOM     44  C   UNL A   1      39.210  28.512  27.857  1.00  0.00     0.031 C 
ATOM     45  C   UNL A   1      37.632  31.471  31.591  1.00  0.00     0.029 A 
ATOM     46  N   UNL A   1      39.519  30.317  31.922  1.00  0.00    -0.354 N 
ATOM     47  C   UNL A   1      41.092  27.697  28.871  1.00  0.00     0.074 A 
ATOM     48  C   UNL A   1      40.232  27.685  27.706  1.00  0.00     0.031 C 
ATOM     49  C   UNL A   1      38.096  31.793  32.812  1.00  0.00     0.029 A 
ATOM     50  C   UNL A   1      39.316  31.032  33.077  1.00  0.00     0.049 A 
ATOM     51  H   UNL A   1      40.291  29.721  31.787  1.00  0.00     0.167 HD
ATOM     52  C   UNL A   1      42.243  26.990  28.974  1.00  0.00     0.037 A 
ATOM     53  C   UNL A   1      40.028  31.051  34.222  1.00  0.00     0.037 A 
ATOM     54  C   UNL A   1      43.091  26.989  30.137  1.00  0.00     0.049 A 
ATOM     55  C   UNL A   1      41.273  30.204  34.337  1.00  0.00     0.074 A 
ATOM     56  C   UNL A   1      44.277  26.305  30.339  1.00  0.00     0.029 A 
ATOM     57  N   UNL A   1      42.836  27.700  31.301  1.00  0.00    -0.354 N 
ATOM     58  N   UNL A   1      41.831  29.418  33.446  1.00  0.00    -0.248 NA
ATOM     59  C   UNL A   1      41.987  30.249  35.621  1.00  0.00     0.031 C 
ATOM     60  C   UNL A   1      44.710  26.558  31.645  1.00  0.00     0.029 A 
ATOM     61  C   UNL A   1      43.831  27.452  32.233  1.00  0.00     0.049 A 
ATOM     62  H   UNL A   1      42.063  28.292  31.442  1.00  0.00     0.167 HD
ATOM     63  C   UNL A   1      42.976  28.909  34.047  1.00  0.00     0.074 A 
ATOM     64  C   UNL A   1      43.040  29.483  35.374  1.00  0.00     0.031 C 
ATOM     65  C   UNL A   1      43.892  28.043  33.546  1.00  0.00     0.037 A 
BRANCH  52  66
ATOM     66  C   UNL A   1      42.630  26.130  27.806  1.00  0.00     0.064 A 
ATOM     67  C   UNL A   1      43.598  26.538  26.877  1.00  0.00     0.173 A 
ATOM     68  C   UNL A   1      42.035  24.871  27.626  1.00  0.00     0.173 A 
ATOM     69  F   UNL A   1      44.183  27.739  26.993  1.00  0.00    -0.203 F 
ATOM     70  C   UNL A   1      43.935  25.730  25.793  1.00  0.00     0.198 A 
ATOM     71  C   UNL A   1      42.398  24.054  26.560  1.00  0.00     0.198 A 
ATOM     72  F   UNL A   1      41.105  24.432  28.487  1.00  0.00    -0.203 F 
ATOM     73  F   UNL A   1      44.822  26.163  24.886  1.00  0.00    -0.200 F 
ATOM     74  C   UNL A   1      43.340  24.487  25.639  1.00  0.00     0.200 A 
ATOM     75  F   UNL A   1      41.831  22.847  26.420  1.00  0.00    -0.200 F 
ATOM     76  F   UNL A   1      43.668  23.709  24.598  1.00  0.00    -0.200 F 
ENDBRANCH  52  66
BRANCH  53  77
ATOM     77  C   UNL A   1      39.586  31.895  35.365  1.00  0.00     0.064 A 
ATOM     78  C   UNL A   1      38.652  31.422  36.297  1.00  0.00     0.173 A 
ATOM     79  C   UNL A   1      40.057  33.207  35.524  1.00  0.00     0.173 A 
ATOM     80  F   UNL A   1      38.150  30.184  36.172  1.00  0.00    -0.203 F 
ATOM     81  C   UNL A   1      38.185  32.236  37.328  1.00  0.00     0.198 A 
ATOM     82  C   UNL A   1      39.615  34.009  36.574  1.00  0.00     0.198 A 
ATOM     83  F   UNL A   1      40.948  33.711  34.658  1.00  0.00    -0.203 F 
ATOM     84  F   UNL A   1      37.247  31.779  38.167  1.00  0.00    -0.200 F 
ATOM     85  C   UNL A   1      38.671  33.527  37.469  1.00  0.00     0.200 A 
ATOM     86  F   UNL A   1      40.095  35.252  36.712  1.00  0.00    -0.200 F 
ATOM     87  F   UNL A   1      38.220  34.311  38.457  1.00  0.00    -0.200 F 
ENDBRANCH  53  77
BRANCH  65  88
ATOM     88  C   UNL A   1      45.077  27.706  34.411  1.00  0.00     0.064 A 
ATOM     89  C   UNL A   1      45.088  26.586  35.255  1.00  0.00     0.173 A 
ATOM     90  C   UNL A   1      46.232  28.504  34.368  1.00  0.00     0.173 A 
ATOM     91  F   UNL A   1      44.007  25.795  35.343  1.00  0.00    -0.203 F 
ATOM     92  C   UNL A   1      46.195  26.298  36.051  1.00  0.00     0.198 A 
ATOM     93  C   UNL A   1      47.350  28.193  35.138  1.00  0.00     0.198 A 
ATOM     94  F   UNL A   1      46.281  29.581  33.571  1.00  0.00    -0.203 F 
ATOM     95  F   UNL A   1      46.159  25.256  36.894  1.00  0.00    -0.200 F 
ATOM     96  C   UNL A   1      47.327  27.097  35.987  1.00  0.00     0.200 A 
ATOM     97  F   UNL A   1      48.448  28.956  35.060  1.00  0.00    -0.200 F 
ATOM     98  F   UNL A   1      48.392  26.816  36.749  1.00  0.00    -0.200 F 
ENDBRANCH  65  88
ENDBRANCH  39  40
ENDBRANCH  32  34
ENDBRANCH  31  32
ENDBRANCH  30  31
ENDBRANCH  29  30
ENDBRANCH  28  29
ENDBRANCH  27  28
ENDBRANCH   1  27
TORSDOF 20
ENDMDL
MODEL 2
REMARK VINA RESULT:     -11.3      0.577      7.132
REMARK SMILES CS(=O)(=O)c1ccc(/C=C(/C(=O)OCCOCCOCCOC(=O)c2ccc(-c3c4nc(c(-c5c(F)c(F)c(F)c(F)c5F)c5ccc([nH]5)c(-c5c(F)c(F)c(F)c(F)c5F)c5nc(c(-c6c(F)c(F)c(F)c(F)c6F)c6ccc3[nH]6)C=C5)C=C4)cc2)c2cccc(Br)c2)cc1
REMARK SMILES IDX 17 1 16 2 15 3 14 4 13 5 11 6 12 7 10 8 9 9 8 10 5 11 6 12
REMARK SMILES IDX 96 13 7 14 95 15 2 16 1 17 3 18 4 19 88 20 89 21 94 22 90 23
REMARK SMILES IDX 92 24 91 25 93 26 18 27 19 28 20 29 21 30 22 31 23 32 24 33
REMARK SMILES IDX 25 34 26 35 87 36 27 37 86 38 28 39 29 40 30 41 80 42 31 43
REMARK SMILES IDX 85 44 79 45 81 46 32 47 84 48 78 49 77 50 33 52 65 53 45 54
REMARK SMILES IDX 64 55 46 56 49 57 63 58 82 59 47 60 48 61 62 63 83 64 50 65
REMARK SMILES IDX 34 66 35 67 43 68 36 69 37 70 41 71 44 72 38 73 39 74 42 75
REMARK SMILES IDX 40 76 66 77 67 78 75 79 68 80 69 81 73 82 76 83 70 84 71 85
REMARK SMILES IDX 74 86 72 87 51 88 52 89 60 90 53 91 54 92 58 93 61 94 55 95
REMARK SMILES IDX 56 96 59 97 57 98
REMARK H PARENT 81 51 49 62
REMARK Flexibility Score: inf
ROOT
ATOM      1  C   UNL A   1      32.543  27.221  25.401  1.00  0.00     0.188 C 
ENDROOT
BRANCH   1   2
ATOM      2  O   UNL A   1      33.361  27.730  24.374  1.00  0.00    -0.376 OA
BRANCH   2   3
ATOM      3  C   UNL A   1      34.080  26.821  23.561  1.00  0.00     0.202 C 
BRANCH   3   4
ATOM      4  C   UNL A   1      33.615  26.393  22.151  1.00  0.00     0.261 C 
BRANCH   4   5
ATOM      5  O   UNL A   1      33.243  25.022  21.952  1.00  0.00    -0.460 OA
BRANCH   5   6
ATOM      6  C   UNL A   1      32.188  24.553  22.664  1.00  0.00     0.338 C 
ATOM      7  O   UNL A   1      31.083  25.074  22.711  1.00  0.00    -0.246 OA
BRANCH   6   8
ATOM      8  C   UNL A   1      32.502  23.222  23.294  1.00  0.00     0.067 C 
ATOM      9  C   UNL A   1      31.799  22.119  22.934  1.00  0.00     0.024 C 
BRANCH   9  10
ATOM     10  C   UNL A   1      32.061  20.704  23.307  1.00  0.00    -0.025 A 
ATOM     11  C   UNL A   1      33.104  18.138  23.761  1.00  0.00     0.067 A 
ATOM     12  C   UNL A   1      32.918  19.014  24.831  1.00  0.00     0.021 A 
ATOM     13  C   UNL A   1      32.629  18.472  22.494  1.00  0.00     0.021 A 
ATOM     14  C   UNL A   1      32.358  20.273  24.605  1.00  0.00     0.009 A 
ATOM     15  C   UNL A   1      32.111  19.755  22.273  1.00  0.00     0.009 A 
BRANCH  11  16
ATOM     16  S   UNL A   1      34.049  16.665  24.067  1.00  0.00     0.175 S 
ATOM     17  C   UNL A   1      33.049  15.583  25.044  1.00  0.00     0.163 C 
ATOM     18  O   UNL A   1      35.181  17.059  24.884  1.00  0.00    -0.224 OA
ATOM     19  O   UNL A   1      34.238  16.036  22.775  1.00  0.00    -0.224 OA
ENDBRANCH  11  16
ENDBRANCH   9  10
BRANCH   8  20
ATOM     20  C   UNL A   1      33.595  23.188  24.290  1.00  0.00    -0.010 A 
ATOM     21  C   UNL A   1      33.347  23.647  25.596  1.00  0.00     0.009 A 
ATOM     22  C   UNL A   1      34.830  22.595  24.001  1.00  0.00     0.024 A 
ATOM     23  C   UNL A   1      34.299  23.487  26.602  1.00  0.00     0.002 A 
ATOM     24  C   UNL A   1      35.770  22.424  25.019  1.00  0.00     0.018 A 
ATOM     25  C   UNL A   1      35.511  22.866  26.316  1.00  0.00     0.016 A 
ATOM     26  Br  UNL A   1      37.389  21.522  24.651  1.00  0.00    -0.051 Br
ENDBRANCH   8  20
ENDBRANCH   6   8
ENDBRANCH   5   6
ENDBRANCH   4   5
ENDBRANCH   3   4
ENDBRANCH   2   3
ENDBRANCH   1   2
BRANCH   1  27
ATOM     27  C   UNL A   1      31.267  28.059  25.637  1.00  0.00     0.188 C 
BRANCH  27  28
ATOM     28  O   UNL A   1      30.999  29.203  24.840  1.00  0.00    -0.376 OA
BRANCH  28  29
ATOM     29  C   UNL A   1      31.311  30.494  25.345  1.00  0.00     0.202 C 
BRANCH  29  30
ATOM     30  C   UNL A   1      31.929  30.656  26.745  1.00  0.00     0.261 C 
BRANCH  30  31
ATOM     31  O   UNL A   1      33.362  30.564  26.821  1.00  0.00    -0.460 OA
BRANCH  31  32
ATOM     32  C   UNL A   1      33.967  31.556  27.521  1.00  0.00     0.338 C 
ATOM     33  O   UNL A   1      33.465  32.584  27.934  1.00  0.00    -0.246 OA
BRANCH  32  34
ATOM     34  C   UNL A   1      35.336  31.142  27.893  1.00  0.00     0.060 A 
ATOM     35  C   UNL A   1      35.602  29.769  28.008  1.00  0.00     0.016 A 
ATOM     36  C   UNL A   1      36.322  32.079  28.208  1.00  0.00     0.016 A 
ATOM     37  C   UNL A   1      36.838  29.330  28.476  1.00  0.00     0.010 A 
ATOM     38  C   UNL A   1      37.555  31.638  28.704  1.00  0.00     0.010 A 
ATOM     39  C   UNL A   1      37.801  30.264  28.878  1.00  0.00    -0.014 A 
BRANCH  39  40
ATOM     40  C   UNL A   1      38.957  29.797  29.685  1.00  0.00     0.031 A 
ATOM     41  C   UNL A   1      39.113  30.328  31.083  1.00  0.00     0.074 A 
ATOM     42  C   UNL A   1      39.819  28.879  29.212  1.00  0.00     0.049 A 
ATOM     43  N   UNL A   1      40.022  30.053  31.984  1.00  0.00    -0.248 NA
ATOM     44  C   UNL A   1      38.105  31.306  31.524  1.00  0.00     0.031 C 
ATOM     45  C   UNL A   1      39.763  28.271  27.888  1.00  0.00     0.029 A 
ATOM     46  N   UNL A   1      40.912  28.298  29.807  1.00  0.00    -0.354 N 
ATOM     47  C   UNL A   1      39.699  30.824  33.093  1.00  0.00     0.074 A 
ATOM     48  C   UNL A   1      38.529  31.601  32.743  1.00  0.00     0.031 C 
ATOM     49  C   UNL A   1      40.771  27.388  27.770  1.00  0.00     0.029 A 
ATOM     50  C   UNL A   1      41.566  27.401  28.998  1.00  0.00     0.049 A 
ATOM     51  H   UNL A   1      41.200  28.504  30.726  1.00  0.00     0.167 HD
ATOM     52  C   UNL A   1      40.314  30.876  34.298  1.00  0.00     0.037 A 
ATOM     53  C   UNL A   1      42.689  26.689  29.223  1.00  0.00     0.037 A 
ATOM     54  C   UNL A   1      41.486  30.116  34.643  1.00  0.00     0.049 A 
ATOM     55  C   UNL A   1      43.394  26.814  30.552  1.00  0.00     0.074 A 
ATOM     56  C   UNL A   1      42.185  30.101  35.838  1.00  0.00     0.029 A 
ATOM     57  N   UNL A   1      42.141  29.242  33.787  1.00  0.00    -0.354 N 
ATOM     58  N   UNL A   1      43.068  27.525  31.604  1.00  0.00    -0.248 NA
ATOM     59  C   UNL A   1      44.628  26.032  30.721  1.00  0.00     0.031 C 
ATOM     60  C   UNL A   1      43.294  29.262  35.685  1.00  0.00     0.029 A 
ATOM     61  C   UNL A   1      43.248  28.701  34.420  1.00  0.00     0.049 A 
ATOM     62  H   UNL A   1      41.859  29.038  32.866  1.00  0.00     0.167 HD
ATOM     63  C   UNL A   1      44.030  27.248  32.569  1.00  0.00     0.074 A 
ATOM     64  C   UNL A   1      44.946  26.295  31.981  1.00  0.00     0.031 C 
ATOM     65  C   UNL A   1      44.145  27.739  33.828  1.00  0.00     0.037 A 
BRANCH  52  66
ATOM     66  C   UNL A   1      39.748  31.818  35.321  1.00  0.00     0.064 A 
ATOM     67  C   UNL A   1      38.755  31.416  36.226  1.00  0.00     0.173 A 
ATOM     68  C   UNL A   1      40.218  33.138  35.406  1.00  0.00     0.173 A 
ATOM     69  F   UNL A   1      38.259  30.170  36.176  1.00  0.00    -0.203 F 
ATOM     70  C   UNL A   1      38.233  32.308  37.160  1.00  0.00     0.198 A 
ATOM     71  C   UNL A   1      39.716  34.017  36.361  1.00  0.00     0.198 A 
ATOM     72  F   UNL A   1      41.167  33.574  34.565  1.00  0.00    -0.203 F 
ATOM     73  F   UNL A   1      37.246  31.918  37.979  1.00  0.00    -0.200 F 
ATOM     74  C   UNL A   1      38.719  33.605  37.231  1.00  0.00     0.200 A 
ATOM     75  F   UNL A   1      40.197  35.267  36.437  1.00  0.00    -0.200 F 
ATOM     76  F   UNL A   1      38.218  34.462  38.132  1.00  0.00    -0.200 F 
ENDBRANCH  52  66
BRANCH  53  77
ATOM     77  C   UNL A   1      43.232  25.793  28.165  1.00  0.00     0.064 A 
ATOM     78  C   UNL A   1      42.911  24.429  28.135  1.00  0.00     0.173 A 
ATOM     79  C   UNL A   1      44.117  26.276  27.189  1.00  0.00     0.173 A 
ATOM     80  F   UNL A   1      42.092  23.913  29.063  1.00  0.00    -0.203 F 
ATOM     81  C   UNL A   1      43.474  23.577  27.187  1.00  0.00     0.198 A 
ATOM     82  C   UNL A   1      44.654  25.430  26.222  1.00  0.00     0.198 A 
ATOM     83  F   UNL A   1      44.461  27.572  27.176  1.00  0.00    -0.203 F 
ATOM     84  F   UNL A   1      43.198  22.267  27.219  1.00  0.00    -0.200 F 
ATOM     85  C   UNL A   1      44.341  24.079  26.227  1.00  0.00     0.200 A 
ATOM     86  F   UNL A   1      45.482  25.921  25.291  1.00  0.00    -0.200 F 
ATOM     87  F   UNL A   1      44.885  23.259  25.318  1.00  0.00    -0.200 F 
ENDBRANCH  53  77
BRANCH  65  88
ATOM     88  C   UNL A   1      45.267  27.213  34.681  1.00  0.00     0.064 A 
ATOM     89  C   UNL A   1      46.519  27.842  34.736  1.00  0.00     0.173 A 
ATOM     90  C   UNL A   1      45.073  26.073  35.479  1.00  0.00     0.173 A 
ATOM     91  F   UNL A   1      46.763  28.928  33.986  1.00  0.00    -0.203 F 
ATOM     92  C   UNL A   1      47.545  27.332  35.528  1.00  0.00     0.198 A 
ATOM     93  C   UNL A   1      46.089  25.586  36.297  1.00  0.00     0.198 A 
ATOM     94  F   UNL A   1      43.893  25.437  35.474  1.00  0.00    -0.203 F 
ATOM     95  F   UNL A   1      48.751  27.917  35.519  1.00  0.00    -0.200 F 
ATOM     96  C   UNL A   1      47.328  26.209  36.313  1.00  0.00     0.200 A 
ATOM     97  F   UNL A   1      45.870  24.513  37.068  1.00  0.00    -0.200 F 
ATOM     98  F   UNL A   1      48.314  25.723  37.078  1.00  0.00    -0.200 F 
ENDBRANCH  65  88
ENDBRANCH  39  40
ENDBRANCH  32  34
ENDBRANCH  31  32
ENDBRANCH  30  31
ENDBRANCH  29  30
ENDBRANCH  28  29
ENDBRANCH  27  28
ENDBRANCH   1  27
TORSDOF 20
ENDMDL
MODEL 3
REMARK VINA RESULT:     -10.8      1.584      2.496
REMARK SMILES CS(=O)(=O)c1ccc(/C=C(/C(=O)OCCOCCOCCOC(=O)c2ccc(-c3c4nc(c(-c5c(F)c(F)c(F)c(F)c5F)c5ccc([nH]5)c(-c5c(F)c(F)c(F)c(F)c5F)c5nc(c(-c6c(F)c(F)c(F)c(F)c6F)c6ccc3[nH]6)C=C5)C=C4)cc2)c2cccc(Br)c2)cc1
REMARK SMILES IDX 17 1 16 2 15 3 14 4 13 5 11 6 12 7 10 8 9 9 8 10 5 11 6 12
REMARK SMILES IDX 96 13 7 14 95 15 2 16 1 17 3 18 4 19 88 20 89 21 94 22 90 23
REMARK SMILES IDX 92 24 91 25 93 26 18 27 19 28 20 29 21 30 22 31 23 32 24 33
REMARK SMILES IDX 25 34 26 35 87 36 27 37 86 38 28 39 29 40 30 41 80 42 31 43
REMARK SMILES IDX 85 44 79 45 81 46 32 47 84 48 78 49 77 50 33 52 65 53 45 54
REMARK SMILES IDX 64 55 46 56 49 57 63 58 82 59 47 60 48 61 62 63 83 64 50 65
REMARK SMILES IDX 34 66 35 67 43 68 36 69 37 70 41 71 44 72 38 73 39 74 42 75
REMARK SMILES IDX 40 76 66 77 67 78 75 79 68 80 69 81 73 82 76 83 70 84 71 85
REMARK SMILES IDX 74 86 72 87 51 88 52 89 60 90 53 91 54 92 58 93 61 94 55 95
REMARK SMILES IDX 56 96 59 97 57 98
REMARK H PARENT 81 51 49 62
REMARK Flexibility Score: inf
ROOT
ATOM      1  C   UNL A   1      33.599  28.567  25.747  1.00  0.00     0.188 C 
ENDROOT
BRANCH   1   2
ATOM      2  O   UNL A   1      34.029  29.451  24.739  1.00  0.00    -0.376 OA
BRANCH   2   3
ATOM      3  C   UNL A   1      34.161  28.964  23.416  1.00  0.00     0.202 C 
BRANCH   3   4
ATOM      4  C   UNL A   1      33.287  27.829  22.837  1.00  0.00     0.261 C 
BRANCH   4   5
ATOM      5  O   UNL A   1      33.938  26.613  22.444  1.00  0.00    -0.460 OA
BRANCH   5   6
ATOM      6  C   UNL A   1      33.235  25.755  21.662  1.00  0.00     0.338 C 
ATOM      7  O   UNL A   1      33.101  25.854  20.451  1.00  0.00    -0.246 OA
BRANCH   6   8
ATOM      8  C   UNL A   1      32.742  24.573  22.455  1.00  0.00     0.067 C 
ATOM      9  C   UNL A   1      33.171  23.323  22.146  1.00  0.00     0.024 C 
BRANCH   9  10
ATOM     10  C   UNL A   1      32.940  22.063  22.899  1.00  0.00    -0.025 A 
ATOM     11  C   UNL A   1      32.836  19.433  23.875  1.00  0.00     0.067 A 
ATOM     12  C   UNL A   1      33.610  20.390  24.532  1.00  0.00     0.021 A 
ATOM     13  C   UNL A   1      31.993  19.813  22.832  1.00  0.00     0.021 A 
ATOM     14  C   UNL A   1      33.623  21.707  24.068  1.00  0.00     0.009 A 
ATOM     15  C   UNL A   1      32.050  21.126  22.349  1.00  0.00     0.009 A 
BRANCH  11  16
ATOM     16  S   UNL A   1      33.060  17.736  24.351  1.00  0.00     0.175 S 
ATOM     17  C   UNL A   1      34.787  17.485  24.633  1.00  0.00     0.163 C 
ATOM     18  O   UNL A   1      32.689  16.929  23.205  1.00  0.00    -0.224 OA
ATOM     19  O   UNL A   1      32.385  17.587  25.626  1.00  0.00    -0.224 OA
ENDBRANCH  11  16
ENDBRANCH   9  10
BRANCH   8  20
ATOM     20  C   UNL A   1      31.800  24.848  23.561  1.00  0.00    -0.010 A 
ATOM     21  C   UNL A   1      32.253  24.746  24.888  1.00  0.00     0.009 A 
ATOM     22  C   UNL A   1      30.506  25.327  23.319  1.00  0.00     0.024 A 
ATOM     23  C   UNL A   1      31.444  25.146  25.951  1.00  0.00     0.002 A 
ATOM     24  C   UNL A   1      29.710  25.741  24.388  1.00  0.00     0.018 A 
ATOM     25  C   UNL A   1      30.172  25.654  25.701  1.00  0.00     0.016 A 
ATOM     26  Br  UNL A   1      28.010  26.492  24.049  1.00  0.00    -0.051 Br
ENDBRANCH   8  20
ENDBRANCH   6   8
ENDBRANCH   5   6
ENDBRANCH   4   5
ENDBRANCH   3   4
ENDBRANCH   2   3
ENDBRANCH   1   2
BRANCH   1  27
ATOM     27  C   UNL A   1      32.133  28.794  26.174  1.00  0.00     0.188 C 
BRANCH  27  28
ATOM     28  O   UNL A   1      31.254  29.554  25.358  1.00  0.00    -0.376 OA
BRANCH  28  29
ATOM     29  C   UNL A   1      31.037  30.927  25.656  1.00  0.00     0.202 C 
BRANCH  29  30
ATOM     30  C   UNL A   1      31.751  31.589  26.848  1.00  0.00     0.261 C 
BRANCH  30  31
ATOM     31  O   UNL A   1      33.074  32.092  26.595  1.00  0.00    -0.460 OA
BRANCH  31  32
ATOM     32  C   UNL A   1      33.606  32.841  27.593  1.00  0.00     0.338 C 
ATOM     33  O   UNL A   1      33.088  33.778  28.172  1.00  0.00    -0.246 OA
BRANCH  32  34
ATOM     34  C   UNL A   1      34.885  32.248  28.036  1.00  0.00     0.060 A 
ATOM     35  C   UNL A   1      34.890  30.898  28.416  1.00  0.00     0.016 A 
ATOM     36  C   UNL A   1      36.042  33.020  28.160  1.00  0.00     0.016 A 
ATOM     37  C   UNL A   1      36.038  30.326  28.958  1.00  0.00     0.010 A 
ATOM     38  C   UNL A   1      37.188  32.451  28.731  1.00  0.00     0.010 A 
ATOM     39  C   UNL A   1      37.176  31.114  29.169  1.00  0.00    -0.014 A 
BRANCH  39  40
ATOM     40  C   UNL A   1      38.253  30.595  30.049  1.00  0.00     0.031 A 
ATOM     41  C   UNL A   1      39.229  29.606  29.474  1.00  0.00     0.074 A 
ATOM     42  C   UNL A   1      38.400  31.030  31.312  1.00  0.00     0.049 A 
ATOM     43  N   UNL A   1      40.263  29.031  30.035  1.00  0.00    -0.248 NA
ATOM     44  C   UNL A   1      39.007  29.210  28.073  1.00  0.00     0.031 C 
ATOM     45  C   UNL A   1      37.539  32.001  31.976  1.00  0.00     0.029 A 
ATOM     46  N   UNL A   1      39.340  30.707  32.260  1.00  0.00    -0.354 N 
ATOM     47  C   UNL A   1      40.810  28.205  29.060  1.00  0.00     0.074 A 
ATOM     48  C   UNL A   1      39.977  28.329  27.883  1.00  0.00     0.031 C 
ATOM     49  C   UNL A   1      37.995  32.209  33.225  1.00  0.00     0.029 A 
ATOM     50  C   UNL A   1      39.158  31.353  33.458  1.00  0.00     0.049 A 
ATOM     51  H   UNL A   1      40.075  30.072  32.096  1.00  0.00     0.167 HD
ATOM     52  C   UNL A   1      41.911  27.420  29.135  1.00  0.00     0.037 A 
ATOM     53  C   UNL A   1      39.845  31.247  34.614  1.00  0.00     0.037 A 
ATOM     54  C   UNL A   1      42.731  27.283  30.309  1.00  0.00     0.049 A 
ATOM     55  C   UNL A   1      41.029  30.314  34.691  1.00  0.00     0.074 A 
ATOM     56  C   UNL A   1      43.866  26.511  30.484  1.00  0.00     0.029 A 
ATOM     57  N   UNL A   1      42.496  27.927  31.515  1.00  0.00    -0.354 N 
ATOM     58  N   UNL A   1      41.556  29.557  33.758  1.00  0.00    -0.248 NA
ATOM     59  C   UNL A   1      41.716  30.224  35.988  1.00  0.00     0.031 C 
ATOM     60  C   UNL A   1      44.285  26.644  31.812  1.00  0.00     0.029 A 
ATOM     61  C   UNL A   1      43.453  27.552  32.446  1.00  0.00     0.049 A 
ATOM     62  H   UNL A   1      41.759  28.558  31.684  1.00  0.00     0.167 HD
ATOM     63  C   UNL A   1      42.652  28.933  34.342  1.00  0.00     0.074 A 
ATOM     64  C   UNL A   1      42.723  29.410  35.707  1.00  0.00     0.031 C 
ATOM     65  C   UNL A   1      43.522  28.046  33.798  1.00  0.00     0.037 A 
BRANCH  52  66
ATOM     66  C   UNL A   1      42.268  26.618  27.917  1.00  0.00     0.064 A 
ATOM     67  C   UNL A   1      41.700  25.360  27.668  1.00  0.00     0.173 A 
ATOM     68  C   UNL A   1      43.179  27.125  26.977  1.00  0.00     0.173 A 
ATOM     69  F   UNL A   1      40.838  24.822  28.543  1.00  0.00    -0.203 F 
ATOM     70  C   UNL A   1      42.054  24.625  26.538  1.00  0.00     0.198 A 
ATOM     71  C   UNL A   1      43.505  26.402  25.833  1.00  0.00     0.198 A 
ATOM     72  F   UNL A   1      43.750  28.324  27.166  1.00  0.00    -0.203 F 
ATOM     73  F   UNL A   1      41.541  23.402  26.348  1.00  0.00    -0.200 F 
ATOM     74  C   UNL A   1      42.950  25.150  25.619  1.00  0.00     0.200 A 
ATOM     75  F   UNL A   1      44.362  26.917  24.939  1.00  0.00    -0.200 F 
ATOM     76  F   UNL A   1      43.286  24.444  24.530  1.00  0.00    -0.200 F 
ENDBRANCH  52  66
BRANCH  53  77
ATOM     77  C   UNL A   1      39.432  32.037  35.805  1.00  0.00     0.064 A 
ATOM     78  C   UNL A   1      38.456  31.559  36.690  1.00  0.00     0.173 A 
ATOM     79  C   UNL A   1      39.975  33.306  36.059  1.00  0.00     0.173 A 
ATOM     80  F   UNL A   1      37.885  30.364  36.476  1.00  0.00    -0.203 F 
ATOM     81  C   UNL A   1      38.019  32.328  37.767  1.00  0.00     0.198 A 
ATOM     82  C   UNL A   1      39.562  34.061  37.154  1.00  0.00     0.198 A 
ATOM     83  F   UNL A   1      40.908  33.813  35.241  1.00  0.00    -0.203 F 
ATOM     84  F   UNL A   1      37.041  31.872  38.561  1.00  0.00    -0.200 F 
ATOM     85  C   UNL A   1      38.576  33.577  38.001  1.00  0.00     0.200 A 
ATOM     86  F   UNL A   1      40.110  35.261  37.383  1.00  0.00    -0.200 F 
ATOM     87  F   UNL A   1      38.153  34.318  39.034  1.00  0.00    -0.200 F 
ENDBRANCH  53  77
BRANCH  65  88
ATOM     88  C   UNL A   1      44.663  27.573  34.657  1.00  0.00     0.064 A 
ATOM     89  C   UNL A   1      45.859  28.297  34.772  1.00  0.00     0.173 A 
ATOM     90  C   UNL A   1      44.542  26.389  35.402  1.00  0.00     0.173 A 
ATOM     91  F   UNL A   1      46.033  29.430  34.074  1.00  0.00    -0.203 F 
ATOM     92  C   UNL A   1      46.903  27.835  35.570  1.00  0.00     0.198 A 
ATOM     93  C   UNL A   1      45.574  25.948  36.227  1.00  0.00     0.198 A 
ATOM     94  F   UNL A   1      43.416  25.662  35.339  1.00  0.00    -0.203 F 
ATOM     95  F   UNL A   1      48.059  28.513  35.617  1.00  0.00    -0.200 F 
ATOM     96  C   UNL A   1      46.758  26.665  36.301  1.00  0.00     0.200 A 
ATOM     97  F   UNL A   1      45.423  24.828  36.947  1.00  0.00    -0.200 F 
ATOM     98  F   UNL A   1      47.762  26.226  37.072  1.00  0.00    -0.200 F 
ENDBRANCH  65  88
ENDBRANCH  39  40
ENDBRANCH  32  34
ENDBRANCH  31  32
ENDBRANCH  30  31
ENDBRANCH  29  30
ENDBRANCH  28  29
ENDBRANCH  27  28
ENDBRANCH   1  27
TORSDOF 20
ENDMDL
