MODEL 1
REMARK VINA RESULT:     -11.4      0.000      0.000
REMARK SMILES Cc1csc(NC(=O)[C@@H]2CC=CC[C@H]2C(=O)OCCOCCOCCOC(=O)c2ccc(-c3c4nc(c(-c5c(F)c(F)c(F)c(F)c5F)c5ccc([nH]5)c(-c5c(F)c(F)c(F)c(F)c5F)c5nc(c(-c6c(F)c(F)c(F)c(F)c6F)c6ccc3[nH]6)C=C5)C=C4)cc2)n1
REMARK SMILES IDX 21 1 20 2 19 3 18 4 17 5 15 6 16 7 14 8 9 9 10 10 11 11
REMARK SMILES IDX 13 12 12 13 7 14 6 15 8 17 5 18 1 19 2 20 3 21 92 22 4 23
REMARK SMILES IDX 22 24 23 25 24 26 25 27 26 28 27 29 28 30 29 31 30 32 91 33
REMARK SMILES IDX 31 34 90 35 32 36 33 37 34 38 84 39 35 40 89 41 83 42 85 43
REMARK SMILES IDX 36 44 88 45 82 46 81 47 37 49 69 50 49 51 68 52 50 53 53 54
REMARK SMILES IDX 67 55 86 56 51 57 52 58 66 60 87 61 54 62 38 63 39 64 47 65
REMARK SMILES IDX 40 66 41 67 45 68 48 69 42 70 43 71 46 72 44 73 70 74 71 75
REMARK SMILES IDX 79 76 72 77 73 78 77 79 80 80 74 81 75 82 78 83 76 84 55 85
REMARK SMILES IDX 56 86 64 87 57 88 58 89 62 90 65 91 59 92 60 93 63 94 61 95
REMARK H PARENT 6 16 85 48 53 59
REMARK Flexibility Score: inf
ROOT
ATOM      1  C   UNL A   1      31.142  28.401  22.362  1.00  0.00     0.188 C 
ENDROOT
BRANCH   1   2
ATOM      2  O   UNL A   1      32.119  27.371  22.490  1.00  0.00    -0.376 OA
BRANCH   2   3
ATOM      3  C   UNL A   1      31.922  26.169  21.759  1.00  0.00     0.202 C 
BRANCH   3   4
ATOM      4  C   UNL A   1      32.022  24.874  22.559  1.00  0.00     0.261 C 
BRANCH   4   5
ATOM      5  O   UNL A   1      33.087  24.002  22.129  1.00  0.00    -0.463 OA
BRANCH   5   6
ATOM      6  C   UNL A   1      33.071  22.745  22.657  1.00  0.00     0.310 C 
ATOM      7  O   UNL A   1      32.216  21.901  22.418  1.00  0.00    -0.252 OA
BRANCH   6   8
ATOM      8  C   UNL A   1      34.093  22.579  23.770  1.00  0.00     0.116 C 
ATOM      9  C   UNL A   1      34.067  21.250  24.582  1.00  0.00     0.097 C 
ATOM     10  C   UNL A   1      35.289  21.203  25.505  1.00  0.00     0.041 C 
ATOM     11  C   UNL A   1      36.564  21.805  25.012  1.00  0.00    -0.030 C 
ATOM     12  C   UNL A   1      35.443  22.867  23.085  1.00  0.00     0.043 C 
ATOM     13  C   UNL A   1      36.639  22.560  23.916  1.00  0.00    -0.030 C 
BRANCH   9  14
ATOM     14  C   UNL A   1      32.708  21.097  25.311  1.00  0.00     0.230 C 
ATOM     15  N   UNL A   1      32.235  21.882  26.319  1.00  0.00    -0.302 N 
ATOM     16  H   UNL A   1      31.881  21.404  27.103  1.00  0.00     0.172 HD
ATOM     17  O   UNL A   1      32.034  20.075  25.110  1.00  0.00    -0.274 OA
BRANCH  15  18
ATOM     18  C   UNL A   1      32.187  23.243  26.382  1.00  0.00     0.189 A 
ATOM     19  C   UNL A   1      33.653  26.480  26.012  1.00  0.00     0.068 C 
ATOM     20  C   UNL A   1      32.661  25.387  26.161  1.00  0.00     0.051 A 
ATOM     21  C   UNL A   1      31.284  25.461  26.087  1.00  0.00     0.092 A 
ATOM     22  N   UNL A   1      33.151  24.113  26.354  1.00  0.00    -0.225 NA
ATOM     23  S   UNL A   1      30.607  23.893  26.300  1.00  0.00    -0.105 S 
ENDBRANCH  15  18
ENDBRANCH   9  14
ENDBRANCH   6   8
ENDBRANCH   5   6
ENDBRANCH   4   5
ENDBRANCH   3   4
ENDBRANCH   2   3
ENDBRANCH   1   2
BRANCH   1  24
ATOM     24  C   UNL A   1      30.418  28.877  23.634  1.00  0.00     0.188 C 
BRANCH  24  25
ATOM     25  O   UNL A   1      31.101  28.750  24.878  1.00  0.00    -0.376 OA
BRANCH  25  26
ATOM     26  C   UNL A   1      32.134  29.687  25.161  1.00  0.00     0.202 C 
BRANCH  26  27
ATOM     27  C   UNL A   1      31.726  30.800  26.125  1.00  0.00     0.261 C 
BRANCH  27  28
ATOM     28  O   UNL A   1      32.567  30.814  27.295  1.00  0.00    -0.460 OA
BRANCH  28  29
ATOM     29  C   UNL A   1      33.350  31.907  27.441  1.00  0.00     0.338 C 
ATOM     30  O   UNL A   1      33.014  33.077  27.381  1.00  0.00    -0.246 OA
BRANCH  29  31
ATOM     31  C   UNL A   1      34.703  31.507  27.863  1.00  0.00     0.060 A 
ATOM     32  C   UNL A   1      34.890  30.173  28.232  1.00  0.00     0.016 A 
ATOM     33  C   UNL A   1      35.737  32.431  28.013  1.00  0.00     0.016 A 
ATOM     34  C   UNL A   1      36.081  29.758  28.814  1.00  0.00     0.010 A 
ATOM     35  C   UNL A   1      36.940  32.015  28.598  1.00  0.00     0.010 A 
ATOM     36  C   UNL A   1      37.102  30.687  29.038  1.00  0.00    -0.014 A 
BRANCH  36  37
ATOM     37  C   UNL A   1      38.269  30.303  29.869  1.00  0.00     0.031 A 
ATOM     38  C   UNL A   1      39.291  29.362  29.295  1.00  0.00     0.074 A 
ATOM     39  C   UNL A   1      38.450  30.823  31.096  1.00  0.00     0.049 A 
ATOM     40  N   UNL A   1      40.319  28.794  29.871  1.00  0.00    -0.248 NA
ATOM     41  C   UNL A   1      39.133  29.019  27.872  1.00  0.00     0.031 C 
ATOM     42  C   UNL A   1      37.587  31.818  31.727  1.00  0.00     0.029 A 
ATOM     43  N   UNL A   1      39.426  30.580  32.030  1.00  0.00    -0.354 N 
ATOM     44  C   UNL A   1      40.907  28.000  28.895  1.00  0.00     0.074 A 
ATOM     45  C   UNL A   1      40.122  28.157  27.689  1.00  0.00     0.031 C 
ATOM     46  C   UNL A   1      38.068  32.097  32.950  1.00  0.00     0.029 A 
ATOM     47  C   UNL A   1      39.239  31.261  33.206  1.00  0.00     0.049 A 
ATOM     48  H   UNL A   1      40.186  29.974  31.871  1.00  0.00     0.167 HD
ATOM     49  C   UNL A   1      42.002  27.210  28.998  1.00  0.00     0.037 A 
ATOM     50  C   UNL A   1      39.916  31.187  34.369  1.00  0.00     0.037 A 
ATOM     51  C   UNL A   1      42.794  27.075  30.191  1.00  0.00     0.049 A 
ATOM     52  C   UNL A   1      41.081  30.241  34.485  1.00  0.00     0.074 A 
ATOM     53  C   UNL A   1      43.917  26.295  30.402  1.00  0.00     0.029 A 
ATOM     54  N   UNL A   1      42.545  27.745  31.380  1.00  0.00    -0.354 N 
ATOM     55  N   UNL A   1      41.608  29.458  33.575  1.00  0.00    -0.248 NA
ATOM     56  C   UNL A   1      41.740  30.159  35.797  1.00  0.00     0.031 C 
ATOM     57  C   UNL A   1      44.323  26.462  31.730  1.00  0.00     0.029 A 
ATOM     58  C   UNL A   1      43.480  27.380  32.334  1.00  0.00     0.049 A 
ATOM     59  H   UNL A   1      41.810  28.385  31.525  1.00  0.00     0.167 HD
ATOM     60  C   UNL A   1      42.668  28.808  34.194  1.00  0.00     0.074 A 
ATOM     61  C   UNL A   1      42.720  29.299  35.555  1.00  0.00     0.031 C 
ATOM     62  C   UNL A   1      43.521  27.887  33.682  1.00  0.00     0.037 A 
BRANCH  49  63
ATOM     63  C   UNL A   1      42.378  26.392  27.797  1.00  0.00     0.064 A 
ATOM     64  C   UNL A   1      43.333  26.830  26.870  1.00  0.00     0.173 A 
ATOM     65  C   UNL A   1      41.776  25.144  27.581  1.00  0.00     0.173 A 
ATOM     66  F   UNL A   1      43.924  28.025  27.021  1.00  0.00    -0.203 F 
ATOM     67  C   UNL A   1      43.652  26.059  25.754  1.00  0.00     0.198 A 
ATOM     68  C   UNL A   1      42.117  24.363  26.480  1.00  0.00     0.198 A 
ATOM     69  F   UNL A   1      40.857  24.678  28.440  1.00  0.00    -0.203 F 
ATOM     70  F   UNL A   1      44.532  26.520  24.853  1.00  0.00    -0.200 F 
ATOM     71  C   UNL A   1      43.049  24.826  25.562  1.00  0.00     0.200 A 
ATOM     72  F   UNL A   1      41.538  23.167  26.302  1.00  0.00    -0.200 F 
ATOM     73  F   UNL A   1      43.357  24.085  24.489  1.00  0.00    -0.200 F 
ENDBRANCH  49  63
BRANCH  50  74
ATOM     74  C   UNL A   1      39.483  32.007  35.531  1.00  0.00     0.064 A 
ATOM     75  C   UNL A   1      40.044  33.267  35.776  1.00  0.00     0.173 A 
ATOM     76  C   UNL A   1      38.514  31.537  36.431  1.00  0.00     0.173 A 
ATOM     77  F   UNL A   1      40.999  33.744  34.962  1.00  0.00    -0.203 F 
ATOM     78  C   UNL A   1      39.660  34.022  36.882  1.00  0.00     0.198 A 
ATOM     79  C   UNL A   1      38.110  32.306  37.520  1.00  0.00     0.198 A 
ATOM     80  F   UNL A   1      37.954  30.332  36.248  1.00  0.00    -0.203 F 
ATOM     81  F   UNL A   1      40.246  35.204  37.119  1.00  0.00    -0.200 F 
ATOM     82  C   UNL A   1      38.689  33.545  37.749  1.00  0.00     0.200 A 
ATOM     83  F   UNL A   1      37.168  31.842  38.352  1.00  0.00    -0.200 F 
ATOM     84  F   UNL A   1      38.320  34.272  38.812  1.00  0.00    -0.200 F 
ENDBRANCH  50  74
BRANCH  62  85
ATOM     85  C   UNL A   1      44.604  27.374  34.586  1.00  0.00     0.064 A 
ATOM     86  C   UNL A   1      44.412  26.243  35.393  1.00  0.00     0.173 A 
ATOM     87  C   UNL A   1      45.862  27.994  34.610  1.00  0.00     0.173 A 
ATOM     88  F   UNL A   1      43.223  25.623  35.416  1.00  0.00    -0.203 F 
ATOM     89  C   UNL A   1      45.436  25.765  36.207  1.00  0.00     0.198 A 
ATOM     90  C   UNL A   1      46.891  27.498  35.405  1.00  0.00     0.198 A 
ATOM     91  F   UNL A   1      46.097  29.076  33.851  1.00  0.00    -0.203 F 
ATOM     92  F   UNL A   1      45.219  24.708  37.002  1.00  0.00    -0.200 F 
ATOM     93  C   UNL A   1      46.675  26.388  36.208  1.00  0.00     0.200 A 
ATOM     94  F   UNL A   1      48.091  28.094  35.395  1.00  0.00    -0.200 F 
ATOM     95  F   UNL A   1      47.662  25.922  36.986  1.00  0.00    -0.200 F 
ENDBRANCH  62  85
ENDBRANCH  36  37
ENDBRANCH  29  31
ENDBRANCH  28  29
ENDBRANCH  27  28
ENDBRANCH  26  27
ENDBRANCH  25  26
ENDBRANCH  24  25
ENDBRANCH   1  24
TORSDOF 19
ENDMDL
MODEL 2
REMARK VINA RESULT:     -11.4      1.430      2.714
REMARK SMILES Cc1csc(NC(=O)[C@@H]2CC=CC[C@H]2C(=O)OCCOCCOCCOC(=O)c2ccc(-c3c4nc(c(-c5c(F)c(F)c(F)c(F)c5F)c5ccc([nH]5)c(-c5c(F)c(F)c(F)c(F)c5F)c5nc(c(-c6c(F)c(F)c(F)c(F)c6F)c6ccc3[nH]6)C=C5)C=C4)cc2)n1
REMARK SMILES IDX 21 1 20 2 19 3 18 4 17 5 15 6 16 7 14 8 9 9 10 10 11 11
REMARK SMILES IDX 13 12 12 13 7 14 6 15 8 17 5 18 1 19 2 20 3 21 92 22 4 23
REMARK SMILES IDX 22 24 23 25 24 26 25 27 26 28 27 29 28 30 29 31 30 32 91 33
REMARK SMILES IDX 31 34 90 35 32 36 33 37 34 38 84 39 35 40 89 41 83 42 85 43
REMARK SMILES IDX 36 44 88 45 82 46 81 47 37 49 69 50 49 51 68 52 50 53 53 54
REMARK SMILES IDX 67 55 86 56 51 57 52 58 66 60 87 61 54 62 38 63 39 64 47 65
REMARK SMILES IDX 40 66 41 67 45 68 48 69 42 70 43 71 46 72 44 73 70 74 71 75
REMARK SMILES IDX 79 76 72 77 73 78 77 79 80 80 74 81 75 82 78 83 76 84 55 85
REMARK SMILES IDX 56 86 64 87 57 88 58 89 62 90 65 91 59 92 60 93 63 94 61 95
REMARK H PARENT 6 16 85 48 53 59
REMARK Flexibility Score: inf
ROOT
ATOM      1  C   UNL A   1      30.804  28.032  22.389  1.00  0.00     0.188 C 
ENDROOT
BRANCH   1   2
ATOM      2  O   UNL A   1      31.641  26.903  22.626  1.00  0.00    -0.376 OA
BRANCH   2   3
ATOM      3  C   UNL A   1      31.023  25.633  22.775  1.00  0.00     0.202 C 
BRANCH   3   4
ATOM      4  C   UNL A   1      31.342  24.878  24.062  1.00  0.00     0.261 C 
BRANCH   4   5
ATOM      5  O   UNL A   1      32.717  24.459  24.168  1.00  0.00    -0.463 OA
BRANCH   5   6
ATOM      6  C   UNL A   1      32.931  23.114  24.109  1.00  0.00     0.310 C 
ATOM      7  O   UNL A   1      32.050  22.276  23.957  1.00  0.00    -0.252 OA
BRANCH   6   8
ATOM      8  C   UNL A   1      34.352  22.741  24.496  1.00  0.00     0.116 C 
ATOM      9  C   UNL A   1      34.652  21.240  24.784  1.00  0.00     0.097 C 
ATOM     10  C   UNL A   1      36.164  21.055  24.956  1.00  0.00     0.041 C 
ATOM     11  C   UNL A   1      37.072  21.900  24.124  1.00  0.00    -0.030 C 
ATOM     12  C   UNL A   1      35.218  23.349  23.376  1.00  0.00     0.043 C 
ATOM     13  C   UNL A   1      36.649  22.941  23.406  1.00  0.00    -0.030 C 
BRANCH   9  14
ATOM     14  C   UNL A   1      33.807  20.747  25.985  1.00  0.00     0.230 C 
ATOM     15  N   UNL A   1      32.886  19.743  25.972  1.00  0.00    -0.302 N 
ATOM     16  H   UNL A   1      32.018  19.954  26.385  1.00  0.00     0.172 HD
ATOM     17  O   UNL A   1      33.811  21.414  27.032  1.00  0.00    -0.274 OA
BRANCH  15  18
ATOM     18  C   UNL A   1      33.011  18.485  25.464  1.00  0.00     0.189 A 
ATOM     19  C   UNL A   1      32.452  14.958  25.577  1.00  0.00     0.068 C 
ATOM     20  C   UNL A   1      32.774  16.322  25.091  1.00  0.00     0.051 A 
ATOM     21  C   UNL A   1      33.008  16.740  23.796  1.00  0.00     0.092 A 
ATOM     22  N   UNL A   1      32.805  17.333  26.028  1.00  0.00    -0.225 NA
ATOM     23  S   UNL A   1      33.304  18.436  23.779  1.00  0.00    -0.105 S 
ENDBRANCH  15  18
ENDBRANCH   9  14
ENDBRANCH   6   8
ENDBRANCH   5   6
ENDBRANCH   4   5
ENDBRANCH   3   4
ENDBRANCH   2   3
ENDBRANCH   1   2
BRANCH   1  24
ATOM     24  C   UNL A   1      30.355  28.868  23.602  1.00  0.00     0.188 C 
BRANCH  24  25
ATOM     25  O   UNL A   1      31.049  28.686  24.832  1.00  0.00    -0.376 OA
BRANCH  25  26
ATOM     26  C   UNL A   1      32.129  29.568  25.116  1.00  0.00     0.202 C 
BRANCH  26  27
ATOM     27  C   UNL A   1      31.762  30.737  26.030  1.00  0.00     0.261 C 
BRANCH  27  28
ATOM     28  O   UNL A   1      32.573  30.745  27.221  1.00  0.00    -0.460 OA
BRANCH  28  29
ATOM     29  C   UNL A   1      33.308  31.862  27.422  1.00  0.00     0.338 C 
ATOM     30  O   UNL A   1      32.927  33.020  27.398  1.00  0.00    -0.246 OA
BRANCH  29  31
ATOM     31  C   UNL A   1      34.670  31.502  27.853  1.00  0.00     0.060 A 
ATOM     32  C   UNL A   1      34.907  30.161  28.165  1.00  0.00     0.016 A 
ATOM     33  C   UNL A   1      35.660  32.460  28.066  1.00  0.00     0.016 A 
ATOM     34  C   UNL A   1      36.104  29.770  28.752  1.00  0.00     0.010 A 
ATOM     35  C   UNL A   1      36.868  32.069  28.656  1.00  0.00     0.010 A 
ATOM     36  C   UNL A   1      37.079  30.730  29.039  1.00  0.00    -0.014 A 
BRANCH  36  37
ATOM     37  C   UNL A   1      38.246  30.358  29.876  1.00  0.00     0.031 A 
ATOM     38  C   UNL A   1      39.287  29.438  29.302  1.00  0.00     0.074 A 
ATOM     39  C   UNL A   1      38.410  30.871  31.108  1.00  0.00     0.049 A 
ATOM     40  N   UNL A   1      40.319  28.881  29.882  1.00  0.00    -0.248 NA
ATOM     41  C   UNL A   1      39.145  29.104  27.876  1.00  0.00     0.031 C 
ATOM     42  C   UNL A   1      37.527  31.848  31.740  1.00  0.00     0.029 A 
ATOM     43  N   UNL A   1      39.382  30.637  32.048  1.00  0.00    -0.354 N 
ATOM     44  C   UNL A   1      40.927  28.105  28.904  1.00  0.00     0.074 A 
ATOM     45  C   UNL A   1      40.148  28.259  27.694  1.00  0.00     0.031 C 
ATOM     46  C   UNL A   1      37.994  32.126  32.969  1.00  0.00     0.029 A 
ATOM     47  C   UNL A   1      39.176  31.306  33.228  1.00  0.00     0.049 A 
ATOM     48  H   UNL A   1      40.153  30.044  31.890  1.00  0.00     0.167 HD
ATOM     49  C   UNL A   1      42.034  27.331  29.010  1.00  0.00     0.037 A 
ATOM     50  C   UNL A   1      39.845  31.234  34.395  1.00  0.00     0.037 A 
ATOM     51  C   UNL A   1      42.818  27.200  30.208  1.00  0.00     0.049 A 
ATOM     52  C   UNL A   1      41.024  30.305  34.512  1.00  0.00     0.074 A 
ATOM     53  C   UNL A   1      43.952  26.436  30.421  1.00  0.00     0.029 A 
ATOM     54  N   UNL A   1      42.550  27.857  31.401  1.00  0.00    -0.354 N 
ATOM     55  N   UNL A   1      41.570  29.538  33.600  1.00  0.00    -0.248 NA
ATOM     56  C   UNL A   1      41.674  30.224  35.829  1.00  0.00     0.031 C 
ATOM     57  C   UNL A   1      44.345  26.599  31.754  1.00  0.00     0.029 A 
ATOM     58  C   UNL A   1      43.484  27.499  32.359  1.00  0.00     0.049 A 
ATOM     59  H   UNL A   1      41.804  28.483  31.544  1.00  0.00     0.167 HD
ATOM     60  C   UNL A   1      42.636  28.900  34.223  1.00  0.00     0.074 A 
ATOM     61  C   UNL A   1      42.669  29.381  35.588  1.00  0.00     0.031 C 
ATOM     62  C   UNL A   1      43.507  27.996  33.711  1.00  0.00     0.037 A 
BRANCH  49  63
ATOM     63  C   UNL A   1      42.431  26.529  27.806  1.00  0.00     0.064 A 
ATOM     64  C   UNL A   1      41.870  25.273  27.532  1.00  0.00     0.173 A 
ATOM     65  C   UNL A   1      43.382  27.033  26.907  1.00  0.00     0.173 A 
ATOM     66  F   UNL A   1      40.970  24.738  28.371  1.00  0.00    -0.203 F 
ATOM     67  C   UNL A   1      42.268  24.541  26.415  1.00  0.00     0.198 A 
ATOM     68  C   UNL A   1      43.757  26.312  25.778  1.00  0.00     0.198 A 
ATOM     69  F   UNL A   1      43.947  28.231  27.123  1.00  0.00    -0.203 F 
ATOM     70  F   UNL A   1      41.755  23.321  26.199  1.00  0.00    -0.200 F 
ATOM     71  C   UNL A   1      43.206  25.062  25.537  1.00  0.00     0.200 A 
ATOM     72  F   UNL A   1      44.658  26.822  24.926  1.00  0.00    -0.200 F 
ATOM     73  F   UNL A   1      43.586  24.356  24.464  1.00  0.00    -0.200 F 
ENDBRANCH  49  63
BRANCH  50  74
ATOM     74  C   UNL A   1      39.391  32.038  35.560  1.00  0.00     0.064 A 
ATOM     75  C   UNL A   1      39.859  33.343  35.764  1.00  0.00     0.173 A 
ATOM     76  C   UNL A   1      38.494  31.510  36.501  1.00  0.00     0.173 A 
ATOM     77  F   UNL A   1      40.743  33.878  34.909  1.00  0.00    -0.203 F 
ATOM     78  C   UNL A   1      39.456  34.085  36.872  1.00  0.00     0.198 A 
ATOM     79  C   UNL A   1      38.071  32.264  37.593  1.00  0.00     0.198 A 
ATOM     80  F   UNL A   1      38.026  30.262  36.358  1.00  0.00    -0.203 F 
ATOM     81  F   UNL A   1      39.955  35.313  37.070  1.00  0.00    -0.200 F 
ATOM     82  C   UNL A   1      38.557  33.549  37.782  1.00  0.00     0.200 A 
ATOM     83  F   UNL A   1      37.198  31.743  38.466  1.00  0.00    -0.200 F 
ATOM     84  F   UNL A   1      38.171  34.263  38.847  1.00  0.00    -0.200 F 
ENDBRANCH  50  74
BRANCH  62  85
ATOM     85  C   UNL A   1      44.591  27.493  34.619  1.00  0.00     0.064 A 
ATOM     86  C   UNL A   1      45.829  28.145  34.716  1.00  0.00     0.173 A 
ATOM     87  C   UNL A   1      44.370  26.373  35.435  1.00  0.00     0.173 A 
ATOM     88  F   UNL A   1      46.093  29.212  33.947  1.00  0.00    -0.203 F 
ATOM     89  C   UNL A   1      46.814  27.679  35.583  1.00  0.00     0.198 A 
ATOM     90  C   UNL A   1      45.348  25.927  36.319  1.00  0.00     0.198 A 
ATOM     91  F   UNL A   1      43.199  25.719  35.383  1.00  0.00    -0.203 F 
ATOM     92  F   UNL A   1      48.005  28.292  35.631  1.00  0.00    -0.200 F 
ATOM     93  C   UNL A   1      46.571  26.576  36.388  1.00  0.00     0.200 A 
ATOM     94  F   UNL A   1      45.106  24.868  37.104  1.00  0.00    -0.200 F 
ATOM     95  F   UNL A   1      47.518  26.134  37.227  1.00  0.00    -0.200 F 
ENDBRANCH  62  85
ENDBRANCH  36  37
ENDBRANCH  29  31
ENDBRANCH  28  29
ENDBRANCH  27  28
ENDBRANCH  26  27
ENDBRANCH  25  26
ENDBRANCH  24  25
ENDBRANCH   1  24
TORSDOF 19
ENDMDL
MODEL 3
REMARK VINA RESULT:     -11.1      4.464      8.839
REMARK SMILES Cc1csc(NC(=O)[C@@H]2CC=CC[C@H]2C(=O)OCCOCCOCCOC(=O)c2ccc(-c3c4nc(c(-c5c(F)c(F)c(F)c(F)c5F)c5ccc([nH]5)c(-c5c(F)c(F)c(F)c(F)c5F)c5nc(c(-c6c(F)c(F)c(F)c(F)c6F)c6ccc3[nH]6)C=C5)C=C4)cc2)n1
REMARK SMILES IDX 21 1 20 2 19 3 18 4 17 5 15 6 16 7 14 8 9 9 10 10 11 11
REMARK SMILES IDX 13 12 12 13 7 14 6 15 8 17 5 18 1 19 2 20 3 21 92 22 4 23
REMARK SMILES IDX 22 24 23 25 24 26 25 27 26 28 27 29 28 30 29 31 30 32 91 33
REMARK SMILES IDX 31 34 90 35 32 36 33 37 34 38 84 39 35 40 89 41 83 42 85 43
REMARK SMILES IDX 36 44 88 45 82 46 81 47 37 49 69 50 49 51 68 52 50 53 53 54
REMARK SMILES IDX 67 55 86 56 51 57 52 58 66 60 87 61 54 62 38 63 39 64 47 65
REMARK SMILES IDX 40 66 41 67 45 68 48 69 42 70 43 71 46 72 44 73 70 74 71 75
REMARK SMILES IDX 79 76 72 77 73 78 77 79 80 80 74 81 75 82 78 83 76 84 55 85
REMARK SMILES IDX 56 86 64 87 57 88 58 89 62 90 65 91 59 92 60 93 63 94 61 95
REMARK H PARENT 6 16 85 48 53 59
REMARK Flexibility Score: inf
ROOT
ATOM      1  C   UNL A   1      34.639  32.125  27.963  1.00  0.00     0.188 C 
ENDROOT
BRANCH   1   2
ATOM      2  O   UNL A   1      33.341  31.663  27.602  1.00  0.00    -0.376 OA
BRANCH   2   3
ATOM      3  C   UNL A   1      33.202  30.308  27.199  1.00  0.00     0.202 C 
BRANCH   3   4
ATOM      4  C   UNL A   1      31.773  29.793  27.060  1.00  0.00     0.261 C 
BRANCH   4   5
ATOM      5  O   UNL A   1      31.532  29.058  25.843  1.00  0.00    -0.463 OA
BRANCH   5   6
ATOM      6  C   UNL A   1      31.632  27.702  25.942  1.00  0.00     0.310 C 
ATOM      7  O   UNL A   1      31.521  27.071  26.987  1.00  0.00    -0.252 OA
BRANCH   6   8
ATOM      8  C   UNL A   1      32.142  27.070  24.658  1.00  0.00     0.116 C 
ATOM      9  C   UNL A   1      31.132  26.909  23.482  1.00  0.00     0.097 C 
ATOM     10  C   UNL A   1      31.888  26.444  22.233  1.00  0.00     0.041 C 
ATOM     11  C   UNL A   1      33.276  26.957  22.022  1.00  0.00    -0.030 C 
ATOM     12  C   UNL A   1      33.391  27.899  24.301  1.00  0.00     0.043 C 
ATOM     13  C   UNL A   1      33.961  27.617  22.956  1.00  0.00    -0.030 C 
BRANCH   9  14
ATOM     14  C   UNL A   1      29.964  25.983  23.904  1.00  0.00     0.230 C 
ATOM     15  N   UNL A   1      29.954  24.621  23.866  1.00  0.00    -0.302 N 
ATOM     16  H   UNL A   1      29.163  24.211  23.446  1.00  0.00     0.172 HD
ATOM     17  O   UNL A   1      28.856  26.489  24.141  1.00  0.00    -0.274 OA
BRANCH  15  18
ATOM     18  C   UNL A   1      30.895  23.753  24.333  1.00  0.00     0.189 A 
ATOM     19  C   UNL A   1      33.931  21.899  24.001  1.00  0.00     0.068 C 
ATOM     20  C   UNL A   1      32.740  22.567  24.582  1.00  0.00     0.051 A 
ATOM     21  C   UNL A   1      32.422  22.752  25.912  1.00  0.00     0.092 A 
ATOM     22  N   UNL A   1      31.840  23.127  23.699  1.00  0.00    -0.225 NA
ATOM     23  S   UNL A   1      30.941  23.621  26.038  1.00  0.00    -0.105 S 
ENDBRANCH  15  18
ENDBRANCH   9  14
ENDBRANCH   6   8
ENDBRANCH   5   6
ENDBRANCH   4   5
ENDBRANCH   3   4
ENDBRANCH   2   3
ENDBRANCH   1   2
BRANCH   1  24
ATOM     24  C   UNL A   1      34.876  33.645  28.030  1.00  0.00     0.188 C 
BRANCH  24  25
ATOM     25  O   UNL A   1      35.099  34.230  29.309  1.00  0.00    -0.376 OA
BRANCH  25  26
ATOM     26  C   UNL A   1      34.013  34.240  30.229  1.00  0.00     0.202 C 
BRANCH  26  27
ATOM     27  C   UNL A   1      34.400  33.879  31.662  1.00  0.00     0.261 C 
BRANCH  27  28
ATOM     28  O   UNL A   1      34.725  32.480  31.781  1.00  0.00    -0.460 OA
BRANCH  28  29
ATOM     29  C   UNL A   1      35.806  32.192  32.540  1.00  0.00     0.338 C 
ATOM     30  O   UNL A   1      35.962  32.412  33.729  1.00  0.00    -0.246 OA
BRANCH  29  31
ATOM     31  C   UNL A   1      36.771  31.392  31.765  1.00  0.00     0.060 A 
ATOM     32  C   UNL A   1      37.668  30.601  32.485  1.00  0.00     0.016 A 
ATOM     33  C   UNL A   1      36.881  31.500  30.379  1.00  0.00     0.016 A 
ATOM     34  C   UNL A   1      38.724  29.964  31.844  1.00  0.00     0.010 A 
ATOM     35  C   UNL A   1      37.943  30.857  29.731  1.00  0.00     0.010 A 
ATOM     36  C   UNL A   1      38.892  30.120  30.465  1.00  0.00    -0.014 A 
BRANCH  36  37
ATOM     37  C   UNL A   1      40.141  29.643  29.822  1.00  0.00     0.031 A 
ATOM     38  C   UNL A   1      41.294  30.596  29.681  1.00  0.00     0.074 A 
ATOM     39  C   UNL A   1      40.270  28.368  29.417  1.00  0.00     0.049 A 
ATOM     40  N   UNL A   1      42.430  30.445  29.050  1.00  0.00    -0.248 NA
ATOM     41  C   UNL A   1      41.147  31.900  30.350  1.00  0.00     0.031 C 
ATOM     42  C   UNL A   1      39.265  27.322  29.586  1.00  0.00     0.029 A 
ATOM     43  N   UNL A   1      41.309  27.739  28.777  1.00  0.00    -0.354 N 
ATOM     44  C   UNL A   1      43.115  31.641  29.213  1.00  0.00     0.074 A 
ATOM     45  C   UNL A   1      42.269  32.512  30.001  1.00  0.00     0.031 C 
ATOM     46  C   UNL A   1      39.733  26.179  29.055  1.00  0.00     0.029 A 
ATOM     47  C   UNL A   1      41.046  26.429  28.464  1.00  0.00     0.049 A 
ATOM     48  H   UNL A   1      42.160  28.186  28.563  1.00  0.00     0.167 HD
ATOM     49  C   UNL A   1      44.339  31.983  28.744  1.00  0.00     0.037 A 
ATOM     50  C   UNL A   1      41.769  25.546  27.748  1.00  0.00     0.037 A 
ATOM     51  C   UNL A   1      45.187  31.106  27.982  1.00  0.00     0.049 A 
ATOM     52  C   UNL A   1      43.091  25.974  27.168  1.00  0.00     0.074 A 
ATOM     53  C   UNL A   1      46.441  31.357  27.453  1.00  0.00     0.029 A 
ATOM     54  N   UNL A   1      44.865  29.799  27.641  1.00  0.00    -0.354 N 
ATOM     55  N   UNL A   1      43.717  27.120  27.285  1.00  0.00    -0.248 NA
ATOM     56  C   UNL A   1      43.803  24.986  26.344  1.00  0.00     0.031 C 
ATOM     57  C   UNL A   1      46.860  30.217  26.759  1.00  0.00     0.029 A 
ATOM     58  C   UNL A   1      45.888  29.240  26.893  1.00  0.00     0.049 A 
ATOM     59  H   UNL A   1      44.033  29.339  27.894  1.00  0.00     0.167 HD
ATOM     60  C   UNL A   1      44.900  26.986  26.571  1.00  0.00     0.074 A 
ATOM     61  C   UNL A   1      44.914  25.641  26.034  1.00  0.00     0.031 C 
ATOM     62  C   UNL A   1      45.887  27.895  26.375  1.00  0.00     0.037 A 
BRANCH  49  63
ATOM     63  C   UNL A   1      44.811  33.382  29.004  1.00  0.00     0.064 A 
ATOM     64  C   UNL A   1      44.518  34.439  28.131  1.00  0.00     0.173 A 
ATOM     65  C   UNL A   1      45.561  33.669  30.154  1.00  0.00     0.173 A 
ATOM     66  F   UNL A   1      43.819  34.214  27.008  1.00  0.00    -0.203 F 
ATOM     67  C   UNL A   1      44.981  35.728  28.388  1.00  0.00     0.198 A 
ATOM     68  C   UNL A   1      46.000  34.962  30.422  1.00  0.00     0.198 A 
ATOM     69  F   UNL A   1      45.868  32.693  31.023  1.00  0.00    -0.203 F 
ATOM     70  F   UNL A   1      44.731  36.714  27.514  1.00  0.00    -0.200 F 
ATOM     71  C   UNL A   1      45.717  35.990  29.534  1.00  0.00     0.200 A 
ATOM     72  F   UNL A   1      46.703  35.214  31.535  1.00  0.00    -0.200 F 
ATOM     73  F   UNL A   1      46.161  37.229  29.779  1.00  0.00    -0.200 F 
ENDBRANCH  49  63
BRANCH  50  74
ATOM     74  C   UNL A   1      41.239  24.179  27.505  1.00  0.00     0.064 A 
ATOM     75  C   UNL A   1      41.850  23.055  28.076  1.00  0.00     0.173 A 
ATOM     76  C   UNL A   1      40.121  23.968  26.683  1.00  0.00     0.173 A 
ATOM     77  F   UNL A   1      42.942  23.203  28.842  1.00  0.00    -0.203 F 
ATOM     78  C   UNL A   1      41.372  21.771  27.825  1.00  0.00     0.198 A 
ATOM     79  C   UNL A   1      39.626  22.686  26.456  1.00  0.00     0.198 A 
ATOM     80  F   UNL A   1      39.506  25.010  26.104  1.00  0.00    -0.203 F 
ATOM     81  F   UNL A   1      42.003  20.709  28.344  1.00  0.00    -0.200 F 
ATOM     82  C   UNL A   1      40.256  21.587  27.021  1.00  0.00     0.200 A 
ATOM     83  F   UNL A   1      38.545  22.515  25.683  1.00  0.00    -0.200 F 
ATOM     84  F   UNL A   1      39.796  20.353  26.780  1.00  0.00    -0.200 F 
ENDBRANCH  50  74
BRANCH  62  85
ATOM     85  C   UNL A   1      47.079  27.457  25.575  1.00  0.00     0.064 A 
ATOM     86  C   UNL A   1      47.156  27.677  24.192  1.00  0.00     0.173 A 
ATOM     87  C   UNL A   1      48.174  26.851  26.208  1.00  0.00     0.173 A 
ATOM     88  F   UNL A   1      46.129  28.240  23.539  1.00  0.00    -0.203 F 
ATOM     89  C   UNL A   1      48.281  27.286  23.469  1.00  0.00     0.198 A 
ATOM     90  C   UNL A   1      49.307  26.486  25.486  1.00  0.00     0.198 A 
ATOM     91  F   UNL A   1      48.151  26.625  27.531  1.00  0.00    -0.203 F 
ATOM     92  F   UNL A   1      48.318  27.469  22.142  1.00  0.00    -0.200 F 
ATOM     93  C   UNL A   1      49.357  26.698  24.117  1.00  0.00     0.200 A 
ATOM     94  F   UNL A   1      50.351  25.929  26.116  1.00  0.00    -0.200 F 
ATOM     95  F   UNL A   1      50.441  26.330  23.421  1.00  0.00    -0.200 F 
ENDBRANCH  62  85
ENDBRANCH  36  37
ENDBRANCH  29  31
ENDBRANCH  28  29
ENDBRANCH  27  28
ENDBRANCH  26  27
ENDBRANCH  25  26
ENDBRANCH  24  25
ENDBRANCH   1  24
TORSDOF 19
ENDMDL
