MODEL 1
REMARK VINA RESULT:      -8.9      0.000      0.000
REMARK SMILES Cc1cc(C(=O)OCCOCCOCCOC(=O)c2ccc(-c3c4nc(c(-c5c(F)c(F)c(F)c(F)c5F)c5ccc([nH]5)c(-c5c(F)c(F)c(F)c(F)c5F)c5nc(c(-c6c(F)c(F)c(F)c(F)c6F)c6ccc3[nH]6)C=C5)C=C4)cc2)cc(S(=O)(=O)NNC(=O)c2c[nH]c3ccccc23)c1C
REMARK SMILES IDX 11 1 10 2 9 3 8 4 7 5 5 6 6 7 4 8 1 9 2 10 3 11 100 12 83 13
REMARK SMILES IDX 101 14 82 15 84 16 85 17 86 18 87 19 88 21 89 22 90 24 91 25
REMARK SMILES IDX 92 26 99 27 93 28 94 29 98 30 95 32 97 33 96 34 12 35 13 36
REMARK SMILES IDX 14 37 15 38 16 39 17 40 18 41 19 42 20 43 81 44 21 45 80 46
REMARK SMILES IDX 22 47 23 48 24 49 74 50 25 51 79 52 73 53 75 54 26 55 78 56
REMARK SMILES IDX 72 57 71 58 27 60 59 61 39 62 58 63 40 64 43 65 57 66 76 67
REMARK SMILES IDX 41 68 42 69 56 71 77 72 44 73 28 74 29 75 37 76 30 77 31 78
REMARK SMILES IDX 35 79 38 80 32 81 33 82 36 83 34 84 60 85 61 86 69 87 62 88
REMARK SMILES IDX 63 89 67 90 70 91 64 92 65 93 68 94 66 95 45 96 46 97 54 98
REMARK SMILES IDX 47 99 48 100 52 101 55 102 49 103 50 104 53 105 51 106
REMARK H PARENT 87 20 88 23 93 31 75 59 43 70
REMARK Flexibility Score: inf
ROOT
ATOM      1  C   UNL A   1      38.212  32.068  37.318  1.00  0.00     0.188 C 
ENDROOT
BRANCH   1   2
ATOM      2  O   UNL A   1      37.763  31.680  36.032  1.00  0.00    -0.376 OA
BRANCH   2   3
ATOM      3  C   UNL A   1      38.229  30.488  35.422  1.00  0.00     0.202 C 
BRANCH   3   4
ATOM      4  C   UNL A   1      38.353  30.320  33.898  1.00  0.00     0.261 C 
BRANCH   4   5
ATOM      5  O   UNL A   1      37.389  29.473  33.265  1.00  0.00    -0.460 OA
BRANCH   5   6
ATOM      6  C   UNL A   1      37.885  28.414  32.578  1.00  0.00     0.338 C 
ATOM      7  O   UNL A   1      38.163  27.314  33.022  1.00  0.00    -0.246 OA
BRANCH   6   8
ATOM      8  C   UNL A   1      37.897  28.728  31.125  1.00  0.00     0.061 A 
ATOM      9  C   UNL A   1      40.216  28.256  28.153  1.00  0.00     0.044 C 
ATOM     10  C   UNL A   1      39.007  28.659  28.957  1.00  0.00    -0.046 A 
ATOM     11  C   UNL A   1      38.993  28.376  30.331  1.00  0.00     0.019 A 
ATOM     12  C   UNL A   1      37.888  29.284  28.366  1.00  0.00    -0.028 A 
ATOM     13  C   UNL A   1      36.806  29.690  29.194  1.00  0.00     0.088 A 
ATOM     14  C   UNL A   1      37.826  29.503  26.869  1.00  0.00     0.046 C 
ATOM     15  C   UNL A   1      36.806  29.409  30.566  1.00  0.00     0.037 A 
BRANCH  13  16
ATOM     16  S   UNL A   1      35.519  30.679  28.455  1.00  0.00     0.257 S 
ATOM     17  O   UNL A   1      36.204  31.662  27.630  1.00  0.00    -0.205 OA
ATOM     18  O   UNL A   1      34.525  29.795  27.914  1.00  0.00    -0.205 OA
BRANCH  16  19
ATOM     19  N   UNL A   1      34.717  31.526  29.741  1.00  0.00    -0.123 NA
ATOM     20  H   UNL A   1      34.943  31.057  30.618  1.00  0.00     0.167 HD
BRANCH  19  21
ATOM     21  N   UNL A   1      35.087  32.960  29.875  1.00  0.00    -0.273 N 
ATOM     22  C   UNL A   1      35.230  33.495  31.143  1.00  0.00     0.268 C 
ATOM     23  H   UNL A   1      35.229  33.519  29.076  1.00  0.00     0.186 HD
ATOM     24  O   UNL A   1      34.530  34.458  31.464  1.00  0.00    -0.268 OA
BRANCH  22  25
ATOM     25  C   UNL A   1      36.312  32.977  32.003  1.00  0.00     0.066 A 
ATOM     26  C   UNL A   1      36.699  33.481  33.255  1.00  0.00     0.097 A 
ATOM     27  C   UNL A   1      37.612  33.027  31.430  1.00  0.00     0.012 A 
ATOM     28  N   UNL A   1      37.282  34.685  32.831  1.00  0.00    -0.360 N 
ATOM     29  C   UNL A   1      38.003  34.351  31.716  1.00  0.00     0.046 A 
ATOM     30  C   UNL A   1      38.180  32.338  30.381  1.00  0.00     0.011 A 
ATOM     31  H   UNL A   1      37.194  35.573  33.244  1.00  0.00     0.166 HD
ATOM     32  C   UNL A   1      38.795  35.122  30.921  1.00  0.00     0.027 A 
ATOM     33  C   UNL A   1      39.024  33.078  29.609  1.00  0.00     0.001 A 
ATOM     34  C   UNL A   1      39.225  34.408  29.854  1.00  0.00     0.002 A 
ENDBRANCH  22  25
ENDBRANCH  19  21
ENDBRANCH  16  19
ENDBRANCH  13  16
ENDBRANCH   6   8
ENDBRANCH   5   6
ENDBRANCH   4   5
ENDBRANCH   3   4
ENDBRANCH   2   3
ENDBRANCH   1   2
BRANCH   1  35
ATOM     35  C   UNL A   1      37.494  33.180  38.108  1.00  0.00     0.188 C 
BRANCH  35  36
ATOM     36  O   UNL A   1      37.883  33.340  39.449  1.00  0.00    -0.376 OA
BRANCH  36  37
ATOM     37  C   UNL A   1      38.724  34.417  39.824  1.00  0.00     0.202 C 
BRANCH  37  38
ATOM     38  C   UNL A   1      40.268  34.387  39.912  1.00  0.00     0.261 C 
BRANCH  38  39
ATOM     39  O   UNL A   1      41.029  35.495  39.409  1.00  0.00    -0.460 OA
BRANCH  39  40
ATOM     40  C   UNL A   1      40.516  36.134  38.324  1.00  0.00     0.338 C 
ATOM     41  O   UNL A   1      39.970  37.225  38.311  1.00  0.00    -0.246 OA
BRANCH  40  42
ATOM     42  C   UNL A   1      40.833  35.368  37.091  1.00  0.00     0.060 A 
ATOM     43  C   UNL A   1      39.826  35.114  36.155  1.00  0.00     0.016 A 
ATOM     44  C   UNL A   1      42.107  34.841  36.876  1.00  0.00     0.016 A 
ATOM     45  C   UNL A   1      40.109  34.344  35.007  1.00  0.00     0.010 A 
ATOM     46  C   UNL A   1      42.374  34.058  35.731  1.00  0.00     0.010 A 
ATOM     47  C   UNL A   1      41.381  33.790  34.774  1.00  0.00    -0.014 A 
BRANCH  47  48
ATOM     48  C   UNL A   1      41.676  32.858  33.604  1.00  0.00     0.031 A 
ATOM     49  C   UNL A   1      42.055  33.562  32.243  1.00  0.00     0.074 A 
ATOM     50  C   UNL A   1      41.741  31.505  33.838  1.00  0.00     0.049 A 
ATOM     51  N   UNL A   1      42.211  33.105  31.014  1.00  0.00    -0.248 NA
ATOM     52  C   UNL A   1      42.407  35.002  32.330  1.00  0.00     0.031 C 
ATOM     53  C   UNL A   1      41.816  30.897  35.184  1.00  0.00     0.029 A 
ATOM     54  N   UNL A   1      41.906  30.387  33.017  1.00  0.00    -0.354 N 
ATOM     55  C   UNL A   1      42.820  34.131  30.234  1.00  0.00     0.074 A 
ATOM     56  C   UNL A   1      42.790  35.315  31.091  1.00  0.00     0.031 C 
ATOM     57  C   UNL A   1      42.173  29.595  35.084  1.00  0.00     0.029 A 
ATOM     58  C   UNL A   1      42.351  29.230  33.666  1.00  0.00     0.049 A 
ATOM     59  H   UNL A   1      41.723  30.411  32.051  1.00  0.00     0.167 HD
ATOM     60  C   UNL A   1      43.616  34.040  29.094  1.00  0.00     0.037 A 
ATOM     61  C   UNL A   1      43.000  28.100  33.224  1.00  0.00     0.037 A 
ATOM     62  C   UNL A   1      44.045  32.760  28.437  1.00  0.00     0.049 A 
ATOM     63  C   UNL A   1      43.624  28.029  31.777  1.00  0.00     0.074 A 
ATOM     64  C   UNL A   1      44.208  32.431  27.095  1.00  0.00     0.029 A 
ATOM     65  N   UNL A   1      44.696  31.662  29.054  1.00  0.00    -0.354 N 
ATOM     66  N   UNL A   1      43.747  28.970  30.865  1.00  0.00    -0.248 NA
ATOM     67  C   UNL A   1      44.292  26.783  31.355  1.00  0.00     0.031 C 
ATOM     68  C   UNL A   1      44.593  31.062  26.989  1.00  0.00     0.029 A 
ATOM     69  C   UNL A   1      44.705  30.522  28.263  1.00  0.00     0.049 A 
ATOM     70  H   UNL A   1      45.099  31.703  29.951  1.00  0.00     0.167 HD
ATOM     71  C   UNL A   1      44.605  28.531  29.859  1.00  0.00     0.074 A 
ATOM     72  C   UNL A   1      44.923  27.155  30.238  1.00  0.00     0.031 C 
ATOM     73  C   UNL A   1      45.046  29.165  28.717  1.00  0.00     0.037 A 
BRANCH  60  74
ATOM     74  C   UNL A   1      43.883  35.357  28.364  1.00  0.00     0.064 A 
ATOM     75  C   UNL A   1      45.098  36.069  28.323  1.00  0.00     0.173 A 
ATOM     76  C   UNL A   1      42.792  35.953  27.707  1.00  0.00     0.173 A 
ATOM     77  F   UNL A   1      46.190  35.594  28.943  1.00  0.00    -0.203 F 
ATOM     78  C   UNL A   1      45.195  37.317  27.679  1.00  0.00     0.198 A 
ATOM     79  C   UNL A   1      42.898  37.173  27.039  1.00  0.00     0.198 A 
ATOM     80  F   UNL A   1      41.596  35.348  27.719  1.00  0.00    -0.203 F 
ATOM     81  F   UNL A   1      46.347  38.006  27.704  1.00  0.00    -0.200 F 
ATOM     82  C   UNL A   1      44.095  37.864  27.035  1.00  0.00     0.200 A 
ATOM     83  F   UNL A   1      41.828  37.682  26.412  1.00  0.00    -0.200 F 
ATOM     84  F   UNL A   1      44.183  39.054  26.422  1.00  0.00    -0.200 F 
ENDBRANCH  60  74
BRANCH  61  85
ATOM     85  C   UNL A   1      43.335  26.971  34.206  1.00  0.00     0.064 A 
ATOM     86  C   UNL A   1      44.645  26.669  34.643  1.00  0.00     0.173 A 
ATOM     87  C   UNL A   1      42.329  26.107  34.677  1.00  0.00     0.173 A 
ATOM     88  F   UNL A   1      45.671  27.458  34.292  1.00  0.00    -0.203 F 
ATOM     89  C   UNL A   1      44.934  25.528  35.413  1.00  0.00     0.198 A 
ATOM     90  C   UNL A   1      42.612  24.987  35.474  1.00  0.00     0.198 A 
ATOM     91  F   UNL A   1      41.048  26.338  34.356  1.00  0.00    -0.203 F 
ATOM     92  F   UNL A   1      46.203  25.235  35.734  1.00  0.00    -0.200 F 
ATOM     93  C   UNL A   1      43.917  24.682  35.818  1.00  0.00     0.200 A 
ATOM     94  F   UNL A   1      41.615  24.192  35.888  1.00  0.00    -0.200 F 
ATOM     95  F   UNL A   1      44.193  23.575  36.525  1.00  0.00    -0.200 F 
ENDBRANCH  61  85
BRANCH  73  96
ATOM     96  C   UNL A   1      45.668  28.255  27.684  1.00  0.00     0.064 A 
ATOM     97  C   UNL A   1      44.801  27.606  26.786  1.00  0.00     0.173 A 
ATOM     98  C   UNL A   1      47.047  28.094  27.481  1.00  0.00     0.173 A 
ATOM     99  F   UNL A   1      43.473  27.742  26.921  1.00  0.00    -0.203 F 
ATOM    100  C   UNL A   1      45.278  26.803  25.759  1.00  0.00     0.198 A 
ATOM    101  C   UNL A   1      47.524  27.305  26.428  1.00  0.00     0.198 A 
ATOM    102  F   UNL A   1      47.933  28.701  28.285  1.00  0.00    -0.203 F 
ATOM    103  F   UNL A   1      44.411  26.176  24.953  1.00  0.00    -0.200 F 
ATOM    104  C   UNL A   1      46.639  26.658  25.574  1.00  0.00     0.200 A 
ATOM    105  F   UNL A   1      48.845  27.172  26.228  1.00  0.00    -0.200 F 
ATOM    106  F   UNL A   1      47.097  25.898  24.570  1.00  0.00    -0.200 F 
ENDBRANCH  73  96
ENDBRANCH  47  48
ENDBRANCH  40  42
ENDBRANCH  39  40
ENDBRANCH  38  39
ENDBRANCH  37  38
ENDBRANCH  36  37
ENDBRANCH  35  36
ENDBRANCH   1  35
TORSDOF 21
ENDMDL
MODEL 2
REMARK VINA RESULT:      -8.6      4.855      7.685
REMARK SMILES Cc1cc(C(=O)OCCOCCOCCOC(=O)c2ccc(-c3c4nc(c(-c5c(F)c(F)c(F)c(F)c5F)c5ccc([nH]5)c(-c5c(F)c(F)c(F)c(F)c5F)c5nc(c(-c6c(F)c(F)c(F)c(F)c6F)c6ccc3[nH]6)C=C5)C=C4)cc2)cc(S(=O)(=O)NNC(=O)c2c[nH]c3ccccc23)c1C
REMARK SMILES IDX 11 1 10 2 9 3 8 4 7 5 5 6 6 7 4 8 1 9 2 10 3 11 100 12 83 13
REMARK SMILES IDX 101 14 82 15 84 16 85 17 86 18 87 19 88 21 89 22 90 24 91 25
REMARK SMILES IDX 92 26 99 27 93 28 94 29 98 30 95 32 97 33 96 34 12 35 13 36
REMARK SMILES IDX 14 37 15 38 16 39 17 40 18 41 19 42 20 43 81 44 21 45 80 46
REMARK SMILES IDX 22 47 23 48 24 49 74 50 25 51 79 52 73 53 75 54 26 55 78 56
REMARK SMILES IDX 72 57 71 58 27 60 59 61 39 62 58 63 40 64 43 65 57 66 76 67
REMARK SMILES IDX 41 68 42 69 56 71 77 72 44 73 28 74 29 75 37 76 30 77 31 78
REMARK SMILES IDX 35 79 38 80 32 81 33 82 36 83 34 84 60 85 61 86 69 87 62 88
REMARK SMILES IDX 63 89 67 90 70 91 64 92 65 93 68 94 66 95 45 96 46 97 54 98
REMARK SMILES IDX 47 99 48 100 52 101 55 102 49 103 50 104 53 105 51 106
REMARK H PARENT 87 20 88 23 93 31 75 59 43 70
REMARK Flexibility Score: inf
ROOT
ATOM      1  C   UNL A   1      34.049  34.113  30.333  1.00  0.00     0.188 C 
ENDROOT
BRANCH   1   2
ATOM      2  O   UNL A   1      33.500  33.940  29.039  1.00  0.00    -0.376 OA
BRANCH   2   3
ATOM      3  C   UNL A   1      34.172  33.171  28.056  1.00  0.00     0.202 C 
BRANCH   3   4
ATOM      4  C   UNL A   1      34.255  31.636  28.105  1.00  0.00     0.261 C 
BRANCH   4   5
ATOM      5  O   UNL A   1      33.287  30.915  27.337  1.00  0.00    -0.460 OA
BRANCH   5   6
ATOM      6  C   UNL A   1      33.567  29.610  27.095  1.00  0.00     0.338 C 
ATOM      7  O   UNL A   1      34.411  28.926  27.647  1.00  0.00    -0.246 OA
BRANCH   6   8
ATOM      8  C   UNL A   1      32.566  29.056  26.147  1.00  0.00     0.061 A 
ATOM      9  C   UNL A   1      29.979  30.365  23.691  1.00  0.00     0.044 C 
ATOM     10  C   UNL A   1      30.819  29.396  24.481  1.00  0.00    -0.046 A 
ATOM     11  C   UNL A   1      31.759  29.910  25.387  1.00  0.00     0.019 A 
ATOM     12  C   UNL A   1      30.707  27.998  24.317  1.00  0.00    -0.028 A 
ATOM     13  C   UNL A   1      31.490  27.141  25.137  1.00  0.00     0.088 A 
ATOM     14  C   UNL A   1      29.783  27.416  23.269  1.00  0.00     0.046 C 
ATOM     15  C   UNL A   1      32.419  27.665  26.043  1.00  0.00     0.037 A 
BRANCH  13  16
ATOM     16  S   UNL A   1      31.157  25.390  25.066  1.00  0.00     0.257 S 
ATOM     17  O   UNL A   1      29.711  25.262  25.178  1.00  0.00    -0.205 OA
ATOM     18  O   UNL A   1      31.885  24.836  23.961  1.00  0.00    -0.205 OA
BRANCH  16  19
ATOM     19  N   UNL A   1      31.867  24.673  26.479  1.00  0.00    -0.123 NA
ATOM     20  H   UNL A   1      31.433  23.761  26.623  1.00  0.00     0.167 HD
BRANCH  19  21
ATOM     21  N   UNL A   1      33.340  24.477  26.411  1.00  0.00    -0.273 N 
ATOM     22  C   UNL A   1      33.845  23.191  26.481  1.00  0.00     0.268 C 
ATOM     23  H   UNL A   1      33.945  25.249  26.317  1.00  0.00     0.186 HD
ATOM     24  O   UNL A   1      34.640  22.912  27.381  1.00  0.00    -0.268 OA
BRANCH  22  25
ATOM     25  C   UNL A   1      33.515  22.250  25.392  1.00  0.00     0.066 A 
ATOM     26  C   UNL A   1      33.217  20.885  25.528  1.00  0.00     0.097 A 
ATOM     27  C   UNL A   1      34.539  22.069  24.423  1.00  0.00     0.012 A 
ATOM     28  N   UNL A   1      34.496  20.419  25.871  1.00  0.00    -0.360 N 
ATOM     29  C   UNL A   1      35.349  21.092  25.037  1.00  0.00     0.046 A 
ATOM     30  C   UNL A   1      35.061  22.915  23.470  1.00  0.00     0.011 A 
ATOM     31  H   UNL A   1      34.729  19.755  26.559  1.00  0.00     0.166 HD
ATOM     32  C   UNL A   1      36.701  21.004  24.911  1.00  0.00     0.027 A 
ATOM     33  C   UNL A   1      36.406  22.799  23.286  1.00  0.00     0.001 A 
ATOM     34  C   UNL A   1      37.153  21.940  24.043  1.00  0.00     0.002 A 
ENDBRANCH  22  25
ENDBRANCH  19  21
ENDBRANCH  16  19
ENDBRANCH  13  16
ENDBRANCH   6   8
ENDBRANCH   5   6
ENDBRANCH   4   5
ENDBRANCH   3   4
ENDBRANCH   2   3
ENDBRANCH   1   2
BRANCH   1  35
ATOM     35  C   UNL A   1      35.572  34.045  30.566  1.00  0.00     0.188 C 
BRANCH  35  36
ATOM     36  O   UNL A   1      36.047  34.634  31.749  1.00  0.00    -0.376 OA
BRANCH  36  37
ATOM     37  C   UNL A   1      35.251  34.622  32.922  1.00  0.00     0.202 C 
BRANCH  37  38
ATOM     38  C   UNL A   1      35.201  33.497  33.982  1.00  0.00     0.261 C 
BRANCH  38  39
ATOM     39  O   UNL A   1      36.060  32.355  33.846  1.00  0.00    -0.460 OA
BRANCH  39  40
ATOM     40  C   UNL A   1      37.223  32.390  34.548  1.00  0.00     0.338 C 
ATOM     41  O   UNL A   1      37.344  32.536  35.753  1.00  0.00    -0.246 OA
BRANCH  40  42
ATOM     42  C   UNL A   1      38.365  32.083  33.647  1.00  0.00     0.060 A 
ATOM     43  C   UNL A   1      38.586  32.873  32.515  1.00  0.00     0.016 A 
ATOM     44  C   UNL A   1      39.188  30.980  33.876  1.00  0.00     0.016 A 
ATOM     45  C   UNL A   1      39.638  32.556  31.630  1.00  0.00     0.010 A 
ATOM     46  C   UNL A   1      40.227  30.663  32.973  1.00  0.00     0.010 A 
ATOM     47  C   UNL A   1      40.472  31.442  31.829  1.00  0.00    -0.014 A 
BRANCH  47  48
ATOM     48  C   UNL A   1      41.536  31.014  30.824  1.00  0.00     0.031 A 
ATOM     49  C   UNL A   1      42.922  31.763  30.927  1.00  0.00     0.074 A 
ATOM     50  C   UNL A   1      41.282  29.931  30.016  1.00  0.00     0.049 A 
ATOM     51  N   UNL A   1      43.990  31.777  30.151  1.00  0.00    -0.248 NA
ATOM     52  C   UNL A   1      43.150  32.540  32.171  1.00  0.00     0.031 C 
ATOM     53  C   UNL A   1      40.171  28.978  30.228  1.00  0.00     0.029 A 
ATOM     54  N   UNL A   1      41.971  29.326  28.962  1.00  0.00    -0.354 N 
ATOM     55  C   UNL A   1      45.048  32.410  30.866  1.00  0.00     0.074 A 
ATOM     56  C   UNL A   1      44.410  32.966  32.057  1.00  0.00     0.031 C 
ATOM     57  C   UNL A   1      40.359  27.872  29.471  1.00  0.00     0.029 A 
ATOM     58  C   UNL A   1      41.603  28.005  28.688  1.00  0.00     0.049 A 
ATOM     59  H   UNL A   1      42.666  29.796  28.448  1.00  0.00     0.167 HD
ATOM     60  C   UNL A   1      46.428  32.263  30.743  1.00  0.00     0.037 A 
ATOM     61  C   UNL A   1      42.250  26.963  28.063  1.00  0.00     0.037 A 
ATOM     62  C   UNL A   1      47.118  31.324  29.795  1.00  0.00     0.049 A 
ATOM     63  C   UNL A   1      43.788  27.043  27.723  1.00  0.00     0.074 A 
ATOM     64  C   UNL A   1      48.293  31.465  29.062  1.00  0.00     0.029 A 
ATOM     65  N   UNL A   1      46.896  29.930  29.663  1.00  0.00    -0.354 N 
ATOM     66  N   UNL A   1      44.676  27.958  28.047  1.00  0.00    -0.248 NA
ATOM     67  C   UNL A   1      44.421  25.901  27.037  1.00  0.00     0.031 C 
ATOM     68  C   UNL A   1      48.498  30.296  28.272  1.00  0.00     0.029 A 
ATOM     69  C   UNL A   1      47.471  29.394  28.520  1.00  0.00     0.049 A 
ATOM     70  H   UNL A   1      46.386  29.397  30.315  1.00  0.00     0.167 HD
ATOM     71  C   UNL A   1      45.956  27.479  27.776  1.00  0.00     0.074 A 
ATOM     72  C   UNL A   1      45.723  26.175  27.157  1.00  0.00     0.031 C 
ATOM     73  C   UNL A   1      47.191  28.063  27.961  1.00  0.00     0.037 A 
BRANCH  60  74
ATOM     74  C   UNL A   1      47.275  33.293  31.492  1.00  0.00     0.064 A 
ATOM     75  C   UNL A   1      47.462  34.646  31.144  1.00  0.00     0.173 A 
ATOM     76  C   UNL A   1      47.987  32.836  32.614  1.00  0.00     0.173 A 
ATOM     77  F   UNL A   1      46.846  35.168  30.072  1.00  0.00    -0.203 F 
ATOM     78  C   UNL A   1      48.336  35.475  31.873  1.00  0.00     0.198 A 
ATOM     79  C   UNL A   1      48.825  33.668  33.357  1.00  0.00     0.198 A 
ATOM     80  F   UNL A   1      47.878  31.556  32.996  1.00  0.00    -0.203 F 
ATOM     81  F   UNL A   1      48.545  36.744  31.487  1.00  0.00    -0.200 F 
ATOM     82  C   UNL A   1      49.011  34.985  32.981  1.00  0.00     0.200 A 
ATOM     83  F   UNL A   1      49.461  33.182  34.431  1.00  0.00    -0.200 F 
ATOM     84  F   UNL A   1      49.845  35.772  33.676  1.00  0.00    -0.200 F 
ENDBRANCH  60  74
BRANCH  61  85
ATOM     85  C   UNL A   1      41.548  25.611  27.895  1.00  0.00     0.064 A 
ATOM     86  C   UNL A   1      41.961  24.422  28.537  1.00  0.00     0.173 A 
ATOM     87  C   UNL A   1      40.466  25.470  27.004  1.00  0.00     0.173 A 
ATOM     88  F   UNL A   1      42.951  24.453  29.441  1.00  0.00    -0.203 F 
ATOM     89  C   UNL A   1      41.395  23.170  28.234  1.00  0.00     0.198 A 
ATOM     90  C   UNL A   1      39.878  24.226  26.727  1.00  0.00     0.198 A 
ATOM     91  F   UNL A   1      39.970  26.548  26.382  1.00  0.00    -0.203 F 
ATOM     92  F   UNL A   1      41.876  22.057  28.806  1.00  0.00    -0.200 F 
ATOM     93  C   UNL A   1      40.362  23.073  27.319  1.00  0.00     0.200 A 
ATOM     94  F   UNL A   1      38.855  24.147  25.863  1.00  0.00    -0.200 F 
ATOM     95  F   UNL A   1      39.842  21.877  27.003  1.00  0.00    -0.200 F 
ENDBRANCH  61  85
BRANCH  73  96
ATOM     96  C   UNL A   1      48.326  27.403  27.215  1.00  0.00     0.064 A 
ATOM     97  C   UNL A   1      49.187  26.569  27.951  1.00  0.00     0.173 A 
ATOM     98  C   UNL A   1      48.521  27.469  25.827  1.00  0.00     0.173 A 
ATOM     99  F   UNL A   1      49.033  26.453  29.278  1.00  0.00    -0.203 F 
ATOM    100  C   UNL A   1      50.218  25.865  27.345  1.00  0.00     0.198 A 
ATOM    101  C   UNL A   1      49.546  26.737  25.216  1.00  0.00     0.198 A 
ATOM    102  F   UNL A   1      47.724  28.227  25.058  1.00  0.00    -0.203 F 
ATOM    103  F   UNL A   1      51.036  25.113  28.095  1.00  0.00    -0.200 F 
ATOM    104  C   UNL A   1      50.394  25.941  25.977  1.00  0.00     0.200 A 
ATOM    105  F   UNL A   1      49.714  26.789  23.886  1.00  0.00    -0.200 F 
ATOM    106  F   UNL A   1      51.379  25.245  25.393  1.00  0.00    -0.200 F 
ENDBRANCH  73  96
ENDBRANCH  47  48
ENDBRANCH  40  42
ENDBRANCH  39  40
ENDBRANCH  38  39
ENDBRANCH  37  38
ENDBRANCH  36  37
ENDBRANCH  35  36
ENDBRANCH   1  35
TORSDOF 21
ENDMDL
MODEL 3
REMARK VINA RESULT:      -8.5      4.428      6.789
REMARK SMILES Cc1cc(C(=O)OCCOCCOCCOC(=O)c2ccc(-c3c4nc(c(-c5c(F)c(F)c(F)c(F)c5F)c5ccc([nH]5)c(-c5c(F)c(F)c(F)c(F)c5F)c5nc(c(-c6c(F)c(F)c(F)c(F)c6F)c6ccc3[nH]6)C=C5)C=C4)cc2)cc(S(=O)(=O)NNC(=O)c2c[nH]c3ccccc23)c1C
REMARK SMILES IDX 11 1 10 2 9 3 8 4 7 5 5 6 6 7 4 8 1 9 2 10 3 11 100 12 83 13
REMARK SMILES IDX 101 14 82 15 84 16 85 17 86 18 87 19 88 21 89 22 90 24 91 25
REMARK SMILES IDX 92 26 99 27 93 28 94 29 98 30 95 32 97 33 96 34 12 35 13 36
REMARK SMILES IDX 14 37 15 38 16 39 17 40 18 41 19 42 20 43 81 44 21 45 80 46
REMARK SMILES IDX 22 47 23 48 24 49 74 50 25 51 79 52 73 53 75 54 26 55 78 56
REMARK SMILES IDX 72 57 71 58 27 60 59 61 39 62 58 63 40 64 43 65 57 66 76 67
REMARK SMILES IDX 41 68 42 69 56 71 77 72 44 73 28 74 29 75 37 76 30 77 31 78
REMARK SMILES IDX 35 79 38 80 32 81 33 82 36 83 34 84 60 85 61 86 69 87 62 88
REMARK SMILES IDX 63 89 67 90 70 91 64 92 65 93 68 94 66 95 45 96 46 97 54 98
REMARK SMILES IDX 47 99 48 100 52 101 55 102 49 103 50 104 53 105 51 106
REMARK H PARENT 87 20 88 23 93 31 75 59 43 70
REMARK Flexibility Score: inf
ROOT
ATOM      1  C   UNL A   1      34.422  34.147  30.356  1.00  0.00     0.188 C 
ENDROOT
BRANCH   1   2
ATOM      2  O   UNL A   1      33.835  34.150  29.068  1.00  0.00    -0.376 OA
BRANCH   2   3
ATOM      3  C   UNL A   1      34.234  33.214  28.080  1.00  0.00     0.202 C 
BRANCH   3   4
ATOM      4  C   UNL A   1      34.062  31.694  28.247  1.00  0.00     0.261 C 
BRANCH   4   5
ATOM      5  O   UNL A   1      33.215  31.036  27.300  1.00  0.00    -0.460 OA
BRANCH   5   6
ATOM      6  C   UNL A   1      33.579  29.778  26.947  1.00  0.00     0.338 C 
ATOM      7  O   UNL A   1      34.476  29.110  27.430  1.00  0.00    -0.246 OA
BRANCH   6   8
ATOM      8  C   UNL A   1      32.601  29.236  25.967  1.00  0.00     0.061 A 
ATOM      9  C   UNL A   1      29.748  30.531  23.818  1.00  0.00     0.044 C 
ATOM     10  C   UNL A   1      30.740  29.577  24.432  1.00  0.00    -0.046 A 
ATOM     11  C   UNL A   1      31.659  30.077  25.366  1.00  0.00     0.019 A 
ATOM     12  C   UNL A   1      30.785  28.211  24.076  1.00  0.00    -0.028 A 
ATOM     13  C   UNL A   1      31.709  27.356  24.738  1.00  0.00     0.088 A 
ATOM     14  C   UNL A   1      29.882  27.665  22.992  1.00  0.00     0.046 C 
ATOM     15  C   UNL A   1      32.616  27.865  25.675  1.00  0.00     0.037 A 
BRANCH  13  16
ATOM     16  S   UNL A   1      31.583  25.603  24.434  1.00  0.00     0.257 S 
ATOM     17  O   UNL A   1      30.183  25.360  24.115  1.00  0.00    -0.205 OA
ATOM     18  O   UNL A   1      32.641  25.222  23.542  1.00  0.00    -0.205 OA
BRANCH  16  19
ATOM     19  N   UNL A   1      31.939  24.794  25.928  1.00  0.00    -0.123 NA
ATOM     20  H   UNL A   1      31.402  23.926  25.953  1.00  0.00     0.167 HD
BRANCH  19  21
ATOM     21  N   UNL A   1      33.373  24.455  26.132  1.00  0.00    -0.273 N 
ATOM     22  C   UNL A   1      33.728  23.128  26.292  1.00  0.00     0.268 C 
ATOM     23  H   UNL A   1      34.058  25.163  26.152  1.00  0.00     0.186 HD
ATOM     24  O   UNL A   1      34.313  22.788  27.322  1.00  0.00    -0.268 OA
BRANCH  22  25
ATOM     25  C   UNL A   1      33.513  22.206  25.159  1.00  0.00     0.066 A 
ATOM     26  C   UNL A   1      33.173  20.846  25.241  1.00  0.00     0.097 A 
ATOM     27  C   UNL A   1      34.643  22.011  24.319  1.00  0.00     0.012 A 
ATOM     28  N   UNL A   1      34.390  20.348  25.730  1.00  0.00    -0.360 N 
ATOM     29  C   UNL A   1      35.352  21.010  25.015  1.00  0.00     0.046 A 
ATOM     30  C   UNL A   1      35.294  22.855  23.447  1.00  0.00     0.011 A 
ATOM     31  H   UNL A   1      34.525  19.673  26.432  1.00  0.00     0.166 HD
ATOM     32  C   UNL A   1      36.708  20.894  25.052  1.00  0.00     0.027 A 
ATOM     33  C   UNL A   1      36.649  22.711  23.426  1.00  0.00     0.001 A 
ATOM     34  C   UNL A   1      37.280  21.828  24.256  1.00  0.00     0.002 A 
ENDBRANCH  22  25
ENDBRANCH  19  21
ENDBRANCH  16  19
ENDBRANCH  13  16
ENDBRANCH   6   8
ENDBRANCH   5   6
ENDBRANCH   4   5
ENDBRANCH   3   4
ENDBRANCH   2   3
ENDBRANCH   1   2
BRANCH   1  35
ATOM     35  C   UNL A   1      35.847  33.604  30.580  1.00  0.00     0.188 C 
BRANCH  35  36
ATOM     36  O   UNL A   1      36.599  34.228  31.590  1.00  0.00    -0.376 OA
BRANCH  36  37
ATOM     37  C   UNL A   1      35.948  34.830  32.695  1.00  0.00     0.202 C 
BRANCH  37  38
ATOM     38  C   UNL A   1      35.491  34.116  33.988  1.00  0.00     0.261 C 
BRANCH  38  39
ATOM     39  O   UNL A   1      35.912  32.767  34.240  1.00  0.00    -0.460 OA
BRANCH  39  40
ATOM     40  C   UNL A   1      37.030  32.617  34.999  1.00  0.00     0.338 C 
ATOM     41  O   UNL A   1      37.131  32.824  36.197  1.00  0.00    -0.246 OA
BRANCH  40  42
ATOM     42  C   UNL A   1      38.118  32.020  34.181  1.00  0.00     0.060 A 
ATOM     43  C   UNL A   1      37.799  31.226  33.076  1.00  0.00     0.016 A 
ATOM     44  C   UNL A   1      39.458  32.188  34.532  1.00  0.00     0.016 A 
ATOM     45  C   UNL A   1      38.827  30.616  32.326  1.00  0.00     0.010 A 
ATOM     46  C   UNL A   1      40.478  31.558  33.784  1.00  0.00     0.010 A 
ATOM     47  C   UNL A   1      40.184  30.757  32.668  1.00  0.00    -0.014 A 
BRANCH  47  48
ATOM     48  C   UNL A   1      41.301  30.011  31.944  1.00  0.00     0.031 A 
ATOM     49  C   UNL A   1      42.019  30.805  30.784  1.00  0.00     0.074 A 
ATOM     50  C   UNL A   1      41.703  28.791  32.433  1.00  0.00     0.049 A 
ATOM     51  N   UNL A   1      42.889  30.443  29.859  1.00  0.00    -0.248 NA
ATOM     52  C   UNL A   1      41.770  32.268  30.745  1.00  0.00     0.031 C 
ATOM     53  C   UNL A   1      41.328  28.263  33.762  1.00  0.00     0.029 A 
ATOM     54  N   UNL A   1      42.611  27.824  31.994  1.00  0.00    -0.354 N 
ATOM     55  C   UNL A   1      43.404  31.624  29.250  1.00  0.00     0.074 A 
ATOM     56  C   UNL A   1      42.566  32.703  29.766  1.00  0.00     0.031 C 
ATOM     57  C   UNL A   1      42.108  27.202  34.075  1.00  0.00     0.029 A 
ATOM     58  C   UNL A   1      43.055  26.933  32.977  1.00  0.00     0.049 A 
ATOM     59  H   UNL A   1      42.916  27.772  31.060  1.00  0.00     0.167 HD
ATOM     60  C   UNL A   1      44.624  31.847  28.616  1.00  0.00     0.037 A 
ATOM     61  C   UNL A   1      44.178  26.143  33.086  1.00  0.00     0.037 A 
ATOM     62  C   UNL A   1      45.723  30.834  28.468  1.00  0.00     0.049 A 
ATOM     63  C   UNL A   1      45.398  26.318  32.103  1.00  0.00     0.074 A 
ATOM     64  C   UNL A   1      46.609  30.592  27.422  1.00  0.00     0.029 A 
ATOM     65  N   UNL A   1      46.329  30.077  29.502  1.00  0.00    -0.354 N 
ATOM     66  N   UNL A   1      45.613  27.231  31.180  1.00  0.00    -0.248 NA
ATOM     67  C   UNL A   1      46.566  25.430  32.260  1.00  0.00     0.031 C 
ATOM     68  C   UNL A   1      47.438  29.481  27.756  1.00  0.00     0.029 A 
ATOM     69  C   UNL A   1      47.104  29.029  29.025  1.00  0.00     0.049 A 
ATOM     70  H   UNL A   1      46.212  30.274  30.459  1.00  0.00     0.167 HD
ATOM     71  C   UNL A   1      46.938  27.160  30.757  1.00  0.00     0.074 A 
ATOM     72  C   UNL A   1      47.483  26.017  31.487  1.00  0.00     0.031 C 
ATOM     73  C   UNL A   1      47.625  27.913  29.828  1.00  0.00     0.037 A 
BRANCH  60  74
ATOM     74  C   UNL A   1      44.740  33.163  27.844  1.00  0.00     0.064 A 
ATOM     75  C   UNL A   1      44.345  33.398  26.512  1.00  0.00     0.173 A 
ATOM     76  C   UNL A   1      45.354  34.238  28.509  1.00  0.00     0.173 A 
ATOM     77  F   UNL A   1      43.776  32.424  25.785  1.00  0.00    -0.203 F 
ATOM     78  C   UNL A   1      44.581  34.638  25.887  1.00  0.00     0.198 A 
ATOM     79  C   UNL A   1      45.554  35.477  27.900  1.00  0.00     0.198 A 
ATOM     80  F   UNL A   1      45.776  34.087  29.772  1.00  0.00    -0.203 F 
ATOM     81  F   UNL A   1      44.251  34.820  24.598  1.00  0.00    -0.200 F 
ATOM     82  C   UNL A   1      45.180  35.675  26.584  1.00  0.00     0.200 A 
ATOM     83  F   UNL A   1      46.124  36.473  28.592  1.00  0.00    -0.200 F 
ATOM     84  F   UNL A   1      45.408  36.857  25.991  1.00  0.00    -0.200 F 
ENDBRANCH  60  74
BRANCH  61  85
ATOM     85  C   UNL A   1      44.364  25.236  34.308  1.00  0.00     0.064 A 
ATOM     86  C   UNL A   1      44.851  25.685  35.556  1.00  0.00     0.173 A 
ATOM     87  C   UNL A   1      44.121  23.852  34.218  1.00  0.00     0.173 A 
ATOM     88  F   UNL A   1      45.069  26.992  35.764  1.00  0.00    -0.203 F 
ATOM     89  C   UNL A   1      45.163  24.798  36.602  1.00  0.00     0.198 A 
ATOM     90  C   UNL A   1      44.400  22.970  35.274  1.00  0.00     0.198 A 
ATOM     91  F   UNL A   1      43.613  23.336  33.090  1.00  0.00    -0.203 F 
ATOM     92  F   UNL A   1      45.702  25.260  37.740  1.00  0.00    -0.200 F 
ATOM     93  C   UNL A   1      44.948  23.439  36.455  1.00  0.00     0.200 A 
ATOM     94  F   UNL A   1      44.157  21.659  35.132  1.00  0.00    -0.200 F 
ATOM     95  F   UNL A   1      45.275  22.587  37.438  1.00  0.00    -0.200 F 
ENDBRANCH  61  85
BRANCH  73  96
ATOM     96  C   UNL A   1      48.933  27.315  29.366  1.00  0.00     0.064 A 
ATOM     97  C   UNL A   1      48.877  26.341  28.352  1.00  0.00     0.173 A 
ATOM     98  C   UNL A   1      50.203  27.735  29.790  1.00  0.00     0.173 A 
ATOM     99  F   UNL A   1      47.689  25.919  27.894  1.00  0.00    -0.203 F 
ATOM    100  C   UNL A   1      50.027  25.782  27.811  1.00  0.00     0.198 A 
ATOM    101  C   UNL A   1      51.360  27.186  29.224  1.00  0.00     0.198 A 
ATOM    102  F   UNL A   1      50.333  28.676  30.738  1.00  0.00    -0.203 F 
ATOM    103  F   UNL A   1      49.922  24.830  26.874  1.00  0.00    -0.200 F 
ATOM    104  C   UNL A   1      51.269  26.208  28.241  1.00  0.00     0.200 A 
ATOM    105  F   UNL A   1      52.571  27.607  29.620  1.00  0.00    -0.200 F 
ATOM    106  F   UNL A   1      52.377  25.679  27.704  1.00  0.00    -0.200 F 
ENDBRANCH  73  96
ENDBRANCH  47  48
ENDBRANCH  40  42
ENDBRANCH  39  40
ENDBRANCH  38  39
ENDBRANCH  37  38
ENDBRANCH  36  37
ENDBRANCH  35  36
ENDBRANCH   1  35
TORSDOF 21
ENDMDL
