MODEL 1
REMARK VINA RESULT:      -9.9      0.000      0.000
REMARK SMILES CCCCc1[nH]ncc1C(=O)OCCOCCOCCOC(=O)c1ccc(-c2c3nc(c(-c4c(F)c(F)c(F)c(F)c4F)c4ccc([nH]4)c(-c4c(F)c(F)c(F)c(F)c4F)c4nc(c(-c5c(F)c(F)c(F)c(F)c5F)c5ccc2[nH]5)C=C4)C=C3)cc1
REMARK SMILES IDX 16 1 15 2 14 3 13 4 12 5 10 6 11 7 9 8 5 9 6 10 7 11 8 13
REMARK SMILES IDX 4 14 3 15 2 16 1 17 17 18 18 19 19 20 20 21 21 22 22 23
REMARK SMILES IDX 23 24 24 25 25 26 86 27 26 28 85 29 27 30 28 31 29 32 79 33
REMARK SMILES IDX 30 34 84 35 78 36 80 37 31 38 83 39 77 40 76 41 32 43 64 44
REMARK SMILES IDX 44 45 63 46 45 47 48 48 62 49 81 50 46 51 47 52 61 54 82 55
REMARK SMILES IDX 49 56 33 57 34 58 42 59 35 60 36 61 40 62 43 63 37 64 38 65
REMARK SMILES IDX 41 66 39 67 65 68 66 69 74 70 67 71 68 72 72 73 75 74 69 75
REMARK SMILES IDX 70 76 73 77 71 78 50 79 51 80 59 81 52 82 53 83 57 84 60 85
REMARK SMILES IDX 54 86 55 87 58 88 56 89
REMARK H PARENT 6 12 80 42 48 53
REMARK Flexibility Score: inf
ROOT
ATOM      1  C   UNL A   1      39.970  21.808  26.705  1.00  0.00     0.188 C 
ENDROOT
BRANCH   1   2
ATOM      2  O   UNL A   1      38.591  21.872  26.353  1.00  0.00    -0.376 OA
BRANCH   2   3
ATOM      3  C   UNL A   1      38.135  21.205  25.182  1.00  0.00     0.202 C 
BRANCH   3   4
ATOM      4  C   UNL A   1      36.621  21.032  25.050  1.00  0.00     0.261 C 
BRANCH   4   5
ATOM      5  O   UNL A   1      35.908  21.902  25.945  1.00  0.00    -0.460 OA
BRANCH   5   6
ATOM      6  C   UNL A   1      34.991  22.731  25.364  1.00  0.00     0.341 C 
ATOM      7  O   UNL A   1      35.226  23.479  24.429  1.00  0.00    -0.246 OA
BRANCH   6   8
ATOM      8  C   UNL A   1      33.643  22.506  25.856  1.00  0.00     0.100 A 
ATOM      9  C   UNL A   1      32.592  21.753  25.350  1.00  0.00     0.050 A 
ATOM     10  N   UNL A   1      31.531  21.996  26.186  1.00  0.00    -0.282 N 
ATOM     11  N   UNL A   1      31.817  22.819  27.202  1.00  0.00    -0.183 NA
ATOM     12  H   UNL A   1      30.639  21.600  26.050  1.00  0.00     0.190 HD
ATOM     13  C   UNL A   1      33.106  23.104  27.020  1.00  0.00     0.150 A 
BRANCH   9  14
ATOM     14  C   UNL A   1      32.455  20.828  24.186  1.00  0.00     0.056 C 
BRANCH  14  15
ATOM     15  C   UNL A   1      33.114  19.464  24.429  1.00  0.00     0.006 C 
BRANCH  15  16
ATOM     16  C   UNL A   1      32.666  18.328  23.500  1.00  0.00    -0.003 C 
ATOM     17  C   UNL A   1      33.735  17.271  23.259  1.00  0.00     0.004 C 
ENDBRANCH  15  16
ENDBRANCH  14  15
ENDBRANCH   9  14
ENDBRANCH   6   8
ENDBRANCH   5   6
ENDBRANCH   4   5
ENDBRANCH   3   4
ENDBRANCH   2   3
ENDBRANCH   1   2
BRANCH   1  18
ATOM     18  C   UNL A   1      40.718  20.467  26.597  1.00  0.00     0.188 C 
BRANCH  18  19
ATOM     19  O   UNL A   1      42.112  20.566  26.861  1.00  0.00    -0.376 OA
BRANCH  19  20
ATOM     20  C   UNL A   1      42.970  20.311  25.758  1.00  0.00     0.202 C 
BRANCH  20  21
ATOM     21  C   UNL A   1      43.821  21.528  25.390  1.00  0.00     0.261 C 
BRANCH  21  22
ATOM     22  O   UNL A   1      43.066  22.727  25.146  1.00  0.00    -0.460 OA
BRANCH  22  23
ATOM     23  C   UNL A   1      43.762  23.882  25.086  1.00  0.00     0.338 C 
ATOM     24  O   UNL A   1      44.656  24.167  24.309  1.00  0.00    -0.246 OA
BRANCH  23  25
ATOM     25  C   UNL A   1      43.157  24.829  26.043  1.00  0.00     0.060 A 
ATOM     26  C   UNL A   1      43.632  26.145  26.085  1.00  0.00     0.016 A 
ATOM     27  C   UNL A   1      42.133  24.415  26.901  1.00  0.00     0.016 A 
ATOM     28  C   UNL A   1      43.100  27.046  27.011  1.00  0.00     0.010 A 
ATOM     29  C   UNL A   1      41.613  25.314  27.835  1.00  0.00     0.010 A 
ATOM     30  C   UNL A   1      42.111  26.625  27.913  1.00  0.00    -0.014 A 
BRANCH  30  31
ATOM     31  C   UNL A   1      41.707  27.497  29.042  1.00  0.00     0.031 A 
ATOM     32  C   UNL A   1      42.480  27.417  30.328  1.00  0.00     0.074 A 
ATOM     33  C   UNL A   1      40.664  28.337  28.935  1.00  0.00     0.049 A 
ATOM     34  N   UNL A   1      42.284  28.048  31.459  1.00  0.00    -0.248 NA
ATOM     35  C   UNL A   1      43.628  26.496  30.343  1.00  0.00     0.031 C 
ATOM     36  C   UNL A   1      39.846  28.524  27.739  1.00  0.00     0.029 A 
ATOM     37  N   UNL A   1      40.107  29.184  29.861  1.00  0.00    -0.354 N 
ATOM     38  C   UNL A   1      43.283  27.605  32.314  1.00  0.00     0.074 A 
ATOM     39  C   UNL A   1      44.067  26.630  31.586  1.00  0.00     0.031 C 
ATOM     40  C   UNL A   1      38.882  29.423  28.008  1.00  0.00     0.029 A 
ATOM     41  C   UNL A   1      39.002  29.854  29.401  1.00  0.00     0.049 A 
ATOM     42  H   UNL A   1      40.467  29.301  30.771  1.00  0.00     0.167 HD
ATOM     43  C   UNL A   1      43.531  27.982  33.590  1.00  0.00     0.037 A 
ATOM     44  C   UNL A   1      38.173  30.705  30.039  1.00  0.00     0.037 A 
ATOM     45  C   UNL A   1      42.752  28.943  34.323  1.00  0.00     0.049 A 
ATOM     46  C   UNL A   1      38.429  31.055  31.481  1.00  0.00     0.074 A 
ATOM     47  C   UNL A   1      42.940  29.405  35.614  1.00  0.00     0.029 A 
ATOM     48  N   UNL A   1      41.624  29.581  33.829  1.00  0.00    -0.354 N 
ATOM     49  N   UNL A   1      39.400  30.663  32.271  1.00  0.00    -0.248 NA
ATOM     50  C   UNL A   1      37.472  31.970  32.123  1.00  0.00     0.031 C 
ATOM     51  C   UNL A   1      41.902  30.292  35.917  1.00  0.00     0.029 A 
ATOM     52  C   UNL A   1      41.091  30.415  34.800  1.00  0.00     0.049 A 
ATOM     53  H   UNL A   1      41.256  29.460  32.925  1.00  0.00     0.167 HD
ATOM     54  C   UNL A   1      39.187  31.302  33.486  1.00  0.00     0.074 A 
ATOM     55  C   UNL A   1      37.998  32.113  33.330  1.00  0.00     0.031 C 
ATOM     56  C   UNL A   1      39.913  31.224  34.628  1.00  0.00     0.037 A 
BRANCH  43  57
ATOM     57  C   UNL A   1      44.691  27.334  34.283  1.00  0.00     0.064 A 
ATOM     58  C   UNL A   1      45.970  27.908  34.262  1.00  0.00     0.173 A 
ATOM     59  C   UNL A   1      44.514  26.141  34.999  1.00  0.00     0.173 A 
ATOM     60  F   UNL A   1      46.191  29.040  33.577  1.00  0.00    -0.203 F 
ATOM     61  C   UNL A   1      47.037  27.299  34.915  1.00  0.00     0.198 A 
ATOM     62  C   UNL A   1      45.579  25.546  35.669  1.00  0.00     0.198 A 
ATOM     63  F   UNL A   1      43.309  25.554  35.048  1.00  0.00    -0.203 F 
ATOM     64  F   UNL A   1      48.260  27.842  34.849  1.00  0.00    -0.200 F 
ATOM     65  C   UNL A   1      46.839  26.122  35.623  1.00  0.00     0.200 A 
ATOM     66  F   UNL A   1      45.386  24.413  36.359  1.00  0.00    -0.200 F 
ATOM     67  F   UNL A   1      47.868  25.538  36.254  1.00  0.00    -0.200 F 
ENDBRANCH  43  57
BRANCH  44  68
ATOM     68  C   UNL A   1      37.010  31.286  29.320  1.00  0.00     0.064 A 
ATOM     69  C   UNL A   1      35.892  30.502  29.003  1.00  0.00     0.173 A 
ATOM     70  C   UNL A   1      37.007  32.626  28.908  1.00  0.00     0.173 A 
ATOM     71  F   UNL A   1      35.865  29.206  29.348  1.00  0.00    -0.203 F 
ATOM     72  C   UNL A   1      34.821  31.033  28.288  1.00  0.00     0.198 A 
ATOM     73  C   UNL A   1      35.926  33.162  28.212  1.00  0.00     0.198 A 
ATOM     74  F   UNL A   1      38.059  33.413  29.178  1.00  0.00    -0.203 F 
ATOM     75  F   UNL A   1      33.786  30.250  27.956  1.00  0.00    -0.200 F 
ATOM     76  C   UNL A   1      34.837  32.364  27.897  1.00  0.00     0.200 A 
ATOM     77  F   UNL A   1      35.944  34.449  27.838  1.00  0.00    -0.200 F 
ATOM     78  F   UNL A   1      33.810  32.872  27.204  1.00  0.00    -0.200 F 
ENDBRANCH  44  68
BRANCH  56  79
ATOM     79  C   UNL A   1      39.467  32.060  35.790  1.00  0.00     0.064 A 
ATOM     80  C   UNL A   1      39.982  33.346  36.011  1.00  0.00     0.173 A 
ATOM     81  C   UNL A   1      38.474  31.589  36.664  1.00  0.00     0.173 A 
ATOM     82  F   UNL A   1      40.942  33.835  35.212  1.00  0.00    -0.203 F 
ATOM     83  C   UNL A   1      39.532  34.122  37.077  1.00  0.00     0.198 A 
ATOM     84  C   UNL A   1      38.010  32.378  37.713  1.00  0.00     0.198 A 
ATOM     85  F   UNL A   1      37.945  30.369  36.490  1.00  0.00    -0.203 F 
ATOM     86  F   UNL A   1      40.064  35.334  37.292  1.00  0.00    -0.200 F 
ATOM     87  C   UNL A   1      38.543  33.641  37.921  1.00  0.00     0.200 A 
ATOM     88  F   UNL A   1      37.045  31.916  38.521  1.00  0.00    -0.200 F 
ATOM     89  F   UNL A   1      38.105  34.394  38.940  1.00  0.00    -0.200 F 
ENDBRANCH  56  79
ENDBRANCH  30  31
ENDBRANCH  23  25
ENDBRANCH  22  23
ENDBRANCH  21  22
ENDBRANCH  20  21
ENDBRANCH  19  20
ENDBRANCH  18  19
ENDBRANCH   1  18
TORSDOF 20
ENDMDL
MODEL 2
REMARK VINA RESULT:      -9.7      3.109      8.065
REMARK SMILES CCCCc1[nH]ncc1C(=O)OCCOCCOCCOC(=O)c1ccc(-c2c3nc(c(-c4c(F)c(F)c(F)c(F)c4F)c4ccc([nH]4)c(-c4c(F)c(F)c(F)c(F)c4F)c4nc(c(-c5c(F)c(F)c(F)c(F)c5F)c5ccc2[nH]5)C=C4)C=C3)cc1
REMARK SMILES IDX 16 1 15 2 14 3 13 4 12 5 10 6 11 7 9 8 5 9 6 10 7 11 8 13
REMARK SMILES IDX 4 14 3 15 2 16 1 17 17 18 18 19 19 20 20 21 21 22 22 23
REMARK SMILES IDX 23 24 24 25 25 26 86 27 26 28 85 29 27 30 28 31 29 32 79 33
REMARK SMILES IDX 30 34 84 35 78 36 80 37 31 38 83 39 77 40 76 41 32 43 64 44
REMARK SMILES IDX 44 45 63 46 45 47 48 48 62 49 81 50 46 51 47 52 61 54 82 55
REMARK SMILES IDX 49 56 33 57 34 58 42 59 35 60 36 61 40 62 43 63 37 64 38 65
REMARK SMILES IDX 41 66 39 67 65 68 66 69 74 70 67 71 68 72 72 73 75 74 69 75
REMARK SMILES IDX 70 76 73 77 71 78 50 79 51 80 59 81 52 82 53 83 57 84 60 85
REMARK SMILES IDX 54 86 55 87 58 88 56 89
REMARK H PARENT 6 12 80 42 48 53
REMARK Flexibility Score: inf
ROOT
ATOM      1  C   UNL A   1      33.364  27.816  22.222  1.00  0.00     0.188 C 
ENDROOT
BRANCH   1   2
ATOM      2  O   UNL A   1      33.739  26.662  22.967  1.00  0.00    -0.376 OA
BRANCH   2   3
ATOM      3  C   UNL A   1      32.973  25.470  22.844  1.00  0.00     0.202 C 
BRANCH   3   4
ATOM      4  C   UNL A   1      32.833  24.623  24.110  1.00  0.00     0.261 C 
BRANCH   4   5
ATOM      5  O   UNL A   1      33.639  23.435  24.045  1.00  0.00    -0.460 OA
BRANCH   5   6
ATOM      6  C   UNL A   1      34.004  22.898  25.247  1.00  0.00     0.341 C 
ATOM      7  O   UNL A   1      33.654  23.328  26.334  1.00  0.00    -0.246 OA
BRANCH   6   8
ATOM      8  C   UNL A   1      34.716  21.640  25.104  1.00  0.00     0.100 A 
ATOM      9  C   UNL A   1      34.262  20.333  24.988  1.00  0.00     0.050 A 
ATOM     10  N   UNL A   1      35.391  19.552  24.984  1.00  0.00    -0.282 N 
ATOM     11  N   UNL A   1      36.533  20.246  25.057  1.00  0.00    -0.183 NA
ATOM     12  H   UNL A   1      35.363  18.569  24.930  1.00  0.00     0.190 HD
ATOM     13  C   UNL A   1      36.126  21.514  25.099  1.00  0.00     0.150 A 
BRANCH   9  14
ATOM     14  C   UNL A   1      32.905  19.721  24.876  1.00  0.00     0.056 C 
BRANCH  14  15
ATOM     15  C   UNL A   1      32.945  18.187  24.838  1.00  0.00     0.006 C 
BRANCH  15  16
ATOM     16  C   UNL A   1      32.928  17.551  23.442  1.00  0.00    -0.003 C 
ATOM     17  C   UNL A   1      34.091  16.604  23.183  1.00  0.00     0.004 C 
ENDBRANCH  15  16
ENDBRANCH  14  15
ENDBRANCH   9  14
ENDBRANCH   6   8
ENDBRANCH   5   6
ENDBRANCH   4   5
ENDBRANCH   3   4
ENDBRANCH   2   3
ENDBRANCH   1   2
BRANCH   1  18
ATOM     18  C   UNL A   1      32.287  28.764  22.780  1.00  0.00     0.188 C 
BRANCH  18  19
ATOM     19  O   UNL A   1      32.572  29.250  24.086  1.00  0.00    -0.376 OA
BRANCH  19  20
ATOM     20  C   UNL A   1      31.445  29.491  24.915  1.00  0.00     0.202 C 
BRANCH  20  21
ATOM     21  C   UNL A   1      31.668  30.663  25.873  1.00  0.00     0.261 C 
BRANCH  21  22
ATOM     22  O   UNL A   1      32.768  30.485  26.781  1.00  0.00    -0.460 OA
BRANCH  22  23
ATOM     23  C   UNL A   1      33.343  31.607  27.266  1.00  0.00     0.338 C 
ATOM     24  O   UNL A   1      32.851  32.717  27.339  1.00  0.00    -0.246 OA
BRANCH  23  25
ATOM     25  C   UNL A   1      34.650  31.235  27.844  1.00  0.00     0.060 A 
ATOM     26  C   UNL A   1      34.880  29.900  28.193  1.00  0.00     0.016 A 
ATOM     27  C   UNL A   1      35.638  32.203  28.050  1.00  0.00     0.016 A 
ATOM     28  C   UNL A   1      36.094  29.533  28.778  1.00  0.00     0.010 A 
ATOM     29  C   UNL A   1      36.846  31.838  28.647  1.00  0.00     0.010 A 
ATOM     30  C   UNL A   1      37.070  30.507  29.039  1.00  0.00    -0.014 A 
BRANCH  30  31
ATOM     31  C   UNL A   1      38.258  30.176  29.862  1.00  0.00     0.031 A 
ATOM     32  C   UNL A   1      39.271  29.212  29.311  1.00  0.00     0.074 A 
ATOM     33  C   UNL A   1      38.431  30.708  31.083  1.00  0.00     0.049 A 
ATOM     34  N   UNL A   1      40.361  28.742  29.863  1.00  0.00    -0.248 NA
ATOM     35  C   UNL A   1      39.019  28.707  27.951  1.00  0.00     0.031 C 
ATOM     36  C   UNL A   1      37.535  31.667  31.724  1.00  0.00     0.029 A 
ATOM     37  N   UNL A   1      39.423  30.501  32.010  1.00  0.00    -0.354 N 
ATOM     38  C   UNL A   1      40.923  27.892  28.922  1.00  0.00     0.074 A 
ATOM     39  C   UNL A   1      40.043  27.886  27.773  1.00  0.00     0.031 C 
ATOM     40  C   UNL A   1      38.013  31.958  32.947  1.00  0.00     0.029 A 
ATOM     41  C   UNL A   1      39.233  31.188  33.183  1.00  0.00     0.049 A 
ATOM     42  H   UNL A   1      40.198  29.915  31.849  1.00  0.00     0.167 HD
ATOM     43  C   UNL A   1      42.075  27.186  29.002  1.00  0.00     0.037 A 
ATOM     44  C   UNL A   1      39.955  31.178  34.321  1.00  0.00     0.037 A 
ATOM     45  C   UNL A   1      42.950  27.180  30.143  1.00  0.00     0.049 A 
ATOM     46  C   UNL A   1      41.195  30.329  34.411  1.00  0.00     0.074 A 
ATOM     47  C   UNL A   1      44.151  26.512  30.308  1.00  0.00     0.029 A 
ATOM     48  N   UNL A   1      42.710  27.869  31.321  1.00  0.00    -0.354 N 
ATOM     49  N   UNL A   1      41.743  29.560  33.502  1.00  0.00    -0.248 NA
ATOM     50  C   UNL A   1      41.921  30.348  35.691  1.00  0.00     0.031 C 
ATOM     51  C   UNL A   1      44.618  26.763  31.602  1.00  0.00     0.029 A 
ATOM     52  C   UNL A   1      43.729  27.622  32.228  1.00  0.00     0.049 A 
ATOM     53  H   UNL A   1      41.932  28.448  31.490  1.00  0.00     0.167 HD
ATOM     54  C   UNL A   1      42.886  29.028  34.086  1.00  0.00     0.074 A 
ATOM     55  C   UNL A   1      42.959  29.566  35.428  1.00  0.00     0.031 C 
ATOM     56  C   UNL A   1      43.794  28.173  33.557  1.00  0.00     0.037 A 
BRANCH  43  57
ATOM     57  C   UNL A   1      42.445  26.341  27.821  1.00  0.00     0.064 A 
ATOM     58  C   UNL A   1      43.335  26.804  26.841  1.00  0.00     0.173 A 
ATOM     59  C   UNL A   1      41.925  25.046  27.683  1.00  0.00     0.173 A 
ATOM     60  F   UNL A   1      43.846  28.041  26.922  1.00  0.00    -0.203 F 
ATOM     61  C   UNL A   1      43.675  26.006  25.752  1.00  0.00     0.198 A 
ATOM     62  C   UNL A   1      42.285  24.243  26.604  1.00  0.00     0.198 A 
ATOM     63  F   UNL A   1      41.070  24.560  28.595  1.00  0.00    -0.203 F 
ATOM     64  F   UNL A   1      44.496  26.481  24.805  1.00  0.00    -0.200 F 
ATOM     65  C   UNL A   1      43.154  24.726  25.638  1.00  0.00     0.200 A 
ATOM     66  F   UNL A   1      41.787  23.004  26.498  1.00  0.00    -0.200 F 
ATOM     67  F   UNL A   1      43.486  23.957  24.590  1.00  0.00    -0.200 F 
ENDBRANCH  43  57
BRANCH  44  68
ATOM     68  C   UNL A   1      39.521  31.999  35.481  1.00  0.00     0.064 A 
ATOM     69  C   UNL A   1      38.621  31.491  36.428  1.00  0.00     0.173 A 
ATOM     70  C   UNL A   1      39.971  33.317  35.648  1.00  0.00     0.173 A 
ATOM     71  F   UNL A   1      38.137  30.247  36.291  1.00  0.00    -0.203 F 
ATOM     72  C   UNL A   1      38.175  32.276  37.490  1.00  0.00     0.198 A 
ATOM     73  C   UNL A   1      39.543  34.092  36.722  1.00  0.00     0.198 A 
ATOM     74  F   UNL A   1      40.824  33.851  34.761  1.00  0.00    -0.203 F 
ATOM     75  F   UNL A   1      37.278  31.782  38.355  1.00  0.00    -0.200 F 
ATOM     76  C   UNL A   1      38.641  33.574  37.639  1.00  0.00     0.200 A 
ATOM     77  F   UNL A   1      39.996  35.345  36.864  1.00  0.00    -0.200 F 
ATOM     78  F   UNL A   1      38.208  34.330  38.656  1.00  0.00    -0.200 F 
ENDBRANCH  44  68
BRANCH  56  79
ATOM     79  C   UNL A   1      44.964  27.788  34.413  1.00  0.00     0.064 A 
ATOM     80  C   UNL A   1      46.143  28.547  34.430  1.00  0.00     0.173 A 
ATOM     81  C   UNL A   1      44.885  26.675  35.266  1.00  0.00     0.173 A 
ATOM     82  F   UNL A   1      46.272  29.611  33.623  1.00  0.00    -0.203 F 
ATOM     83  C   UNL A   1      47.208  28.195  35.256  1.00  0.00     0.198 A 
ATOM     84  C   UNL A   1      45.942  26.342  36.108  1.00  0.00     0.198 A 
ATOM     85  F   UNL A   1      43.776  25.922  35.292  1.00  0.00    -0.203 F 
ATOM     86  F   UNL A   1      48.340  28.913  35.229  1.00  0.00    -0.200 F 
ATOM     87  C   UNL A   1      47.103  27.098  36.098  1.00  0.00     0.200 A 
ATOM     88  F   UNL A   1      45.835  25.288  36.930  1.00  0.00    -0.200 F 
ATOM     89  F   UNL A   1      48.126  26.767  36.898  1.00  0.00    -0.200 F 
ENDBRANCH  56  79
ENDBRANCH  30  31
ENDBRANCH  23  25
ENDBRANCH  22  23
ENDBRANCH  21  22
ENDBRANCH  20  21
ENDBRANCH  19  20
ENDBRANCH  18  19
ENDBRANCH   1  18
TORSDOF 20
ENDMDL
MODEL 3
REMARK VINA RESULT:      -9.7      3.621      8.881
REMARK SMILES CCCCc1[nH]ncc1C(=O)OCCOCCOCCOC(=O)c1ccc(-c2c3nc(c(-c4c(F)c(F)c(F)c(F)c4F)c4ccc([nH]4)c(-c4c(F)c(F)c(F)c(F)c4F)c4nc(c(-c5c(F)c(F)c(F)c(F)c5F)c5ccc2[nH]5)C=C4)C=C3)cc1
REMARK SMILES IDX 16 1 15 2 14 3 13 4 12 5 10 6 11 7 9 8 5 9 6 10 7 11 8 13
REMARK SMILES IDX 4 14 3 15 2 16 1 17 17 18 18 19 19 20 20 21 21 22 22 23
REMARK SMILES IDX 23 24 24 25 25 26 86 27 26 28 85 29 27 30 28 31 29 32 79 33
REMARK SMILES IDX 30 34 84 35 78 36 80 37 31 38 83 39 77 40 76 41 32 43 64 44
REMARK SMILES IDX 44 45 63 46 45 47 48 48 62 49 81 50 46 51 47 52 61 54 82 55
REMARK SMILES IDX 49 56 33 57 34 58 42 59 35 60 36 61 40 62 43 63 37 64 38 65
REMARK SMILES IDX 41 66 39 67 65 68 66 69 74 70 67 71 68 72 72 73 75 74 69 75
REMARK SMILES IDX 70 76 73 77 71 78 50 79 51 80 59 81 52 82 53 83 57 84 60 85
REMARK SMILES IDX 54 86 55 87 58 88 56 89
REMARK H PARENT 6 12 80 42 48 53
REMARK Flexibility Score: inf
ROOT
ATOM      1  C   UNL A   1      31.106  28.545  23.017  1.00  0.00     0.188 C 
ENDROOT
BRANCH   1   2
ATOM      2  O   UNL A   1      30.861  27.386  22.225  1.00  0.00    -0.376 OA
BRANCH   2   3
ATOM      3  C   UNL A   1      31.961  26.642  21.714  1.00  0.00     0.202 C 
BRANCH   3   4
ATOM      4  C   UNL A   1      31.915  25.130  21.939  1.00  0.00     0.261 C 
BRANCH   4   5
ATOM      5  O   UNL A   1      30.965  24.774  22.958  1.00  0.00    -0.460 OA
BRANCH   5   6
ATOM      6  C   UNL A   1      31.244  23.635  23.658  1.00  0.00     0.341 C 
ATOM      7  O   UNL A   1      31.703  22.615  23.171  1.00  0.00    -0.246 OA
BRANCH   6   8
ATOM      8  C   UNL A   1      31.106  23.814  25.094  1.00  0.00     0.100 A 
ATOM      9  C   UNL A   1      31.481  24.855  25.932  1.00  0.00     0.050 A 
ATOM     10  N   UNL A   1      31.189  24.426  27.202  1.00  0.00    -0.282 N 
ATOM     11  N   UNL A   1      30.631  23.210  27.251  1.00  0.00    -0.183 NA
ATOM     12  H   UNL A   1      31.372  24.965  28.006  1.00  0.00     0.190 HD
ATOM     13  C   UNL A   1      30.552  22.851  25.970  1.00  0.00     0.150 A 
BRANCH   9  14
ATOM     14  C   UNL A   1      32.075  26.204  25.695  1.00  0.00     0.056 C 
BRANCH  14  15
ATOM     15  C   UNL A   1      33.606  26.207  25.796  1.00  0.00     0.006 C 
BRANCH  15  16
ATOM     16  C   UNL A   1      34.352  25.471  24.675  1.00  0.00    -0.003 C 
ATOM     17  C   UNL A   1      35.052  24.200  25.134  1.00  0.00     0.004 C 
ENDBRANCH  15  16
ENDBRANCH  14  15
ENDBRANCH   9  14
ENDBRANCH   6   8
ENDBRANCH   5   6
ENDBRANCH   4   5
ENDBRANCH   3   4
ENDBRANCH   2   3
ENDBRANCH   1   2
BRANCH   1  18
ATOM     18  C   UNL A   1      29.922  29.412  23.479  1.00  0.00     0.188 C 
BRANCH  18  19
ATOM     19  O   UNL A   1      30.287  30.445  24.385  1.00  0.00    -0.376 OA
BRANCH  19  20
ATOM     20  C   UNL A   1      31.366  30.147  25.260  1.00  0.00     0.202 C 
BRANCH  20  21
ATOM     21  C   UNL A   1      31.625  31.269  26.267  1.00  0.00     0.261 C 
BRANCH  21  22
ATOM     22  O   UNL A   1      32.695  31.002  27.189  1.00  0.00    -0.460 OA
BRANCH  22  23
ATOM     23  C   UNL A   1      33.473  32.050  27.538  1.00  0.00     0.338 C 
ATOM     24  O   UNL A   1      33.156  33.225  27.576  1.00  0.00    -0.246 OA
BRANCH  23  25
ATOM     25  C   UNL A   1      34.763  31.518  28.019  1.00  0.00     0.060 A 
ATOM     26  C   UNL A   1      34.871  30.151  28.295  1.00  0.00     0.016 A 
ATOM     27  C   UNL A   1      35.857  32.369  28.208  1.00  0.00     0.016 A 
ATOM     28  C   UNL A   1      36.071  29.634  28.789  1.00  0.00     0.010 A 
ATOM     29  C   UNL A   1      37.051  31.854  28.715  1.00  0.00     0.010 A 
ATOM     30  C   UNL A   1      37.156  30.489  29.034  1.00  0.00    -0.014 A 
BRANCH  30  31
ATOM     31  C   UNL A   1      38.347  29.998  29.768  1.00  0.00     0.031 A 
ATOM     32  C   UNL A   1      38.603  30.515  31.155  1.00  0.00     0.074 A 
ATOM     33  C   UNL A   1      39.196  29.117  29.210  1.00  0.00     0.049 A 
ATOM     34  N   UNL A   1      39.599  30.263  31.968  1.00  0.00    -0.248 NA
ATOM     35  C   UNL A   1      37.603  31.448  31.699  1.00  0.00     0.031 C 
ATOM     36  C   UNL A   1      39.051  28.524  27.883  1.00  0.00     0.029 A 
ATOM     37  N   UNL A   1      40.361  28.578  29.696  1.00  0.00    -0.354 N 
ATOM     38  C   UNL A   1      39.342  30.999  33.115  1.00  0.00     0.074 A 
ATOM     39  C   UNL A   1      38.115  31.732  32.887  1.00  0.00     0.031 C 
ATOM     40  C   UNL A   1      40.096  27.711  27.654  1.00  0.00     0.029 A 
ATOM     41  C   UNL A   1      40.994  27.745  28.808  1.00  0.00     0.049 A 
ATOM     42  H   UNL A   1      40.711  28.771  30.596  1.00  0.00     0.167 HD
ATOM     43  C   UNL A   1      40.061  31.055  34.262  1.00  0.00     0.037 A 
ATOM     44  C   UNL A   1      42.173  27.099  28.912  1.00  0.00     0.037 A 
ATOM     45  C   UNL A   1      41.284  30.336  34.493  1.00  0.00     0.049 A 
ATOM     46  C   UNL A   1      42.989  27.233  30.171  1.00  0.00     0.074 A 
ATOM     47  C   UNL A   1      42.071  30.313  35.631  1.00  0.00     0.029 A 
ATOM     48  N   UNL A   1      41.906  29.522  33.560  1.00  0.00    -0.354 N 
ATOM     49  N   UNL A   1      42.720  27.899  31.268  1.00  0.00    -0.248 NA
ATOM     50  C   UNL A   1      44.276  26.521  30.207  1.00  0.00     0.031 C 
ATOM     51  C   UNL A   1      43.191  29.517  35.373  1.00  0.00     0.029 A 
ATOM     52  C   UNL A   1      43.081  29.011  34.088  1.00  0.00     0.049 A 
ATOM     53  H   UNL A   1      41.565  29.334  32.656  1.00  0.00     0.167 HD
ATOM     54  C   UNL A   1      43.783  27.665  32.130  1.00  0.00     0.074 A 
ATOM     55  C   UNL A   1      44.703  26.790  31.433  1.00  0.00     0.031 C 
ATOM     56  C   UNL A   1      43.981  28.132  33.387  1.00  0.00     0.037 A 
BRANCH  43  57
ATOM     57  C   UNL A   1      39.543  31.943  35.352  1.00  0.00     0.064 A 
ATOM     58  C   UNL A   1      38.651  31.466  36.323  1.00  0.00     0.173 A 
ATOM     59  C   UNL A   1      39.965  33.277  35.442  1.00  0.00     0.173 A 
ATOM     60  F   UNL A   1      38.207  30.201  36.269  1.00  0.00    -0.203 F 
ATOM     61  C   UNL A   1      38.184  32.300  37.334  1.00  0.00     0.198 A 
ATOM     62  C   UNL A   1      39.513  34.102  36.468  1.00  0.00     0.198 A 
ATOM     63  F   UNL A   1      40.819  33.779  34.536  1.00  0.00    -0.203 F 
ATOM     64  F   UNL A   1      37.300  31.836  38.229  1.00  0.00    -0.200 F 
ATOM     65  C   UNL A   1      38.619  33.615  37.409  1.00  0.00     0.200 A 
ATOM     66  F   UNL A   1      39.939  35.370  36.543  1.00  0.00    -0.200 F 
ATOM     67  F   UNL A   1      38.170  34.416  38.386  1.00  0.00    -0.200 F 
ENDBRANCH  43  57
BRANCH  44  68
ATOM     68  C   UNL A   1      42.664  26.266  27.784  1.00  0.00     0.064 A 
ATOM     69  C   UNL A   1      43.566  26.783  26.844  1.00  0.00     0.173 A 
ATOM     70  C   UNL A   1      42.217  24.949  27.606  1.00  0.00     0.173 A 
ATOM     71  F   UNL A   1      43.995  28.050  26.955  1.00  0.00    -0.203 F 
ATOM     72  C   UNL A   1      43.990  26.020  25.759  1.00  0.00     0.198 A 
ATOM     73  C   UNL A   1      42.660  24.179  26.533  1.00  0.00     0.198 A 
ATOM     74  F   UNL A   1      41.346  24.413  28.473  1.00  0.00    -0.203 F 
ATOM     75  F   UNL A   1      44.816  26.554  24.848  1.00  0.00    -0.200 F 
ATOM     76  C   UNL A   1      43.541  24.716  25.607  1.00  0.00     0.200 A 
ATOM     77  F   UNL A   1      42.225  22.919  26.391  1.00  0.00    -0.200 F 
ATOM     78  F   UNL A   1      43.945  23.984  24.561  1.00  0.00    -0.200 F 
ENDBRANCH  44  68
BRANCH  56  79
ATOM     79  C   UNL A   1      45.217  27.683  34.107  1.00  0.00     0.064 A 
ATOM     80  C   UNL A   1      46.405  28.427  34.062  1.00  0.00     0.173 A 
ATOM     81  C   UNL A   1      45.198  26.520  34.893  1.00  0.00     0.173 A 
ATOM     82  F   UNL A   1      46.477  29.539  33.313  1.00  0.00    -0.203 F 
ATOM     83  C   UNL A   1      47.535  28.013  34.764  1.00  0.00     0.198 A 
ATOM     84  C   UNL A   1      46.322  26.123  35.612  1.00  0.00     0.198 A 
ATOM     85  F   UNL A   1      44.084  25.778  34.974  1.00  0.00    -0.203 F 
ATOM     86  F   UNL A   1      48.671  28.720  34.678  1.00  0.00    -0.200 F 
ATOM     87  C   UNL A   1      47.490  26.867  35.543  1.00  0.00     0.200 A 
ATOM     88  F   UNL A   1      46.274  25.021  36.374  1.00  0.00    -0.200 F 
ATOM     89  F   UNL A   1      48.576  26.476  36.224  1.00  0.00    -0.200 F 
ENDBRANCH  56  79
ENDBRANCH  30  31
ENDBRANCH  23  25
ENDBRANCH  22  23
ENDBRANCH  21  22
ENDBRANCH  20  21
ENDBRANCH  19  20
ENDBRANCH  18  19
ENDBRANCH   1  18
TORSDOF 20
ENDMDL
