MODEL 1
REMARK VINA RESULT:     -12.3      0.000      0.000
REMARK SMILES Cc1cc(NC(=O)NCc2sccc2C)ccc1C(=O)OCCOCCOCCOC(=O)c1ccc(-c2c3nc(c(-c4c(F)c(F)c(F)c(F)c4F)c4ccc([nH]4)c(-c4c(F)c(F)c(F)c(F)c4F)c4nc(c(-c5c(F)c(F)c(F)c(F)c5F)c5ccc2[nH]5)C=C4)C=C3)cc1
REMARK SMILES IDX 25 1 24 2 23 3 22 4 21 5 19 6 20 7 18 8 1 9 2 10 3 11 4 12
REMARK SMILES IDX 17 13 16 14 5 15 6 16 7 18 8 19 9 21 10 22 11 23 14 24 12 25
REMARK SMILES IDX 13 26 15 27 26 28 27 29 28 30 29 31 30 32 31 33 32 34 33 35
REMARK SMILES IDX 34 36 95 37 35 38 94 39 36 40 37 41 38 42 88 43 39 44 93 45
REMARK SMILES IDX 87 46 89 47 40 48 92 49 86 50 85 51 41 53 73 54 53 55 72 56
REMARK SMILES IDX 54 57 57 58 71 59 90 60 55 61 56 62 70 64 91 65 58 66 42 67
REMARK SMILES IDX 43 68 51 69 44 70 45 71 49 72 52 73 46 74 47 75 50 76 48 77
REMARK SMILES IDX 74 78 75 79 83 80 76 81 77 82 81 83 84 84 78 85 79 86 82 87
REMARK SMILES IDX 80 88 59 89 60 90 68 91 61 92 62 93 66 94 69 95 63 96 64 97
REMARK SMILES IDX 67 98 65 99
REMARK H PARENT 5 17 8 20 89 52 57 63
REMARK Flexibility Score: inf
ROOT
ATOM      1  C   UNL A   1      32.847  35.713  28.972  1.00  0.00     0.188 C 
ENDROOT
BRANCH   1   2
ATOM      2  O   UNL A   1      32.840  34.275  29.152  1.00  0.00    -0.376 OA
BRANCH   2   3
ATOM      3  C   UNL A   1      33.945  33.351  29.000  1.00  0.00     0.202 C 
BRANCH   3   4
ATOM      4  C   UNL A   1      34.123  32.207  27.711  1.00  0.00     0.261 C 
BRANCH   4   5
ATOM      5  O   UNL A   1      33.348  30.868  27.503  1.00  0.00    -0.460 OA
BRANCH   5   6
ATOM      6  C   UNL A   1      33.857  29.656  27.062  1.00  0.00     0.338 C 
ATOM      7  O   UNL A   1      34.887  29.150  27.446  1.00  0.00    -0.246 OA
BRANCH   6   8
ATOM      8  C   UNL A   1      33.221  28.713  26.087  1.00  0.00     0.063 A 
ATOM      9  C   UNL A   1      31.482  30.434  25.652  1.00  0.00     0.045 C 
ATOM     10  C   UNL A   1      32.173  29.158  25.299  1.00  0.00    -0.035 A 
ATOM     11  C   UNL A   1      31.964  28.543  24.048  1.00  0.00     0.030 A 
ATOM     12  C   UNL A   1      32.813  27.531  23.570  1.00  0.00     0.043 A 
ATOM     13  C   UNL A   1      33.958  27.554  25.660  1.00  0.00     0.018 A 
ATOM     14  C   UNL A   1      33.727  26.933  24.424  1.00  0.00     0.027 A 
BRANCH  12  15
ATOM     15  N   UNL A   1      32.923  27.263  22.195  1.00  0.00    -0.308 N 
ATOM     16  C   UNL A   1      32.756  26.082  21.530  1.00  0.00     0.319 C 
ATOM     17  H   UNL A   1      33.152  28.037  21.632  1.00  0.00     0.171 HD
ATOM     18  O   UNL A   1      33.179  25.972  20.378  1.00  0.00    -0.248 OA
ATOM     19  N   UNL A   1      32.027  25.059  22.052  1.00  0.00    -0.333 N 
ATOM     20  H   UNL A   1      32.036  24.222  21.532  1.00  0.00     0.165 HD
BRANCH  19  21
ATOM     21  C   UNL A   1      31.241  25.032  23.264  1.00  0.00     0.165 C 
BRANCH  21  22
ATOM     22  C   UNL A   1      31.594  23.952  24.236  1.00  0.00     0.027 A 
ATOM     23  S   UNL A   1      31.984  22.400  23.603  1.00  0.00    -0.147 S 
ATOM     24  C   UNL A   1      31.488  23.935  25.618  1.00  0.00    -0.035 A 
ATOM     25  C   UNL A   1      31.878  21.674  25.137  1.00  0.00     0.065 A 
ATOM     26  C   UNL A   1      31.638  22.600  26.126  1.00  0.00     0.015 A 
ATOM     27  C   UNL A   1      31.185  25.113  26.486  1.00  0.00     0.045 C 
ENDBRANCH  21  22
ENDBRANCH  19  21
ENDBRANCH  12  15
ENDBRANCH   6   8
ENDBRANCH   5   6
ENDBRANCH   4   5
ENDBRANCH   3   4
ENDBRANCH   2   3
ENDBRANCH   1   2
BRANCH   1  28
ATOM     28  C   UNL A   1      33.530  36.779  29.859  1.00  0.00     0.188 C 
BRANCH  28  29
ATOM     29  O   UNL A   1      32.750  37.216  30.953  1.00  0.00    -0.376 OA
BRANCH  29  30
ATOM     30  C   UNL A   1      32.860  36.413  32.132  1.00  0.00     0.202 C 
BRANCH  30  31
ATOM     31  C   UNL A   1      34.046  36.747  33.076  1.00  0.00     0.261 C 
BRANCH  31  32
ATOM     32  O   UNL A   1      35.201  35.912  32.816  1.00  0.00    -0.460 OA
BRANCH  32  33
ATOM     33  C   UNL A   1      35.297  34.739  33.547  1.00  0.00     0.338 C 
ATOM     34  O   UNL A   1      35.155  34.654  34.728  1.00  0.00    -0.246 OA
BRANCH  33  35
ATOM     35  C   UNL A   1      35.813  33.638  32.653  1.00  0.00     0.060 A 
ATOM     36  C   UNL A   1      35.824  32.261  32.909  1.00  0.00     0.016 A 
ATOM     37  C   UNL A   1      36.599  34.031  31.632  1.00  0.00     0.016 A 
ATOM     38  C   UNL A   1      36.759  31.357  32.230  1.00  0.00     0.010 A 
ATOM     39  C   UNL A   1      37.605  33.155  31.233  1.00  0.00     0.010 A 
ATOM     40  C   UNL A   1      37.778  31.795  31.393  1.00  0.00    -0.014 A 
BRANCH  40  41
ATOM     41  C   UNL A   1      39.068  31.074  30.847  1.00  0.00     0.031 A 
ATOM     42  C   UNL A   1      39.288  29.603  30.353  1.00  0.00     0.074 A 
ATOM     43  C   UNL A   1      40.161  31.829  30.616  1.00  0.00     0.049 A 
ATOM     44  N   UNL A   1      39.630  29.176  29.152  1.00  0.00    -0.248 NA
ATOM     45  C   UNL A   1      39.168  28.461  31.283  1.00  0.00     0.031 C 
ATOM     46  C   UNL A   1      41.453  31.405  30.070  1.00  0.00     0.029 A 
ATOM     47  N   UNL A   1      40.419  33.096  31.146  1.00  0.00    -0.354 N 
ATOM     48  C   UNL A   1      39.573  27.768  29.139  1.00  0.00     0.074 A 
ATOM     49  C   UNL A   1      38.996  27.436  30.439  1.00  0.00     0.031 C 
ATOM     50  C   UNL A   1      42.407  32.140  30.668  1.00  0.00     0.029 A 
ATOM     51  C   UNL A   1      41.733  32.992  31.640  1.00  0.00     0.049 A 
ATOM     52  H   UNL A   1      39.821  33.877  31.168  1.00  0.00     0.167 HD
ATOM     53  C   UNL A   1      40.618  26.935  28.830  1.00  0.00     0.037 A 
ATOM     54  C   UNL A   1      41.894  32.927  32.992  1.00  0.00     0.037 A 
ATOM     55  C   UNL A   1      41.830  27.307  29.533  1.00  0.00     0.049 A 
ATOM     56  C   UNL A   1      42.424  31.569  33.397  1.00  0.00     0.074 A 
ATOM     57  C   UNL A   1      42.980  27.970  29.164  1.00  0.00     0.029 A 
ATOM     58  N   UNL A   1      41.871  27.194  30.923  1.00  0.00    -0.354 N 
ATOM     59  N   UNL A   1      42.166  30.435  32.791  1.00  0.00    -0.248 NA
ATOM     60  C   UNL A   1      43.381  31.437  34.484  1.00  0.00     0.031 C 
ATOM     61  C   UNL A   1      43.591  28.442  30.360  1.00  0.00     0.029 A 
ATOM     62  C   UNL A   1      42.848  28.008  31.451  1.00  0.00     0.049 A 
ATOM     63  H   UNL A   1      41.281  26.611  31.453  1.00  0.00     0.167 HD
ATOM     64  C   UNL A   1      42.947  29.453  33.352  1.00  0.00     0.074 A 
ATOM     65  C   UNL A   1      43.674  30.131  34.413  1.00  0.00     0.031 C 
ATOM     66  C   UNL A   1      43.040  28.167  32.890  1.00  0.00     0.037 A 
BRANCH  53  67
ATOM     67  C   UNL A   1      40.348  25.580  28.182  1.00  0.00     0.064 A 
ATOM     68  C   UNL A   1      41.252  24.504  28.309  1.00  0.00     0.173 A 
ATOM     69  C   UNL A   1      39.224  25.320  27.360  1.00  0.00     0.173 A 
ATOM     70  F   UNL A   1      42.368  24.630  29.041  1.00  0.00    -0.203 F 
ATOM     71  C   UNL A   1      41.047  23.270  27.669  1.00  0.00     0.198 A 
ATOM     72  C   UNL A   1      39.016  24.082  26.732  1.00  0.00     0.198 A 
ATOM     73  F   UNL A   1      38.293  26.262  27.144  1.00  0.00    -0.203 F 
ATOM     74  F   UNL A   1      41.945  22.283  27.812  1.00  0.00    -0.200 F 
ATOM     75  C   UNL A   1      39.929  23.059  26.882  1.00  0.00     0.200 A 
ATOM     76  F   UNL A   1      37.924  23.890  25.975  1.00  0.00    -0.200 F 
ATOM     77  F   UNL A   1      39.737  21.881  26.271  1.00  0.00    -0.200 F 
ENDBRANCH  53  67
BRANCH  54  78
ATOM     78  C   UNL A   1      40.945  33.797  33.770  1.00  0.00     0.064 A 
ATOM     79  C   UNL A   1      39.830  33.182  34.396  1.00  0.00     0.173 A 
ATOM     80  C   UNL A   1      41.210  35.121  34.137  1.00  0.00     0.173 A 
ATOM     81  F   UNL A   1      39.478  31.928  34.064  1.00  0.00    -0.203 F 
ATOM     82  C   UNL A   1      39.136  33.786  35.444  1.00  0.00     0.198 A 
ATOM     83  C   UNL A   1      40.478  35.745  35.165  1.00  0.00     0.198 A 
ATOM     84  F   UNL A   1      42.268  35.769  33.632  1.00  0.00    -0.203 F 
ATOM     85  F   UNL A   1      38.200  33.097  36.112  1.00  0.00    -0.200 F 
ATOM     86  C   UNL A   1      39.472  35.063  35.840  1.00  0.00     0.200 A 
ATOM     87  F   UNL A   1      40.855  36.954  35.609  1.00  0.00    -0.200 F 
ATOM     88  F   UNL A   1      38.888  35.609  36.917  1.00  0.00    -0.200 F 
ENDBRANCH  54  78
BRANCH  66  89
ATOM     89  C   UNL A   1      43.571  27.017  33.727  1.00  0.00     0.064 A 
ATOM     90  C   UNL A   1      44.886  26.521  33.624  1.00  0.00     0.173 A 
ATOM     91  C   UNL A   1      42.794  26.420  34.746  1.00  0.00     0.173 A 
ATOM     92  F   UNL A   1      45.808  27.131  32.865  1.00  0.00    -0.203 F 
ATOM     93  C   UNL A   1      45.322  25.403  34.337  1.00  0.00     0.198 A 
ATOM     94  C   UNL A   1      43.254  25.345  35.509  1.00  0.00     0.198 A 
ATOM     95  F   UNL A   1      41.576  26.881  35.065  1.00  0.00    -0.203 F 
ATOM     96  F   UNL A   1      46.552  24.915  34.117  1.00  0.00    -0.200 F 
ATOM     97  C   UNL A   1      44.502  24.808  35.274  1.00  0.00     0.200 A 
ATOM     98  F   UNL A   1      42.483  24.842  36.481  1.00  0.00    -0.200 F 
ATOM     99  F   UNL A   1      44.927  23.746  35.970  1.00  0.00    -0.200 F 
ENDBRANCH  66  89
ENDBRANCH  40  41
ENDBRANCH  33  35
ENDBRANCH  32  33
ENDBRANCH  31  32
ENDBRANCH  30  31
ENDBRANCH  29  30
ENDBRANCH  28  29
ENDBRANCH   1  28
TORSDOF 20
ENDMDL
MODEL 2
REMARK VINA RESULT:     -12.2      2.241      3.753
REMARK SMILES Cc1cc(NC(=O)NCc2sccc2C)ccc1C(=O)OCCOCCOCCOC(=O)c1ccc(-c2c3nc(c(-c4c(F)c(F)c(F)c(F)c4F)c4ccc([nH]4)c(-c4c(F)c(F)c(F)c(F)c4F)c4nc(c(-c5c(F)c(F)c(F)c(F)c5F)c5ccc2[nH]5)C=C4)C=C3)cc1
REMARK SMILES IDX 25 1 24 2 23 3 22 4 21 5 19 6 20 7 18 8 1 9 2 10 3 11 4 12
REMARK SMILES IDX 17 13 16 14 5 15 6 16 7 18 8 19 9 21 10 22 11 23 14 24 12 25
REMARK SMILES IDX 13 26 15 27 26 28 27 29 28 30 29 31 30 32 31 33 32 34 33 35
REMARK SMILES IDX 34 36 95 37 35 38 94 39 36 40 37 41 38 42 88 43 39 44 93 45
REMARK SMILES IDX 87 46 89 47 40 48 92 49 86 50 85 51 41 53 73 54 53 55 72 56
REMARK SMILES IDX 54 57 57 58 71 59 90 60 55 61 56 62 70 64 91 65 58 66 42 67
REMARK SMILES IDX 43 68 51 69 44 70 45 71 49 72 52 73 46 74 47 75 50 76 48 77
REMARK SMILES IDX 74 78 75 79 83 80 76 81 77 82 81 83 84 84 78 85 79 86 82 87
REMARK SMILES IDX 80 88 59 89 60 90 68 91 61 92 62 93 66 94 69 95 63 96 64 97
REMARK SMILES IDX 67 98 65 99
REMARK H PARENT 5 17 8 20 89 52 57 63
REMARK Flexibility Score: inf
ROOT
ATOM      1  C   UNL A   1      31.332  30.337  25.831  1.00  0.00     0.188 C 
ENDROOT
BRANCH   1   2
ATOM      2  O   UNL A   1      31.317  29.653  24.553  1.00  0.00    -0.376 OA
BRANCH   2   3
ATOM      3  C   UNL A   1      30.301  29.708  23.523  1.00  0.00     0.202 C 
BRANCH   3   4
ATOM      4  C   UNL A   1      29.903  28.416  22.439  1.00  0.00     0.261 C 
BRANCH   4   5
ATOM      5  O   UNL A   1      30.794  27.205  22.022  1.00  0.00    -0.460 OA
BRANCH   5   6
ATOM      6  C   UNL A   1      32.041  26.861  22.522  1.00  0.00     0.338 C 
ATOM      7  O   UNL A   1      32.987  27.610  22.618  1.00  0.00    -0.246 OA
BRANCH   6   8
ATOM      8  C   UNL A   1      32.450  25.536  23.090  1.00  0.00     0.063 A 
ATOM      9  C   UNL A   1      30.788  25.872  24.907  1.00  0.00     0.045 C 
ATOM     10  C   UNL A   1      31.731  25.000  24.145  1.00  0.00    -0.035 A 
ATOM     11  C   UNL A   1      31.706  23.599  24.299  1.00  0.00     0.030 A 
ATOM     12  C   UNL A   1      32.352  22.743  23.390  1.00  0.00     0.043 A 
ATOM     13  C   UNL A   1      33.254  24.654  22.288  1.00  0.00     0.018 A 
ATOM     14  C   UNL A   1      33.243  23.262  22.464  1.00  0.00     0.027 A 
BRANCH  12  15
ATOM     15  N   UNL A   1      31.951  21.405  23.242  1.00  0.00    -0.308 N 
ATOM     16  C   UNL A   1      32.588  20.264  23.637  1.00  0.00     0.319 C 
ATOM     17  H   UNL A   1      31.088  21.271  22.788  1.00  0.00     0.171 HD
ATOM     18  O   UNL A   1      32.238  19.181  23.164  1.00  0.00    -0.248 OA
ATOM     19  N   UNL A   1      33.516  20.266  24.632  1.00  0.00    -0.333 N 
ATOM     20  H   UNL A   1      33.977  19.409  24.786  1.00  0.00     0.165 HD
BRANCH  19  21
ATOM     21  C   UNL A   1      33.919  21.354  25.494  1.00  0.00     0.165 C 
BRANCH  21  22
ATOM     22  C   UNL A   1      35.311  21.859  25.285  1.00  0.00     0.027 A 
ATOM     23  S   UNL A   1      36.550  20.699  25.002  1.00  0.00    -0.147 S 
ATOM     24  C   UNL A   1      35.826  23.134  25.461  1.00  0.00    -0.035 A 
ATOM     25  C   UNL A   1      37.777  21.852  25.247  1.00  0.00     0.065 A 
ATOM     26  C   UNL A   1      37.262  23.111  25.454  1.00  0.00     0.015 A 
ATOM     27  C   UNL A   1      35.028  24.374  25.702  1.00  0.00     0.045 C 
ENDBRANCH  21  22
ENDBRANCH  19  21
ENDBRANCH  12  15
ENDBRANCH   6   8
ENDBRANCH   5   6
ENDBRANCH   4   5
ENDBRANCH   3   4
ENDBRANCH   2   3
ENDBRANCH   1   2
BRANCH   1  28
ATOM     28  C   UNL A   1      32.555  30.676  26.714  1.00  0.00     0.188 C 
BRANCH  28  29
ATOM     29  O   UNL A   1      32.549  31.987  27.242  1.00  0.00    -0.376 OA
BRANCH  29  30
ATOM     30  C   UNL A   1      33.831  32.489  27.628  1.00  0.00     0.202 C 
BRANCH  30  31
ATOM     31  C   UNL A   1      33.835  33.550  28.761  1.00  0.00     0.261 C 
BRANCH  31  32
ATOM     32  O   UNL A   1      34.042  32.955  30.065  1.00  0.00    -0.460 OA
BRANCH  32  33
ATOM     33  C   UNL A   1      35.318  33.049  30.595  1.00  0.00     0.338 C 
ATOM     34  O   UNL A   1      35.710  33.937  31.287  1.00  0.00    -0.246 OA
BRANCH  33  35
ATOM     35  C   UNL A   1      36.186  31.972  29.990  1.00  0.00     0.060 A 
ATOM     36  C   UNL A   1      36.282  30.629  30.379  1.00  0.00     0.016 A 
ATOM     37  C   UNL A   1      37.176  32.399  29.184  1.00  0.00     0.016 A 
ATOM     38  C   UNL A   1      37.465  29.819  30.073  1.00  0.00     0.010 A 
ATOM     39  C   UNL A   1      38.347  31.645  29.162  1.00  0.00     0.010 A 
ATOM     40  C   UNL A   1      38.621  30.336  29.501  1.00  0.00    -0.014 A 
BRANCH  40  41
ATOM     41  C   UNL A   1      40.086  29.765  29.399  1.00  0.00     0.031 A 
ATOM     42  C   UNL A   1      40.606  28.351  28.965  1.00  0.00     0.074 A 
ATOM     43  C   UNL A   1      41.110  30.624  29.570  1.00  0.00     0.049 A 
ATOM     44  N   UNL A   1      41.368  28.030  27.937  1.00  0.00    -0.248 NA
ATOM     45  C   UNL A   1      40.302  27.148  29.768  1.00  0.00     0.031 C 
ATOM     46  C   UNL A   1      42.547  30.348  29.477  1.00  0.00     0.029 A 
ATOM     47  N   UNL A   1      41.047  31.873  30.191  1.00  0.00    -0.354 N 
ATOM     48  C   UNL A   1      41.462  26.625  27.865  1.00  0.00     0.074 A 
ATOM     49  C   UNL A   1      40.525  26.165  28.886  1.00  0.00     0.031 C 
ATOM     50  C   UNL A   1      43.168  31.124  30.382  1.00  0.00     0.029 A 
ATOM     51  C   UNL A   1      42.128  31.853  31.095  1.00  0.00     0.049 A 
ATOM     52  H   UNL A   1      40.399  32.597  30.034  1.00  0.00     0.167 HD
ATOM     53  C   UNL A   1      42.630  25.906  27.901  1.00  0.00     0.037 A 
ATOM     54  C   UNL A   1      41.837  31.721  32.420  1.00  0.00     0.037 A 
ATOM     55  C   UNL A   1      43.496  26.339  28.980  1.00  0.00     0.049 A 
ATOM     56  C   UNL A   1      42.339  30.391  32.940  1.00  0.00     0.074 A 
ATOM     57  C   UNL A   1      44.629  27.119  29.038  1.00  0.00     0.029 A 
ATOM     58  N   UNL A   1      43.086  26.144  30.299  1.00  0.00    -0.354 N 
ATOM     59  N   UNL A   1      42.414  29.279  32.250  1.00  0.00    -0.248 NA
ATOM     60  C   UNL A   1      42.890  30.276  34.281  1.00  0.00     0.031 C 
ATOM     61  C   UNL A   1      44.758  27.569  30.382  1.00  0.00     0.029 A 
ATOM     62  C   UNL A   1      43.745  27.006  31.148  1.00  0.00     0.049 A 
ATOM     63  H   UNL A   1      42.417  25.481  30.584  1.00  0.00     0.167 HD
ATOM     64  C   UNL A   1      43.060  28.335  33.013  1.00  0.00     0.074 A 
ATOM     65  C   UNL A   1      43.322  29.007  34.275  1.00  0.00     0.031 C 
ATOM     66  C   UNL A   1      43.432  27.093  32.572  1.00  0.00     0.037 A 
BRANCH  53  67
ATOM     67  C   UNL A   1      42.729  24.576  27.161  1.00  0.00     0.064 A 
ATOM     68  C   UNL A   1      42.423  23.351  27.793  1.00  0.00     0.173 A 
ATOM     69  C   UNL A   1      43.194  24.458  25.828  1.00  0.00     0.173 A 
ATOM     70  F   UNL A   1      41.996  23.324  29.063  1.00  0.00    -0.203 F 
ATOM     71  C   UNL A   1      42.566  22.113  27.144  1.00  0.00     0.198 A 
ATOM     72  C   UNL A   1      43.324  23.220  25.179  1.00  0.00     0.198 A 
ATOM     73  F   UNL A   1      43.533  25.544  25.116  1.00  0.00    -0.203 F 
ATOM     74  F   UNL A   1      42.274  20.977  27.795  1.00  0.00    -0.200 F 
ATOM     75  C   UNL A   1      43.016  22.048  25.838  1.00  0.00     0.200 A 
ATOM     76  F   UNL A   1      43.757  23.172  23.908  1.00  0.00    -0.200 F 
ATOM     77  F   UNL A   1      43.154  20.865  25.221  1.00  0.00    -0.200 F 
ENDBRANCH  53  67
BRANCH  54  78
ATOM     78  C   UNL A   1      40.601  32.456  32.859  1.00  0.00     0.064 A 
ATOM     79  C   UNL A   1      39.422  31.703  33.103  1.00  0.00     0.173 A 
ATOM     80  C   UNL A   1      40.586  33.787  33.290  1.00  0.00     0.173 A 
ATOM     81  F   UNL A   1      39.336  30.431  32.678  1.00  0.00    -0.203 F 
ATOM     82  C   UNL A   1      38.372  32.192  33.879  1.00  0.00     0.198 A 
ATOM     83  C   UNL A   1      39.504  34.292  34.035  1.00  0.00     0.198 A 
ATOM     84  F   UNL A   1      41.668  34.562  33.143  1.00  0.00    -0.203 F 
ATOM     85  F   UNL A   1      37.359  31.383  34.219  1.00  0.00    -0.200 F 
ATOM     86  C   UNL A   1      38.421  33.484  34.359  1.00  0.00     0.200 A 
ATOM     87  F   UNL A   1      39.584  35.519  34.574  1.00  0.00    -0.200 F 
ATOM     88  F   UNL A   1      37.471  33.926  35.197  1.00  0.00    -0.200 F 
ENDBRANCH  54  78
BRANCH  66  89
ATOM     89  C   UNL A   1      43.771  25.944  33.505  1.00  0.00     0.064 A 
ATOM     90  C   UNL A   1      45.026  25.306  33.531  1.00  0.00     0.173 A 
ATOM     91  C   UNL A   1      42.860  25.495  34.489  1.00  0.00     0.173 A 
ATOM     92  F   UNL A   1      46.062  25.768  32.816  1.00  0.00    -0.203 F 
ATOM     93  C   UNL A   1      45.283  24.191  34.332  1.00  0.00     0.198 A 
ATOM     94  C   UNL A   1      43.143  24.424  35.339  1.00  0.00     0.198 A 
ATOM     95  F   UNL A   1      41.682  26.101  34.688  1.00  0.00    -0.203 F 
ATOM     96  F   UNL A   1      46.464  23.563  34.233  1.00  0.00    -0.200 F 
ATOM     97  C   UNL A   1      44.337  23.744  35.230  1.00  0.00     0.200 A 
ATOM     98  F   UNL A   1      42.252  24.064  36.273  1.00  0.00    -0.200 F 
ATOM     99  F   UNL A   1      44.590  22.686  36.010  1.00  0.00    -0.200 F 
ENDBRANCH  66  89
ENDBRANCH  40  41
ENDBRANCH  33  35
ENDBRANCH  32  33
ENDBRANCH  31  32
ENDBRANCH  30  31
ENDBRANCH  29  30
ENDBRANCH  28  29
ENDBRANCH   1  28
TORSDOF 20
ENDMDL
MODEL 3
REMARK VINA RESULT:     -12.1      3.913      9.633
REMARK SMILES Cc1cc(NC(=O)NCc2sccc2C)ccc1C(=O)OCCOCCOCCOC(=O)c1ccc(-c2c3nc(c(-c4c(F)c(F)c(F)c(F)c4F)c4ccc([nH]4)c(-c4c(F)c(F)c(F)c(F)c4F)c4nc(c(-c5c(F)c(F)c(F)c(F)c5F)c5ccc2[nH]5)C=C4)C=C3)cc1
REMARK SMILES IDX 25 1 24 2 23 3 22 4 21 5 19 6 20 7 18 8 1 9 2 10 3 11 4 12
REMARK SMILES IDX 17 13 16 14 5 15 6 16 7 18 8 19 9 21 10 22 11 23 14 24 12 25
REMARK SMILES IDX 13 26 15 27 26 28 27 29 28 30 29 31 30 32 31 33 32 34 33 35
REMARK SMILES IDX 34 36 95 37 35 38 94 39 36 40 37 41 38 42 88 43 39 44 93 45
REMARK SMILES IDX 87 46 89 47 40 48 92 49 86 50 85 51 41 53 73 54 53 55 72 56
REMARK SMILES IDX 54 57 57 58 71 59 90 60 55 61 56 62 70 64 91 65 58 66 42 67
REMARK SMILES IDX 43 68 51 69 44 70 45 71 49 72 52 73 46 74 47 75 50 76 48 77
REMARK SMILES IDX 74 78 75 79 83 80 76 81 77 82 81 83 84 84 78 85 79 86 82 87
REMARK SMILES IDX 80 88 59 89 60 90 68 91 61 92 62 93 66 94 69 95 63 96 64 97
REMARK SMILES IDX 67 98 65 99
REMARK H PARENT 5 17 8 20 89 52 57 63
REMARK Flexibility Score: inf
ROOT
ATOM      1  C   UNL A   1      39.189  21.800  26.074  1.00  0.00     0.188 C 
ENDROOT
BRANCH   1   2
ATOM      2  O   UNL A   1      38.193  21.380  25.109  1.00  0.00    -0.376 OA
BRANCH   2   3
ATOM      3  C   UNL A   1      36.940  20.697  25.359  1.00  0.00     0.202 C 
BRANCH   3   4
ATOM      4  C   UNL A   1      35.366  21.345  25.039  1.00  0.00     0.261 C 
BRANCH   4   5
ATOM      5  O   UNL A   1      34.001  20.894  25.647  1.00  0.00    -0.460 OA
BRANCH   5   6
ATOM      6  C   UNL A   1      32.734  21.338  25.303  1.00  0.00     0.338 C 
ATOM      7  O   UNL A   1      31.735  20.655  25.283  1.00  0.00    -0.246 OA
BRANCH   6   8
ATOM      8  C   UNL A   1      32.335  22.739  24.951  1.00  0.00     0.063 A 
ATOM      9  C   UNL A   1      32.843  22.221  22.574  1.00  0.00     0.045 C 
ATOM     10  C   UNL A   1      32.240  23.102  23.618  1.00  0.00    -0.035 A 
ATOM     11  C   UNL A   1      31.356  24.143  23.265  1.00  0.00     0.030 A 
ATOM     12  C   UNL A   1      30.546  24.781  24.220  1.00  0.00     0.043 A 
ATOM     13  C   UNL A   1      31.639  23.530  25.930  1.00  0.00     0.018 A 
ATOM     14  C   UNL A   1      30.780  24.580  25.572  1.00  0.00     0.027 A 
BRANCH  12  15
ATOM     15  N   UNL A   1      29.362  25.438  23.847  1.00  0.00    -0.308 N 
ATOM     16  C   UNL A   1      29.054  26.766  23.914  1.00  0.00     0.319 C 
ATOM     17  H   UNL A   1      28.654  24.858  23.485  1.00  0.00     0.171 HD
ATOM     18  O   UNL A   1      27.877  27.120  23.824  1.00  0.00    -0.248 OA
ATOM     19  N   UNL A   1      30.017  27.727  23.952  1.00  0.00    -0.333 N 
ATOM     20  H   UNL A   1      29.694  28.648  24.083  1.00  0.00     0.165 HD
BRANCH  19  21
ATOM     21  C   UNL A   1      31.449  27.581  23.828  1.00  0.00     0.165 C 
BRANCH  21  22
ATOM     22  C   UNL A   1      32.243  27.956  25.038  1.00  0.00     0.027 A 
ATOM     23  S   UNL A   1      31.807  29.401  25.866  1.00  0.00    -0.147 S 
ATOM     24  C   UNL A   1      33.422  27.415  25.526  1.00  0.00    -0.035 A 
ATOM     25  C   UNL A   1      33.244  29.391  26.776  1.00  0.00     0.065 A 
ATOM     26  C   UNL A   1      34.002  28.270  26.524  1.00  0.00     0.015 A 
ATOM     27  C   UNL A   1      34.069  26.155  25.051  1.00  0.00     0.045 C 
ENDBRANCH  21  22
ENDBRANCH  19  21
ENDBRANCH  12  15
ENDBRANCH   6   8
ENDBRANCH   5   6
ENDBRANCH   4   5
ENDBRANCH   3   4
ENDBRANCH   2   3
ENDBRANCH   1   2
BRANCH   1  28
ATOM     28  C   UNL A   1      40.571  21.166  26.353  1.00  0.00     0.188 C 
BRANCH  28  29
ATOM     29  O   UNL A   1      41.272  21.742  27.436  1.00  0.00    -0.376 OA
BRANCH  29  30
ATOM     30  C   UNL A   1      42.139  22.824  27.088  1.00  0.00     0.202 C 
BRANCH  30  31
ATOM     31  C   UNL A   1      41.893  24.163  27.834  1.00  0.00     0.261 C 
BRANCH  31  32
ATOM     32  O   UNL A   1      42.337  25.306  27.063  1.00  0.00    -0.460 OA
BRANCH  32  33
ATOM     33  C   UNL A   1      41.405  25.887  26.221  1.00  0.00     0.338 C 
ATOM     34  O   UNL A   1      41.203  25.560  25.092  1.00  0.00    -0.246 OA
BRANCH  33  35
ATOM     35  C   UNL A   1      40.843  27.124  26.880  1.00  0.00     0.060 A 
ATOM     36  C   UNL A   1      41.529  28.294  27.231  1.00  0.00     0.016 A 
ATOM     37  C   UNL A   1      39.629  26.988  27.445  1.00  0.00     0.016 A 
ATOM     38  C   UNL A   1      41.030  29.199  28.272  1.00  0.00     0.010 A 
ATOM     39  C   UNL A   1      39.368  27.754  28.578  1.00  0.00     0.010 A 
ATOM     40  C   UNL A   1      39.931  28.914  29.072  1.00  0.00    -0.014 A 
BRANCH  40  41
ATOM     41  C   UNL A   1      39.432  29.540  30.429  1.00  0.00     0.031 A 
ATOM     42  C   UNL A   1      38.560  30.812  30.711  1.00  0.00     0.074 A 
ATOM     43  C   UNL A   1      39.643  28.839  31.561  1.00  0.00     0.049 A 
ATOM     44  N   UNL A   1      37.369  30.891  31.272  1.00  0.00    -0.248 NA
ATOM     45  C   UNL A   1      39.061  32.164  30.389  1.00  0.00     0.031 C 
ATOM     46  C   UNL A   1      39.234  29.182  32.926  1.00  0.00     0.029 A 
ATOM     47  N   UNL A   1      40.570  27.809  31.736  1.00  0.00    -0.354 N 
ATOM     48  C   UNL A   1      36.917  32.224  31.190  1.00  0.00     0.074 A 
ATOM     49  C   UNL A   1      37.928  32.878  30.364  1.00  0.00     0.031 C 
ATOM     50  C   UNL A   1      40.190  28.735  33.760  1.00  0.00     0.029 A 
ATOM     51  C   UNL A   1      41.237  28.157  32.927  1.00  0.00     0.049 A 
ATOM     52  H   UNL A   1      40.722  27.025  31.162  1.00  0.00     0.167 HD
ATOM     53  C   UNL A   1      36.562  33.008  32.258  1.00  0.00     0.037 A 
ATOM     54  C   UNL A   1      42.511  28.630  32.820  1.00  0.00     0.037 A 
ATOM     55  C   UNL A   1      37.551  32.955  33.317  1.00  0.00     0.049 A 
ATOM     56  C   UNL A   1      42.571  30.085  33.233  1.00  0.00     0.074 A 
ATOM     57  C   UNL A   1      37.615  32.306  34.530  1.00  0.00     0.029 A 
ATOM     58  N   UNL A   1      38.823  33.477  33.084  1.00  0.00    -0.354 N 
ATOM     59  N   UNL A   1      41.612  30.965  33.076  1.00  0.00    -0.248 NA
ATOM     60  C   UNL A   1      43.719  30.607  33.957  1.00  0.00     0.031 C 
ATOM     61  C   UNL A   1      38.987  32.257  34.905  1.00  0.00     0.029 A 
ATOM     62  C   UNL A   1      39.741  32.934  33.956  1.00  0.00     0.049 A 
ATOM     63  H   UNL A   1      39.036  34.142  32.390  1.00  0.00     0.167 HD
ATOM     64  C   UNL A   1      41.978  32.127  33.711  1.00  0.00     0.074 A 
ATOM     65  C   UNL A   1      43.307  31.852  34.231  1.00  0.00     0.031 C 
ATOM     66  C   UNL A   1      41.170  33.223  33.867  1.00  0.00     0.037 A 
BRANCH  53  67
ATOM     67  C   UNL A   1      35.495  34.084  32.092  1.00  0.00     0.064 A 
ATOM     68  C   UNL A   1      35.231  35.030  33.106  1.00  0.00     0.173 A 
ATOM     69  C   UNL A   1      34.651  34.177  30.957  1.00  0.00     0.173 A 
ATOM     70  F   UNL A   1      35.944  35.033  34.241  1.00  0.00    -0.203 F 
ATOM     71  C   UNL A   1      34.211  35.991  32.993  1.00  0.00     0.198 A 
ATOM     72  C   UNL A   1      33.642  35.146  30.842  1.00  0.00     0.198 A 
ATOM     73  F   UNL A   1      34.786  33.331  29.925  1.00  0.00    -0.203 F 
ATOM     74  F   UNL A   1      33.993  36.858  33.993  1.00  0.00    -0.200 F 
ATOM     75  C   UNL A   1      33.418  36.049  31.862  1.00  0.00     0.200 A 
ATOM     76  F   UNL A   1      32.882  35.194  29.736  1.00  0.00    -0.200 F 
ATOM     77  F   UNL A   1      32.444  36.964  31.757  1.00  0.00    -0.200 F 
ENDBRANCH  53  67
BRANCH  54  78
ATOM     78  C   UNL A   1      43.333  27.958  31.756  1.00  0.00     0.064 A 
ATOM     79  C   UNL A   1      43.722  28.721  30.623  1.00  0.00     0.173 A 
ATOM     80  C   UNL A   1      43.959  26.716  31.909  1.00  0.00     0.173 A 
ATOM     81  F   UNL A   1      43.134  29.904  30.375  1.00  0.00    -0.203 F 
ATOM     82  C   UNL A   1      44.785  28.349  29.803  1.00  0.00     0.198 A 
ATOM     83  C   UNL A   1      45.003  26.322  31.052  1.00  0.00     0.198 A 
ATOM     84  F   UNL A   1      43.689  25.945  32.971  1.00  0.00    -0.203 F 
ATOM     85  F   UNL A   1      45.219  29.186  28.850  1.00  0.00    -0.200 F 
ATOM     86  C   UNL A   1      45.438  27.155  30.028  1.00  0.00     0.200 A 
ATOM     87  F   UNL A   1      45.694  25.203  31.317  1.00  0.00    -0.200 F 
ATOM     88  F   UNL A   1      46.531  26.842  29.316  1.00  0.00    -0.200 F 
ENDBRANCH  54  78
BRANCH  66  89
ATOM     89  C   UNL A   1      41.698  34.607  34.201  1.00  0.00     0.064 A 
ATOM     90  C   UNL A   1      42.278  35.470  33.251  1.00  0.00     0.173 A 
ATOM     91  C   UNL A   1      41.553  35.163  35.493  1.00  0.00     0.173 A 
ATOM     92  F   UNL A   1      42.278  35.174  31.943  1.00  0.00    -0.203 F 
ATOM     93  C   UNL A   1      42.840  36.700  33.601  1.00  0.00     0.198 A 
ATOM     94  C   UNL A   1      42.054  36.423  35.827  1.00  0.00     0.198 A 
ATOM     95  F   UNL A   1      40.890  34.523  36.466  1.00  0.00    -0.203 F 
ATOM     96  F   UNL A   1      43.471  37.428  32.669  1.00  0.00    -0.200 F 
ATOM     97  C   UNL A   1      42.736  37.172  34.892  1.00  0.00     0.200 A 
ATOM     98  F   UNL A   1      41.859  36.909  37.060  1.00  0.00    -0.200 F 
ATOM     99  F   UNL A   1      43.260  38.359  35.224  1.00  0.00    -0.200 F 
ENDBRANCH  66  89
ENDBRANCH  40  41
ENDBRANCH  33  35
ENDBRANCH  32  33
ENDBRANCH  31  32
ENDBRANCH  30  31
ENDBRANCH  29  30
ENDBRANCH  28  29
ENDBRANCH   1  28
TORSDOF 20
ENDMDL
