MODEL 1
REMARK VINA RESULT:     -11.3      0.000      0.000
REMARK SMILES COc1cc(C)cc2c1O[C@H](C(F)(F)F)C(C(=O)OCCOCCOCCOC(=O)c1ccc(-c3c4nc(c(-c5c(F)c(F)c(F)c(F)c5F)c5ccc([nH]5)c(-c5c(F)c(F)c(F)c(F)c5F)c5nc(c(-c6c(F)c(F)c(F)c(F)c6F)c6ccc3[nH]6)C=C5)C=C4)cc1)=C2
REMARK SMILES IDX 24 1 23 2 22 3 21 4 20 5 19 6 17 7 18 8 16 9 3 10 4 11 9 12
REMARK SMILES IDX 5 13 8 14 10 15 6 16 7 17 94 18 11 19 2 20 1 21 12 22 13 23
REMARK SMILES IDX 14 24 15 25 25 26 26 27 27 28 28 29 29 30 30 31 31 32 32 33
REMARK SMILES IDX 93 34 33 35 92 36 34 37 35 38 36 39 86 40 37 41 91 42 85 43
REMARK SMILES IDX 87 44 38 45 90 46 84 47 83 48 39 50 71 51 51 52 70 53 52 54
REMARK SMILES IDX 55 55 69 56 88 57 53 58 54 59 68 61 89 62 56 63 40 64 41 65
REMARK SMILES IDX 49 66 42 67 43 68 47 69 50 70 44 71 45 72 48 73 46 74 72 75
REMARK SMILES IDX 73 76 81 77 74 78 75 79 79 80 82 81 76 82 77 83 80 84 78 85
REMARK SMILES IDX 57 86 58 87 66 88 59 89 60 90 64 91 67 92 61 93 62 94 65 95
REMARK SMILES IDX 63 96
REMARK H PARENT 87 49 55 60
REMARK Flexibility Score: inf
ROOT
ATOM      1  C   UNL A   1      28.896  30.927  23.613  1.00  0.00     0.188 C 
ENDROOT
BRANCH   1   2
ATOM      2  C   UNL A   1      29.378  29.632  22.929  1.00  0.00     0.188 C 
BRANCH   2   3
ATOM      3  O   UNL A   1      29.397  28.406  23.628  1.00  0.00    -0.376 OA
BRANCH   3   4
ATOM      4  C   UNL A   1      30.479  27.499  23.496  1.00  0.00     0.202 C 
BRANCH   4   5
ATOM      5  C   UNL A   1      31.134  27.145  22.154  1.00  0.00     0.261 C 
BRANCH   5   6
ATOM      6  O   UNL A   1      31.543  25.782  22.006  1.00  0.00    -0.460 OA
BRANCH   6   7
ATOM      7  C   UNL A   1      32.880  25.597  21.893  1.00  0.00     0.338 C 
ATOM      8  O   UNL A   1      33.671  26.318  21.305  1.00  0.00    -0.246 OA
BRANCH   7   9
ATOM      9  C   UNL A   1      33.296  24.460  22.735  1.00  0.00     0.087 C 
ATOM     10  C   UNL A   1      34.154  21.243  25.253  1.00  0.00     0.161 A 
ATOM     11  C   UNL A   1      33.559  20.002  25.001  1.00  0.00     0.054 A 
ATOM     12  C   UNL A   1      33.929  22.313  24.372  1.00  0.00     0.169 A 
ATOM     13  C   UNL A   1      32.761  19.809  23.865  1.00  0.00    -0.047 A 
ATOM     14  C   UNL A   1      33.117  22.134  23.249  1.00  0.00     0.021 A 
ATOM     15  O   UNL A   1      34.543  23.502  24.664  1.00  0.00    -0.471 OA
ATOM     16  C   UNL A   1      32.103  18.487  23.595  1.00  0.00     0.044 C 
ATOM     17  C   UNL A   1      32.558  20.879  22.983  1.00  0.00     0.015 A 
ATOM     18  C   UNL A   1      32.795  23.265  22.399  1.00  0.00     0.027 C 
ATOM     19  C   UNL A   1      34.229  24.686  23.892  1.00  0.00     0.316 C 
BRANCH  10  20
ATOM     20  O   UNL A   1      34.900  21.527  26.369  1.00  0.00    -0.493 OA
ATOM     21  C   UNL A   1      34.183  21.803  27.564  1.00  0.00     0.278 C 
ENDBRANCH  10  20
BRANCH  19  22
ATOM     22  C   UNL A   1      33.718  25.771  24.850  1.00  0.00     0.430 C 
ATOM     23  F   UNL A   1      34.397  25.761  26.022  1.00  0.00    -0.167 F 
ATOM     24  F   UNL A   1      33.872  27.010  24.326  1.00  0.00    -0.167 F 
ATOM     25  F   UNL A   1      32.405  25.617  25.136  1.00  0.00    -0.167 F 
ENDBRANCH  19  22
ENDBRANCH   7   9
ENDBRANCH   6   7
ENDBRANCH   5   6
ENDBRANCH   4   5
ENDBRANCH   3   4
ENDBRANCH   2   3
ENDBRANCH   1   2
BRANCH   1  26
ATOM     26  O   UNL A   1      29.803  31.770  24.289  1.00  0.00    -0.376 OA
BRANCH  26  27
ATOM     27  C   UNL A   1      30.668  31.236  25.278  1.00  0.00     0.202 C 
BRANCH  27  28
ATOM     28  C   UNL A   1      31.176  32.050  26.478  1.00  0.00     0.261 C 
BRANCH  28  29
ATOM     29  O   UNL A   1      32.510  31.761  26.908  1.00  0.00    -0.460 OA
BRANCH  29  30
ATOM     30  C   UNL A   1      33.167  32.800  27.494  1.00  0.00     0.338 C 
ATOM     31  O   UNL A   1      32.759  33.921  27.687  1.00  0.00    -0.246 OA
BRANCH  30  32
ATOM     32  C   UNL A   1      34.432  32.286  28.061  1.00  0.00     0.060 A 
ATOM     33  C   UNL A   1      35.529  33.129  28.232  1.00  0.00     0.016 A 
ATOM     34  C   UNL A   1      34.506  30.933  28.420  1.00  0.00     0.016 A 
ATOM     35  C   UNL A   1      36.703  32.614  28.786  1.00  0.00     0.010 A 
ATOM     36  C   UNL A   1      35.686  30.417  28.958  1.00  0.00     0.010 A 
ATOM     37  C   UNL A   1      36.787  31.261  29.163  1.00  0.00    -0.014 A 
BRANCH  37  38
ATOM     38  C   UNL A   1      37.966  30.784  29.925  1.00  0.00     0.031 A 
ATOM     39  C   UNL A   1      38.215  31.193  31.344  1.00  0.00     0.074 A 
ATOM     40  C   UNL A   1      38.821  29.951  29.303  1.00  0.00     0.049 A 
ATOM     41  N   UNL A   1      39.144  30.771  32.166  1.00  0.00    -0.248 NA
ATOM     42  C   UNL A   1      37.317  32.206  31.915  1.00  0.00     0.031 C 
ATOM     43  C   UNL A   1      38.697  29.518  27.910  1.00  0.00     0.029 A 
ATOM     44  N   UNL A   1      39.948  29.314  29.755  1.00  0.00    -0.354 N 
ATOM     45  C   UNL A   1      38.926  31.442  33.362  1.00  0.00     0.074 A 
ATOM     46  C   UNL A   1      37.811  32.342  33.140  1.00  0.00     0.031 C 
ATOM     47  C   UNL A   1      39.687  28.656  27.632  1.00  0.00     0.029 A 
ATOM     48  C   UNL A   1      40.527  28.497  28.817  1.00  0.00     0.049 A 
ATOM     49  H   UNL A   1      40.306  29.430  30.665  1.00  0.00     0.167 HD
ATOM     50  C   UNL A   1      39.585  31.297  34.537  1.00  0.00     0.037 A 
ATOM     51  C   UNL A   1      41.607  27.698  28.900  1.00  0.00     0.037 A 
ATOM     52  C   UNL A   1      40.704  30.409  34.744  1.00  0.00     0.049 A 
ATOM     53  C   UNL A   1      42.347  27.594  30.204  1.00  0.00     0.074 A 
ATOM     54  C   UNL A   1      41.408  30.166  35.912  1.00  0.00     0.029 A 
ATOM     55  N   UNL A   1      41.294  29.629  33.758  1.00  0.00    -0.354 N 
ATOM     56  N   UNL A   1      42.081  28.167  31.352  1.00  0.00    -0.248 NA
ATOM     57  C   UNL A   1      43.533  26.727  30.226  1.00  0.00     0.031 C 
ATOM     58  C   UNL A   1      42.456  29.288  35.623  1.00  0.00     0.029 A 
ATOM     59  C   UNL A   1      42.374  28.934  34.286  1.00  0.00     0.049 A 
ATOM     60  H   UNL A   1      40.991  29.577  32.823  1.00  0.00     0.167 HD
ATOM     61  C   UNL A   1      43.050  27.715  32.238  1.00  0.00     0.074 A 
ATOM     62  C   UNL A   1      43.900  26.804  31.498  1.00  0.00     0.031 C 
ATOM     63  C   UNL A   1      43.220  28.032  33.544  1.00  0.00     0.037 A 
BRANCH  50  64
ATOM     64  C   UNL A   1      39.112  32.100  35.714  1.00  0.00     0.064 A 
ATOM     65  C   UNL A   1      38.273  31.537  36.690  1.00  0.00     0.173 A 
ATOM     66  C   UNL A   1      39.579  33.406  35.928  1.00  0.00     0.173 A 
ATOM     67  F   UNL A   1      37.798  30.292  36.534  1.00  0.00    -0.203 F 
ATOM     68  C   UNL A   1      37.912  32.256  37.827  1.00  0.00     0.198 A 
ATOM     69  C   UNL A   1      39.239  34.111  37.080  1.00  0.00     0.198 A 
ATOM     70  F   UNL A   1      40.394  33.987  35.034  1.00  0.00    -0.203 F 
ATOM     71  F   UNL A   1      37.093  31.704  38.733  1.00  0.00    -0.200 F 
ATOM     72  C   UNL A   1      38.403  33.537  38.026  1.00  0.00     0.200 A 
ATOM     73  F   UNL A   1      39.730  35.342  37.281  1.00  0.00    -0.200 F 
ATOM     74  F   UNL A   1      38.073  34.218  39.132  1.00  0.00    -0.200 F 
ENDBRANCH  50  64
BRANCH  51  75
ATOM     75  C   UNL A   1      42.018  26.900  27.717  1.00  0.00     0.064 A 
ATOM     76  C   UNL A   1      42.982  27.387  26.824  1.00  0.00     0.173 A 
ATOM     77  C   UNL A   1      41.483  25.627  27.474  1.00  0.00     0.173 A 
ATOM     78  F   UNL A   1      43.509  28.607  27.005  1.00  0.00    -0.203 F 
ATOM     79  C   UNL A   1      43.388  26.633  25.725  1.00  0.00     0.198 A 
ATOM     80  C   UNL A   1      41.912  24.862  26.393  1.00  0.00     0.198 A 
ATOM     81  F   UNL A   1      40.563  25.116  28.306  1.00  0.00    -0.203 F 
ATOM     82  F   UNL A   1      44.285  27.135  24.867  1.00  0.00    -0.200 F 
ATOM     83  C   UNL A   1      42.859  25.368  25.516  1.00  0.00     0.200 A 
ATOM     84  F   UNL A   1      41.411  23.634  26.204  1.00  0.00    -0.200 F 
ATOM     85  F   UNL A   1      43.261  24.637  24.466  1.00  0.00    -0.200 F 
ENDBRANCH  51  75
BRANCH  63  86
ATOM     86  C   UNL A   1      44.366  27.389  34.273  1.00  0.00     0.064 A 
ATOM     87  C   UNL A   1      44.234  26.131  34.878  1.00  0.00     0.173 A 
ATOM     88  C   UNL A   1      45.626  28.006  34.312  1.00  0.00     0.173 A 
ATOM     89  F   UNL A   1      43.048  25.504  34.884  1.00  0.00    -0.203 F 
ATOM     90  C   UNL A   1      45.317  25.521  35.509  1.00  0.00     0.198 A 
ATOM     91  C   UNL A   1      46.713  27.380  34.915  1.00  0.00     0.198 A 
ATOM     92  F   UNL A   1      45.807  29.208  33.743  1.00  0.00    -0.203 F 
ATOM     93  F   UNL A   1      45.158  24.336  36.113  1.00  0.00    -0.200 F 
ATOM     94  C   UNL A   1      46.558  26.142  35.517  1.00  0.00     0.200 A 
ATOM     95  F   UNL A   1      47.916  27.974  34.907  1.00  0.00    -0.200 F 
ATOM     96  F   UNL A   1      47.603  25.545  36.108  1.00  0.00    -0.200 F 
ENDBRANCH  63  86
ENDBRANCH  37  38
ENDBRANCH  30  32
ENDBRANCH  29  30
ENDBRANCH  28  29
ENDBRANCH  27  28
ENDBRANCH  26  27
ENDBRANCH   1  26
TORSDOF 19
ENDMDL
MODEL 2
REMARK VINA RESULT:     -11.0      0.562      2.012
REMARK SMILES COc1cc(C)cc2c1O[C@H](C(F)(F)F)C(C(=O)OCCOCCOCCOC(=O)c1ccc(-c3c4nc(c(-c5c(F)c(F)c(F)c(F)c5F)c5ccc([nH]5)c(-c5c(F)c(F)c(F)c(F)c5F)c5nc(c(-c6c(F)c(F)c(F)c(F)c6F)c6ccc3[nH]6)C=C5)C=C4)cc1)=C2
REMARK SMILES IDX 24 1 23 2 22 3 21 4 20 5 19 6 17 7 18 8 16 9 3 10 4 11 9 12
REMARK SMILES IDX 5 13 8 14 10 15 6 16 7 17 94 18 11 19 2 20 1 21 12 22 13 23
REMARK SMILES IDX 14 24 15 25 25 26 26 27 27 28 28 29 29 30 30 31 31 32 32 33
REMARK SMILES IDX 93 34 33 35 92 36 34 37 35 38 36 39 86 40 37 41 91 42 85 43
REMARK SMILES IDX 87 44 38 45 90 46 84 47 83 48 39 50 71 51 51 52 70 53 52 54
REMARK SMILES IDX 55 55 69 56 88 57 53 58 54 59 68 61 89 62 56 63 40 64 41 65
REMARK SMILES IDX 49 66 42 67 43 68 47 69 50 70 44 71 45 72 48 73 46 74 72 75
REMARK SMILES IDX 73 76 81 77 74 78 75 79 79 80 82 81 76 82 77 83 80 84 78 85
REMARK SMILES IDX 57 86 58 87 66 88 59 89 60 90 64 91 67 92 61 93 62 94 65 95
REMARK SMILES IDX 63 96
REMARK H PARENT 87 49 55 60
REMARK Flexibility Score: inf
ROOT
ATOM      1  C   UNL A   1      29.002  31.033  23.782  1.00  0.00     0.188 C 
ENDROOT
BRANCH   1   2
ATOM      2  C   UNL A   1      29.419  30.042  22.676  1.00  0.00     0.188 C 
BRANCH   2   3
ATOM      3  O   UNL A   1      29.631  28.678  22.966  1.00  0.00    -0.376 OA
BRANCH   3   4
ATOM      4  C   UNL A   1      30.897  28.069  22.771  1.00  0.00     0.202 C 
BRANCH   4   5
ATOM      5  C   UNL A   1      31.148  26.932  21.772  1.00  0.00     0.261 C 
BRANCH   5   6
ATOM      6  O   UNL A   1      31.576  25.691  22.341  1.00  0.00    -0.460 OA
BRANCH   6   7
ATOM      7  C   UNL A   1      32.848  25.333  22.037  1.00  0.00     0.338 C 
ATOM      8  O   UNL A   1      33.604  25.904  21.269  1.00  0.00    -0.246 OA
BRANCH   7   9
ATOM      9  C   UNL A   1      33.269  24.219  22.907  1.00  0.00     0.087 C 
ATOM     10  C   UNL A   1      34.142  21.064  25.497  1.00  0.00     0.161 A 
ATOM     11  C   UNL A   1      33.571  19.809  25.260  1.00  0.00     0.054 A 
ATOM     12  C   UNL A   1      33.913  22.113  24.593  1.00  0.00     0.169 A 
ATOM     13  C   UNL A   1      32.793  19.582  24.117  1.00  0.00    -0.047 A 
ATOM     14  C   UNL A   1      33.121  21.900  23.462  1.00  0.00     0.021 A 
ATOM     15  O   UNL A   1      34.503  23.317  24.871  1.00  0.00    -0.471 OA
ATOM     16  C   UNL A   1      32.160  18.245  23.862  1.00  0.00     0.044 C 
ATOM     17  C   UNL A   1      32.586  20.631  23.213  1.00  0.00     0.015 A 
ATOM     18  C   UNL A   1      32.792  23.010  22.586  1.00  0.00     0.027 C 
ATOM     19  C   UNL A   1      34.182  24.482  24.073  1.00  0.00     0.316 C 
BRANCH  10  20
ATOM     20  O   UNL A   1      34.868  21.381  26.618  1.00  0.00    -0.493 OA
ATOM     21  C   UNL A   1      34.140  21.892  27.726  1.00  0.00     0.278 C 
ENDBRANCH  10  20
BRANCH  19  22
ATOM     22  C   UNL A   1      33.640  25.576  25.003  1.00  0.00     0.430 C 
ATOM     23  F   UNL A   1      33.787  26.808  24.463  1.00  0.00    -0.167 F 
ATOM     24  F   UNL A   1      32.315  25.415  25.241  1.00  0.00    -0.167 F 
ATOM     25  F   UNL A   1      34.265  25.576  26.202  1.00  0.00    -0.167 F 
ENDBRANCH  19  22
ENDBRANCH   7   9
ENDBRANCH   6   7
ENDBRANCH   5   6
ENDBRANCH   4   5
ENDBRANCH   3   4
ENDBRANCH   2   3
ENDBRANCH   1   2
BRANCH   1  26
ATOM     26  O   UNL A   1      29.969  31.653  24.601  1.00  0.00    -0.376 OA
BRANCH  26  27
ATOM     27  C   UNL A   1      30.933  30.869  25.284  1.00  0.00     0.202 C 
BRANCH  27  28
ATOM     28  C   UNL A   1      31.526  31.265  26.645  1.00  0.00     0.261 C 
BRANCH  28  29
ATOM     29  O   UNL A   1      32.951  31.181  26.751  1.00  0.00    -0.460 OA
BRANCH  29  30
ATOM     30  C   UNL A   1      33.544  32.220  27.403  1.00  0.00     0.338 C 
ATOM     31  O   UNL A   1      33.078  33.309  27.641  1.00  0.00    -0.246 OA
BRANCH  30  32
ATOM     32  C   UNL A   1      34.820  31.739  27.974  1.00  0.00     0.060 A 
ATOM     33  C   UNL A   1      35.905  32.601  28.117  1.00  0.00     0.016 A 
ATOM     34  C   UNL A   1      34.917  30.396  28.366  1.00  0.00     0.016 A 
ATOM     35  C   UNL A   1      37.091  32.118  28.676  1.00  0.00     0.010 A 
ATOM     36  C   UNL A   1      36.108  29.911  28.908  1.00  0.00     0.010 A 
ATOM     37  C   UNL A   1      37.198  30.776  29.085  1.00  0.00    -0.014 A 
BRANCH  37  38
ATOM     38  C   UNL A   1      38.388  30.336  29.851  1.00  0.00     0.031 A 
ATOM     39  C   UNL A   1      38.660  30.814  31.243  1.00  0.00     0.074 A 
ATOM     40  C   UNL A   1      39.232  29.472  29.257  1.00  0.00     0.049 A 
ATOM     41  N   UNL A   1      39.602  30.432  32.071  1.00  0.00    -0.248 NA
ATOM     42  C   UNL A   1      37.773  31.856  31.777  1.00  0.00     0.031 C 
ATOM     43  C   UNL A   1      39.085  28.970  27.890  1.00  0.00     0.029 A 
ATOM     44  N   UNL A   1      40.366  28.856  29.722  1.00  0.00    -0.354 N 
ATOM     45  C   UNL A   1      39.404  31.161  33.234  1.00  0.00     0.074 A 
ATOM     46  C   UNL A   1      38.287  32.051  32.986  1.00  0.00     0.031 C 
ATOM     47  C   UNL A   1      40.070  28.094  27.638  1.00  0.00     0.029 A 
ATOM     48  C   UNL A   1      40.929  27.992  28.816  1.00  0.00     0.049 A 
ATOM     49  H   UNL A   1      40.739  29.016  30.619  1.00  0.00     0.167 HD
ATOM     50  C   UNL A   1      40.083  31.073  34.405  1.00  0.00     0.037 A 
ATOM     51  C   UNL A   1      42.009  27.197  28.921  1.00  0.00     0.037 A 
ATOM     52  C   UNL A   1      41.204  30.195  34.637  1.00  0.00     0.049 A 
ATOM     53  C   UNL A   1      42.771  27.156  30.217  1.00  0.00     0.074 A 
ATOM     54  C   UNL A   1      41.926  30.010  35.805  1.00  0.00     0.029 A 
ATOM     55  N   UNL A   1      41.777  29.366  33.682  1.00  0.00    -0.354 N 
ATOM     56  N   UNL A   1      42.523  27.785  31.339  1.00  0.00    -0.248 NA
ATOM     57  C   UNL A   1      43.956  26.289  30.262  1.00  0.00     0.031 C 
ATOM     58  C   UNL A   1      42.968  29.117  35.542  1.00  0.00     0.029 A 
ATOM     59  C   UNL A   1      42.865  28.697  34.226  1.00  0.00     0.049 A 
ATOM     60  H   UNL A   1      41.459  29.269  32.756  1.00  0.00     0.167 HD
ATOM     61  C   UNL A   1      43.507  27.377  32.230  1.00  0.00     0.074 A 
ATOM     62  C   UNL A   1      44.343  26.429  31.523  1.00  0.00     0.031 C 
ATOM     63  C   UNL A   1      43.698  27.758  33.516  1.00  0.00     0.037 A 
BRANCH  50  64
ATOM     64  C   UNL A   1      39.628  31.935  35.548  1.00  0.00     0.064 A 
ATOM     65  C   UNL A   1      40.119  33.240  35.715  1.00  0.00     0.173 A 
ATOM     66  C   UNL A   1      38.621  31.499  36.422  1.00  0.00     0.173 A 
ATOM     67  F   UNL A   1      41.083  33.707  34.907  1.00  0.00    -0.203 F 
ATOM     68  C   UNL A   1      39.627  34.069  36.721  1.00  0.00     0.198 A 
ATOM     69  C   UNL A   1      38.111  32.340  37.408  1.00  0.00     0.198 A 
ATOM     70  F   UNL A   1      38.107  30.266  36.298  1.00  0.00    -0.203 F 
ATOM     71  F   UNL A   1      40.127  35.303  36.874  1.00  0.00    -0.200 F 
ATOM     72  C   UNL A   1      38.616  33.622  37.558  1.00  0.00     0.200 A 
ATOM     73  F   UNL A   1      37.120  31.914  38.204  1.00  0.00    -0.200 F 
ATOM     74  F   UNL A   1      38.128  34.429  38.510  1.00  0.00    -0.200 F 
ENDBRANCH  50  64
BRANCH  51  75
ATOM     75  C   UNL A   1      42.401  26.341  27.773  1.00  0.00     0.064 A 
ATOM     76  C   UNL A   1      41.815  25.082  27.583  1.00  0.00     0.173 A 
ATOM     77  C   UNL A   1      43.340  26.775  26.827  1.00  0.00     0.173 A 
ATOM     78  F   UNL A   1      40.925  24.616  28.472  1.00  0.00    -0.203 F 
ATOM     79  C   UNL A   1      42.162  24.285  26.495  1.00  0.00     0.198 A 
ATOM     80  C   UNL A   1      43.664  25.991  25.723  1.00  0.00     0.198 A 
ATOM     81  F   UNL A   1      43.922  27.976  26.962  1.00  0.00    -0.203 F 
ATOM     82  F   UNL A   1      41.614  23.071  26.355  1.00  0.00    -0.200 F 
ATOM     83  C   UNL A   1      43.080  24.744  25.562  1.00  0.00     0.200 A 
ATOM     84  F   UNL A   1      44.537  26.445  24.814  1.00  0.00    -0.200 F 
ATOM     85  F   UNL A   1      43.403  23.982  24.507  1.00  0.00    -0.200 F 
ENDBRANCH  51  75
BRANCH  63  86
ATOM     86  C   UNL A   1      44.855  27.150  34.257  1.00  0.00     0.064 A 
ATOM     87  C   UNL A   1      46.133  27.726  34.219  1.00  0.00     0.173 A 
ATOM     88  C   UNL A   1      44.671  26.017  35.066  1.00  0.00     0.173 A 
ATOM     89  F   UNL A   1      46.367  28.800  33.450  1.00  0.00    -0.203 F 
ATOM     90  C   UNL A   1      47.187  27.183  34.950  1.00  0.00     0.198 A 
ATOM     91  C   UNL A   1      45.719  25.495  35.820  1.00  0.00     0.198 A 
ATOM     92  F   UNL A   1      43.467  25.430  35.143  1.00  0.00    -0.203 F 
ATOM     93  F   UNL A   1      48.408  27.728  34.867  1.00  0.00    -0.200 F 
ATOM     94  C   UNL A   1      46.976  26.075  35.758  1.00  0.00     0.200 A 
ATOM     95  F   UNL A   1      45.509  24.434  36.612  1.00  0.00    -0.200 F 
ATOM     96  F   UNL A   1      47.988  25.564  36.474  1.00  0.00    -0.200 F 
ENDBRANCH  63  86
ENDBRANCH  37  38
ENDBRANCH  30  32
ENDBRANCH  29  30
ENDBRANCH  28  29
ENDBRANCH  27  28
ENDBRANCH  26  27
ENDBRANCH   1  26
TORSDOF 19
ENDMDL
MODEL 3
REMARK VINA RESULT:     -10.9      1.735      2.848
REMARK SMILES COc1cc(C)cc2c1O[C@H](C(F)(F)F)C(C(=O)OCCOCCOCCOC(=O)c1ccc(-c3c4nc(c(-c5c(F)c(F)c(F)c(F)c5F)c5ccc([nH]5)c(-c5c(F)c(F)c(F)c(F)c5F)c5nc(c(-c6c(F)c(F)c(F)c(F)c6F)c6ccc3[nH]6)C=C5)C=C4)cc1)=C2
REMARK SMILES IDX 24 1 23 2 22 3 21 4 20 5 19 6 17 7 18 8 16 9 3 10 4 11 9 12
REMARK SMILES IDX 5 13 8 14 10 15 6 16 7 17 94 18 11 19 2 20 1 21 12 22 13 23
REMARK SMILES IDX 14 24 15 25 25 26 26 27 27 28 28 29 29 30 30 31 31 32 32 33
REMARK SMILES IDX 93 34 33 35 92 36 34 37 35 38 36 39 86 40 37 41 91 42 85 43
REMARK SMILES IDX 87 44 38 45 90 46 84 47 83 48 39 50 71 51 51 52 70 53 52 54
REMARK SMILES IDX 55 55 69 56 88 57 53 58 54 59 68 61 89 62 56 63 40 64 41 65
REMARK SMILES IDX 49 66 42 67 43 68 47 69 50 70 44 71 45 72 48 73 46 74 72 75
REMARK SMILES IDX 73 76 81 77 74 78 75 79 79 80 82 81 76 82 77 83 80 84 78 85
REMARK SMILES IDX 57 86 58 87 66 88 59 89 60 90 64 91 67 92 61 93 62 94 65 95
REMARK SMILES IDX 63 96
REMARK H PARENT 87 49 55 60
REMARK Flexibility Score: inf
ROOT
ATOM      1  C   UNL A   1      29.711  29.859  23.217  1.00  0.00     0.188 C 
ENDROOT
BRANCH   1   2
ATOM      2  C   UNL A   1      30.676  29.192  22.216  1.00  0.00     0.188 C 
BRANCH   2   3
ATOM      3  O   UNL A   1      30.629  27.802  21.979  1.00  0.00    -0.376 OA
BRANCH   3   4
ATOM      4  C   UNL A   1      31.246  26.882  22.864  1.00  0.00     0.202 C 
BRANCH   4   5
ATOM      5  C   UNL A   1      30.679  25.490  23.173  1.00  0.00     0.261 C 
BRANCH   5   6
ATOM      6  O   UNL A   1      31.649  24.469  23.429  1.00  0.00    -0.460 OA
BRANCH   6   7
ATOM      7  C   UNL A   1      31.647  23.983  24.694  1.00  0.00     0.338 C 
ATOM      8  O   UNL A   1      30.711  23.991  25.478  1.00  0.00    -0.246 OA
BRANCH   7   9
ATOM      9  C   UNL A   1      32.913  23.274  24.954  1.00  0.00     0.087 C 
ATOM     10  C   UNL A   1      36.620  21.408  25.403  1.00  0.00     0.161 A 
ATOM     11  C   UNL A   1      37.738  22.183  25.730  1.00  0.00     0.054 A 
ATOM     12  C   UNL A   1      35.356  22.014  25.320  1.00  0.00     0.169 A 
ATOM     13  C   UNL A   1      37.605  23.552  26.000  1.00  0.00    -0.047 A 
ATOM     14  C   UNL A   1      35.220  23.382  25.566  1.00  0.00     0.021 A 
ATOM     15  O   UNL A   1      34.297  21.206  25.004  1.00  0.00    -0.471 OA
ATOM     16  C   UNL A   1      38.801  24.396  26.333  1.00  0.00     0.044 C 
ATOM     17  C   UNL A   1      36.337  24.142  25.931  1.00  0.00     0.015 A 
ATOM     18  C   UNL A   1      33.935  24.030  25.373  1.00  0.00     0.027 C 
ATOM     19  C   UNL A   1      32.996  21.787  24.745  1.00  0.00     0.316 C 
BRANCH  10  20
ATOM     20  O   UNL A   1      36.675  20.078  25.072  1.00  0.00    -0.493 OA
ATOM     21  C   UNL A   1      37.968  19.510  24.920  1.00  0.00     0.278 C 
ENDBRANCH  10  20
BRANCH  19  22
ATOM     22  C   UNL A   1      32.548  21.370  23.337  1.00  0.00     0.430 C 
ATOM     23  F   UNL A   1      31.225  21.586  23.151  1.00  0.00    -0.167 F 
ATOM     24  F   UNL A   1      33.193  22.079  22.380  1.00  0.00    -0.167 F 
ATOM     25  F   UNL A   1      32.788  20.061  23.096  1.00  0.00    -0.167 F 
ENDBRANCH  19  22
ENDBRANCH   7   9
ENDBRANCH   6   7
ENDBRANCH   5   6
ENDBRANCH   4   5
ENDBRANCH   3   4
ENDBRANCH   2   3
ENDBRANCH   1   2
BRANCH   1  26
ATOM     26  O   UNL A   1      30.184  30.395  24.433  1.00  0.00    -0.376 OA
BRANCH  26  27
ATOM     27  C   UNL A   1      31.307  29.815  25.077  1.00  0.00     0.202 C 
BRANCH  27  28
ATOM     28  C   UNL A   1      31.883  30.344  26.399  1.00  0.00     0.261 C 
BRANCH  28  29
ATOM     29  O   UNL A   1      33.290  30.605  26.406  1.00  0.00    -0.460 OA
BRANCH  29  30
ATOM     30  C   UNL A   1      33.694  31.574  27.274  1.00  0.00     0.338 C 
ATOM     31  O   UNL A   1      33.066  32.530  27.661  1.00  0.00    -0.246 OA
BRANCH  30  32
ATOM     32  C   UNL A   1      34.993  31.166  27.850  1.00  0.00     0.060 A 
ATOM     33  C   UNL A   1      36.030  32.087  27.990  1.00  0.00     0.016 A 
ATOM     34  C   UNL A   1      35.162  29.832  28.249  1.00  0.00     0.016 A 
ATOM     35  C   UNL A   1      37.239  31.672  28.553  1.00  0.00     0.010 A 
ATOM     36  C   UNL A   1      36.377  29.415  28.795  1.00  0.00     0.010 A 
ATOM     37  C   UNL A   1      37.417  30.339  28.970  1.00  0.00    -0.014 A 
BRANCH  37  38
ATOM     38  C   UNL A   1      38.628  29.968  29.740  1.00  0.00     0.031 A 
ATOM     39  C   UNL A   1      38.900  30.514  31.107  1.00  0.00     0.074 A 
ATOM     40  C   UNL A   1      39.491  29.104  29.174  1.00  0.00     0.049 A 
ATOM     41  N   UNL A   1      39.862  30.197  31.939  1.00  0.00    -0.248 NA
ATOM     42  C   UNL A   1      37.987  31.552  31.606  1.00  0.00     0.031 C 
ATOM     43  C   UNL A   1      39.345  28.539  27.832  1.00  0.00     0.029 A 
ATOM     44  N   UNL A   1      40.648  28.543  29.652  1.00  0.00    -0.354 N 
ATOM     45  C   UNL A   1      39.654  30.971  33.072  1.00  0.00     0.074 A 
ATOM     46  C   UNL A   1      38.508  31.815  32.799  1.00  0.00     0.031 C 
ATOM     47  C   UNL A   1      40.354  27.683  27.607  1.00  0.00     0.029 A 
ATOM     48  C   UNL A   1      41.227  27.658  28.778  1.00  0.00     0.049 A 
ATOM     49  H   UNL A   1      41.025  28.753  30.537  1.00  0.00     0.167 HD
ATOM     50  C   UNL A   1      40.347  30.954  34.238  1.00  0.00     0.037 A 
ATOM     51  C   UNL A   1      42.332  26.900  28.905  1.00  0.00     0.037 A 
ATOM     52  C   UNL A   1      41.496  30.120  34.495  1.00  0.00     0.049 A 
ATOM     53  C   UNL A   1      43.108  26.938  30.193  1.00  0.00     0.074 A 
ATOM     54  C   UNL A   1      42.236  30.007  35.661  1.00  0.00     0.029 A 
ATOM     55  N   UNL A   1      42.084  29.268  33.570  1.00  0.00    -0.354 N 
ATOM     56  N   UNL A   1      42.853  27.609  31.289  1.00  0.00    -0.248 NA
ATOM     57  C   UNL A   1      44.319  26.110  30.262  1.00  0.00     0.031 C 
ATOM     58  C   UNL A   1      43.302  29.135  35.425  1.00  0.00     0.029 A 
ATOM     59  C   UNL A   1      43.197  28.655  34.130  1.00  0.00     0.049 A 
ATOM     60  H   UNL A   1      41.760  29.120  32.653  1.00  0.00     0.167 HD
ATOM     61  C   UNL A   1      43.858  27.268  32.186  1.00  0.00     0.074 A 
ATOM     62  C   UNL A   1      44.715  26.316  31.511  1.00  0.00     0.031 C 
ATOM     63  C   UNL A   1      44.050  27.711  33.452  1.00  0.00     0.037 A 
BRANCH  50  64
ATOM     64  C   UNL A   1      39.879  31.851  35.348  1.00  0.00     0.064 A 
ATOM     65  C   UNL A   1      40.391  33.150  35.498  1.00  0.00     0.173 A 
ATOM     66  C   UNL A   1      38.839  31.454  36.203  1.00  0.00     0.173 A 
ATOM     67  F   UNL A   1      41.385  33.579  34.706  1.00  0.00    -0.203 F 
ATOM     68  C   UNL A   1      39.888  34.011  36.470  1.00  0.00     0.198 A 
ATOM     69  C   UNL A   1      38.319  32.328  37.155  1.00  0.00     0.198 A 
ATOM     70  F   UNL A   1      38.304  30.229  36.093  1.00  0.00    -0.203 F 
ATOM     71  F   UNL A   1      40.408  35.239  36.609  1.00  0.00    -0.200 F 
ATOM     72  C   UNL A   1      38.846  33.604  37.290  1.00  0.00     0.200 A 
ATOM     73  F   UNL A   1      37.299  31.940  37.933  1.00  0.00    -0.200 F 
ATOM     74  F   UNL A   1      38.348  34.443  38.209  1.00  0.00    -0.200 F 
ENDBRANCH  50  64
BRANCH  51  75
ATOM     75  C   UNL A   1      42.737  26.006  27.791  1.00  0.00     0.064 A 
ATOM     76  C   UNL A   1      43.644  26.442  26.815  1.00  0.00     0.173 A 
ATOM     77  C   UNL A   1      42.254  24.694  27.696  1.00  0.00     0.173 A 
ATOM     78  F   UNL A   1      44.119  27.695  26.854  1.00  0.00    -0.203 F 
ATOM     79  C   UNL A   1      44.044  25.601  25.781  1.00  0.00     0.198 A 
ATOM     80  C   UNL A   1      42.678  23.844  26.679  1.00  0.00     0.198 A 
ATOM     81  F   UNL A   1      41.389  24.229  28.610  1.00  0.00    -0.203 F 
ATOM     82  F   UNL A   1      44.886  26.052  24.841  1.00  0.00    -0.200 F 
ATOM     83  C   UNL A   1      43.568  24.300  25.718  1.00  0.00     0.200 A 
ATOM     84  F   UNL A   1      42.229  22.582  26.632  1.00  0.00    -0.200 F 
ATOM     85  F   UNL A   1      43.965  23.485  24.730  1.00  0.00    -0.200 F 
ENDBRANCH  51  75
BRANCH  63  86
ATOM     86  C   UNL A   1      45.233  27.170  34.205  1.00  0.00     0.064 A 
ATOM     87  C   UNL A   1      46.470  27.831  34.197  1.00  0.00     0.173 A 
ATOM     88  C   UNL A   1      45.112  26.016  34.994  1.00  0.00     0.173 A 
ATOM     89  F   UNL A   1      46.645  28.930  33.447  1.00  0.00    -0.203 F 
ATOM     90  C   UNL A   1      47.546  27.348  34.939  1.00  0.00     0.198 A 
ATOM     91  C   UNL A   1      46.179  25.554  35.759  1.00  0.00     0.198 A 
ATOM     92  F   UNL A   1      43.948  25.349  35.042  1.00  0.00    -0.203 F 
ATOM     93  F   UNL A   1      48.729  27.974  34.886  1.00  0.00    -0.200 F 
ATOM     94  C   UNL A   1      47.396  26.216  35.728  1.00  0.00     0.200 A 
ATOM     95  F   UNL A   1      46.028  24.470  36.534  1.00  0.00    -0.200 F 
ATOM     96  F   UNL A   1      48.427  25.764  36.455  1.00  0.00    -0.200 F 
ENDBRANCH  63  86
ENDBRANCH  37  38
ENDBRANCH  30  32
ENDBRANCH  29  30
ENDBRANCH  28  29
ENDBRANCH  27  28
ENDBRANCH  26  27
ENDBRANCH   1  26
TORSDOF 19
ENDMDL
