MODEL 1
REMARK VINA RESULT:     -13.2      0.000      0.000
REMARK SMILES O=C(N/N=C/c1ccccc1O)C(=O)Nc1cccc(C(=O)OCCOCCOCCOC(=O)c2ccc(-c3c4nc(c(-c5c(F)c(F)c(F)c(F)c5F)c5ccc([nH]5)c(-c5c(F)c(F)c(F)c(F)c5F)c5nc(c(-c6c(F)c(F)c(F)c(F)c6F)c6ccc3[nH]6)C=C5)C=C4)cc2)c1
REMARK SMILES IDX 26 1 25 2 24 3 23 4 21 5 22 6 20 7 16 8 17 9 98 10 18 11
REMARK SMILES IDX 19 12 15 13 13 14 14 15 2 17 1 18 3 19 4 21 5 22 6 23 7 24
REMARK SMILES IDX 11 25 8 26 10 27 9 28 12 29 27 31 28 32 29 33 30 34 31 35
REMARK SMILES IDX 32 36 33 37 34 38 35 39 36 40 97 41 37 42 96 43 38 44 39 45
REMARK SMILES IDX 40 46 90 47 41 48 95 49 89 50 91 51 42 52 94 53 88 54 87 55
REMARK SMILES IDX 43 57 75 58 55 59 74 60 56 61 59 62 73 63 92 64 57 65 58 66
REMARK SMILES IDX 72 68 93 69 60 70 44 71 45 72 53 73 46 74 47 75 51 76 54 77
REMARK SMILES IDX 48 78 49 79 52 80 50 81 76 82 77 83 85 84 78 85 79 86 83 87
REMARK SMILES IDX 86 88 80 89 81 90 84 91 82 92 61 93 62 94 70 95 63 96 64 97
REMARK SMILES IDX 68 98 71 99 65 100 66 101 69 102 67 103
REMARK H PARENT 15 16 3 20 12 30 91 56 59 67
REMARK Flexibility Score: inf
ROOT
ATOM      1  O   UNL A   1      40.076  21.388  27.366  1.00  0.00    -0.376 OA
ENDROOT
BRANCH   1   2
ATOM      2  C   UNL A   1      39.503  21.774  26.130  1.00  0.00     0.202 C 
BRANCH   2   3
ATOM      3  C   UNL A   1      38.194  21.144  25.651  1.00  0.00     0.261 C 
BRANCH   3   4
ATOM      4  O   UNL A   1      37.501  21.881  24.636  1.00  0.00    -0.460 OA
BRANCH   4   5
ATOM      5  C   UNL A   1      36.531  22.704  25.098  1.00  0.00     0.338 C 
ATOM      6  O   UNL A   1      36.669  23.632  25.883  1.00  0.00    -0.246 OA
BRANCH   5   7
ATOM      7  C   UNL A   1      35.197  22.342  24.569  1.00  0.00     0.062 A 
ATOM      8  C   UNL A   1      32.143  21.834  25.104  1.00  0.00     0.042 A 
ATOM      9  C   UNL A   1      31.709  22.664  23.521  1.00  0.00     0.026 A 
ATOM     10  C   UNL A   1      33.881  21.570  25.579  1.00  0.00     0.041 A 
ATOM     11  C   UNL A   1      33.047  23.263  22.433  1.00  0.00     0.003 A 
ATOM     12  C   UNL A   1      34.767  23.168  22.991  1.00  0.00     0.016 A 
BRANCH   8  13
ATOM     13  N   UNL A   1      31.184  21.978  26.101  1.00  0.00    -0.318 N 
ATOM     14  C   UNL A   1      30.830  23.163  26.732  1.00  0.00     0.315 C 
ATOM     15  O   UNL A   1      29.813  23.134  27.431  1.00  0.00    -0.263 OA
ATOM     16  H   UNL A   1      30.712  21.163  26.386  1.00  0.00     0.170 HD
BRANCH  14  17
ATOM     17  C   UNL A   1      31.542  24.532  26.574  1.00  0.00     0.329 C 
ATOM     18  O   UNL A   1      32.759  24.583  26.759  1.00  0.00    -0.262 OA
ATOM     19  N   UNL A   1      30.825  25.723  26.406  1.00  0.00    -0.239 N 
ATOM     20  H   UNL A   1      30.792  26.412  27.109  1.00  0.00     0.194 HD
BRANCH  19  21
ATOM     21  N   UNL A   1      30.172  25.881  25.213  1.00  0.00    -0.180 NA
ATOM     22  C   UNL A   1      30.564  26.961  24.461  1.00  0.00     0.145 C 
BRANCH  22  23
ATOM     23  C   UNL A   1      29.606  28.404  23.200  1.00  0.00     0.036 A 
ATOM     24  C   UNL A   1      28.091  28.631  23.036  1.00  0.00     0.013 A 
ATOM     25  C   UNL A   1      30.104  29.552  22.328  1.00  0.00     0.124 A 
ATOM     26  C   UNL A   1      27.346  29.728  22.513  1.00  0.00     0.001 A 
ATOM     27  C   UNL A   1      29.348  30.661  21.807  1.00  0.00     0.047 A 
ATOM     28  C   UNL A   1      27.989  30.783  21.945  1.00  0.00     0.004 A 
BRANCH  25  29
ATOM     29  O   UNL A   1      31.391  29.695  21.806  1.00  0.00    -0.507 OA
ATOM     30  H   UNL A   1      31.867  28.939  21.523  1.00  0.00     0.293 HD
ENDBRANCH  25  29
ENDBRANCH  22  23
ENDBRANCH  19  21
ENDBRANCH  14  17
ENDBRANCH   8  13
ENDBRANCH   5   7
ENDBRANCH   4   5
ENDBRANCH   3   4
ENDBRANCH   2   3
ENDBRANCH   1   2
BRANCH   1  31
ATOM     31  C   UNL A   1      41.140  20.456  27.392  1.00  0.00     0.188 C 
BRANCH  31  32
ATOM     32  C   UNL A   1      41.660  19.785  26.102  1.00  0.00     0.188 C 
BRANCH  32  33
ATOM     33  O   UNL A   1      43.012  19.380  25.992  1.00  0.00    -0.376 OA
BRANCH  33  34
ATOM     34  C   UNL A   1      43.899  20.141  25.188  1.00  0.00     0.202 C 
BRANCH  34  35
ATOM     35  C   UNL A   1      44.265  21.566  25.611  1.00  0.00     0.261 C 
BRANCH  35  36
ATOM     36  O   UNL A   1      43.271  22.552  25.277  1.00  0.00    -0.460 OA
BRANCH  36  37
ATOM     37  C   UNL A   1      43.736  23.816  25.127  1.00  0.00     0.338 C 
ATOM     38  O   UNL A   1      44.586  24.209  24.348  1.00  0.00    -0.246 OA
BRANCH  37  39
ATOM     39  C   UNL A   1      42.969  24.748  25.974  1.00  0.00     0.060 A 
ATOM     40  C   UNL A   1      43.280  26.110  25.917  1.00  0.00     0.016 A 
ATOM     41  C   UNL A   1      42.065  24.271  26.926  1.00  0.00     0.016 A 
ATOM     42  C   UNL A   1      42.706  26.989  26.834  1.00  0.00     0.010 A 
ATOM     43  C   UNL A   1      41.496  25.163  27.848  1.00  0.00     0.010 A 
ATOM     44  C   UNL A   1      41.833  26.526  27.821  1.00  0.00    -0.014 A 
BRANCH  44  45
ATOM     45  C   UNL A   1      41.459  27.453  28.922  1.00  0.00     0.031 A 
ATOM     46  C   UNL A   1      42.310  27.476  30.162  1.00  0.00     0.074 A 
ATOM     47  C   UNL A   1      40.463  28.349  28.786  1.00  0.00     0.049 A 
ATOM     48  N   UNL A   1      42.126  28.118  31.288  1.00  0.00    -0.248 NA
ATOM     49  C   UNL A   1      43.547  26.683  30.114  1.00  0.00     0.031 C 
ATOM     50  C   UNL A   1      39.653  28.541  27.584  1.00  0.00     0.029 A 
ATOM     51  N   UNL A   1      39.970  29.274  29.675  1.00  0.00    -0.354 N 
ATOM     52  C   UNL A   1      43.203  27.776  32.094  1.00  0.00     0.074 A 
ATOM     53  C   UNL A   1      44.040  26.878  31.329  1.00  0.00     0.031 C 
ATOM     54  C   UNL A   1      38.756  29.516  27.815  1.00  0.00     0.029 A 
ATOM     55  C   UNL A   1      38.883  29.969  29.200  1.00  0.00     0.049 A 
ATOM     56  H   UNL A   1      40.357  29.426  30.567  1.00  0.00     0.167 HD
ATOM     57  C   UNL A   1      43.466  28.171  33.363  1.00  0.00     0.037 A 
ATOM     58  C   UNL A   1      38.056  30.830  29.828  1.00  0.00     0.037 A 
ATOM     59  C   UNL A   1      42.642  29.079  34.117  1.00  0.00     0.049 A 
ATOM     60  C   UNL A   1      38.296  31.156  31.284  1.00  0.00     0.074 A 
ATOM     61  C   UNL A   1      42.804  29.510  35.422  1.00  0.00     0.029 A 
ATOM     62  N   UNL A   1      41.500  29.697  33.630  1.00  0.00    -0.354 N 
ATOM     63  N   UNL A   1      39.273  30.775  32.070  1.00  0.00    -0.248 NA
ATOM     64  C   UNL A   1      37.306  32.023  31.942  1.00  0.00     0.031 C 
ATOM     65  C   UNL A   1      41.732  30.349  35.741  1.00  0.00     0.029 A 
ATOM     66  C   UNL A   1      40.936  30.490  34.616  1.00  0.00     0.049 A 
ATOM     67  H   UNL A   1      41.144  29.588  32.719  1.00  0.00     0.167 HD
ATOM     68  C   UNL A   1      39.032  31.377  33.301  1.00  0.00     0.074 A 
ATOM     69  C   UNL A   1      37.826  32.162  33.152  1.00  0.00     0.031 C 
ATOM     70  C   UNL A   1      39.746  31.284  34.451  1.00  0.00     0.037 A 
BRANCH  57  71
ATOM     71  C   UNL A   1      44.663  27.570  34.040  1.00  0.00     0.064 A 
ATOM     72  C   UNL A   1      45.919  28.192  34.025  1.00  0.00     0.173 A 
ATOM     73  C   UNL A   1      44.537  26.358  34.737  1.00  0.00     0.173 A 
ATOM     74  F   UNL A   1      46.097  29.341  33.356  1.00  0.00    -0.203 F 
ATOM     75  C   UNL A   1      47.012  27.609  34.664  1.00  0.00     0.198 A 
ATOM     76  C   UNL A   1      45.623  25.795  35.400  1.00  0.00     0.198 A 
ATOM     77  F   UNL A   1      43.355  25.724  34.782  1.00  0.00    -0.203 F 
ATOM     78  F   UNL A   1      48.215  28.195  34.597  1.00  0.00    -0.200 F 
ATOM     79  C   UNL A   1      46.862  26.416  35.357  1.00  0.00     0.200 A 
ATOM     80  F   UNL A   1      45.471  24.650  36.078  1.00  0.00    -0.200 F 
ATOM     81  F   UNL A   1      47.912  25.863  35.977  1.00  0.00    -0.200 F 
ENDBRANCH  57  71
BRANCH  58  82
ATOM     82  C   UNL A   1      36.875  31.398  29.118  1.00  0.00     0.064 A 
ATOM     83  C   UNL A   1      36.813  32.757  28.778  1.00  0.00     0.173 A 
ATOM     84  C   UNL A   1      35.757  30.604  28.820  1.00  0.00     0.173 A 
ATOM     85  F   UNL A   1      37.841  33.568  29.071  1.00  0.00    -0.203 F 
ATOM     86  C   UNL A   1      35.673  33.302  28.191  1.00  0.00     0.198 A 
ATOM     87  C   UNL A   1      34.632  31.142  28.200  1.00  0.00     0.198 A 
ATOM     88  F   UNL A   1      35.756  29.301  29.135  1.00  0.00    -0.203 F 
ATOM     89  F   UNL A   1      35.617  34.617  27.934  1.00  0.00    -0.200 F 
ATOM     90  C   UNL A   1      34.585  32.494  27.897  1.00  0.00     0.200 A 
ATOM     91  F   UNL A   1      33.588  30.354  27.911  1.00  0.00    -0.200 F 
ATOM     92  F   UNL A   1      33.488  33.019  27.334  1.00  0.00    -0.200 F 
ENDBRANCH  58  82
BRANCH  70  93
ATOM     93  C   UNL A   1      39.278  32.094  35.627  1.00  0.00     0.064 A 
ATOM     94  C   UNL A   1      39.656  33.433  35.804  1.00  0.00     0.173 A 
ATOM     95  C   UNL A   1      38.400  31.533  36.569  1.00  0.00     0.173 A 
ATOM     96  F   UNL A   1      40.504  34.014  34.941  1.00  0.00    -0.203 F 
ATOM     97  C   UNL A   1      39.196  34.171  36.892  1.00  0.00     0.198 A 
ATOM     98  C   UNL A   1      37.915  32.282  37.637  1.00  0.00     0.198 A 
ATOM     99  F   UNL A   1      38.000  30.258  36.443  1.00  0.00    -0.203 F 
ATOM    100  F   UNL A   1      39.610  35.433  37.067  1.00  0.00    -0.200 F 
ATOM    101  C   UNL A   1      38.319  33.597  37.802  1.00  0.00     0.200 A 
ATOM    102  F   UNL A   1      37.056  31.731  38.505  1.00  0.00    -0.200 F 
ATOM    103  F   UNL A   1      37.871  34.312  38.843  1.00  0.00    -0.200 F 
ENDBRANCH  70  93
ENDBRANCH  44  45
ENDBRANCH  37  39
ENDBRANCH  36  37
ENDBRANCH  35  36
ENDBRANCH  34  35
ENDBRANCH  33  34
ENDBRANCH  32  33
ENDBRANCH  31  32
ENDBRANCH   1  31
TORSDOF 22
ENDMDL
MODEL 2
REMARK VINA RESULT:     -12.5      4.595      7.730
REMARK SMILES O=C(N/N=C/c1ccccc1O)C(=O)Nc1cccc(C(=O)OCCOCCOCCOC(=O)c2ccc(-c3c4nc(c(-c5c(F)c(F)c(F)c(F)c5F)c5ccc([nH]5)c(-c5c(F)c(F)c(F)c(F)c5F)c5nc(c(-c6c(F)c(F)c(F)c(F)c6F)c6ccc3[nH]6)C=C5)C=C4)cc2)c1
REMARK SMILES IDX 26 1 25 2 24 3 23 4 21 5 22 6 20 7 16 8 17 9 98 10 18 11
REMARK SMILES IDX 19 12 15 13 13 14 14 15 2 17 1 18 3 19 4 21 5 22 6 23 7 24
REMARK SMILES IDX 11 25 8 26 10 27 9 28 12 29 27 31 28 32 29 33 30 34 31 35
REMARK SMILES IDX 32 36 33 37 34 38 35 39 36 40 97 41 37 42 96 43 38 44 39 45
REMARK SMILES IDX 40 46 90 47 41 48 95 49 89 50 91 51 42 52 94 53 88 54 87 55
REMARK SMILES IDX 43 57 75 58 55 59 74 60 56 61 59 62 73 63 92 64 57 65 58 66
REMARK SMILES IDX 72 68 93 69 60 70 44 71 45 72 53 73 46 74 47 75 51 76 54 77
REMARK SMILES IDX 48 78 49 79 52 80 50 81 76 82 77 83 85 84 78 85 79 86 83 87
REMARK SMILES IDX 86 88 80 89 81 90 84 91 82 92 61 93 62 94 70 95 63 96 64 97
REMARK SMILES IDX 68 98 71 99 65 100 66 101 69 102 67 103
REMARK H PARENT 15 16 3 20 12 30 91 56 59 67
REMARK Flexibility Score: inf
ROOT
ATOM      1  O   UNL A   1      36.822  23.266  23.998  1.00  0.00    -0.376 OA
ENDROOT
BRANCH   1   2
ATOM      2  C   UNL A   1      35.521  23.150  23.451  1.00  0.00     0.202 C 
BRANCH   2   3
ATOM      3  C   UNL A   1      34.585  24.358  23.415  1.00  0.00     0.261 C 
BRANCH   3   4
ATOM      4  O   UNL A   1      33.662  24.379  22.318  1.00  0.00    -0.460 OA
BRANCH   4   5
ATOM      5  C   UNL A   1      33.157  25.600  22.028  1.00  0.00     0.338 C 
ATOM      6  O   UNL A   1      33.260  26.204  20.968  1.00  0.00    -0.246 OA
BRANCH   5   7
ATOM      7  C   UNL A   1      32.456  26.201  23.184  1.00  0.00     0.062 A 
ATOM      8  C   UNL A   1      30.411  25.880  25.547  1.00  0.00     0.042 A 
ATOM      9  C   UNL A   1      31.490  26.891  26.643  1.00  0.00     0.026 A 
ATOM     10  C   UNL A   1      30.829  25.626  23.794  1.00  0.00     0.041 A 
ATOM     11  C   UNL A   1      33.021  27.615  25.962  1.00  0.00     0.003 A 
ATOM     12  C   UNL A   1      33.532  27.209  24.272  1.00  0.00     0.016 A 
BRANCH   8  13
ATOM     13  N   UNL A   1      29.680  24.904  26.216  1.00  0.00    -0.318 N 
ATOM     14  C   UNL A   1      30.201  23.799  26.876  1.00  0.00     0.315 C 
ATOM     15  O   UNL A   1      29.421  23.166  27.593  1.00  0.00    -0.263 OA
ATOM     16  H   UNL A   1      28.701  25.008  26.223  1.00  0.00     0.170 HD
BRANCH  14  17
ATOM     17  C   UNL A   1      31.682  23.338  26.861  1.00  0.00     0.329 C 
ATOM     18  O   UNL A   1      32.246  23.150  27.939  1.00  0.00    -0.262 OA
ATOM     19  N   UNL A   1      32.433  23.304  25.679  1.00  0.00    -0.239 N 
ATOM     20  H   UNL A   1      33.173  23.932  25.517  1.00  0.00     0.194 HD
BRANCH  19  21
ATOM     21  N   UNL A   1      32.086  22.350  24.761  1.00  0.00    -0.180 NA
ATOM     22  C   UNL A   1      32.026  21.063  25.237  1.00  0.00     0.145 C 
BRANCH  22  23
ATOM     23  C   UNL A   1      32.529  19.113  24.505  1.00  0.00     0.036 A 
ATOM     24  C   UNL A   1      32.592  18.663  23.033  1.00  0.00     0.013 A 
ATOM     25  C   UNL A   1      33.032  17.829  25.156  1.00  0.00     0.124 A 
ATOM     26  C   UNL A   1      33.209  17.541  22.408  1.00  0.00     0.001 A 
ATOM     27  C   UNL A   1      33.662  16.701  24.521  1.00  0.00     0.047 A 
ATOM     28  C   UNL A   1      33.804  16.578  23.163  1.00  0.00     0.004 A 
BRANCH  25  29
ATOM     29  O   UNL A   1      32.903  17.480  26.502  1.00  0.00    -0.507 OA
ATOM     30  H   UNL A   1      32.351  16.764  26.748  1.00  0.00     0.293 HD
ENDBRANCH  25  29
ENDBRANCH  22  23
ENDBRANCH  19  21
ENDBRANCH  14  17
ENDBRANCH   8  13
ENDBRANCH   5   7
ENDBRANCH   4   5
ENDBRANCH   3   4
ENDBRANCH   2   3
ENDBRANCH   1   2
BRANCH   1  31
ATOM     31  C   UNL A   1      37.163  22.551  25.171  1.00  0.00     0.188 C 
BRANCH  31  32
ATOM     32  C   UNL A   1      36.694  21.097  25.398  1.00  0.00     0.188 C 
BRANCH  32  33
ATOM     33  O   UNL A   1      37.226  20.036  24.627  1.00  0.00    -0.376 OA
BRANCH  33  34
ATOM     34  C   UNL A   1      38.252  19.226  25.178  1.00  0.00     0.202 C 
BRANCH  34  35
ATOM     35  C   UNL A   1      39.644  19.823  25.399  1.00  0.00     0.261 C 
BRANCH  35  36
ATOM     36  O   UNL A   1      40.403  19.173  26.436  1.00  0.00    -0.460 OA
BRANCH  36  37
ATOM     37  C   UNL A   1      41.733  19.063  26.197  1.00  0.00     0.338 C 
ATOM     38  O   UNL A   1      42.331  18.100  25.750  1.00  0.00    -0.246 OA
BRANCH  37  39
ATOM     39  C   UNL A   1      42.406  20.353  26.434  1.00  0.00     0.060 A 
ATOM     40  C   UNL A   1      42.279  20.951  27.690  1.00  0.00     0.016 A 
ATOM     41  C   UNL A   1      43.023  21.040  25.385  1.00  0.00     0.016 A 
ATOM     42  C   UNL A   1      42.745  22.249  27.888  1.00  0.00     0.010 A 
ATOM     43  C   UNL A   1      43.484  22.349  25.592  1.00  0.00     0.010 A 
ATOM     44  C   UNL A   1      43.326  22.970  26.841  1.00  0.00    -0.014 A 
BRANCH  44  45
ATOM     45  C   UNL A   1      43.564  24.425  27.034  1.00  0.00     0.031 A 
ATOM     46  C   UNL A   1      44.919  24.982  26.692  1.00  0.00     0.074 A 
ATOM     47  C   UNL A   1      42.572  25.266  27.384  1.00  0.00     0.049 A 
ATOM     48  N   UNL A   1      45.394  26.188  26.872  1.00  0.00    -0.248 NA
ATOM     49  C   UNL A   1      45.855  24.056  26.038  1.00  0.00     0.031 C 
ATOM     50  C   UNL A   1      41.177  24.887  27.601  1.00  0.00     0.029 A 
ATOM     51  N   UNL A   1      42.592  26.621  27.612  1.00  0.00    -0.354 N 
ATOM     52  C   UNL A   1      46.695  26.154  26.389  1.00  0.00     0.074 A 
ATOM     53  C   UNL A   1      46.934  24.813  25.901  1.00  0.00     0.031 C 
ATOM     54  C   UNL A   1      40.477  25.983  27.941  1.00  0.00     0.029 A 
ATOM     55  C   UNL A   1      41.385  27.126  28.033  1.00  0.00     0.049 A 
ATOM     56  H   UNL A   1      43.394  27.178  27.487  1.00  0.00     0.167 HD
ATOM     57  C   UNL A   1      47.611  27.152  26.362  1.00  0.00     0.037 A 
ATOM     58  C   UNL A   1      41.065  28.354  28.489  1.00  0.00     0.037 A 
ATOM     59  C   UNL A   1      47.367  28.491  26.831  1.00  0.00     0.049 A 
ATOM     60  C   UNL A   1      42.137  29.415  28.570  1.00  0.00     0.074 A 
ATOM     61  C   UNL A   1      48.243  29.561  26.881  1.00  0.00     0.029 A 
ATOM     62  N   UNL A   1      46.155  28.943  27.330  1.00  0.00    -0.354 N 
ATOM     63  N   UNL A   1      43.388  29.362  28.183  1.00  0.00    -0.248 NA
ATOM     64  C   UNL A   1      41.753  30.704  29.167  1.00  0.00     0.031 C 
ATOM     65  C   UNL A   1      47.575  30.646  27.457  1.00  0.00     0.029 A 
ATOM     66  C   UNL A   1      46.266  30.270  27.709  1.00  0.00     0.049 A 
ATOM     67  H   UNL A   1      45.337  28.399  27.403  1.00  0.00     0.167 HD
ATOM     68  C   UNL A   1      43.929  30.613  28.460  1.00  0.00     0.074 A 
ATOM     69  C   UNL A   1      42.866  31.410  29.034  1.00  0.00     0.031 C 
ATOM     70  C   UNL A   1      45.194  31.060  28.260  1.00  0.00     0.037 A 
BRANCH  57  71
ATOM     71  C   UNL A   1      48.987  26.813  25.866  1.00  0.00     0.064 A 
ATOM     72  C   UNL A   1      49.376  27.033  24.537  1.00  0.00     0.173 A 
ATOM     73  C   UNL A   1      49.938  26.281  26.751  1.00  0.00     0.173 A 
ATOM     74  F   UNL A   1      48.499  27.521  23.648  1.00  0.00    -0.203 F 
ATOM     75  C   UNL A   1      50.661  26.709  24.107  1.00  0.00     0.198 A 
ATOM     76  C   UNL A   1      51.230  25.988  26.325  1.00  0.00     0.198 A 
ATOM     77  F   UNL A   1      49.615  26.054  28.033  1.00  0.00    -0.203 F 
ATOM     78  F   UNL A   1      50.998  26.882  22.822  1.00  0.00    -0.200 F 
ATOM     79  C   UNL A   1      51.589  26.195  25.002  1.00  0.00     0.200 A 
ATOM     80  F   UNL A   1      52.126  25.504  27.195  1.00  0.00    -0.200 F 
ATOM     81  F   UNL A   1      52.826  25.892  24.587  1.00  0.00    -0.200 F 
ENDBRANCH  57  71
BRANCH  58  82
ATOM     82  C   UNL A   1      39.687  28.644  28.977  1.00  0.00     0.064 A 
ATOM     83  C   UNL A   1      38.729  29.241  28.146  1.00  0.00     0.173 A 
ATOM     84  C   UNL A   1      39.319  28.385  30.307  1.00  0.00     0.173 A 
ATOM     85  F   UNL A   1      39.038  29.542  26.875  1.00  0.00    -0.203 F 
ATOM     86  C   UNL A   1      37.469  29.588  28.631  1.00  0.00     0.198 A 
ATOM     87  C   UNL A   1      38.048  28.699  30.781  1.00  0.00     0.198 A 
ATOM     88  F   UNL A   1      40.200  27.827  31.151  1.00  0.00    -0.203 F 
ATOM     89  F   UNL A   1      36.595  30.216  27.831  1.00  0.00    -0.200 F 
ATOM     90  C   UNL A   1      37.127  29.312  29.945  1.00  0.00     0.200 A 
ATOM     91  F   UNL A   1      37.720  28.421  32.050  1.00  0.00    -0.200 F 
ATOM     92  F   UNL A   1      35.916  29.648  30.412  1.00  0.00    -0.200 F 
ENDBRANCH  58  82
BRANCH  70  93
ATOM     93  C   UNL A   1      45.490  32.492  28.608  1.00  0.00     0.064 A 
ATOM     94  C   UNL A   1      45.978  32.864  29.869  1.00  0.00     0.173 A 
ATOM     95  C   UNL A   1      45.325  33.502  27.646  1.00  0.00     0.173 A 
ATOM     96  F   UNL A   1      46.141  31.940  30.829  1.00  0.00    -0.203 F 
ATOM     97  C   UNL A   1      46.262  34.195  30.164  1.00  0.00     0.198 A 
ATOM     98  C   UNL A   1      45.642  34.827  27.933  1.00  0.00     0.198 A 
ATOM     99  F   UNL A   1      44.870  33.200  26.421  1.00  0.00    -0.203 F 
ATOM    100  F   UNL A   1      46.680  34.533  31.392  1.00  0.00    -0.200 F 
ATOM    101  C   UNL A   1      46.103  35.173  29.193  1.00  0.00     0.200 A 
ATOM    102  F   UNL A   1      45.502  35.767  26.988  1.00  0.00    -0.200 F 
ATOM    103  F   UNL A   1      46.386  36.452  29.476  1.00  0.00    -0.200 F 
ENDBRANCH  70  93
ENDBRANCH  44  45
ENDBRANCH  37  39
ENDBRANCH  36  37
ENDBRANCH  35  36
ENDBRANCH  34  35
ENDBRANCH  33  34
ENDBRANCH  32  33
ENDBRANCH  31  32
ENDBRANCH   1  31
TORSDOF 22
ENDMDL
MODEL 3
REMARK VINA RESULT:     -12.3      4.816      9.693
REMARK SMILES O=C(N/N=C/c1ccccc1O)C(=O)Nc1cccc(C(=O)OCCOCCOCCOC(=O)c2ccc(-c3c4nc(c(-c5c(F)c(F)c(F)c(F)c5F)c5ccc([nH]5)c(-c5c(F)c(F)c(F)c(F)c5F)c5nc(c(-c6c(F)c(F)c(F)c(F)c6F)c6ccc3[nH]6)C=C5)C=C4)cc2)c1
REMARK SMILES IDX 26 1 25 2 24 3 23 4 21 5 22 6 20 7 16 8 17 9 98 10 18 11
REMARK SMILES IDX 19 12 15 13 13 14 14 15 2 17 1 18 3 19 4 21 5 22 6 23 7 24
REMARK SMILES IDX 11 25 8 26 10 27 9 28 12 29 27 31 28 32 29 33 30 34 31 35
REMARK SMILES IDX 32 36 33 37 34 38 35 39 36 40 97 41 37 42 96 43 38 44 39 45
REMARK SMILES IDX 40 46 90 47 41 48 95 49 89 50 91 51 42 52 94 53 88 54 87 55
REMARK SMILES IDX 43 57 75 58 55 59 74 60 56 61 59 62 73 63 92 64 57 65 58 66
REMARK SMILES IDX 72 68 93 69 60 70 44 71 45 72 53 73 46 74 47 75 51 76 54 77
REMARK SMILES IDX 48 78 49 79 52 80 50 81 76 82 77 83 85 84 78 85 79 86 83 87
REMARK SMILES IDX 86 88 80 89 81 90 84 91 82 92 61 93 62 94 70 95 63 96 64 97
REMARK SMILES IDX 68 98 71 99 65 100 66 101 69 102 67 103
REMARK H PARENT 15 16 3 20 12 30 91 56 59 67
REMARK Flexibility Score: inf
ROOT
ATOM      1  O   UNL A   1      36.448  22.912  24.601  1.00  0.00    -0.376 OA
ENDROOT
BRANCH   1   2
ATOM      2  C   UNL A   1      35.769  23.404  23.459  1.00  0.00     0.202 C 
BRANCH   2   3
ATOM      3  C   UNL A   1      34.670  24.457  23.605  1.00  0.00     0.261 C 
BRANCH   3   4
ATOM      4  O   UNL A   1      33.748  24.529  22.510  1.00  0.00    -0.460 OA
BRANCH   4   5
ATOM      5  C   UNL A   1      33.300  25.774  22.230  1.00  0.00     0.338 C 
ATOM      6  O   UNL A   1      33.508  26.417  21.209  1.00  0.00    -0.246 OA
BRANCH   5   7
ATOM      7  C   UNL A   1      32.517  26.348  23.347  1.00  0.00     0.062 A 
ATOM      8  C   UNL A   1      30.393  25.937  25.625  1.00  0.00     0.042 A 
ATOM      9  C   UNL A   1      31.364  27.021  26.751  1.00  0.00     0.026 A 
ATOM     10  C   UNL A   1      30.900  25.687  23.895  1.00  0.00     0.041 A 
ATOM     11  C   UNL A   1      32.880  27.824  26.126  1.00  0.00     0.003 A 
ATOM     12  C   UNL A   1      33.485  27.428  24.465  1.00  0.00     0.016 A 
BRANCH   8  13
ATOM     13  N   UNL A   1      29.690  24.929  26.277  1.00  0.00    -0.318 N 
ATOM     14  C   UNL A   1      30.240  23.805  26.879  1.00  0.00     0.315 C 
ATOM     15  O   UNL A   1      29.487  23.137  27.593  1.00  0.00    -0.263 OA
ATOM     16  H   UNL A   1      28.711  25.021  26.313  1.00  0.00     0.170 HD
BRANCH  14  17
ATOM     17  C   UNL A   1      31.725  23.362  26.807  1.00  0.00     0.329 C 
ATOM     18  O   UNL A   1      32.344  23.216  27.861  1.00  0.00    -0.262 OA
ATOM     19  N   UNL A   1      32.418  23.297  25.591  1.00  0.00    -0.239 N 
ATOM     20  H   UNL A   1      33.141  23.928  25.372  1.00  0.00     0.194 HD
BRANCH  19  21
ATOM     21  N   UNL A   1      32.039  22.309  24.723  1.00  0.00    -0.180 NA
ATOM     22  C   UNL A   1      32.068  21.032  25.228  1.00  0.00     0.145 C 
BRANCH  22  23
ATOM     23  C   UNL A   1      32.591  19.087  24.500  1.00  0.00     0.036 A 
ATOM     24  C   UNL A   1      32.697  18.645  23.027  1.00  0.00     0.013 A 
ATOM     25  C   UNL A   1      33.074  17.798  25.158  1.00  0.00     0.124 A 
ATOM     26  C   UNL A   1      33.332  17.526  22.414  1.00  0.00     0.001 A 
ATOM     27  C   UNL A   1      33.721  16.673  24.535  1.00  0.00     0.047 A 
ATOM     28  C   UNL A   1      33.903  16.559  23.181  1.00  0.00     0.004 A 
BRANCH  25  29
ATOM     29  O   UNL A   1      32.904  17.441  26.497  1.00  0.00    -0.507 OA
ATOM     30  H   UNL A   1      32.067  17.148  26.800  1.00  0.00     0.293 HD
ENDBRANCH  25  29
ENDBRANCH  22  23
ENDBRANCH  19  21
ENDBRANCH  14  17
ENDBRANCH   8  13
ENDBRANCH   5   7
ENDBRANCH   4   5
ENDBRANCH   3   4
ENDBRANCH   2   3
ENDBRANCH   1   2
BRANCH   1  31
ATOM     31  C   UNL A   1      35.794  22.021  25.484  1.00  0.00     0.188 C 
BRANCH  31  32
ATOM     32  C   UNL A   1      35.975  20.491  25.372  1.00  0.00     0.188 C 
BRANCH  32  33
ATOM     33  O   UNL A   1      37.024  19.941  24.598  1.00  0.00    -0.376 OA
BRANCH  33  34
ATOM     34  C   UNL A   1      38.176  19.435  25.252  1.00  0.00     0.202 C 
BRANCH  34  35
ATOM     35  C   UNL A   1      39.252  20.407  25.743  1.00  0.00     0.261 C 
BRANCH  35  36
ATOM     36  O   UNL A   1      40.131  19.857  26.741  1.00  0.00    -0.460 OA
BRANCH  36  37
ATOM     37  C   UNL A   1      41.391  19.591  26.320  1.00  0.00     0.338 C 
ATOM     38  O   UNL A   1      41.791  18.589  25.754  1.00  0.00    -0.246 OA
BRANCH  37  39
ATOM     39  C   UNL A   1      42.258  20.766  26.520  1.00  0.00     0.060 A 
ATOM     40  C   UNL A   1      42.433  21.253  27.819  1.00  0.00     0.016 A 
ATOM     41  C   UNL A   1      42.765  21.475  25.429  1.00  0.00     0.016 A 
ATOM     42  C   UNL A   1      43.092  22.464  28.021  1.00  0.00     0.010 A 
ATOM     43  C   UNL A   1      43.422  22.697  25.641  1.00  0.00     0.010 A 
ATOM     44  C   UNL A   1      43.569  23.210  26.940  1.00  0.00    -0.014 A 
BRANCH  44  45
ATOM     45  C   UNL A   1      44.025  24.602  27.191  1.00  0.00     0.031 A 
ATOM     46  C   UNL A   1      43.041  25.590  27.756  1.00  0.00     0.074 A 
ATOM     47  C   UNL A   1      45.314  24.963  27.045  1.00  0.00     0.049 A 
ATOM     48  N   UNL A   1      43.174  26.876  27.960  1.00  0.00    -0.248 NA
ATOM     49  C   UNL A   1      41.737  25.046  28.164  1.00  0.00     0.031 C 
ATOM     50  C   UNL A   1      46.404  24.072  26.650  1.00  0.00     0.029 A 
ATOM     51  N   UNL A   1      45.924  26.182  27.221  1.00  0.00    -0.354 N 
ATOM     52  C   UNL A   1      41.961  27.300  28.484  1.00  0.00     0.074 A 
ATOM     53  C   UNL A   1      41.106  26.136  28.575  1.00  0.00     0.031 C 
ATOM     54  C   UNL A   1      47.547  24.778  26.604  1.00  0.00     0.029 A 
ATOM     55  C   UNL A   1      47.260  26.182  26.898  1.00  0.00     0.049 A 
ATOM     56  H   UNL A   1      45.449  26.980  27.547  1.00  0.00     0.167 HD
ATOM     57  C   UNL A   1      41.590  28.550  28.851  1.00  0.00     0.037 A 
ATOM     58  C   UNL A   1      48.134  27.204  26.800  1.00  0.00     0.037 A 
ATOM     59  C   UNL A   1      42.447  29.704  28.777  1.00  0.00     0.049 A 
ATOM     60  C   UNL A   1      47.662  28.610  27.091  1.00  0.00     0.074 A 
ATOM     61  C   UNL A   1      42.152  31.020  29.089  1.00  0.00     0.029 A 
ATOM     62  N   UNL A   1      43.771  29.679  28.363  1.00  0.00    -0.354 N 
ATOM     63  N   UNL A   1      46.492  29.022  27.515  1.00  0.00    -0.248 NA
ATOM     64  C   UNL A   1      48.632  29.694  26.872  1.00  0.00     0.031 C 
ATOM     65  C   UNL A   1      43.282  31.798  28.815  1.00  0.00     0.029 A 
ATOM     66  C   UNL A   1      44.300  30.959  28.392  1.00  0.00     0.049 A 
ATOM     67  H   UNL A   1      44.261  28.870  28.090  1.00  0.00     0.167 HD
ATOM     68  C   UNL A   1      46.595  30.403  27.643  1.00  0.00     0.074 A 
ATOM     69  C   UNL A   1      47.947  30.757  27.267  1.00  0.00     0.031 C 
ATOM     70  C   UNL A   1      45.653  31.297  28.035  1.00  0.00     0.037 A 
BRANCH  57  71
ATOM     71  C   UNL A   1      40.173  28.746  29.303  1.00  0.00     0.064 A 
ATOM     72  C   UNL A   1      39.793  28.610  30.646  1.00  0.00     0.173 A 
ATOM     73  C   UNL A   1      39.185  29.103  28.372  1.00  0.00     0.173 A 
ATOM     74  F   UNL A   1      40.695  28.252  31.571  1.00  0.00    -0.203 F 
ATOM     75  C   UNL A   1      38.469  28.800  31.035  1.00  0.00     0.198 A 
ATOM     76  C   UNL A   1      37.869  29.322  28.770  1.00  0.00     0.198 A 
ATOM     77  F   UNL A   1      39.498  29.247  27.075  1.00  0.00    -0.203 F 
ATOM     78  F   UNL A   1      38.116  28.617  32.315  1.00  0.00    -0.200 F 
ATOM     79  C   UNL A   1      37.510  29.163  30.100  1.00  0.00     0.200 A 
ATOM     80  F   UNL A   1      36.950  29.685  27.866  1.00  0.00    -0.200 F 
ATOM     81  F   UNL A   1      36.240  29.353  30.478  1.00  0.00    -0.200 F 
ENDBRANCH  57  71
BRANCH  58  82
ATOM     82  C   UNL A   1      49.531  26.963  26.341  1.00  0.00     0.064 A 
ATOM     83  C   UNL A   1      50.567  26.720  27.253  1.00  0.00     0.173 A 
ATOM     84  C   UNL A   1      49.869  27.033  24.980  1.00  0.00     0.173 A 
ATOM     85  F   UNL A   1      50.305  26.678  28.569  1.00  0.00    -0.203 F 
ATOM     86  C   UNL A   1      51.887  26.580  26.826  1.00  0.00     0.198 A 
ATOM     87  C   UNL A   1      51.181  26.857  24.550  1.00  0.00     0.198 A 
ATOM     88  F   UNL A   1      48.920  27.276  24.064  1.00  0.00    -0.203 F 
ATOM     89  F   UNL A   1      52.866  26.412  27.726  1.00  0.00    -0.200 F 
ATOM     90  C   UNL A   1      52.193  26.642  25.475  1.00  0.00     0.200 A 
ATOM     91  F   UNL A   1      51.470  26.909  23.243  1.00  0.00    -0.200 F 
ATOM     92  F   UNL A   1      53.461  26.510  25.064  1.00  0.00    -0.200 F 
ENDBRANCH  58  82
BRANCH  70  93
ATOM     93  C   UNL A   1      46.061  32.740  28.134  1.00  0.00     0.064 A 
ATOM     94  C   UNL A   1      45.958  33.617  27.045  1.00  0.00     0.173 A 
ATOM     95  C   UNL A   1      46.522  33.263  29.354  1.00  0.00     0.173 A 
ATOM     96  F   UNL A   1      45.537  33.167  25.853  1.00  0.00    -0.203 F 
ATOM     97  C   UNL A   1      46.325  34.956  27.165  1.00  0.00     0.198 A 
ATOM     98  C   UNL A   1      46.856  34.608  29.479  1.00  0.00     0.198 A 
ATOM     99  F   UNL A   1      46.633  32.469  30.430  1.00  0.00    -0.203 F 
ATOM    100  F   UNL A   1      46.264  35.764  26.097  1.00  0.00    -0.200 F 
ATOM    101  C   UNL A   1      46.765  35.451  28.384  1.00  0.00     0.200 A 
ATOM    102  F   UNL A   1      47.266  35.088  30.662  1.00  0.00    -0.200 F 
ATOM    103  F   UNL A   1      47.109  36.742  28.498  1.00  0.00    -0.200 F 
ENDBRANCH  70  93
ENDBRANCH  44  45
ENDBRANCH  37  39
ENDBRANCH  36  37
ENDBRANCH  35  36
ENDBRANCH  34  35
ENDBRANCH  33  34
ENDBRANCH  32  33
ENDBRANCH  31  32
ENDBRANCH   1  31
TORSDOF 22
ENDMDL
