MODEL 1
REMARK VINA RESULT:     -11.0      0.000      0.000
REMARK SMILES [NH3+]C[C@@H]1CC[C@H](C(=O)N[C@@H](Cc2ccccc2)C(=O)OCCOCCOCCOC(=O)c2ccc(-c3c4nc(c(-c5c(F)c(F)c(F)c(F)c5F)c5ccc([nH]5)c(-c5c(F)c(F)c(F)c(F)c5F)c5nc(c(-c6c(F)c(F)c(F)c(F)c6F)c6ccc3[nH]6)C=C5)C=C4)cc2)O1
REMARK SMILES IDX 24 1 23 2 22 3 21 4 20 5 18 6 19 7 10 8 9 9 7 10 8 11 6 13
REMARK SMILES IDX 3 14 4 15 95 16 5 17 2 18 1 19 11 23 12 24 13 25 17 26 14 27
REMARK SMILES IDX 16 28 15 29 25 30 26 31 27 32 28 33 29 34 30 35 31 36 32 37
REMARK SMILES IDX 33 38 94 39 34 40 93 41 35 42 36 43 37 44 87 45 38 46 92 47
REMARK SMILES IDX 86 48 88 49 39 50 91 51 85 52 84 53 40 55 72 56 52 57 71 58
REMARK SMILES IDX 53 59 56 60 70 61 89 62 54 63 55 64 69 66 90 67 57 68 41 69
REMARK SMILES IDX 42 70 50 71 43 72 44 73 48 74 51 75 45 76 46 77 49 78 47 79
REMARK SMILES IDX 73 80 74 81 82 82 75 83 76 84 80 85 83 86 77 87 78 88 81 89
REMARK SMILES IDX 79 90 58 91 59 92 67 93 60 94 61 95 65 96 68 97 62 98 63 99
REMARK SMILES IDX 66 100 64 101
REMARK H PARENT 9 12 1 20 1 21 1 22 88 54 56 65
REMARK Flexibility Score: inf
ROOT
ATOM      1  C   UNL A   1      39.918  22.044  26.899  1.00  0.00     0.188 C 
ENDROOT
BRANCH   1   2
ATOM      2  O   UNL A   1      38.916  22.674  26.133  1.00  0.00    -0.376 OA
BRANCH   2   3
ATOM      3  C   UNL A   1      37.773  21.937  25.727  1.00  0.00     0.202 C 
BRANCH   3   4
ATOM      4  C   UNL A   1      36.327  22.442  25.881  1.00  0.00     0.261 C 
BRANCH   4   5
ATOM      5  O   UNL A   1      35.320  21.458  26.177  1.00  0.00    -0.462 OA
BRANCH   5   6
ATOM      6  C   UNL A   1      34.062  21.940  26.324  1.00  0.00     0.329 C 
ATOM      7  O   UNL A   1      33.758  22.837  27.110  1.00  0.00    -0.250 OA
BRANCH   6   8
ATOM      8  C   UNL A   1      32.968  21.234  25.494  1.00  0.00     0.196 C 
BRANCH   8   9
ATOM      9  N   UNL A   1      31.821  21.881  24.843  1.00  0.00    -0.340 N 
ATOM     10  C   UNL A   1      31.755  23.069  24.173  1.00  0.00     0.249 C 
ATOM     11  O   UNL A   1      30.638  23.518  23.906  1.00  0.00    -0.272 OA
ATOM     12  H   UNL A   1      30.973  21.382  24.898  1.00  0.00     0.164 HD
BRANCH  10  13
ATOM     13  C   UNL A   1      33.020  23.824  23.743  1.00  0.00     0.207 C 
ATOM     14  C   UNL A   1      33.891  25.964  23.751  1.00  0.00     0.174 C 
ATOM     15  C   UNL A   1      33.268  25.793  22.374  1.00  0.00     0.041 C 
ATOM     16  O   UNL A   1      33.261  24.969  24.573  1.00  0.00    -0.359 OA
ATOM     17  C   UNL A   1      33.047  24.292  22.291  1.00  0.00     0.045 C 
BRANCH  14  18
ATOM     18  C   UNL A   1      33.803  27.346  24.428  1.00  0.00     0.291 C 
BRANCH  18  19
ATOM     19  N   UNL A   1      33.934  28.538  23.599  1.00  0.00    -0.355 N 
ATOM     20  H   UNL A   1      34.106  29.349  24.194  1.00  0.00     0.344 HD
ATOM     21  H   UNL A   1      33.073  28.681  23.071  1.00  0.00     0.344 HD
ATOM     22  H   UNL A   1      34.714  28.418  22.952  1.00  0.00     0.344 HD
ENDBRANCH  18  19
ENDBRANCH  14  18
ENDBRANCH  10  13
ENDBRANCH   8   9
BRANCH   8  23
ATOM     23  C   UNL A   1      33.681  20.325  24.486  1.00  0.00     0.072 C 
BRANCH  23  24
ATOM     24  C   UNL A   1      33.592  18.830  24.709  1.00  0.00    -0.045 A 
ATOM     25  C   UNL A   1      32.528  18.182  25.357  1.00  0.00     0.004 A 
ATOM     26  C   UNL A   1      34.662  18.047  24.254  1.00  0.00     0.004 A 
ATOM     27  C   UNL A   1      32.532  16.800  25.541  1.00  0.00     0.000 A 
ATOM     28  C   UNL A   1      34.662  16.664  24.428  1.00  0.00     0.000 A 
ATOM     29  C   UNL A   1      33.598  16.040  25.075  1.00  0.00     0.000 A 
ENDBRANCH  23  24
ENDBRANCH   8  23
ENDBRANCH   6   8
ENDBRANCH   5   6
ENDBRANCH   4   5
ENDBRANCH   3   4
ENDBRANCH   2   3
ENDBRANCH   1   2
BRANCH   1  30
ATOM     30  C   UNL A   1      40.724  20.907  26.247  1.00  0.00     0.188 C 
BRANCH  30  31
ATOM     31  O   UNL A   1      42.023  20.576  26.690  1.00  0.00    -0.376 OA
BRANCH  31  32
ATOM     32  C   UNL A   1      43.082  20.560  25.746  1.00  0.00     0.202 C 
BRANCH  32  33
ATOM     33  C   UNL A   1      43.890  21.819  25.391  1.00  0.00     0.261 C 
BRANCH  33  34
ATOM     34  O   UNL A   1      43.128  22.959  24.959  1.00  0.00    -0.460 OA
BRANCH  34  35
ATOM     35  C   UNL A   1      43.769  24.149  25.041  1.00  0.00     0.338 C 
ATOM     36  O   UNL A   1      44.731  24.524  24.373  1.00  0.00    -0.246 OA
BRANCH  35  37
ATOM     37  C   UNL A   1      43.032  25.058  25.937  1.00  0.00     0.060 A 
ATOM     38  C   UNL A   1      43.294  26.435  25.870  1.00  0.00     0.016 A 
ATOM     39  C   UNL A   1      42.143  24.554  26.885  1.00  0.00     0.016 A 
ATOM     40  C   UNL A   1      42.675  27.313  26.757  1.00  0.00     0.010 A 
ATOM     41  C   UNL A   1      41.552  25.433  27.799  1.00  0.00     0.010 A 
ATOM     42  C   UNL A   1      41.836  26.811  27.757  1.00  0.00    -0.014 A 
BRANCH  42  43
ATOM     43  C   UNL A   1      41.425  27.685  28.882  1.00  0.00     0.031 A 
ATOM     44  C   UNL A   1      42.225  27.637  30.153  1.00  0.00     0.074 A 
ATOM     45  C   UNL A   1      40.380  28.524  28.782  1.00  0.00     0.049 A 
ATOM     46  N   UNL A   1      42.007  28.226  31.301  1.00  0.00    -0.248 NA
ATOM     47  C   UNL A   1      43.440  26.806  30.120  1.00  0.00     0.031 C 
ATOM     48  C   UNL A   1      39.569  28.724  27.586  1.00  0.00     0.029 A 
ATOM     49  N   UNL A   1      39.821  29.362  29.715  1.00  0.00    -0.354 N 
ATOM     50  C   UNL A   1      43.047  27.828  32.130  1.00  0.00     0.074 A 
ATOM     51  C   UNL A   1      43.883  26.929  31.362  1.00  0.00     0.031 C 
ATOM     52  C   UNL A   1      38.609  29.626  27.858  1.00  0.00     0.029 A 
ATOM     53  C   UNL A   1      38.708  30.025  29.261  1.00  0.00     0.049 A 
ATOM     54  H   UNL A   1      40.182  29.475  30.624  1.00  0.00     0.167 HD
ATOM     55  C   UNL A   1      43.287  28.180  33.416  1.00  0.00     0.037 A 
ATOM     56  C   UNL A   1      37.852  30.834  29.917  1.00  0.00     0.037 A 
ATOM     57  C   UNL A   1      42.448  29.060  34.186  1.00  0.00     0.049 A 
ATOM     58  C   UNL A   1      38.068  31.110  31.386  1.00  0.00     0.074 A 
ATOM     59  C   UNL A   1      42.597  29.464  35.501  1.00  0.00     0.029 A 
ATOM     60  N   UNL A   1      41.291  29.662  33.711  1.00  0.00    -0.354 N 
ATOM     61  N   UNL A   1      39.044  30.726  32.171  1.00  0.00    -0.248 NA
ATOM     62  C   UNL A   1      37.048  31.928  32.060  1.00  0.00     0.031 C 
ATOM     63  C   UNL A   1      41.501  30.267  35.838  1.00  0.00     0.029 A 
ATOM     64  C   UNL A   1      40.703  30.415  34.716  1.00  0.00     0.049 A 
ATOM     65  H   UNL A   1      40.941  29.569  32.796  1.00  0.00     0.167 HD
ATOM     66  C   UNL A   1      38.779  31.283  33.417  1.00  0.00     0.074 A 
ATOM     67  C   UNL A   1      37.552  32.039  33.282  1.00  0.00     0.031 C 
ATOM     68  C   UNL A   1      39.488  31.178  34.568  1.00  0.00     0.037 A 
BRANCH  55  69
ATOM     69  C   UNL A   1      44.487  27.567  34.077  1.00  0.00     0.064 A 
ATOM     70  C   UNL A   1      45.742  28.195  34.066  1.00  0.00     0.173 A 
ATOM     71  C   UNL A   1      44.382  26.326  34.725  1.00  0.00     0.173 A 
ATOM     72  F   UNL A   1      45.900  29.374  33.446  1.00  0.00    -0.203 F 
ATOM     73  C   UNL A   1      46.854  27.584  34.639  1.00  0.00     0.198 A 
ATOM     74  C   UNL A   1      45.488  25.735  35.327  1.00  0.00     0.198 A 
ATOM     75  F   UNL A   1      43.205  25.684  34.771  1.00  0.00    -0.203 F 
ATOM     76  F   UNL A   1      48.055  28.173  34.557  1.00  0.00    -0.200 F 
ATOM     77  C   UNL A   1      46.726  26.358  35.273  1.00  0.00     0.200 A 
ATOM     78  F   UNL A   1      45.359  24.556  35.952  1.00  0.00    -0.200 F 
ATOM     79  F   UNL A   1      47.797  25.770  35.822  1.00  0.00    -0.200 F 
ENDBRANCH  55  69
BRANCH  56  80
ATOM     80  C   UNL A   1      36.693  31.433  29.204  1.00  0.00     0.064 A 
ATOM     81  C   UNL A   1      36.656  32.806  28.923  1.00  0.00     0.173 A 
ATOM     82  C   UNL A   1      35.585  30.661  28.825  1.00  0.00     0.173 A 
ATOM     83  F   UNL A   1      37.677  33.593  29.294  1.00  0.00    -0.203 F 
ATOM     84  C   UNL A   1      35.550  33.386  28.305  1.00  0.00     0.198 A 
ATOM     85  C   UNL A   1      34.492  31.237  28.180  1.00  0.00     0.198 A 
ATOM     86  F   UNL A   1      35.564  29.345  29.081  1.00  0.00    -0.203 F 
ATOM     87  F   UNL A   1      35.520  34.709  28.095  1.00  0.00    -0.200 F 
ATOM     88  C   UNL A   1      34.472  32.600  27.928  1.00  0.00     0.200 A 
ATOM     89  F   UNL A   1      33.455  30.472  27.811  1.00  0.00    -0.200 F 
ATOM     90  F   UNL A   1      33.408  33.158  27.334  1.00  0.00    -0.200 F 
ENDBRANCH  56  80
BRANCH  68  91
ATOM     91  C   UNL A   1      38.994  31.944  35.764  1.00  0.00     0.064 A 
ATOM     92  C   UNL A   1      38.185  31.350  36.744  1.00  0.00     0.173 A 
ATOM     93  C   UNL A   1      39.375  33.281  35.954  1.00  0.00     0.173 A 
ATOM     94  F   UNL A   1      37.779  30.078  36.605  1.00  0.00    -0.203 F 
ATOM     95  C   UNL A   1      37.754  32.074  37.855  1.00  0.00     0.198 A 
ATOM     96  C   UNL A   1      38.971  33.992  37.082  1.00  0.00     0.198 A 
ATOM     97  F   UNL A   1      40.154  33.898  35.053  1.00  0.00    -0.203 F 
ATOM     98  F   UNL A   1      36.941  31.500  38.751  1.00  0.00    -0.200 F 
ATOM     99  C   UNL A   1      38.155  33.390  38.027  1.00  0.00     0.200 A 
ATOM    100  F   UNL A   1      39.372  35.259  37.254  1.00  0.00    -0.200 F 
ATOM    101  F   UNL A   1      37.747  34.082  39.101  1.00  0.00    -0.200 F 
ENDBRANCH  68  91
ENDBRANCH  42  43
ENDBRANCH  35  37
ENDBRANCH  34  35
ENDBRANCH  33  34
ENDBRANCH  32  33
ENDBRANCH  31  32
ENDBRANCH  30  31
ENDBRANCH   1  30
TORSDOF 23
ENDMDL
MODEL 2
REMARK VINA RESULT:     -10.8      4.619      9.063
REMARK SMILES [NH3+]C[C@@H]1CC[C@H](C(=O)N[C@@H](Cc2ccccc2)C(=O)OCCOCCOCCOC(=O)c2ccc(-c3c4nc(c(-c5c(F)c(F)c(F)c(F)c5F)c5ccc([nH]5)c(-c5c(F)c(F)c(F)c(F)c5F)c5nc(c(-c6c(F)c(F)c(F)c(F)c6F)c6ccc3[nH]6)C=C5)C=C4)cc2)O1
REMARK SMILES IDX 24 1 23 2 22 3 21 4 20 5 18 6 19 7 10 8 9 9 7 10 8 11 6 13
REMARK SMILES IDX 3 14 4 15 95 16 5 17 2 18 1 19 11 23 12 24 13 25 17 26 14 27
REMARK SMILES IDX 16 28 15 29 25 30 26 31 27 32 28 33 29 34 30 35 31 36 32 37
REMARK SMILES IDX 33 38 94 39 34 40 93 41 35 42 36 43 37 44 87 45 38 46 92 47
REMARK SMILES IDX 86 48 88 49 39 50 91 51 85 52 84 53 40 55 72 56 52 57 71 58
REMARK SMILES IDX 53 59 56 60 70 61 89 62 54 63 55 64 69 66 90 67 57 68 41 69
REMARK SMILES IDX 42 70 50 71 43 72 44 73 48 74 51 75 45 76 46 77 49 78 47 79
REMARK SMILES IDX 73 80 74 81 82 82 75 83 76 84 80 85 83 86 77 87 78 88 81 89
REMARK SMILES IDX 79 90 58 91 59 92 67 93 60 94 61 95 65 96 68 97 62 98 63 99
REMARK SMILES IDX 66 100 64 101
REMARK H PARENT 9 12 1 20 1 21 1 22 88 54 56 65
REMARK Flexibility Score: inf
ROOT
ATOM      1  C   UNL A   1      32.802  19.633  24.309  1.00  0.00     0.188 C 
ENDROOT
BRANCH   1   2
ATOM      2  O   UNL A   1      32.164  20.848  23.989  1.00  0.00    -0.376 OA
BRANCH   2   3
ATOM      3  C   UNL A   1      32.186  21.326  22.652  1.00  0.00     0.202 C 
BRANCH   3   4
ATOM      4  C   UNL A   1      32.509  22.780  22.266  1.00  0.00     0.261 C 
BRANCH   4   5
ATOM      5  O   UNL A   1      33.167  23.587  23.259  1.00  0.00    -0.462 OA
BRANCH   5   6
ATOM      6  C   UNL A   1      33.175  24.920  23.012  1.00  0.00     0.329 C 
ATOM      7  O   UNL A   1      33.997  25.479  22.285  1.00  0.00    -0.250 OA
BRANCH   6   8
ATOM      8  C   UNL A   1      32.123  25.754  23.774  1.00  0.00     0.196 C 
BRANCH   8   9
ATOM      9  N   UNL A   1      30.665  25.661  23.619  1.00  0.00    -0.340 N 
ATOM     10  C   UNL A   1      29.716  26.640  23.699  1.00  0.00     0.249 C 
ATOM     11  O   UNL A   1      28.534  26.293  23.759  1.00  0.00    -0.272 OA
ATOM     12  H   UNL A   1      30.322  24.758  23.429  1.00  0.00     0.164 HD
BRANCH  10  13
ATOM     13  C   UNL A   1      30.090  28.129  23.696  1.00  0.00     0.207 C 
ATOM     14  C   UNL A   1      29.352  30.136  22.819  1.00  0.00     0.174 C 
ATOM     15  C   UNL A   1      30.421  29.647  21.853  1.00  0.00     0.041 C 
ATOM     16  O   UNL A   1      28.934  28.965  23.538  1.00  0.00    -0.359 OA
ATOM     17  C   UNL A   1      31.111  28.551  22.645  1.00  0.00     0.045 C 
BRANCH  14  18
ATOM     18  C   UNL A   1      28.127  30.872  22.245  1.00  0.00     0.291 C 
BRANCH  18  19
ATOM     19  N   UNL A   1      27.768  30.646  20.850  1.00  0.00    -0.355 N 
ATOM     20  H   UNL A   1      27.688  29.644  20.677  1.00  0.00     0.344 HD
ATOM     21  H   UNL A   1      28.491  31.038  20.246  1.00  0.00     0.344 HD
ATOM     22  H   UNL A   1      26.876  31.099  20.650  1.00  0.00     0.344 HD
ENDBRANCH  18  19
ENDBRANCH  14  18
ENDBRANCH  10  13
ENDBRANCH   8   9
BRANCH   8  23
ATOM     23  C   UNL A   1      32.484  25.685  25.263  1.00  0.00     0.072 C 
BRANCH  23  24
ATOM     24  C   UNL A   1      32.575  26.993  26.020  1.00  0.00    -0.045 A 
ATOM     25  C   UNL A   1      31.614  27.456  26.932  1.00  0.00     0.004 A 
ATOM     26  C   UNL A   1      33.691  27.804  25.768  1.00  0.00     0.004 A 
ATOM     27  C   UNL A   1      31.764  28.686  27.573  1.00  0.00     0.000 A 
ATOM     28  C   UNL A   1      33.847  29.028  26.417  1.00  0.00     0.000 A 
ATOM     29  C   UNL A   1      32.882  29.471  27.317  1.00  0.00     0.000 A 
ENDBRANCH  23  24
ENDBRANCH   8  23
ENDBRANCH   6   8
ENDBRANCH   5   6
ENDBRANCH   4   5
ENDBRANCH   3   4
ENDBRANCH   2   3
ENDBRANCH   1   2
BRANCH   1  30
ATOM     30  C   UNL A   1      34.172  19.692  25.007  1.00  0.00     0.188 C 
BRANCH  30  31
ATOM     31  O   UNL A   1      34.767  20.923  25.359  1.00  0.00    -0.376 OA
BRANCH  31  32
ATOM     32  C   UNL A   1      35.711  21.501  24.472  1.00  0.00     0.202 C 
BRANCH  32  33
ATOM     33  C   UNL A   1      37.229  21.366  24.682  1.00  0.00     0.261 C 
BRANCH  33  34
ATOM     34  O   UNL A   1      37.706  21.599  26.018  1.00  0.00    -0.460 OA
BRANCH  34  35
ATOM     35  C   UNL A   1      39.044  21.472  26.185  1.00  0.00     0.338 C 
ATOM     36  O   UNL A   1      39.761  20.557  25.785  1.00  0.00    -0.246 OA
BRANCH  35  37
ATOM     37  C   UNL A   1      39.598  22.706  26.769  1.00  0.00     0.060 A 
ATOM     38  C   UNL A   1      39.078  23.944  26.358  1.00  0.00     0.016 A 
ATOM     39  C   UNL A   1      40.667  22.652  27.661  1.00  0.00     0.016 A 
ATOM     40  C   UNL A   1      39.633  25.132  26.829  1.00  0.00     0.010 A 
ATOM     41  C   UNL A   1      41.247  23.846  28.103  1.00  0.00     0.010 A 
ATOM     42  C   UNL A   1      40.751  25.089  27.669  1.00  0.00    -0.014 A 
BRANCH  42  43
ATOM     43  C   UNL A   1      41.529  26.326  27.922  1.00  0.00     0.031 A 
ATOM     44  C   UNL A   1      40.877  27.434  28.701  1.00  0.00     0.074 A 
ATOM     45  C   UNL A   1      42.795  26.466  27.494  1.00  0.00     0.049 A 
ATOM     46  N   UNL A   1      41.312  28.640  28.962  1.00  0.00    -0.248 NA
ATOM     47  C   UNL A   1      39.549  27.134  29.260  1.00  0.00     0.031 C 
ATOM     48  C   UNL A   1      43.568  25.445  26.796  1.00  0.00     0.029 A 
ATOM     49  N   UNL A   1      43.649  27.538  27.582  1.00  0.00    -0.354 N 
ATOM     50  C   UNL A   1      40.307  29.247  29.704  1.00  0.00     0.074 A 
ATOM     51  C   UNL A   1      39.232  28.286  29.831  1.00  0.00     0.031 C 
ATOM     52  C   UNL A   1      44.786  25.940  26.514  1.00  0.00     0.029 A 
ATOM     53  C   UNL A   1      44.857  27.329  26.965  1.00  0.00     0.049 A 
ATOM     54  H   UNL A   1      43.418  28.375  28.044  1.00  0.00     0.167 HD
ATOM     55  C   UNL A   1      40.282  30.494  30.234  1.00  0.00     0.037 A 
ATOM     56  C   UNL A   1      45.885  28.177  26.760  1.00  0.00     0.037 A 
ATOM     57  C   UNL A   1      41.343  31.456  30.095  1.00  0.00     0.049 A 
ATOM     58  C   UNL A   1      45.782  29.602  27.249  1.00  0.00     0.074 A 
ATOM     59  C   UNL A   1      41.405  32.749  30.580  1.00  0.00     0.029 A 
ATOM     60  N   UNL A   1      42.526  31.231  29.405  1.00  0.00    -0.354 N 
ATOM     61  N   UNL A   1      44.829  30.178  27.940  1.00  0.00    -0.248 NA
ATOM     62  C   UNL A   1      46.900  30.498  26.915  1.00  0.00     0.031 C 
ATOM     63  C   UNL A   1      42.602  33.326  30.138  1.00  0.00     0.029 A 
ATOM     64  C   UNL A   1      43.314  32.371  29.431  1.00  0.00     0.049 A 
ATOM     65  H   UNL A   1      42.770  30.386  28.964  1.00  0.00     0.167 HD
ATOM     66  C   UNL A   1      45.247  31.487  28.156  1.00  0.00     0.074 A 
ATOM     67  C   UNL A   1      46.544  31.618  27.528  1.00  0.00     0.031 C 
ATOM     68  C   UNL A   1      44.613  32.488  28.816  1.00  0.00     0.037 A 
BRANCH  55  69
ATOM     69  C   UNL A   1      39.039  30.894  30.975  1.00  0.00     0.064 A 
ATOM     70  C   UNL A   1      38.921  30.739  32.364  1.00  0.00     0.173 A 
ATOM     71  C   UNL A   1      37.945  31.432  30.281  1.00  0.00     0.173 A 
ATOM     72  F   UNL A   1      39.933  30.213  33.073  1.00  0.00    -0.203 F 
ATOM     73  C   UNL A   1      37.740  31.066  33.024  1.00  0.00     0.198 A 
ATOM     74  C   UNL A   1      36.778  31.792  30.949  1.00  0.00     0.198 A 
ATOM     75  F   UNL A   1      38.004  31.607  28.952  1.00  0.00    -0.203 F 
ATOM     76  F   UNL A   1      37.628  30.847  34.342  1.00  0.00    -0.200 F 
ATOM     77  C   UNL A   1      36.671  31.597  32.318  1.00  0.00     0.200 A 
ATOM     78  F   UNL A   1      35.752  32.318  30.266  1.00  0.00    -0.200 F 
ATOM     79  F   UNL A   1      35.535  31.910  32.954  1.00  0.00    -0.200 F 
ENDBRANCH  55  69
BRANCH  56  80
ATOM     80  C   UNL A   1      47.103  27.718  26.041  1.00  0.00     0.064 A 
ATOM     81  C   UNL A   1      47.162  27.746  24.641  1.00  0.00     0.173 A 
ATOM     82  C   UNL A   1      48.213  27.208  26.729  1.00  0.00     0.173 A 
ATOM     83  F   UNL A   1      46.113  28.196  23.936  1.00  0.00    -0.203 F 
ATOM     84  C   UNL A   1      48.278  27.268  23.957  1.00  0.00     0.198 A 
ATOM     85  C   UNL A   1      49.340  26.757  26.045  1.00  0.00     0.198 A 
ATOM     86  F   UNL A   1      48.204  27.148  28.068  1.00  0.00    -0.203 F 
ATOM     87  F   UNL A   1      48.286  27.259  22.617  1.00  0.00    -0.200 F 
ATOM     88  C   UNL A   1      49.368  26.779  24.659  1.00  0.00     0.200 A 
ATOM     89  F   UNL A   1      50.395  26.292  26.729  1.00  0.00    -0.200 F 
ATOM     90  F   UNL A   1      50.440  26.318  24.000  1.00  0.00    -0.200 F 
ENDBRANCH  56  80
BRANCH  68  91
ATOM     91  C   UNL A   1      45.333  33.802  28.948  1.00  0.00     0.064 A 
ATOM     92  C   UNL A   1      46.218  34.061  30.005  1.00  0.00     0.173 A 
ATOM     93  C   UNL A   1      45.166  34.800  27.976  1.00  0.00     0.173 A 
ATOM     94  F   UNL A   1      46.403  33.147  30.971  1.00  0.00    -0.203 F 
ATOM     95  C   UNL A   1      46.888  35.280  30.098  1.00  0.00     0.198 A 
ATOM     96  C   UNL A   1      45.864  36.004  28.052  1.00  0.00     0.198 A 
ATOM     97  F   UNL A   1      44.338  34.604  26.939  1.00  0.00    -0.203 F 
ATOM     98  F   UNL A   1      47.691  35.523  31.143  1.00  0.00    -0.200 F 
ATOM     99  C   UNL A   1      46.718  36.245  29.117  1.00  0.00     0.200 A 
ATOM    100  F   UNL A   1      45.709  36.929  27.095  1.00  0.00    -0.200 F 
ATOM    101  F   UNL A   1      47.371  37.413  29.202  1.00  0.00    -0.200 F 
ENDBRANCH  68  91
ENDBRANCH  42  43
ENDBRANCH  35  37
ENDBRANCH  34  35
ENDBRANCH  33  34
ENDBRANCH  32  33
ENDBRANCH  31  32
ENDBRANCH  30  31
ENDBRANCH   1  30
TORSDOF 23
ENDMDL
MODEL 3
REMARK VINA RESULT:     -10.7      1.261      2.338
REMARK SMILES [NH3+]C[C@@H]1CC[C@H](C(=O)N[C@@H](Cc2ccccc2)C(=O)OCCOCCOCCOC(=O)c2ccc(-c3c4nc(c(-c5c(F)c(F)c(F)c(F)c5F)c5ccc([nH]5)c(-c5c(F)c(F)c(F)c(F)c5F)c5nc(c(-c6c(F)c(F)c(F)c(F)c6F)c6ccc3[nH]6)C=C5)C=C4)cc2)O1
REMARK SMILES IDX 24 1 23 2 22 3 21 4 20 5 18 6 19 7 10 8 9 9 7 10 8 11 6 13
REMARK SMILES IDX 3 14 4 15 95 16 5 17 2 18 1 19 11 23 12 24 13 25 17 26 14 27
REMARK SMILES IDX 16 28 15 29 25 30 26 31 27 32 28 33 29 34 30 35 31 36 32 37
REMARK SMILES IDX 33 38 94 39 34 40 93 41 35 42 36 43 37 44 87 45 38 46 92 47
REMARK SMILES IDX 86 48 88 49 39 50 91 51 85 52 84 53 40 55 72 56 52 57 71 58
REMARK SMILES IDX 53 59 56 60 70 61 89 62 54 63 55 64 69 66 90 67 57 68 41 69
REMARK SMILES IDX 42 70 50 71 43 72 44 73 48 74 51 75 45 76 46 77 49 78 47 79
REMARK SMILES IDX 73 80 74 81 82 82 75 83 76 84 80 85 83 86 77 87 78 88 81 89
REMARK SMILES IDX 79 90 58 91 59 92 67 93 60 94 61 95 65 96 68 97 62 98 63 99
REMARK SMILES IDX 66 100 64 101
REMARK H PARENT 9 12 1 20 1 21 1 22 88 54 56 65
REMARK Flexibility Score: inf
ROOT
ATOM      1  C   UNL A   1      39.615  22.360  26.480  1.00  0.00     0.188 C 
ENDROOT
BRANCH   1   2
ATOM      2  O   UNL A   1      38.431  22.308  25.716  1.00  0.00    -0.376 OA
BRANCH   2   3
ATOM      3  C   UNL A   1      37.480  23.356  25.818  1.00  0.00     0.202 C 
BRANCH   3   4
ATOM      4  C   UNL A   1      36.050  23.274  25.256  1.00  0.00     0.261 C 
BRANCH   4   5
ATOM      5  O   UNL A   1      35.300  22.082  25.555  1.00  0.00    -0.462 OA
BRANCH   5   6
ATOM      6  C   UNL A   1      34.357  22.216  26.519  1.00  0.00     0.329 C 
ATOM      7  O   UNL A   1      34.556  22.765  27.603  1.00  0.00    -0.250 OA
BRANCH   6   8
ATOM      8  C   UNL A   1      32.994  21.552  26.227  1.00  0.00     0.196 C 
BRANCH   8   9
ATOM      9  N   UNL A   1      31.685  22.007  26.715  1.00  0.00    -0.340 N 
ATOM     10  C   UNL A   1      31.145  23.261  26.719  1.00  0.00     0.249 C 
ATOM     11  O   UNL A   1      30.123  23.447  27.385  1.00  0.00    -0.272 OA
ATOM     12  H   UNL A   1      31.113  21.302  27.096  1.00  0.00     0.164 HD
BRANCH  10  13
ATOM     13  C   UNL A   1      31.765  24.410  25.912  1.00  0.00     0.207 C 
ATOM     14  C   UNL A   1      31.779  26.720  25.845  1.00  0.00     0.174 C 
ATOM     15  C   UNL A   1      30.721  26.298  24.836  1.00  0.00     0.041 C 
ATOM     16  O   UNL A   1      31.940  25.587  26.713  1.00  0.00    -0.359 OA
ATOM     17  C   UNL A   1      31.006  24.817  24.653  1.00  0.00     0.045 C 
BRANCH  14  18
ATOM     18  C   UNL A   1      31.532  27.994  26.676  1.00  0.00     0.291 C 
BRANCH  18  19
ATOM     19  N   UNL A   1      31.130  27.851  28.070  1.00  0.00    -0.355 N 
ATOM     20  H   UNL A   1      31.491  28.637  28.611  1.00  0.00     0.344 HD
ATOM     21  H   UNL A   1      31.507  26.980  28.444  1.00  0.00     0.344 HD
ATOM     22  H   UNL A   1      30.112  27.835  28.131  1.00  0.00     0.344 HD
ENDBRANCH  18  19
ENDBRANCH  14  18
ENDBRANCH  10  13
ENDBRANCH   8   9
BRANCH   8  23
ATOM     23  C   UNL A   1      32.921  21.316  24.714  1.00  0.00     0.072 C 
BRANCH  23  24
ATOM     24  C   UNL A   1      33.006  19.885  24.226  1.00  0.00    -0.045 A 
ATOM     25  C   UNL A   1      33.701  18.858  24.883  1.00  0.00     0.004 A 
ATOM     26  C   UNL A   1      32.360  19.579  23.019  1.00  0.00     0.004 A 
ATOM     27  C   UNL A   1      33.748  17.568  24.354  1.00  0.00     0.000 A 
ATOM     28  C   UNL A   1      32.398  18.288  22.497  1.00  0.00     0.000 A 
ATOM     29  C   UNL A   1      33.094  17.282  23.162  1.00  0.00     0.000 A 
ENDBRANCH  23  24
ENDBRANCH   8  23
ENDBRANCH   6   8
ENDBRANCH   5   6
ENDBRANCH   4   5
ENDBRANCH   3   4
ENDBRANCH   2   3
ENDBRANCH   1   2
BRANCH   1  30
ATOM     30  C   UNL A   1      40.298  21.033  26.855  1.00  0.00     0.188 C 
BRANCH  30  31
ATOM     31  O   UNL A   1      41.503  20.626  26.241  1.00  0.00    -0.376 OA
BRANCH  31  32
ATOM     32  C   UNL A   1      42.378  21.619  25.733  1.00  0.00     0.202 C 
BRANCH  32  33
ATOM     33  C   UNL A   1      43.845  21.733  26.181  1.00  0.00     0.261 C 
BRANCH  33  34
ATOM     34  O   UNL A   1      44.297  23.050  26.539  1.00  0.00    -0.460 OA
BRANCH  34  35
ATOM     35  C   UNL A   1      43.814  24.056  25.772  1.00  0.00     0.338 C 
ATOM     36  O   UNL A   1      43.793  24.112  24.544  1.00  0.00    -0.246 OA
BRANCH  35  37
ATOM     37  C   UNL A   1      43.118  25.043  26.616  1.00  0.00     0.060 A 
ATOM     38  C   UNL A   1      43.595  26.363  26.649  1.00  0.00     0.016 A 
ATOM     39  C   UNL A   1      42.049  24.659  27.423  1.00  0.00     0.016 A 
ATOM     40  C   UNL A   1      43.010  27.302  27.497  1.00  0.00     0.010 A 
ATOM     41  C   UNL A   1      41.488  25.593  28.301  1.00  0.00     0.010 A 
ATOM     42  C   UNL A   1      41.983  26.909  28.362  1.00  0.00    -0.014 A 
BRANCH  42  43
ATOM     43  C   UNL A   1      41.572  27.804  29.470  1.00  0.00     0.031 A 
ATOM     44  C   UNL A   1      42.353  27.757  30.754  1.00  0.00     0.074 A 
ATOM     45  C   UNL A   1      40.544  28.660  29.345  1.00  0.00     0.049 A 
ATOM     46  N   UNL A   1      42.128  28.363  31.892  1.00  0.00    -0.248 NA
ATOM     47  C   UNL A   1      43.553  26.904  30.748  1.00  0.00     0.031 C 
ATOM     48  C   UNL A   1      39.754  28.860  28.135  1.00  0.00     0.029 A 
ATOM     49  N   UNL A   1      39.986  29.518  30.261  1.00  0.00    -0.354 N 
ATOM     50  C   UNL A   1      43.149  27.956  32.740  1.00  0.00     0.074 A 
ATOM     51  C   UNL A   1      43.980  27.034  31.994  1.00  0.00     0.031 C 
ATOM     52  C   UNL A   1      38.806  29.782  28.382  1.00  0.00     0.029 A 
ATOM     53  C   UNL A   1      38.892  30.196  29.783  1.00  0.00     0.049 A 
ATOM     54  H   UNL A   1      40.336  29.636  31.173  1.00  0.00     0.167 HD
ATOM     55  C   UNL A   1      43.377  28.319  34.025  1.00  0.00     0.037 A 
ATOM     56  C   UNL A   1      38.041  31.027  30.417  1.00  0.00     0.037 A 
ATOM     57  C   UNL A   1      42.543  29.223  34.773  1.00  0.00     0.049 A 
ATOM     58  C   UNL A   1      38.240  31.317  31.885  1.00  0.00     0.074 A 
ATOM     59  C   UNL A   1      42.679  29.640  36.084  1.00  0.00     0.029 A 
ATOM     60  N   UNL A   1      41.404  29.840  34.274  1.00  0.00    -0.354 N 
ATOM     61  N   UNL A   1      39.198  30.925  32.689  1.00  0.00    -0.248 NA
ATOM     62  C   UNL A   1      37.226  32.161  32.535  1.00  0.00     0.031 C 
ATOM     63  C   UNL A   1      41.594  30.466  36.397  1.00  0.00     0.029 A 
ATOM     64  C   UNL A   1      40.814  30.615  35.261  1.00  0.00     0.049 A 
ATOM     65  H   UNL A   1      41.065  29.743  33.355  1.00  0.00     0.167 HD
ATOM     66  C   UNL A   1      38.925  31.501  33.924  1.00  0.00     0.074 A 
ATOM     67  C   UNL A   1      37.714  32.277  33.762  1.00  0.00     0.031 C 
ATOM     68  C   UNL A   1      39.616  31.398  35.087  1.00  0.00     0.037 A 
BRANCH  55  69
ATOM     69  C   UNL A   1      44.556  27.693  34.711  1.00  0.00     0.064 A 
ATOM     70  C   UNL A   1      44.471  26.438  35.334  1.00  0.00     0.173 A 
ATOM     71  C   UNL A   1      45.788  28.363  34.753  1.00  0.00     0.173 A 
ATOM     72  F   UNL A   1      43.311  25.764  35.337  1.00  0.00    -0.203 F 
ATOM     73  C   UNL A   1      45.562  25.899  36.011  1.00  0.00     0.198 A 
ATOM     74  C   UNL A   1      46.887  27.804  35.400  1.00  0.00     0.198 A 
ATOM     75  F   UNL A   1      45.927  29.563  34.169  1.00  0.00    -0.203 F 
ATOM     76  F   UNL A   1      45.437  24.731  36.655  1.00  0.00    -0.200 F 
ATOM     77  C   UNL A   1      46.770  26.579  36.039  1.00  0.00     0.200 A 
ATOM     78  F   UNL A   1      48.057  28.457  35.414  1.00  0.00    -0.200 F 
ATOM     79  F   UNL A   1      47.818  26.060  36.692  1.00  0.00    -0.200 F 
ENDBRANCH  55  69
BRANCH  56  80
ATOM     80  C   UNL A   1      36.903  31.638  29.680  1.00  0.00     0.064 A 
ATOM     81  C   UNL A   1      35.821  30.856  29.253  1.00  0.00     0.173 A 
ATOM     82  C   UNL A   1      36.889  33.002  29.352  1.00  0.00     0.173 A 
ATOM     83  F   UNL A   1      35.804  29.540  29.514  1.00  0.00    -0.203 F 
ATOM     84  C   UNL A   1      34.777  31.409  28.516  1.00  0.00     0.198 A 
ATOM     85  C   UNL A   1      35.829  33.561  28.640  1.00  0.00     0.198 A 
ATOM     86  F   UNL A   1      37.904  33.793  29.726  1.00  0.00    -0.203 F 
ATOM     87  F   UNL A   1      33.782  30.627  28.077  1.00  0.00    -0.200 F 
ATOM     88  C   UNL A   1      34.779  32.762  28.215  1.00  0.00     0.200 A 
ATOM     89  F   UNL A   1      35.832  34.871  28.357  1.00  0.00    -0.200 F 
ATOM     90  F   UNL A   1      33.775  33.294  27.504  1.00  0.00    -0.200 F 
ENDBRANCH  56  80
BRANCH  68  91
ATOM     91  C   UNL A   1      39.118  32.186  36.267  1.00  0.00     0.064 A 
ATOM     92  C   UNL A   1      39.524  33.508  36.502  1.00  0.00     0.173 A 
ATOM     93  C   UNL A   1      38.185  31.621  37.151  1.00  0.00     0.173 A 
ATOM     94  F   UNL A   1      40.425  34.091  35.697  1.00  0.00    -0.203 F 
ATOM     95  C   UNL A   1      39.036  34.225  37.593  1.00  0.00     0.198 A 
ATOM     96  C   UNL A   1      37.673  32.352  38.220  1.00  0.00     0.198 A 
ATOM     97  F   UNL A   1      37.756  30.363  36.970  1.00  0.00    -0.203 F 
ATOM     98  F   UNL A   1      39.476  35.469  37.825  1.00  0.00    -0.200 F 
ATOM     99  C   UNL A   1      38.104  33.651  38.444  1.00  0.00     0.200 A 
ATOM    100  F   UNL A   1      36.761  31.800  39.032  1.00  0.00    -0.200 F 
ATOM    101  F   UNL A   1      37.628  34.346  39.487  1.00  0.00    -0.200 F 
ENDBRANCH  68  91
ENDBRANCH  42  43
ENDBRANCH  35  37
ENDBRANCH  34  35
ENDBRANCH  33  34
ENDBRANCH  32  33
ENDBRANCH  31  32
ENDBRANCH  30  31
ENDBRANCH   1  30
TORSDOF 23
ENDMDL
