MODEL 1
REMARK VINA RESULT:     -12.3      0.000      0.000
REMARK SMILES Cc1nc2cc(S(=O)(=O)N3CCC(C(=O)OCCOCCOCCOC(=O)c4ccc(-c5c6nc(c(-c7c(F)c(F)c(F)c(F)c7F)c7ccc([nH]7)c(-c7c(F)c(F)c(F)c(F)c7F)c7nc(c(-c8c(F)c(F)c(F)c(F)c8F)c8ccc5[nH]8)C=C7)C=C6)cc4)CC3)ccc2n1C1CCCC1
REMARK SMILES IDX 20 1 19 2 18 3 17 4 16 5 14 6 15 7 13 8 10 9 11 10 92 11
REMARK SMILES IDX 12 12 91 13 7 14 8 15 9 16 6 17 1 18 2 19 3 20 96 21 4 22
REMARK SMILES IDX 95 23 5 24 94 25 93 26 97 27 98 28 101 29 99 30 100 31 21 32
REMARK SMILES IDX 22 33 23 34 24 35 25 36 26 37 27 38 28 39 29 40 90 41 30 42
REMARK SMILES IDX 89 43 31 44 32 45 33 46 83 47 34 48 88 49 82 50 84 51 35 52
REMARK SMILES IDX 87 53 81 54 80 55 36 57 68 58 48 59 67 60 49 61 52 62 66 63
REMARK SMILES IDX 85 64 50 65 51 66 65 68 86 69 53 70 37 71 38 72 46 73 39 74
REMARK SMILES IDX 40 75 44 76 47 77 41 78 42 79 45 80 43 81 69 82 70 83 78 84
REMARK SMILES IDX 71 85 72 86 76 87 79 88 73 89 74 90 77 91 75 92 54 93 55 94
REMARK SMILES IDX 63 95 56 96 57 97 61 98 64 99 58 100 59 101 62 102 60 103
REMARK H PARENT 84 56 52 67
REMARK Flexibility Score: inf
ROOT
ATOM      1  C   UNL A   1      33.899  28.554  23.740  1.00  0.00     0.188 C 
ENDROOT
BRANCH   1   2
ATOM      2  O   UNL A   1      33.647  28.050  22.445  1.00  0.00    -0.376 OA
BRANCH   2   3
ATOM      3  C   UNL A   1      33.270  26.686  22.290  1.00  0.00     0.202 C 
BRANCH   3   4
ATOM      4  C   UNL A   1      31.778  26.372  22.109  1.00  0.00     0.261 C 
BRANCH   4   5
ATOM      5  O   UNL A   1      30.937  27.047  23.086  1.00  0.00    -0.463 OA
BRANCH   5   6
ATOM      6  C   UNL A   1      30.221  26.224  23.887  1.00  0.00     0.309 C 
ATOM      7  O   UNL A   1      29.081  26.483  24.266  1.00  0.00    -0.252 OA
BRANCH   6   8
ATOM      8  C   UNL A   1      30.854  24.874  24.245  1.00  0.00     0.102 C 
ATOM      9  N   UNL A   1      31.721  22.111  24.428  1.00  0.00    -0.198 NA
ATOM     10  C   UNL A   1      31.813  23.002  25.609  1.00  0.00     0.103 C 
ATOM     11  C   UNL A   1      31.466  22.718  23.113  1.00  0.00     0.103 C 
ATOM     12  C   UNL A   1      30.776  24.155  25.585  1.00  0.00     0.032 C 
ATOM     13  C   UNL A   1      30.478  23.871  23.163  1.00  0.00     0.032 C 
BRANCH   9  14
ATOM     14  S   UNL A   1      32.658  20.667  24.415  1.00  0.00     0.243 S 
ATOM     15  O   UNL A   1      32.651  20.205  23.032  1.00  0.00    -0.207 OA
ATOM     16  O   UNL A   1      32.176  19.831  25.482  1.00  0.00    -0.207 OA
BRANCH  14  17
ATOM     17  C   UNL A   1      34.384  21.002  24.796  1.00  0.00     0.085 A 
ATOM     18  C   UNL A   1      38.742  24.734  26.622  1.00  0.00     0.088 C 
ATOM     19  C   UNL A   1      37.818  23.672  26.129  1.00  0.00     0.106 A 
ATOM     20  N   UNL A   1      36.549  23.881  25.841  1.00  0.00    -0.233 NA
ATOM     21  N   UNL A   1      38.158  22.351  25.895  1.00  0.00    -0.325 N 
ATOM     22  C   UNL A   1      36.032  22.673  25.455  1.00  0.00     0.090 A 
ATOM     23  C   UNL A   1      37.003  21.682  25.520  1.00  0.00     0.068 A 
ATOM     24  C   UNL A   1      34.719  22.345  25.063  1.00  0.00     0.052 A 
ATOM     25  C   UNL A   1      36.693  20.342  25.236  1.00  0.00     0.030 A 
ATOM     26  C   UNL A   1      35.363  20.018  24.899  1.00  0.00     0.024 A 
BRANCH  21  27
ATOM     27  C   UNL A   1      39.490  21.796  26.018  1.00  0.00     0.089 C 
ATOM     28  C   UNL A   1      40.172  22.064  27.355  1.00  0.00     0.025 C 
ATOM     29  C   UNL A   1      39.589  20.286  25.833  1.00  0.00     0.025 C 
ATOM     30  C   UNL A   1      41.273  21.016  27.445  1.00  0.00     0.002 C 
ATOM     31  C   UNL A   1      40.959  19.951  26.396  1.00  0.00     0.002 C 
ENDBRANCH  21  27
ENDBRANCH  14  17
ENDBRANCH   9  14
ENDBRANCH   6   8
ENDBRANCH   5   6
ENDBRANCH   4   5
ENDBRANCH   3   4
ENDBRANCH   2   3
ENDBRANCH   1   2
BRANCH   1  32
ATOM     32  C   UNL A   1      32.800  29.327  24.462  1.00  0.00     0.188 C 
BRANCH  32  33
ATOM     33  O   UNL A   1      32.126  28.826  25.592  1.00  0.00    -0.376 OA
BRANCH  33  34
ATOM     34  C   UNL A   1      32.271  29.495  26.834  1.00  0.00     0.202 C 
BRANCH  34  35
ATOM     35  C   UNL A   1      33.089  30.802  26.956  1.00  0.00     0.261 C 
BRANCH  35  36
ATOM     36  O   UNL A   1      34.188  30.746  27.879  1.00  0.00    -0.460 OA
BRANCH  36  37
ATOM     37  C   UNL A   1      35.166  31.682  27.722  1.00  0.00     0.338 C 
ATOM     38  O   UNL A   1      35.038  32.893  27.760  1.00  0.00    -0.246 OA
BRANCH  37  39
ATOM     39  C   UNL A   1      36.478  30.982  27.855  1.00  0.00     0.060 A 
ATOM     40  C   UNL A   1      36.641  29.638  27.501  1.00  0.00     0.016 A 
ATOM     41  C   UNL A   1      37.454  31.615  28.642  1.00  0.00     0.016 A 
ATOM     42  C   UNL A   1      37.744  28.917  27.985  1.00  0.00     0.010 A 
ATOM     43  C   UNL A   1      38.549  30.887  29.124  1.00  0.00     0.010 A 
ATOM     44  C   UNL A   1      38.697  29.527  28.820  1.00  0.00    -0.014 A 
BRANCH  44  45
ATOM     45  C   UNL A   1      39.997  28.855  29.071  1.00  0.00     0.031 A 
ATOM     46  C   UNL A   1      40.213  28.515  30.493  1.00  0.00     0.074 A 
ATOM     47  C   UNL A   1      40.976  28.530  28.195  1.00  0.00     0.049 A 
ATOM     48  N   UNL A   1      41.248  28.885  31.168  1.00  0.00    -0.248 NA
ATOM     49  C   UNL A   1      39.160  27.896  31.293  1.00  0.00     0.031 C 
ATOM     50  C   UNL A   1      41.126  29.032  26.848  1.00  0.00     0.029 A 
ATOM     51  N   UNL A   1      42.065  27.686  28.311  1.00  0.00    -0.354 N 
ATOM     52  C   UNL A   1      41.043  28.488  32.480  1.00  0.00     0.074 A 
ATOM     53  C   UNL A   1      39.705  27.953  32.512  1.00  0.00     0.031 C 
ATOM     54  C   UNL A   1      42.090  28.350  26.191  1.00  0.00     0.029 A 
ATOM     55  C   UNL A   1      42.670  27.365  27.092  1.00  0.00     0.049 A 
ATOM     56  H   UNL A   1      42.386  27.341  29.174  1.00  0.00     0.167 HD
ATOM     57  C   UNL A   1      42.081  28.533  33.360  1.00  0.00     0.037 A 
ATOM     58  C   UNL A   1      43.835  26.721  26.811  1.00  0.00     0.037 A 
ATOM     59  C   UNL A   1      43.118  29.415  32.871  1.00  0.00     0.049 A 
ATOM     60  C   UNL A   1      44.768  27.071  27.892  1.00  0.00     0.074 A 
ATOM     61  C   UNL A   1      43.349  30.773  32.929  1.00  0.00     0.029 A 
ATOM     62  N   UNL A   1      43.982  28.897  31.935  1.00  0.00    -0.354 N 
ATOM     63  N   UNL A   1      45.277  28.263  28.017  1.00  0.00    -0.248 NA
ATOM     64  C   UNL A   1      44.909  26.200  29.053  1.00  0.00     0.031 C 
ATOM     65  C   UNL A   1      44.276  31.077  31.894  1.00  0.00     0.029 A 
ATOM     66  C   UNL A   1      44.591  29.902  31.223  1.00  0.00     0.049 A 
ATOM     67  H   UNL A   1      44.143  27.936  31.794  1.00  0.00     0.167 HD
ATOM     68  C   UNL A   1      45.364  28.435  29.383  1.00  0.00     0.074 A 
ATOM     69  C   UNL A   1      45.290  27.103  29.959  1.00  0.00     0.031 C 
ATOM     70  C   UNL A   1      45.172  29.664  29.928  1.00  0.00     0.037 A 
BRANCH  57  71
ATOM     71  C   UNL A   1      42.357  27.540  34.474  1.00  0.00     0.064 A 
ATOM     72  C   UNL A   1      43.042  26.344  34.152  1.00  0.00     0.173 A 
ATOM     73  C   UNL A   1      41.749  27.545  35.740  1.00  0.00     0.173 A 
ATOM     74  F   UNL A   1      43.746  26.230  33.018  1.00  0.00    -0.203 F 
ATOM     75  C   UNL A   1      42.961  25.199  34.947  1.00  0.00     0.198 A 
ATOM     76  C   UNL A   1      41.661  26.398  36.532  1.00  0.00     0.198 A 
ATOM     77  F   UNL A   1      41.159  28.630  36.245  1.00  0.00    -0.203 F 
ATOM     78  F   UNL A   1      43.534  24.061  34.533  1.00  0.00    -0.200 F 
ATOM     79  C   UNL A   1      42.232  25.214  36.118  1.00  0.00     0.200 A 
ATOM     80  F   UNL A   1      40.947  26.435  37.666  1.00  0.00    -0.200 F 
ATOM     81  F   UNL A   1      42.062  24.094  36.830  1.00  0.00    -0.200 F 
ENDBRANCH  57  71
BRANCH  58  82
ATOM     82  C   UNL A   1      44.064  25.592  25.859  1.00  0.00     0.064 A 
ATOM     83  C   UNL A   1      45.319  25.382  25.260  1.00  0.00     0.173 A 
ATOM     84  C   UNL A   1      43.120  24.578  25.637  1.00  0.00     0.173 A 
ATOM     85  F   UNL A   1      46.277  26.314  25.357  1.00  0.00    -0.203 F 
ATOM     86  C   UNL A   1      45.637  24.194  24.586  1.00  0.00     0.198 A 
ATOM     87  C   UNL A   1      43.438  23.379  24.984  1.00  0.00     0.198 A 
ATOM     88  F   UNL A   1      41.866  24.740  26.060  1.00  0.00    -0.203 F 
ATOM     89  F   UNL A   1      46.864  24.027  24.073  1.00  0.00    -0.200 F 
ATOM     90  C   UNL A   1      44.706  23.178  24.481  1.00  0.00     0.200 A 
ATOM     91  F   UNL A   1      42.518  22.414  24.862  1.00  0.00    -0.200 F 
ATOM     92  F   UNL A   1      45.032  22.016  23.896  1.00  0.00    -0.200 F 
ENDBRANCH  58  82
BRANCH  70  93
ATOM     93  C   UNL A   1      45.425  30.819  29.018  1.00  0.00     0.064 A 
ATOM     94  C   UNL A   1      46.696  31.366  28.790  1.00  0.00     0.173 A 
ATOM     95  C   UNL A   1      44.339  31.380  28.338  1.00  0.00     0.173 A 
ATOM     96  F   UNL A   1      47.781  30.827  29.357  1.00  0.00    -0.203 F 
ATOM     97  C   UNL A   1      46.863  32.463  27.946  1.00  0.00     0.198 A 
ATOM     98  C   UNL A   1      44.512  32.453  27.471  1.00  0.00     0.198 A 
ATOM     99  F   UNL A   1      43.110  30.865  28.499  1.00  0.00    -0.203 F 
ATOM    100  F   UNL A   1      48.082  32.989  27.756  1.00  0.00    -0.200 F 
ATOM    101  C   UNL A   1      45.771  33.002  27.284  1.00  0.00     0.200 A 
ATOM    102  F   UNL A   1      43.460  32.945  26.804  1.00  0.00    -0.200 F 
ATOM    103  F   UNL A   1      45.934  34.038  26.450  1.00  0.00    -0.200 F 
ENDBRANCH  70  93
ENDBRANCH  44  45
ENDBRANCH  37  39
ENDBRANCH  36  37
ENDBRANCH  35  36
ENDBRANCH  34  35
ENDBRANCH  33  34
ENDBRANCH  32  33
ENDBRANCH   1  32
TORSDOF 20
ENDMDL
MODEL 2
REMARK VINA RESULT:     -11.5      2.023      7.070
REMARK SMILES Cc1nc2cc(S(=O)(=O)N3CCC(C(=O)OCCOCCOCCOC(=O)c4ccc(-c5c6nc(c(-c7c(F)c(F)c(F)c(F)c7F)c7ccc([nH]7)c(-c7c(F)c(F)c(F)c(F)c7F)c7nc(c(-c8c(F)c(F)c(F)c(F)c8F)c8ccc5[nH]8)C=C7)C=C6)cc4)CC3)ccc2n1C1CCCC1
REMARK SMILES IDX 20 1 19 2 18 3 17 4 16 5 14 6 15 7 13 8 10 9 11 10 92 11
REMARK SMILES IDX 12 12 91 13 7 14 8 15 9 16 6 17 1 18 2 19 3 20 96 21 4 22
REMARK SMILES IDX 95 23 5 24 94 25 93 26 97 27 98 28 101 29 99 30 100 31 21 32
REMARK SMILES IDX 22 33 23 34 24 35 25 36 26 37 27 38 28 39 29 40 90 41 30 42
REMARK SMILES IDX 89 43 31 44 32 45 33 46 83 47 34 48 88 49 82 50 84 51 35 52
REMARK SMILES IDX 87 53 81 54 80 55 36 57 68 58 48 59 67 60 49 61 52 62 66 63
REMARK SMILES IDX 85 64 50 65 51 66 65 68 86 69 53 70 37 71 38 72 46 73 39 74
REMARK SMILES IDX 40 75 44 76 47 77 41 78 42 79 45 80 43 81 69 82 70 83 78 84
REMARK SMILES IDX 71 85 72 86 76 87 79 88 73 89 74 90 77 91 75 92 54 93 55 94
REMARK SMILES IDX 63 95 56 96 57 97 61 98 64 99 58 100 59 101 62 102 60 103
REMARK H PARENT 84 56 52 67
REMARK Flexibility Score: inf
ROOT
ATOM      1  C   UNL A   1      32.003  30.100  25.404  1.00  0.00     0.188 C 
ENDROOT
BRANCH   1   2
ATOM      2  O   UNL A   1      30.725  29.898  24.839  1.00  0.00    -0.376 OA
BRANCH   2   3
ATOM      3  C   UNL A   1      30.586  29.019  23.728  1.00  0.00     0.202 C 
BRANCH   3   4
ATOM      4  C   UNL A   1      31.742  28.951  22.721  1.00  0.00     0.261 C 
BRANCH   4   5
ATOM      5  O   UNL A   1      32.494  27.708  22.808  1.00  0.00    -0.463 OA
BRANCH   5   6
ATOM      6  C   UNL A   1      31.885  26.634  22.251  1.00  0.00     0.309 C 
ATOM      7  O   UNL A   1      31.295  26.683  21.173  1.00  0.00    -0.252 OA
BRANCH   6   8
ATOM      8  C   UNL A   1      32.034  25.293  22.978  1.00  0.00     0.102 C 
ATOM      9  N   UNL A   1      32.456  22.536  23.778  1.00  0.00    -0.198 NA
ATOM     10  C   UNL A   1      31.655  23.446  24.631  1.00  0.00     0.103 C 
ATOM     11  C   UNL A   1      33.261  23.121  22.695  1.00  0.00     0.103 C 
ATOM     12  C   UNL A   1      30.984  24.595  23.833  1.00  0.00     0.032 C 
ATOM     13  C   UNL A   1      32.569  24.271  21.984  1.00  0.00     0.032 C 
BRANCH   9  14
ATOM     14  S   UNL A   1      33.083  21.094  24.480  1.00  0.00     0.243 S 
ATOM     15  O   UNL A   1      33.024  20.086  23.428  1.00  0.00    -0.207 OA
ATOM     16  O   UNL A   1      32.411  20.900  25.736  1.00  0.00    -0.207 OA
BRANCH  14  17
ATOM     17  C   UNL A   1      34.829  21.265  24.879  1.00  0.00     0.085 A 
ATOM     18  C   UNL A   1      39.466  24.511  26.931  1.00  0.00     0.088 C 
ATOM     19  C   UNL A   1      38.461  23.561  26.373  1.00  0.00     0.106 A 
ATOM     20  N   UNL A   1      37.214  23.889  26.101  1.00  0.00    -0.233 NA
ATOM     21  N   UNL A   1      38.695  22.234  26.055  1.00  0.00    -0.325 N 
ATOM     22  C   UNL A   1      36.603  22.753  25.639  1.00  0.00     0.090 A 
ATOM     23  C   UNL A   1      37.492  21.685  25.640  1.00  0.00     0.068 A 
ATOM     24  C   UNL A   1      35.270  22.557  25.230  1.00  0.00     0.052 A 
ATOM     25  C   UNL A   1      37.076  20.395  25.272  1.00  0.00     0.030 A 
ATOM     26  C   UNL A   1      35.725  20.201  24.917  1.00  0.00     0.024 A 
BRANCH  21  27
ATOM     27  C   UNL A   1      39.977  21.567  26.141  1.00  0.00     0.089 C 
ATOM     28  C   UNL A   1      40.585  21.528  27.538  1.00  0.00     0.025 C 
ATOM     29  C   UNL A   1      39.992  20.116  25.676  1.00  0.00     0.025 C 
ATOM     30  C   UNL A   1      41.608  20.402  27.485  1.00  0.00     0.002 C 
ATOM     31  C   UNL A   1      41.297  19.579  26.236  1.00  0.00     0.002 C 
ENDBRANCH  21  27
ENDBRANCH  14  17
ENDBRANCH   9  14
ENDBRANCH   6   8
ENDBRANCH   5   6
ENDBRANCH   4   5
ENDBRANCH   3   4
ENDBRANCH   2   3
ENDBRANCH   1   2
BRANCH   1  32
ATOM     32  C   UNL A   1      32.180  29.947  26.912  1.00  0.00     0.188 C 
BRANCH  32  33
ATOM     33  O   UNL A   1      33.439  29.959  27.542  1.00  0.00    -0.376 OA
BRANCH  33  34
ATOM     34  C   UNL A   1      34.193  31.159  27.556  1.00  0.00     0.202 C 
BRANCH  34  35
ATOM     35  C   UNL A   1      35.663  31.182  28.036  1.00  0.00     0.261 C 
BRANCH  35  36
ATOM     36  O   UNL A   1      36.032  30.106  28.913  1.00  0.00    -0.460 OA
BRANCH  36  37
ATOM     37  C   UNL A   1      36.456  30.452  30.161  1.00  0.00     0.338 C 
ATOM     38  O   UNL A   1      35.762  30.727  31.123  1.00  0.00    -0.246 OA
BRANCH  37  39
ATOM     39  C   UNL A   1      37.901  30.088  30.257  1.00  0.00     0.060 A 
ATOM     40  C   UNL A   1      38.917  30.988  29.917  1.00  0.00     0.016 A 
ATOM     41  C   UNL A   1      38.200  28.723  30.389  1.00  0.00     0.016 A 
ATOM     42  C   UNL A   1      40.210  30.513  29.649  1.00  0.00     0.010 A 
ATOM     43  C   UNL A   1      39.492  28.257  30.117  1.00  0.00     0.010 A 
ATOM     44  C   UNL A   1      40.507  29.141  29.724  1.00  0.00    -0.014 A 
BRANCH  44  45
ATOM     45  C   UNL A   1      41.921  28.690  29.741  1.00  0.00     0.031 A 
ATOM     46  C   UNL A   1      42.264  27.802  28.611  1.00  0.00     0.074 A 
ATOM     47  C   UNL A   1      42.901  28.976  30.629  1.00  0.00     0.049 A 
ATOM     48  N   UNL A   1      42.784  26.630  28.754  1.00  0.00    -0.248 NA
ATOM     49  C   UNL A   1      41.847  28.115  27.247  1.00  0.00     0.031 C 
ATOM     50  C   UNL A   1      42.728  29.545  31.947  1.00  0.00     0.029 A 
ATOM     51  N   UNL A   1      44.272  28.815  30.564  1.00  0.00    -0.354 N 
ATOM     52  C   UNL A   1      42.849  26.056  27.494  1.00  0.00     0.074 A 
ATOM     53  C   UNL A   1      42.185  26.986  26.616  1.00  0.00     0.031 C 
ATOM     54  C   UNL A   1      43.922  29.883  32.480  1.00  0.00     0.029 A 
ATOM     55  C   UNL A   1      44.977  29.517  31.547  1.00  0.00     0.049 A 
ATOM     56  H   UNL A   1      44.715  28.256  29.886  1.00  0.00     0.167 HD
ATOM     57  C   UNL A   1      43.577  24.919  27.316  1.00  0.00     0.037 A 
ATOM     58  C   UNL A   1      46.287  29.480  31.910  1.00  0.00     0.037 A 
ATOM     59  C   UNL A   1      43.800  24.260  28.585  1.00  0.00     0.049 A 
ATOM     60  C   UNL A   1      46.731  28.094  31.701  1.00  0.00     0.074 A 
ATOM     61  C   UNL A   1      43.085  23.371  29.359  1.00  0.00     0.029 A 
ATOM     62  N   UNL A   1      44.821  24.748  29.367  1.00  0.00    -0.354 N 
ATOM     63  N   UNL A   1      46.334  27.111  32.457  1.00  0.00    -0.248 NA
ATOM     64  C   UNL A   1      47.372  27.707  30.450  1.00  0.00     0.031 C 
ATOM     65  C   UNL A   1      43.619  23.450  30.675  1.00  0.00     0.029 A 
ATOM     66  C   UNL A   1      44.646  24.386  30.681  1.00  0.00     0.049 A 
ATOM     67  H   UNL A   1      45.574  25.285  29.030  1.00  0.00     0.167 HD
ATOM     68  C   UNL A   1      46.245  26.048  31.584  1.00  0.00     0.074 A 
ATOM     69  C   UNL A   1      47.042  26.414  30.426  1.00  0.00     0.031 C 
ATOM     70  C   UNL A   1      45.280  25.107  31.753  1.00  0.00     0.037 A 
BRANCH  57  71
ATOM     71  C   UNL A   1      44.401  24.563  26.093  1.00  0.00     0.064 A 
ATOM     72  C   UNL A   1      44.070  23.386  25.379  1.00  0.00     0.173 A 
ATOM     73  C   UNL A   1      45.646  25.121  25.758  1.00  0.00     0.173 A 
ATOM     74  F   UNL A   1      42.876  22.796  25.527  1.00  0.00    -0.203 F 
ATOM     75  C   UNL A   1      44.984  22.733  24.550  1.00  0.00     0.198 A 
ATOM     76  C   UNL A   1      46.563  24.464  24.935  1.00  0.00     0.198 A 
ATOM     77  F   UNL A   1      46.062  26.287  26.254  1.00  0.00    -0.203 F 
ATOM     78  F   UNL A   1      44.654  21.561  23.992  1.00  0.00    -0.200 F 
ATOM     79  C   UNL A   1      46.248  23.251  24.363  1.00  0.00     0.200 A 
ATOM     80  F   UNL A   1      47.787  24.985  24.767  1.00  0.00    -0.200 F 
ATOM     81  F   UNL A   1      47.164  22.577  23.656  1.00  0.00    -0.200 F 
ENDBRANCH  57  71
BRANCH  58  82
ATOM     82  C   UNL A   1      47.227  30.625  32.109  1.00  0.00     0.064 A 
ATOM     83  C   UNL A   1      47.705  31.378  31.022  1.00  0.00     0.173 A 
ATOM     84  C   UNL A   1      47.550  31.135  33.376  1.00  0.00     0.173 A 
ATOM     85  F   UNL A   1      47.506  30.952  29.767  1.00  0.00    -0.203 F 
ATOM     86  C   UNL A   1      48.359  32.606  31.193  1.00  0.00     0.198 A 
ATOM     87  C   UNL A   1      48.184  32.372  33.554  1.00  0.00     0.198 A 
ATOM     88  F   UNL A   1      47.247  30.431  34.467  1.00  0.00    -0.203 F 
ATOM     89  F   UNL A   1      48.754  33.306  30.119  1.00  0.00    -0.200 F 
ATOM     90  C   UNL A   1      48.565  33.121  32.459  1.00  0.00     0.200 A 
ATOM     91  F   UNL A   1      48.405  32.846  34.786  1.00  0.00    -0.200 F 
ATOM     92  F   UNL A   1      49.130  34.326  32.619  1.00  0.00    -0.200 F 
ENDBRANCH  58  82
BRANCH  70  93
ATOM     93  C   UNL A   1      44.744  24.974  33.139  1.00  0.00     0.064 A 
ATOM     94  C   UNL A   1      45.280  24.104  34.100  1.00  0.00     0.173 A 
ATOM     95  C   UNL A   1      43.658  25.773  33.511  1.00  0.00     0.173 A 
ATOM     96  F   UNL A   1      46.362  23.368  33.825  1.00  0.00    -0.203 F 
ATOM     97  C   UNL A   1      44.718  24.009  35.372  1.00  0.00     0.198 A 
ATOM     98  C   UNL A   1      43.119  25.700  34.790  1.00  0.00     0.198 A 
ATOM     99  F   UNL A   1      43.137  26.645  32.633  1.00  0.00    -0.203 F 
ATOM    100  F   UNL A   1      45.227  23.156  36.273  1.00  0.00    -0.200 F 
ATOM    101  C   UNL A   1      43.640  24.810  35.716  1.00  0.00     0.200 A 
ATOM    102  F   UNL A   1      42.103  26.505  35.131  1.00  0.00    -0.200 F 
ATOM    103  F   UNL A   1      43.116  24.741  36.948  1.00  0.00    -0.200 F 
ENDBRANCH  70  93
ENDBRANCH  44  45
ENDBRANCH  37  39
ENDBRANCH  36  37
ENDBRANCH  35  36
ENDBRANCH  34  35
ENDBRANCH  33  34
ENDBRANCH  32  33
ENDBRANCH   1  32
TORSDOF 20
ENDMDL
MODEL 3
REMARK VINA RESULT:     -11.2      3.999      9.869
REMARK SMILES Cc1nc2cc(S(=O)(=O)N3CCC(C(=O)OCCOCCOCCOC(=O)c4ccc(-c5c6nc(c(-c7c(F)c(F)c(F)c(F)c7F)c7ccc([nH]7)c(-c7c(F)c(F)c(F)c(F)c7F)c7nc(c(-c8c(F)c(F)c(F)c(F)c8F)c8ccc5[nH]8)C=C7)C=C6)cc4)CC3)ccc2n1C1CCCC1
REMARK SMILES IDX 20 1 19 2 18 3 17 4 16 5 14 6 15 7 13 8 10 9 11 10 92 11
REMARK SMILES IDX 12 12 91 13 7 14 8 15 9 16 6 17 1 18 2 19 3 20 96 21 4 22
REMARK SMILES IDX 95 23 5 24 94 25 93 26 97 27 98 28 101 29 99 30 100 31 21 32
REMARK SMILES IDX 22 33 23 34 24 35 25 36 26 37 27 38 28 39 29 40 90 41 30 42
REMARK SMILES IDX 89 43 31 44 32 45 33 46 83 47 34 48 88 49 82 50 84 51 35 52
REMARK SMILES IDX 87 53 81 54 80 55 36 57 68 58 48 59 67 60 49 61 52 62 66 63
REMARK SMILES IDX 85 64 50 65 51 66 65 68 86 69 53 70 37 71 38 72 46 73 39 74
REMARK SMILES IDX 40 75 44 76 47 77 41 78 42 79 45 80 43 81 69 82 70 83 78 84
REMARK SMILES IDX 71 85 72 86 76 87 79 88 73 89 74 90 77 91 75 92 54 93 55 94
REMARK SMILES IDX 63 95 56 96 57 97 61 98 64 99 58 100 59 101 62 102 60 103
REMARK H PARENT 84 56 52 67
REMARK Flexibility Score: inf
ROOT
ATOM      1  C   UNL A   1      42.296  21.448  27.346  1.00  0.00     0.188 C 
ENDROOT
BRANCH   1   2
ATOM      2  O   UNL A   1      42.031  22.702  27.937  1.00  0.00    -0.376 OA
BRANCH   2   3
ATOM      3  C   UNL A   1      41.181  23.624  27.262  1.00  0.00     0.202 C 
BRANCH   3   4
ATOM      4  C   UNL A   1      39.673  23.340  27.264  1.00  0.00     0.261 C 
BRANCH   4   5
ATOM      5  O   UNL A   1      39.135  23.138  25.927  1.00  0.00    -0.463 OA
BRANCH   5   6
ATOM      6  C   UNL A   1      38.462  21.977  25.753  1.00  0.00     0.309 C 
ATOM      7  O   UNL A   1      38.902  20.887  26.114  1.00  0.00    -0.252 OA
BRANCH   6   8
ATOM      8  C   UNL A   1      37.051  22.070  25.159  1.00  0.00     0.102 C 
ATOM      9  N   UNL A   1      34.533  22.854  23.951  1.00  0.00    -0.198 NA
ATOM     10  C   UNL A   1      34.612  21.629  24.784  1.00  0.00     0.103 C 
ATOM     11  C   UNL A   1      35.787  23.485  23.515  1.00  0.00     0.103 C 
ATOM     12  C   UNL A   1      35.746  21.685  25.842  1.00  0.00     0.032 C 
ATOM     13  C   UNL A   1      36.872  23.466  24.578  1.00  0.00     0.032 C 
BRANCH   9  14
ATOM     14  S   UNL A   1      33.195  23.031  22.881  1.00  0.00     0.243 S 
ATOM     15  O   UNL A   1      32.208  22.050  23.319  1.00  0.00    -0.207 OA
ATOM     16  O   UNL A   1      33.712  23.021  21.540  1.00  0.00    -0.207 OA
BRANCH  14  17
ATOM     17  C   UNL A   1      32.399  24.631  23.088  1.00  0.00     0.085 A 
ATOM     18  C   UNL A   1      31.781  29.866  25.997  1.00  0.00     0.088 C 
ATOM     19  C   UNL A   1      31.764  28.629  25.165  1.00  0.00     0.106 A 
ATOM     20  N   UNL A   1      32.469  27.550  25.442  1.00  0.00    -0.233 NA
ATOM     21  N   UNL A   1      31.011  28.436  24.020  1.00  0.00    -0.325 N 
ATOM     22  C   UNL A   1      32.214  26.650  24.442  1.00  0.00     0.090 A 
ATOM     23  C   UNL A   1      31.338  27.189  23.509  1.00  0.00     0.068 A 
ATOM     24  C   UNL A   1      32.729  25.352  24.253  1.00  0.00     0.052 A 
ATOM     25  C   UNL A   1      30.980  26.477  22.353  1.00  0.00     0.030 A 
ATOM     26  C   UNL A   1      31.545  25.202  22.148  1.00  0.00     0.024 A 
BRANCH  21  27
ATOM     27  C   UNL A   1      30.054  29.379  23.480  1.00  0.00     0.089 C 
ATOM     28  C   UNL A   1      30.385  29.895  22.084  1.00  0.00     0.025 C 
ATOM     29  C   UNL A   1      28.622  28.868  23.371  1.00  0.00     0.025 C 
ATOM     30  C   UNL A   1      29.065  30.431  21.546  1.00  0.00     0.002 C 
ATOM     31  C   UNL A   1      27.961  29.869  22.440  1.00  0.00     0.002 C 
ENDBRANCH  21  27
ENDBRANCH  14  17
ENDBRANCH   9  14
ENDBRANCH   6   8
ENDBRANCH   5   6
ENDBRANCH   4   5
ENDBRANCH   3   4
ENDBRANCH   2   3
ENDBRANCH   1   2
BRANCH   1  32
ATOM     32  C   UNL A   1      42.519  21.371  25.838  1.00  0.00     0.188 C 
BRANCH  32  33
ATOM     33  O   UNL A   1      43.789  21.187  25.259  1.00  0.00    -0.376 OA
BRANCH  33  34
ATOM     34  C   UNL A   1      44.340  22.222  24.462  1.00  0.00     0.202 C 
BRANCH  34  35
ATOM     35  C   UNL A   1      43.872  23.689  24.609  1.00  0.00     0.261 C 
BRANCH  35  36
ATOM     36  O   UNL A   1      44.425  24.393  25.732  1.00  0.00    -0.460 OA
BRANCH  36  37
ATOM     37  C   UNL A   1      45.339  25.365  25.454  1.00  0.00     0.338 C 
ATOM     38  O   UNL A   1      46.231  25.321  24.626  1.00  0.00    -0.246 OA
BRANCH  37  39
ATOM     39  C   UNL A   1      44.848  26.629  26.078  1.00  0.00     0.060 A 
ATOM     40  C   UNL A   1      45.472  27.198  27.194  1.00  0.00     0.016 A 
ATOM     41  C   UNL A   1      43.561  27.054  25.713  1.00  0.00     0.016 A 
ATOM     42  C   UNL A   1      44.784  28.139  27.975  1.00  0.00     0.010 A 
ATOM     43  C   UNL A   1      42.880  27.991  26.500  1.00  0.00     0.010 A 
ATOM     44  C   UNL A   1      43.473  28.530  27.650  1.00  0.00    -0.014 A 
BRANCH  44  45
ATOM     45  C   UNL A   1      42.880  29.730  28.290  1.00  0.00     0.031 A 
ATOM     46  C   UNL A   1      43.676  30.957  28.082  1.00  0.00     0.074 A 
ATOM     47  C   UNL A   1      41.743  29.840  29.017  1.00  0.00     0.049 A 
ATOM     48  N   UNL A   1      44.098  31.708  29.042  1.00  0.00    -0.248 NA
ATOM     49  C   UNL A   1      44.216  31.298  26.768  1.00  0.00     0.031 C 
ATOM     50  C   UNL A   1      40.990  28.754  29.605  1.00  0.00     0.029 A 
ATOM     51  N   UNL A   1      41.008  30.943  29.407  1.00  0.00    -0.354 N 
ATOM     52  C   UNL A   1      44.903  32.683  28.475  1.00  0.00     0.074 A 
ATOM     53  C   UNL A   1      45.001  32.332  27.080  1.00  0.00     0.031 C 
ATOM     54  C   UNL A   1      39.810  29.200  30.088  1.00  0.00     0.029 A 
ATOM     55  C   UNL A   1      39.728  30.638  29.879  1.00  0.00     0.049 A 
ATOM     56  H   UNL A   1      41.354  31.863  29.356  1.00  0.00     0.167 HD
ATOM     57  C   UNL A   1      45.284  33.754  29.225  1.00  0.00     0.037 A 
ATOM     58  C   UNL A   1      38.792  31.410  30.496  1.00  0.00     0.037 A 
ATOM     59  C   UNL A   1      45.138  33.458  30.635  1.00  0.00     0.049 A 
ATOM     60  C   UNL A   1      39.535  32.385  31.308  1.00  0.00     0.074 A 
ATOM     61  C   UNL A   1      45.923  32.842  31.585  1.00  0.00     0.029 A 
ATOM     62  N   UNL A   1      43.876  33.580  31.167  1.00  0.00    -0.354 N 
ATOM     63  N   UNL A   1      40.189  32.046  32.382  1.00  0.00    -0.248 NA
ATOM     64  C   UNL A   1      39.843  33.705  30.772  1.00  0.00     0.031 C 
ATOM     65  C   UNL A   1      45.058  32.463  32.649  1.00  0.00     0.029 A 
ATOM     66  C   UNL A   1      43.764  32.853  32.328  1.00  0.00     0.049 A 
ATOM     67  H   UNL A   1      43.152  34.115  30.770  1.00  0.00     0.167 HD
ATOM     68  C   UNL A   1      41.287  32.880  32.367  1.00  0.00     0.074 A 
ATOM     69  C   UNL A   1      40.946  33.973  31.473  1.00  0.00     0.031 C 
ATOM     70  C   UNL A   1      42.482  32.439  32.837  1.00  0.00     0.037 A 
BRANCH  57  71
ATOM     71  C   UNL A   1      45.444  35.181  28.737  1.00  0.00     0.064 A 
ATOM     72  C   UNL A   1      44.339  35.805  28.110  1.00  0.00     0.173 A 
ATOM     73  C   UNL A   1      46.666  35.855  28.575  1.00  0.00     0.173 A 
ATOM     74  F   UNL A   1      43.095  35.325  28.256  1.00  0.00    -0.203 F 
ATOM     75  C   UNL A   1      44.483  36.895  27.250  1.00  0.00     0.198 A 
ATOM     76  C   UNL A   1      46.813  36.941  27.709  1.00  0.00     0.198 A 
ATOM     77  F   UNL A   1      47.783  35.466  29.191  1.00  0.00    -0.203 F 
ATOM     78  F   UNL A   1      43.416  37.370  26.595  1.00  0.00    -0.200 F 
ATOM     79  C   UNL A   1      45.729  37.436  27.015  1.00  0.00     0.200 A 
ATOM     80  F   UNL A   1      48.034  37.452  27.495  1.00  0.00    -0.200 F 
ATOM     81  F   UNL A   1      45.891  38.410  26.112  1.00  0.00    -0.200 F 
ENDBRANCH  57  71
BRANCH  58  82
ATOM     82  C   UNL A   1      37.340  31.547  30.167  1.00  0.00     0.064 A 
ATOM     83  C   UNL A   1      36.438  32.137  31.070  1.00  0.00     0.173 A 
ATOM     84  C   UNL A   1      36.817  31.270  28.895  1.00  0.00     0.173 A 
ATOM     85  F   UNL A   1      36.813  32.390  32.332  1.00  0.00    -0.203 F 
ATOM     86  C   UNL A   1      35.144  32.522  30.691  1.00  0.00     0.198 A 
ATOM     87  C   UNL A   1      35.533  31.672  28.503  1.00  0.00     0.198 A 
ATOM     88  F   UNL A   1      37.555  30.602  28.009  1.00  0.00    -0.203 F 
ATOM     89  F   UNL A   1      34.340  33.123  31.579  1.00  0.00    -0.200 F 
ATOM     90  C   UNL A   1      34.705  32.323  29.395  1.00  0.00     0.200 A 
ATOM     91  F   UNL A   1      35.108  31.446  27.253  1.00  0.00    -0.200 F 
ATOM     92  F   UNL A   1      33.494  32.752  29.015  1.00  0.00    -0.200 F 
ENDBRANCH  58  82
BRANCH  70  93
ATOM     93  C   UNL A   1      42.416  31.319  33.821  1.00  0.00     0.064 A 
ATOM     94  C   UNL A   1      42.427  29.965  33.460  1.00  0.00     0.173 A 
ATOM     95  C   UNL A   1      42.356  31.635  35.183  1.00  0.00     0.173 A 
ATOM     96  F   UNL A   1      42.554  29.602  32.179  1.00  0.00    -0.203 F 
ATOM     97  C   UNL A   1      42.337  28.965  34.427  1.00  0.00     0.198 A 
ATOM     98  C   UNL A   1      42.300  30.636  36.147  1.00  0.00     0.198 A 
ATOM     99  F   UNL A   1      42.379  32.918  35.575  1.00  0.00    -0.203 F 
ATOM    100  F   UNL A   1      42.326  27.674  34.064  1.00  0.00    -0.200 F 
ATOM    101  C   UNL A   1      42.278  29.302  35.770  1.00  0.00     0.200 A 
ATOM    102  F   UNL A   1      42.283  30.966  37.446  1.00  0.00    -0.200 F 
ATOM    103  F   UNL A   1      42.221  28.342  36.703  1.00  0.00    -0.200 F 
ENDBRANCH  70  93
ENDBRANCH  44  45
ENDBRANCH  37  39
ENDBRANCH  36  37
ENDBRANCH  35  36
ENDBRANCH  34  35
ENDBRANCH  33  34
ENDBRANCH  32  33
ENDBRANCH   1  32
TORSDOF 20
ENDMDL
