MODEL 1
REMARK VINA RESULT:      -8.6      0.000      0.000
REMARK SMILES CC(C)CN(CC(N)=O)C(=O)N1CC[C@H](C(=O)OCCOCCOCCOC(=O)c2ccc(-c3c4nc(c(-c5c(F)c(F)c(F)c(F)c5F)c5ccc([nH]5)c(-c5c(F)c(F)c(F)c(F)c5F)c5nc(c(-c6c(F)c(F)c(F)c(F)c6F)c6ccc3[nH]6)C=C5)C=C4)cc2)[C@@H]1C
REMARK SMILES IDX 22 1 21 2 20 3 19 4 18 5 16 6 17 7 15 8 12 9 13 10 93 11
REMARK SMILES IDX 14 12 94 13 10 14 11 15 5 16 4 17 2 18 1 19 3 20 6 21 7 22
REMARK SMILES IDX 8 23 9 24 23 27 24 28 25 29 26 30 27 31 28 32 29 33 30 34
REMARK SMILES IDX 31 35 92 36 32 37 91 38 33 39 34 40 35 41 85 42 36 43 90 44
REMARK SMILES IDX 84 45 86 46 37 47 89 48 83 49 82 50 38 52 70 53 50 54 69 55
REMARK SMILES IDX 51 56 54 57 68 58 87 59 52 60 53 61 67 63 88 64 55 65 39 66
REMARK SMILES IDX 40 67 48 68 41 69 42 70 46 71 49 72 43 73 44 74 47 75 45 76
REMARK SMILES IDX 71 77 72 78 80 79 73 80 74 81 78 82 81 83 75 84 76 85 79 86
REMARK SMILES IDX 77 87 56 88 57 89 65 90 58 91 59 92 63 93 66 94 60 95 61 96
REMARK SMILES IDX 64 97 62 98
REMARK H PARENT 8 25 8 26 86 51 54 62
REMARK Flexibility Score: inf
ROOT
ATOM      1  C   UNL A   1      49.323  25.745  27.137  1.00  0.00     0.188 C 
ENDROOT
BRANCH   1   2
ATOM      2  O   UNL A   1      49.663  26.970  27.775  1.00  0.00    -0.376 OA
BRANCH   2   3
ATOM      3  C   UNL A   1      48.652  27.951  27.901  1.00  0.00     0.202 C 
BRANCH   3   4
ATOM      4  C   UNL A   1      47.884  28.012  29.231  1.00  0.00     0.261 C 
BRANCH   4   5
ATOM      5  O   UNL A   1      46.457  28.239  29.188  1.00  0.00    -0.463 OA
BRANCH   5   6
ATOM      6  C   UNL A   1      46.082  29.548  29.120  1.00  0.00     0.311 C 
ATOM      7  O   UNL A   1      46.630  30.448  29.744  1.00  0.00    -0.252 OA
BRANCH   6   8
ATOM      8  C   UNL A   1      44.778  29.724  28.337  1.00  0.00     0.123 C 
ATOM      9  N   UNL A   1      44.273  31.749  27.139  1.00  0.00    -0.321 N 
ATOM     10  C   UNL A   1      44.150  32.008  28.559  1.00  0.00     0.122 C 
ATOM     11  C   UNL A   1      44.784  30.390  26.931  1.00  0.00     0.098 C 
ATOM     12  C   UNL A   1      43.832  30.643  29.132  1.00  0.00     0.039 C 
ATOM     13  C   UNL A   1      46.118  30.409  26.220  1.00  0.00     0.032 C 
BRANCH   9  14
ATOM     14  C   UNL A   1      44.344  32.829  26.296  1.00  0.00     0.320 C 
ATOM     15  O   UNL A   1      43.809  32.730  25.189  1.00  0.00    -0.248 OA
BRANCH  14  16
ATOM     16  N   UNL A   1      45.050  33.958  26.654  1.00  0.00    -0.315 N 
BRANCH  16  17
ATOM     17  C   UNL A   1      44.394  35.263  26.437  1.00  0.00     0.125 C 
BRANCH  17  18
ATOM     18  C   UNL A   1      43.066  35.445  27.223  1.00  0.00     0.002 C 
ATOM     19  C   UNL A   1      43.261  35.495  28.744  1.00  0.00     0.009 C 
ATOM     20  C   UNL A   1      42.368  36.740  26.793  1.00  0.00     0.009 C 
ENDBRANCH  17  18
ENDBRANCH  16  17
BRANCH  16  21
ATOM     21  C   UNL A   1      46.410  34.015  27.207  1.00  0.00     0.221 C 
BRANCH  21  22
ATOM     22  C   UNL A   1      47.487  33.899  26.112  1.00  0.00     0.237 C 
ATOM     23  N   UNL A   1      47.413  34.802  25.088  1.00  0.00    -0.368 N 
ATOM     24  O   UNL A   1      48.378  33.054  26.108  1.00  0.00    -0.273 OA
ATOM     25  H   UNL A   1      46.702  35.484  25.082  1.00  0.00     0.159 HD
ATOM     26  H   UNL A   1      48.071  34.770  24.355  1.00  0.00     0.159 HD
ENDBRANCH  21  22
ENDBRANCH  16  21
ENDBRANCH  14  16
ENDBRANCH   9  14
ENDBRANCH   6   8
ENDBRANCH   5   6
ENDBRANCH   4   5
ENDBRANCH   3   4
ENDBRANCH   2   3
ENDBRANCH   1   2
BRANCH   1  27
ATOM     27  C   UNL A   1      47.932  25.142  27.387  1.00  0.00     0.188 C 
BRANCH  27  28
ATOM     28  O   UNL A   1      47.206  24.976  26.173  1.00  0.00    -0.376 OA
BRANCH  28  29
ATOM     29  C   UNL A   1      46.397  23.805  26.165  1.00  0.00     0.202 C 
BRANCH  29  30
ATOM     30  C   UNL A   1      45.833  23.571  24.762  1.00  0.00     0.261 C 
BRANCH  30  31
ATOM     31  O   UNL A   1      44.677  24.375  24.432  1.00  0.00    -0.460 OA
BRANCH  31  32
ATOM     32  C   UNL A   1      43.473  23.890  24.815  1.00  0.00     0.338 C 
ATOM     33  O   UNL A   1      43.028  22.788  24.559  1.00  0.00    -0.246 OA
BRANCH  32  34
ATOM     34  C   UNL A   1      42.809  24.861  25.722  1.00  0.00     0.060 A 
ATOM     35  C   UNL A   1      43.293  26.172  25.776  1.00  0.00     0.016 A 
ATOM     36  C   UNL A   1      41.768  24.474  26.571  1.00  0.00     0.016 A 
ATOM     37  C   UNL A   1      42.766  27.083  26.700  1.00  0.00     0.010 A 
ATOM     38  C   UNL A   1      41.248  25.389  27.505  1.00  0.00     0.010 A 
ATOM     39  C   UNL A   1      41.763  26.696  27.598  1.00  0.00    -0.014 A 
BRANCH  39  40
ATOM     40  C   UNL A   1      41.389  27.595  28.732  1.00  0.00     0.031 A 
ATOM     41  C   UNL A   1      42.196  27.537  30.004  1.00  0.00     0.074 A 
ATOM     42  C   UNL A   1      40.390  28.495  28.639  1.00  0.00     0.049 A 
ATOM     43  N   UNL A   1      42.003  28.141  31.151  1.00  0.00    -0.248 NA
ATOM     44  C   UNL A   1      43.393  26.680  29.975  1.00  0.00     0.031 C 
ATOM     45  C   UNL A   1      39.582  28.743  27.450  1.00  0.00     0.029 A 
ATOM     46  N   UNL A   1      39.884  29.370  29.578  1.00  0.00    -0.354 N 
ATOM     47  C   UNL A   1      43.030  27.717  31.984  1.00  0.00     0.074 A 
ATOM     48  C   UNL A   1      43.843  26.799  31.216  1.00  0.00     0.031 C 
ATOM     49  C   UNL A   1      38.670  29.693  27.732  1.00  0.00     0.029 A 
ATOM     50  C   UNL A   1      38.798  30.088  29.134  1.00  0.00     0.049 A 
ATOM     51  H   UNL A   1      40.264  29.471  30.479  1.00  0.00     0.167 HD
ATOM     52  C   UNL A   1      43.274  28.057  33.273  1.00  0.00     0.037 A 
ATOM     53  C   UNL A   1      37.979  30.937  29.791  1.00  0.00     0.037 A 
ATOM     54  C   UNL A   1      42.491  28.995  34.037  1.00  0.00     0.049 A 
ATOM     55  C   UNL A   1      38.227  31.242  31.251  1.00  0.00     0.074 A 
ATOM     56  C   UNL A   1      42.677  29.407  35.345  1.00  0.00     0.029 A 
ATOM     57  N   UNL A   1      41.373  29.665  33.564  1.00  0.00    -0.354 N 
ATOM     58  N   UNL A   1      39.188  30.821  32.038  1.00  0.00    -0.248 NA
ATOM     59  C   UNL A   1      37.271  32.142  31.916  1.00  0.00     0.031 C 
ATOM     60  C   UNL A   1      41.633  30.273  35.687  1.00  0.00     0.029 A 
ATOM     61  C   UNL A   1      40.841  30.461  34.567  1.00  0.00     0.049 A 
ATOM     62  H   UNL A   1      41.011  29.587  32.651  1.00  0.00     0.167 HD
ATOM     63  C   UNL A   1      38.971  31.427  33.270  1.00  0.00     0.074 A 
ATOM     64  C   UNL A   1      37.798  32.260  33.126  1.00  0.00     0.031 C 
ATOM     65  C   UNL A   1      39.680  31.302  34.418  1.00  0.00     0.037 A 
BRANCH  52  66
ATOM     66  C   UNL A   1      44.410  27.369  33.974  1.00  0.00     0.064 A 
ATOM     67  C   UNL A   1      44.255  26.136  34.623  1.00  0.00     0.173 A 
ATOM     68  C   UNL A   1      45.694  27.937  33.943  1.00  0.00     0.173 A 
ATOM     69  F   UNL A   1      43.048  25.555  34.691  1.00  0.00    -0.203 F 
ATOM     70  C   UNL A   1      45.339  25.508  35.233  1.00  0.00     0.198 A 
ATOM     71  C   UNL A   1      46.780  27.291  34.525  1.00  0.00     0.198 A 
ATOM     72  F   UNL A   1      45.900  29.112  33.328  1.00  0.00    -0.203 F 
ATOM     73  F   UNL A   1      45.160  24.349  35.884  1.00  0.00    -0.200 F 
ATOM     74  C   UNL A   1      46.600  26.081  35.175  1.00  0.00     0.200 A 
ATOM     75  F   UNL A   1      48.001  27.838  34.450  1.00  0.00    -0.200 F 
ATOM     76  F   UNL A   1      47.644  25.466  35.749  1.00  0.00    -0.200 F 
ENDBRANCH  52  66
BRANCH  53  77
ATOM     77  C   UNL A   1      36.794  31.525  29.100  1.00  0.00     0.064 A 
ATOM     78  C   UNL A   1      36.716  32.896  28.812  1.00  0.00     0.173 A 
ATOM     79  C   UNL A   1      35.679  30.734  28.782  1.00  0.00     0.173 A 
ATOM     80  F   UNL A   1      37.736  33.708  29.132  1.00  0.00    -0.203 F 
ATOM     81  C   UNL A   1      35.561  33.454  28.264  1.00  0.00     0.198 A 
ATOM     82  C   UNL A   1      34.541  31.286  28.198  1.00  0.00     0.198 A 
ATOM     83  F   UNL A   1      35.688  29.420  29.052  1.00  0.00    -0.203 F 
ATOM     84  F   UNL A   1      35.487  34.779  28.071  1.00  0.00    -0.200 F 
ATOM     85  C   UNL A   1      34.478  32.648  27.951  1.00  0.00     0.200 A 
ATOM     86  F   UNL A   1      33.498  30.501  27.893  1.00  0.00    -0.200 F 
ATOM     87  F   UNL A   1      33.365  33.186  27.432  1.00  0.00    -0.200 F 
ENDBRANCH  53  77
BRANCH  65  88
ATOM     88  C   UNL A   1      39.249  32.123  35.603  1.00  0.00     0.064 A 
ATOM     89  C   UNL A   1      38.398  31.611  36.594  1.00  0.00     0.173 A 
ATOM     90  C   UNL A   1      39.724  33.435  35.768  1.00  0.00     0.173 A 
ATOM     91  F   UNL A   1      37.905  30.368  36.486  1.00  0.00    -0.203 F 
ATOM     92  C   UNL A   1      38.012  32.390  37.684  1.00  0.00     0.198 A 
ATOM     93  C   UNL A   1      39.366  34.198  36.876  1.00  0.00     0.198 A 
ATOM     94  F   UNL A   1      40.549  33.975  34.858  1.00  0.00    -0.203 F 
ATOM     95  F   UNL A   1      37.154  31.897  38.588  1.00  0.00    -0.200 F 
ATOM     96  C   UNL A   1      38.503  33.679  37.828  1.00  0.00     0.200 A 
ATOM     97  F   UNL A   1      39.857  35.436  37.022  1.00  0.00    -0.200 F 
ATOM     98  F   UNL A   1      38.137  34.424  38.880  1.00  0.00    -0.200 F 
ENDBRANCH  65  88
ENDBRANCH  39  40
ENDBRANCH  32  34
ENDBRANCH  31  32
ENDBRANCH  30  31
ENDBRANCH  29  30
ENDBRANCH  28  29
ENDBRANCH  27  28
ENDBRANCH   1  27
TORSDOF 23
ENDMDL
MODEL 2
REMARK VINA RESULT:      -8.5      5.839     12.459
REMARK SMILES CC(C)CN(CC(N)=O)C(=O)N1CC[C@H](C(=O)OCCOCCOCCOC(=O)c2ccc(-c3c4nc(c(-c5c(F)c(F)c(F)c(F)c5F)c5ccc([nH]5)c(-c5c(F)c(F)c(F)c(F)c5F)c5nc(c(-c6c(F)c(F)c(F)c(F)c6F)c6ccc3[nH]6)C=C5)C=C4)cc2)[C@@H]1C
REMARK SMILES IDX 22 1 21 2 20 3 19 4 18 5 16 6 17 7 15 8 12 9 13 10 93 11
REMARK SMILES IDX 14 12 94 13 10 14 11 15 5 16 4 17 2 18 1 19 3 20 6 21 7 22
REMARK SMILES IDX 8 23 9 24 23 27 24 28 25 29 26 30 27 31 28 32 29 33 30 34
REMARK SMILES IDX 31 35 92 36 32 37 91 38 33 39 34 40 35 41 85 42 36 43 90 44
REMARK SMILES IDX 84 45 86 46 37 47 89 48 83 49 82 50 38 52 70 53 50 54 69 55
REMARK SMILES IDX 51 56 54 57 68 58 87 59 52 60 53 61 67 63 88 64 55 65 39 66
REMARK SMILES IDX 40 67 48 68 41 69 42 70 46 71 49 72 43 73 44 74 47 75 45 76
REMARK SMILES IDX 71 77 72 78 80 79 73 80 74 81 78 82 81 83 75 84 76 85 79 86
REMARK SMILES IDX 77 87 56 88 57 89 65 90 58 91 59 92 63 93 66 94 60 95 61 96
REMARK SMILES IDX 64 97 62 98
REMARK H PARENT 8 25 8 26 86 51 54 62
REMARK Flexibility Score: inf
ROOT
ATOM      1  C   UNL A   1      34.782  34.136  28.818  1.00  0.00     0.188 C 
ENDROOT
BRANCH   1   2
ATOM      2  O   UNL A   1      34.941  33.243  27.722  1.00  0.00    -0.376 OA
BRANCH   2   3
ATOM      3  C   UNL A   1      34.561  31.894  27.909  1.00  0.00     0.202 C 
BRANCH   3   4
ATOM      4  C   UNL A   1      35.590  30.810  27.552  1.00  0.00     0.261 C 
BRANCH   4   5
ATOM      5  O   UNL A   1      35.256  29.431  27.826  1.00  0.00    -0.463 OA
BRANCH   5   6
ATOM      6  C   UNL A   1      34.048  29.022  27.344  1.00  0.00     0.311 C 
ATOM      7  O   UNL A   1      33.067  28.818  28.049  1.00  0.00    -0.252 OA
BRANCH   6   8
ATOM      8  C   UNL A   1      34.123  28.655  25.859  1.00  0.00     0.123 C 
ATOM      9  N   UNL A   1      32.238  27.746  24.674  1.00  0.00    -0.321 N 
ATOM     10  C   UNL A   1      32.762  26.727  25.561  1.00  0.00     0.122 C 
ATOM     11  C   UNL A   1      32.951  29.007  24.899  1.00  0.00     0.098 C 
ATOM     12  C   UNL A   1      34.214  27.124  25.722  1.00  0.00     0.039 C 
ATOM     13  C   UNL A   1      32.011  30.090  25.378  1.00  0.00     0.032 C 
BRANCH   9  14
ATOM     14  C   UNL A   1      30.986  27.552  24.148  1.00  0.00     0.320 C 
ATOM     15  O   UNL A   1      30.072  27.269  24.927  1.00  0.00    -0.248 OA
BRANCH  14  16
ATOM     16  N   UNL A   1      30.776  27.604  22.786  1.00  0.00    -0.315 N 
BRANCH  16  17
ATOM     17  C   UNL A   1      30.203  28.849  22.236  1.00  0.00     0.125 C 
BRANCH  17  18
ATOM     18  C   UNL A   1      28.990  29.397  23.037  1.00  0.00     0.002 C 
ATOM     19  C   UNL A   1      29.180  30.842  23.516  1.00  0.00     0.009 C 
ATOM     20  C   UNL A   1      27.721  29.346  22.179  1.00  0.00     0.009 C 
ENDBRANCH  17  18
ENDBRANCH  16  17
BRANCH  16  21
ATOM     21  C   UNL A   1      31.032  26.538  21.808  1.00  0.00     0.221 C 
BRANCH  21  22
ATOM     22  C   UNL A   1      32.534  26.234  21.659  1.00  0.00     0.237 C 
ATOM     23  N   UNL A   1      32.871  24.931  21.420  1.00  0.00    -0.368 N 
ATOM     24  O   UNL A   1      33.421  27.079  21.750  1.00  0.00    -0.273 OA
ATOM     25  H   UNL A   1      32.167  24.245  21.346  1.00  0.00     0.159 HD
ATOM     26  H   UNL A   1      33.818  24.676  21.324  1.00  0.00     0.159 HD
ENDBRANCH  21  22
ENDBRANCH  16  21
ENDBRANCH  14  16
ENDBRANCH   9  14
ENDBRANCH   6   8
ENDBRANCH   5   6
ENDBRANCH   4   5
ENDBRANCH   3   4
ENDBRANCH   2   3
ENDBRANCH   1   2
BRANCH   1  27
ATOM     27  C   UNL A   1      33.381  34.687  29.126  1.00  0.00     0.188 C 
BRANCH  27  28
ATOM     28  O   UNL A   1      33.070  34.586  30.512  1.00  0.00    -0.376 OA
BRANCH  28  29
ATOM     29  C   UNL A   1      33.885  35.421  31.326  1.00  0.00     0.202 C 
BRANCH  29  30
ATOM     30  C   UNL A   1      34.390  34.634  32.537  1.00  0.00     0.261 C 
BRANCH  30  31
ATOM     31  O   UNL A   1      35.706  34.056  32.378  1.00  0.00    -0.460 OA
BRANCH  31  32
ATOM     32  C   UNL A   1      35.755  32.729  32.116  1.00  0.00     0.338 C 
ATOM     33  O   UNL A   1      34.821  31.953  32.156  1.00  0.00    -0.246 OA
BRANCH  32  34
ATOM     34  C   UNL A   1      37.113  32.366  31.634  1.00  0.00     0.060 A 
ATOM     35  C   UNL A   1      37.456  32.656  30.309  1.00  0.00     0.016 A 
ATOM     36  C   UNL A   1      38.019  31.678  32.447  1.00  0.00     0.016 A 
ATOM     37  C   UNL A   1      38.684  32.228  29.787  1.00  0.00     0.010 A 
ATOM     38  C   UNL A   1      39.246  31.242  31.916  1.00  0.00     0.010 A 
ATOM     39  C   UNL A   1      39.579  31.487  30.571  1.00  0.00    -0.014 A 
BRANCH  39  40
ATOM     40  C   UNL A   1      40.761  30.831  29.933  1.00  0.00     0.031 A 
ATOM     41  C   UNL A   1      42.019  31.636  29.730  1.00  0.00     0.074 A 
ATOM     42  C   UNL A   1      40.760  29.529  29.583  1.00  0.00     0.049 A 
ATOM     43  N   UNL A   1      43.130  31.317  29.112  1.00  0.00    -0.248 NA
ATOM     44  C   UNL A   1      42.026  32.988  30.311  1.00  0.00     0.031 C 
ATOM     45  C   UNL A   1      39.662  28.594  29.801  1.00  0.00     0.029 A 
ATOM     46  N   UNL A   1      41.728  28.771  28.959  1.00  0.00    -0.354 N 
ATOM     47  C   UNL A   1      43.952  32.433  29.204  1.00  0.00     0.074 A 
ATOM     48  C   UNL A   1      43.211  33.442  29.932  1.00  0.00     0.031 C 
ATOM     49  C   UNL A   1      40.008  27.391  29.306  1.00  0.00     0.029 A 
ATOM     50  C   UNL A   1      41.333  27.481  28.693  1.00  0.00     0.049 A 
ATOM     51  H   UNL A   1      42.618  29.120  28.726  1.00  0.00     0.167 HD
ATOM     52  C   UNL A   1      45.207  32.607  28.723  1.00  0.00     0.037 A 
ATOM     53  C   UNL A   1      41.950  26.497  28.004  1.00  0.00     0.037 A 
ATOM     54  C   UNL A   1      45.965  31.599  28.027  1.00  0.00     0.049 A 
ATOM     55  C   UNL A   1      43.320  26.740  27.412  1.00  0.00     0.074 A 
ATOM     56  C   UNL A   1      47.250  31.687  27.518  1.00  0.00     0.029 A 
ATOM     57  N   UNL A   1      45.510  30.322  27.739  1.00  0.00    -0.354 N 
ATOM     58  N   UNL A   1      44.082  27.805  27.485  1.00  0.00    -0.248 NA
ATOM     59  C   UNL A   1      43.916  25.640  26.637  1.00  0.00     0.031 C 
ATOM     60  C   UNL A   1      47.548  30.488  26.863  1.00  0.00     0.029 A 
ATOM     61  C   UNL A   1      46.477  29.624  27.031  1.00  0.00     0.049 A 
ATOM     62  H   UNL A   1      44.631  29.963  28.000  1.00  0.00     0.167 HD
ATOM     63  C   UNL A   1      45.250  27.492  26.799  1.00  0.00     0.074 A 
ATOM     64  C   UNL A   1      45.108  26.131  26.331  1.00  0.00     0.031 C 
ATOM     65  C   UNL A   1      46.341  28.264  26.577  1.00  0.00     0.037 A 
BRANCH  52  66
ATOM     66  C   UNL A   1      45.834  33.962  28.881  1.00  0.00     0.064 A 
ATOM     67  C   UNL A   1      45.653  34.987  27.942  1.00  0.00     0.173 A 
ATOM     68  C   UNL A   1      46.589  34.251  30.030  1.00  0.00     0.173 A 
ATOM     69  F   UNL A   1      44.950  34.761  26.822  1.00  0.00    -0.203 F 
ATOM     70  C   UNL A   1      46.221  36.244  28.138  1.00  0.00     0.198 A 
ATOM     71  C   UNL A   1      47.126  35.517  30.237  1.00  0.00     0.198 A 
ATOM     72  F   UNL A   1      46.786  33.309  30.965  1.00  0.00    -0.203 F 
ATOM     73  F   UNL A   1      46.069  37.198  27.208  1.00  0.00    -0.200 F 
ATOM     74  C   UNL A   1      46.948  36.511  29.288  1.00  0.00     0.200 A 
ATOM     75  F   UNL A   1      47.812  35.777  31.359  1.00  0.00    -0.200 F 
ATOM     76  F   UNL A   1      47.479  37.726  29.481  1.00  0.00    -0.200 F 
ENDBRANCH  52  66
BRANCH  53  77
ATOM     77  C   UNL A   1      41.260  25.195  27.770  1.00  0.00     0.064 A 
ATOM     78  C   UNL A   1      41.704  24.008  28.374  1.00  0.00     0.173 A 
ATOM     79  C   UNL A   1      40.184  25.100  26.875  1.00  0.00     0.173 A 
ATOM     80  F   UNL A   1      42.756  24.032  29.207  1.00  0.00    -0.203 F 
ATOM     81  C   UNL A   1      41.120  22.779  28.066  1.00  0.00     0.198 A 
ATOM     82  C   UNL A   1      39.576  23.877  26.599  1.00  0.00     0.198 A 
ATOM     83  F   UNL A   1      39.727  26.198  26.253  1.00  0.00    -0.203 F 
ATOM     84  F   UNL A   1      41.615  21.653  28.598  1.00  0.00    -0.200 F 
ATOM     85  C   UNL A   1      40.053  22.716  27.185  1.00  0.00     0.200 A 
ATOM     86  F   UNL A   1      38.540  23.822  25.749  1.00  0.00    -0.200 F 
ATOM     87  F   UNL A   1      39.497  21.533  26.883  1.00  0.00    -0.200 F 
ENDBRANCH  53  77
BRANCH  65  88
ATOM     88  C   UNL A   1      47.499  27.647  25.840  1.00  0.00     0.064 A 
ATOM     89  C   UNL A   1      47.563  27.624  24.438  1.00  0.00     0.173 A 
ATOM     90  C   UNL A   1      48.582  27.102  26.550  1.00  0.00     0.173 A 
ATOM     91  F   UNL A   1      46.554  28.123  23.708  1.00  0.00    -0.203 F 
ATOM     92  C   UNL A   1      48.647  27.049  23.778  1.00  0.00     0.198 A 
ATOM     93  C   UNL A   1      49.680  26.560  25.886  1.00  0.00     0.198 A 
ATOM     94  F   UNL A   1      48.581  27.105  27.892  1.00  0.00    -0.203 F 
ATOM     95  F   UNL A   1      48.658  26.989  22.438  1.00  0.00    -0.200 F 
ATOM     96  C   UNL A   1      49.707  26.525  24.501  1.00  0.00     0.200 A 
ATOM     97  F   UNL A   1      50.711  26.072  26.589  1.00  0.00    -0.200 F 
ATOM     98  F   UNL A   1      50.752  25.978  23.864  1.00  0.00    -0.200 F 
ENDBRANCH  65  88
ENDBRANCH  39  40
ENDBRANCH  32  34
ENDBRANCH  31  32
ENDBRANCH  30  31
ENDBRANCH  29  30
ENDBRANCH  28  29
ENDBRANCH  27  28
ENDBRANCH   1  27
TORSDOF 23
ENDMDL
MODEL 3
REMARK VINA RESULT:      -8.3      4.066     10.042
REMARK SMILES CC(C)CN(CC(N)=O)C(=O)N1CC[C@H](C(=O)OCCOCCOCCOC(=O)c2ccc(-c3c4nc(c(-c5c(F)c(F)c(F)c(F)c5F)c5ccc([nH]5)c(-c5c(F)c(F)c(F)c(F)c5F)c5nc(c(-c6c(F)c(F)c(F)c(F)c6F)c6ccc3[nH]6)C=C5)C=C4)cc2)[C@@H]1C
REMARK SMILES IDX 22 1 21 2 20 3 19 4 18 5 16 6 17 7 15 8 12 9 13 10 93 11
REMARK SMILES IDX 14 12 94 13 10 14 11 15 5 16 4 17 2 18 1 19 3 20 6 21 7 22
REMARK SMILES IDX 8 23 9 24 23 27 24 28 25 29 26 30 27 31 28 32 29 33 30 34
REMARK SMILES IDX 31 35 92 36 32 37 91 38 33 39 34 40 35 41 85 42 36 43 90 44
REMARK SMILES IDX 84 45 86 46 37 47 89 48 83 49 82 50 38 52 70 53 50 54 69 55
REMARK SMILES IDX 51 56 54 57 68 58 87 59 52 60 53 61 67 63 88 64 55 65 39 66
REMARK SMILES IDX 40 67 48 68 41 69 42 70 46 71 49 72 43 73 44 74 47 75 45 76
REMARK SMILES IDX 71 77 72 78 80 79 73 80 74 81 78 82 81 83 75 84 76 85 79 86
REMARK SMILES IDX 77 87 56 88 57 89 65 90 58 91 59 92 63 93 66 94 60 95 61 96
REMARK SMILES IDX 64 97 62 98
REMARK H PARENT 8 25 8 26 86 51 54 62
REMARK Flexibility Score: inf
ROOT
ATOM      1  C   UNL A   1      35.286  32.283  29.343  1.00  0.00     0.188 C 
ENDROOT
BRANCH   1   2
ATOM      2  O   UNL A   1      36.607  32.455  28.842  1.00  0.00    -0.376 OA
BRANCH   2   3
ATOM      3  C   UNL A   1      37.682  32.279  29.743  1.00  0.00     0.202 C 
BRANCH   3   4
ATOM      4  C   UNL A   1      38.581  31.048  29.544  1.00  0.00     0.261 C 
BRANCH   4   5
ATOM      5  O   UNL A   1      38.422  30.272  28.335  1.00  0.00    -0.463 OA
BRANCH   5   6
ATOM      6  C   UNL A   1      38.873  28.987  28.410  1.00  0.00     0.311 C 
ATOM      7  O   UNL A   1      38.144  28.005  28.343  1.00  0.00    -0.252 OA
BRANCH   6   8
ATOM      8  C   UNL A   1      40.355  28.926  28.787  1.00  0.00     0.123 C 
ATOM      9  N   UNL A   1      41.843  27.283  27.853  1.00  0.00    -0.321 N 
ATOM     10  C   UNL A   1      40.964  26.626  28.800  1.00  0.00     0.122 C 
ATOM     11  C   UNL A   1      41.439  28.684  27.698  1.00  0.00     0.098 C 
ATOM     12  C   UNL A   1      40.583  27.743  29.747  1.00  0.00     0.039 C 
ATOM     13  C   UNL A   1      41.018  28.979  26.277  1.00  0.00     0.032 C 
BRANCH   9  14
ATOM     14  C   UNL A   1      42.544  26.492  26.978  1.00  0.00     0.320 C 
ATOM     15  O   UNL A   1      41.934  25.585  26.408  1.00  0.00    -0.248 OA
BRANCH  14  16
ATOM     16  N   UNL A   1      43.900  26.667  26.801  1.00  0.00    -0.315 N 
BRANCH  16  17
ATOM     17  C   UNL A   1      44.793  26.160  27.861  1.00  0.00     0.125 C 
BRANCH  17  18
ATOM     18  C   UNL A   1      44.496  24.697  28.296  1.00  0.00     0.002 C 
ATOM     19  C   UNL A   1      45.654  23.731  28.012  1.00  0.00     0.009 C 
ATOM     20  C   UNL A   1      44.190  24.642  29.797  1.00  0.00     0.009 C 
ENDBRANCH  17  18
ENDBRANCH  16  17
BRANCH  16  21
ATOM     21  C   UNL A   1      44.568  27.337  25.677  1.00  0.00     0.221 C 
BRANCH  21  22
ATOM     22  C   UNL A   1      45.667  26.462  25.048  1.00  0.00     0.237 C 
ATOM     23  N   UNL A   1      46.895  27.045  24.892  1.00  0.00    -0.368 N 
ATOM     24  O   UNL A   1      45.500  25.302  24.681  1.00  0.00    -0.273 OA
ATOM     25  H   UNL A   1      47.039  27.975  25.183  1.00  0.00     0.159 HD
ATOM     26  H   UNL A   1      47.634  26.536  24.488  1.00  0.00     0.159 HD
ENDBRANCH  21  22
ENDBRANCH  16  21
ENDBRANCH  14  16
ENDBRANCH   9  14
ENDBRANCH   6   8
ENDBRANCH   5   6
ENDBRANCH   4   5
ENDBRANCH   3   4
ENDBRANCH   2   3
ENDBRANCH   1   2
BRANCH   1  27
ATOM     27  C   UNL A   1      34.760  33.270  30.397  1.00  0.00     0.188 C 
BRANCH  27  28
ATOM     28  O   UNL A   1      34.682  32.668  31.686  1.00  0.00    -0.376 OA
BRANCH  28  29
ATOM     29  C   UNL A   1      34.427  33.609  32.723  1.00  0.00     0.202 C 
BRANCH  29  30
ATOM     30  C   UNL A   1      35.299  33.291  33.940  1.00  0.00     0.261 C 
BRANCH  30  31
ATOM     31  O   UNL A   1      36.461  32.478  33.657  1.00  0.00    -0.460 OA
BRANCH  31  32
ATOM     32  C   UNL A   1      37.300  32.241  34.693  1.00  0.00     0.338 C 
ATOM     33  O   UNL A   1      37.087  32.492  35.862  1.00  0.00    -0.246 OA
BRANCH  32  34
ATOM     34  C   UNL A   1      38.490  31.494  34.210  1.00  0.00     0.060 A 
ATOM     35  C   UNL A   1      39.757  31.889  34.650  1.00  0.00     0.016 A 
ATOM     36  C   UNL A   1      38.375  30.462  33.273  1.00  0.00     0.016 A 
ATOM     37  C   UNL A   1      40.908  31.282  34.130  1.00  0.00     0.010 A 
ATOM     38  C   UNL A   1      39.533  29.863  32.746  1.00  0.00     0.010 A 
ATOM     39  C   UNL A   1      40.813  30.287  33.148  1.00  0.00    -0.014 A 
BRANCH  39  40
ATOM     40  C   UNL A   1      42.042  29.830  32.430  1.00  0.00     0.031 A 
ATOM     41  C   UNL A   1      42.750  28.590  32.915  1.00  0.00     0.074 A 
ATOM     42  C   UNL A   1      42.509  30.455  31.331  1.00  0.00     0.049 A 
ATOM     43  N   UNL A   1      43.882  28.060  32.520  1.00  0.00    -0.248 NA
ATOM     44  C   UNL A   1      42.083  27.841  33.992  1.00  0.00     0.031 C 
ATOM     45  C   UNL A   1      41.886  31.603  30.681  1.00  0.00     0.029 A 
ATOM     46  N   UNL A   1      43.630  30.204  30.568  1.00  0.00    -0.354 N 
ATOM     47  C   UNL A   1      44.076  26.939  33.317  1.00  0.00     0.074 A 
ATOM     48  C   UNL A   1      42.950  26.866  34.223  1.00  0.00     0.031 C 
ATOM     49  C   UNL A   1      42.639  31.970  29.627  1.00  0.00     0.029 A 
ATOM     50  C   UNL A   1      43.823  31.114  29.554  1.00  0.00     0.049 A 
ATOM     51  H   UNL A   1      44.235  29.446  30.733  1.00  0.00     0.167 HD
ATOM     52  C   UNL A   1      45.101  26.052  33.301  1.00  0.00     0.037 A 
ATOM     53  C   UNL A   1      44.851  31.262  28.692  1.00  0.00     0.037 A 
ATOM     54  C   UNL A   1      46.210  26.096  32.382  1.00  0.00     0.049 A 
ATOM     55  C   UNL A   1      46.019  30.304  28.743  1.00  0.00     0.074 A 
ATOM     56  C   UNL A   1      47.285  25.229  32.287  1.00  0.00     0.029 A 
ATOM     57  N   UNL A   1      46.389  27.060  31.401  1.00  0.00    -0.354 N 
ATOM     58  N   UNL A   1      46.206  29.259  29.512  1.00  0.00    -0.248 NA
ATOM     59  C   UNL A   1      47.124  30.550  27.802  1.00  0.00     0.031 C 
ATOM     60  C   UNL A   1      48.149  25.704  31.296  1.00  0.00     0.029 A 
ATOM     61  C   UNL A   1      47.574  26.825  30.720  1.00  0.00     0.049 A 
ATOM     62  H   UNL A   1      45.767  27.800  31.216  1.00  0.00     0.167 HD
ATOM     63  C   UNL A   1      47.424  28.710  29.128  1.00  0.00     0.074 A 
ATOM     64  C   UNL A   1      47.927  29.524  28.044  1.00  0.00     0.031 C 
ATOM     65  C   UNL A   1      48.068  27.628  29.631  1.00  0.00     0.037 A 
BRANCH  52  66
ATOM     66  C   UNL A   1      45.110  24.976  34.348  1.00  0.00     0.064 A 
ATOM     67  C   UNL A   1      44.694  23.665  34.079  1.00  0.00     0.173 A 
ATOM     68  C   UNL A   1      45.603  25.257  35.633  1.00  0.00     0.173 A 
ATOM     69  F   UNL A   1      44.205  23.344  32.872  1.00  0.00    -0.203 F 
ATOM     70  C   UNL A   1      44.750  22.681  35.065  1.00  0.00     0.198 A 
ATOM     71  C   UNL A   1      45.688  24.265  36.604  1.00  0.00     0.198 A 
ATOM     72  F   UNL A   1      46.023  26.494  35.940  1.00  0.00    -0.203 F 
ATOM     73  F   UNL A   1      44.308  21.443  34.799  1.00  0.00    -0.200 F 
ATOM     74  C   UNL A   1      45.255  22.979  36.321  1.00  0.00     0.200 A 
ATOM     75  F   UNL A   1      46.195  24.552  37.811  1.00  0.00    -0.200 F 
ATOM     76  F   UNL A   1      45.323  22.027  37.262  1.00  0.00    -0.200 F 
ENDBRANCH  52  66
BRANCH  53  77
ATOM     77  C   UNL A   1      44.867  32.405  27.731  1.00  0.00     0.064 A 
ATOM     78  C   UNL A   1      45.473  33.628  28.053  1.00  0.00     0.173 A 
ATOM     79  C   UNL A   1      44.207  32.316  26.496  1.00  0.00     0.173 A 
ATOM     80  F   UNL A   1      46.084  33.783  29.238  1.00  0.00    -0.203 F 
ATOM     81  C   UNL A   1      45.391  34.724  27.194  1.00  0.00     0.198 A 
ATOM     82  C   UNL A   1      44.159  33.399  25.621  1.00  0.00     0.198 A 
ATOM     83  F   UNL A   1      43.592  31.178  26.141  1.00  0.00    -0.203 F 
ATOM     84  F   UNL A   1      45.913  35.902  27.561  1.00  0.00    -0.200 F 
ATOM     85  C   UNL A   1      44.740  34.606  25.976  1.00  0.00     0.200 A 
ATOM     86  F   UNL A   1      43.532  33.279  24.442  1.00  0.00    -0.200 F 
ATOM     87  F   UNL A   1      44.654  35.662  25.153  1.00  0.00    -0.200 F 
ENDBRANCH  53  77
BRANCH  65  88
ATOM     88  C   UNL A   1      49.364  27.219  28.984  1.00  0.00     0.064 A 
ATOM     89  C   UNL A   1      50.599  27.745  29.394  1.00  0.00     0.173 A 
ATOM     90  C   UNL A   1      49.373  26.258  27.961  1.00  0.00     0.173 A 
ATOM     91  F   UNL A   1      50.651  28.673  30.360  1.00  0.00    -0.203 F 
ATOM     92  C   UNL A   1      51.787  27.350  28.781  1.00  0.00     0.198 A 
ATOM     93  C   UNL A   1      50.565  25.839  27.375  1.00  0.00     0.198 A 
ATOM     94  F   UNL A   1      48.223  25.712  27.535  1.00  0.00    -0.203 F 
ATOM     95  F   UNL A   1      52.948  27.908  29.151  1.00  0.00    -0.200 F 
ATOM     96  C   UNL A   1      51.770  26.392  27.778  1.00  0.00     0.200 A 
ATOM     97  F   UNL A   1      50.546  24.899  26.420  1.00  0.00    -0.200 F 
ATOM     98  F   UNL A   1      52.914  26.008  27.195  1.00  0.00    -0.200 F 
ENDBRANCH  65  88
ENDBRANCH  39  40
ENDBRANCH  32  34
ENDBRANCH  31  32
ENDBRANCH  30  31
ENDBRANCH  29  30
ENDBRANCH  28  29
ENDBRANCH  27  28
ENDBRANCH   1  27
TORSDOF 23
ENDMDL
