MODEL 1
REMARK VINA RESULT:     -12.0      0.000      0.000
REMARK SMILES Cc1cc2nc(S/C(=C\c3ccc(O)cc3)C(=O)OCCOCCOCCOC(=O)c3ccc(-c4c5nc(c(-c6c(F)c(F)c(F)c(F)c6F)c6ccc([nH]6)c(-c6c(F)c(F)c(F)c(F)c6F)c6nc(c(-c7c(F)c(F)c(F)c(F)c7F)c7ccc4[nH]7)C=C6)C=C5)cc3)[nH]c2cc1C
REMARK SMILES IDX 23 1 22 2 21 3 20 4 19 5 17 6 18 7 8 8 9 9 7 10 6 11 1 12
REMARK SMILES IDX 2 13 3 14 97 15 4 16 96 17 98 18 5 19 95 20 94 21 10 23
REMARK SMILES IDX 11 24 16 25 12 26 15 27 13 28 14 29 24 31 25 32 26 33 27 34
REMARK SMILES IDX 28 35 29 36 30 37 31 38 32 39 93 40 33 41 92 42 34 43 35 44
REMARK SMILES IDX 36 45 86 46 37 47 91 48 85 49 87 50 38 51 90 52 84 53 83 54
REMARK SMILES IDX 39 56 71 57 51 58 70 59 52 60 55 61 69 62 88 63 53 64 54 65
REMARK SMILES IDX 68 67 89 68 56 69 40 70 41 71 49 72 42 73 43 74 47 75 50 76
REMARK SMILES IDX 44 77 45 78 48 79 46 80 72 81 73 82 81 83 74 84 75 85 79 86
REMARK SMILES IDX 82 87 76 88 77 89 80 90 78 91 57 92 58 93 66 94 59 95 60 96
REMARK SMILES IDX 64 97 67 98 61 99 62 100 65 101 63 102
REMARK H PARENT 94 22 14 30 87 55 55 66
REMARK Flexibility Score: inf
ROOT
ATOM      1  C   UNL A   1      39.591  20.844  26.303  1.00  0.00     0.188 C 
ENDROOT
BRANCH   1   2
ATOM      2  O   UNL A   1      38.568  21.539  25.599  1.00  0.00    -0.376 OA
BRANCH   2   3
ATOM      3  C   UNL A   1      38.482  22.956  25.701  1.00  0.00     0.202 C 
BRANCH   3   4
ATOM      4  C   UNL A   1      37.200  23.601  26.250  1.00  0.00     0.261 C 
BRANCH   4   5
ATOM      5  O   UNL A   1      36.294  24.074  25.239  1.00  0.00    -0.459 OA
BRANCH   5   6
ATOM      6  C   UNL A   1      34.964  23.871  25.460  1.00  0.00     0.345 C 
ATOM      7  O   UNL A   1      34.241  24.599  26.126  1.00  0.00    -0.246 OA
BRANCH   6   8
ATOM      8  C   UNL A   1      34.461  22.678  24.674  1.00  0.00     0.101 C 
ATOM      9  C   UNL A   1      34.520  21.485  25.302  1.00  0.00     0.031 C 
BRANCH   8  10
ATOM     10  S   UNL A   1      34.002  23.124  23.060  1.00  0.00    -0.044 SA
BRANCH  10  11
ATOM     11  C   UNL A   1      32.923  24.461  23.122  1.00  0.00     0.171 A 
ATOM     12  C   UNL A   1      30.106  29.602  22.268  1.00  0.00     0.044 C 
ATOM     13  C   UNL A   1      30.395  28.174  22.652  1.00  0.00    -0.046 A 
ATOM     14  C   UNL A   1      31.683  27.666  22.371  1.00  0.00     0.034 A 
ATOM     15  C   UNL A   1      29.457  27.369  23.333  1.00  0.00    -0.046 A 
ATOM     16  C   UNL A   1      32.023  26.370  22.786  1.00  0.00     0.090 A 
ATOM     17  C   UNL A   1      29.843  26.123  23.867  1.00  0.00     0.032 A 
ATOM     18  C   UNL A   1      28.021  27.791  23.505  1.00  0.00     0.044 C 
ATOM     19  N   UNL A   1      33.142  25.615  22.528  1.00  0.00    -0.222 NA
ATOM     20  C   UNL A   1      31.125  25.662  23.570  1.00  0.00     0.066 A 
ATOM     21  N   UNL A   1      31.788  24.499  23.877  1.00  0.00    -0.333 N 
ATOM     22  H   UNL A   1      31.498  23.818  24.526  1.00  0.00     0.169 HD
ENDBRANCH  10  11
ENDBRANCH   8  10
BRANCH   9  23
ATOM     23  C   UNL A   1      34.135  20.140  24.868  1.00  0.00    -0.024 A 
ATOM     24  C   UNL A   1      35.027  19.063  24.808  1.00  0.00     0.012 A 
ATOM     25  C   UNL A   1      32.801  19.952  24.470  1.00  0.00     0.012 A 
ATOM     26  C   UNL A   1      34.619  17.849  24.248  1.00  0.00     0.047 A 
ATOM     27  C   UNL A   1      32.391  18.737  23.927  1.00  0.00     0.047 A 
ATOM     28  C   UNL A   1      33.314  17.710  23.784  1.00  0.00     0.115 A 
BRANCH  28  29
ATOM     29  O   UNL A   1      32.914  16.585  23.125  1.00  0.00    -0.508 OA
ATOM     30  H   UNL A   1      33.509  16.139  22.557  1.00  0.00     0.293 HD
ENDBRANCH  28  29
ENDBRANCH   9  23
ENDBRANCH   6   8
ENDBRANCH   5   6
ENDBRANCH   4   5
ENDBRANCH   3   4
ENDBRANCH   2   3
ENDBRANCH   1   2
BRANCH   1  31
ATOM     31  C   UNL A   1      40.534  21.615  27.251  1.00  0.00     0.188 C 
BRANCH  31  32
ATOM     32  O   UNL A   1      41.835  21.087  27.328  1.00  0.00    -0.376 OA
BRANCH  32  33
ATOM     33  C   UNL A   1      42.526  20.767  26.133  1.00  0.00     0.202 C 
BRANCH  33  34
ATOM     34  C   UNL A   1      43.396  21.761  25.335  1.00  0.00     0.261 C 
BRANCH  34  35
ATOM     35  O   UNL A   1      42.815  23.007  24.932  1.00  0.00    -0.460 OA
BRANCH  35  36
ATOM     36  C   UNL A   1      43.599  24.106  25.005  1.00  0.00     0.338 C 
ATOM     37  O   UNL A   1      44.563  24.376  24.305  1.00  0.00    -0.246 OA
BRANCH  36  38
ATOM     38  C   UNL A   1      42.988  25.045  25.967  1.00  0.00     0.060 A 
ATOM     39  C   UNL A   1      43.525  26.333  26.097  1.00  0.00     0.016 A 
ATOM     40  C   UNL A   1      41.890  24.655  26.736  1.00  0.00     0.016 A 
ATOM     41  C   UNL A   1      42.971  27.234  27.010  1.00  0.00     0.010 A 
ATOM     42  C   UNL A   1      41.354  25.549  27.667  1.00  0.00     0.010 A 
ATOM     43  C   UNL A   1      41.906  26.834  27.827  1.00  0.00    -0.014 A 
BRANCH  43  44
ATOM     44  C   UNL A   1      41.474  27.690  28.961  1.00  0.00     0.031 A 
ATOM     45  C   UNL A   1      42.228  27.598  30.259  1.00  0.00     0.074 A 
ATOM     46  C   UNL A   1      40.437  28.538  28.844  1.00  0.00     0.049 A 
ATOM     47  N   UNL A   1      41.995  28.187  31.404  1.00  0.00    -0.248 NA
ATOM     48  C   UNL A   1      43.404  26.714  30.265  1.00  0.00     0.031 C 
ATOM     49  C   UNL A   1      39.656  28.755  27.629  1.00  0.00     0.029 A 
ATOM     50  N   UNL A   1      39.858  29.368  29.773  1.00  0.00    -0.354 N 
ATOM     51  C   UNL A   1      42.987  27.741  32.265  1.00  0.00     0.074 A 
ATOM     52  C   UNL A   1      43.805  26.806  31.524  1.00  0.00     0.031 C 
ATOM     53  C   UNL A   1      38.687  29.649  27.891  1.00  0.00     0.029 A 
ATOM     54  C   UNL A   1      38.757  30.039  29.298  1.00  0.00     0.049 A 
ATOM     55  H   UNL A   1      40.199  29.471  30.691  1.00  0.00     0.167 HD
ATOM     56  C   UNL A   1      43.203  28.086  33.558  1.00  0.00     0.037 A 
ATOM     57  C   UNL A   1      37.894  30.853  29.938  1.00  0.00     0.037 A 
ATOM     58  C   UNL A   1      42.386  29.014  34.295  1.00  0.00     0.049 A 
ATOM     59  C   UNL A   1      38.104  31.155  31.401  1.00  0.00     0.074 A 
ATOM     60  C   UNL A   1      42.535  29.445  35.602  1.00  0.00     0.029 A 
ATOM     61  N   UNL A   1      41.258  29.647  33.792  1.00  0.00    -0.354 N 
ATOM     62  N   UNL A   1      39.059  30.753  32.205  1.00  0.00    -0.248 NA
ATOM     63  C   UNL A   1      37.112  32.027  32.047  1.00  0.00     0.031 C 
ATOM     64  C   UNL A   1      41.461  30.286  35.910  1.00  0.00     0.029 A 
ATOM     65  C   UNL A   1      40.681  30.436  34.774  1.00  0.00     0.049 A 
ATOM     66  H   UNL A   1      40.918  29.549  32.873  1.00  0.00     0.167 HD
ATOM     67  C   UNL A   1      38.804  31.347  33.435  1.00  0.00     0.074 A 
ATOM     68  C   UNL A   1      37.610  32.149  33.269  1.00  0.00     0.031 C 
ATOM     69  C   UNL A   1      39.495  31.237  34.597  1.00  0.00     0.037 A 
BRANCH  56  70
ATOM     70  C   UNL A   1      44.352  27.430  34.268  1.00  0.00     0.064 A 
ATOM     71  C   UNL A   1      45.617  28.031  34.346  1.00  0.00     0.173 A 
ATOM     72  C   UNL A   1      44.175  26.192  34.907  1.00  0.00     0.173 A 
ATOM     73  F   UNL A   1      45.844  29.208  33.742  1.00  0.00    -0.203 F 
ATOM     74  C   UNL A   1      46.669  27.406  35.010  1.00  0.00     0.198 A 
ATOM     75  C   UNL A   1      45.219  25.586  35.599  1.00  0.00     0.198 A 
ATOM     76  F   UNL A   1      42.984  25.575  34.867  1.00  0.00    -0.203 F 
ATOM     77  F   UNL A   1      47.882  27.974  35.026  1.00  0.00    -0.200 F 
ATOM     78  C   UNL A   1      46.467  26.188  35.642  1.00  0.00     0.200 A 
ATOM     79  F   UNL A   1      45.018  24.416  36.222  1.00  0.00    -0.200 F 
ATOM     80  F   UNL A   1      47.478  25.591  36.288  1.00  0.00    -0.200 F 
ENDBRANCH  56  70
BRANCH  57  81
ATOM     81  C   UNL A   1      36.734  31.430  29.207  1.00  0.00     0.064 A 
ATOM     82  C   UNL A   1      36.686  32.794  28.883  1.00  0.00     0.173 A 
ATOM     83  C   UNL A   1      35.632  30.638  28.850  1.00  0.00     0.173 A 
ATOM     84  F   UNL A   1      37.698  33.600  29.233  1.00  0.00    -0.203 F 
ATOM     85  C   UNL A   1      35.574  33.345  28.249  1.00  0.00     0.198 A 
ATOM     86  C   UNL A   1      34.534  31.185  28.187  1.00  0.00     0.198 A 
ATOM     87  F   UNL A   1      35.620  29.330  29.146  1.00  0.00    -0.203 F 
ATOM     88  F   UNL A   1      35.530  34.662  28.005  1.00  0.00    -0.200 F 
ATOM     89  C   UNL A   1      34.502  32.539  27.895  1.00  0.00     0.200 A 
ATOM     90  F   UNL A   1      33.504  30.401  27.843  1.00  0.00    -0.200 F 
ATOM     91  F   UNL A   1      33.432  33.071  27.289  1.00  0.00    -0.200 F 
ENDBRANCH  57  81
BRANCH  69  92
ATOM     92  C   UNL A   1      39.005  32.033  35.775  1.00  0.00     0.064 A 
ATOM     93  C   UNL A   1      38.192  31.465  36.767  1.00  0.00     0.173 A 
ATOM     94  C   UNL A   1      39.393  33.373  35.936  1.00  0.00     0.173 A 
ATOM     95  F   UNL A   1      37.782  30.192  36.656  1.00  0.00    -0.203 F 
ATOM     96  C   UNL A   1      37.761  32.216  37.858  1.00  0.00     0.198 A 
ATOM     97  C   UNL A   1      38.990  34.110  37.047  1.00  0.00     0.198 A 
ATOM     98  F   UNL A   1      40.179  33.965  35.025  1.00  0.00    -0.203 F 
ATOM     99  F   UNL A   1      36.941  31.666  38.764  1.00  0.00    -0.200 F 
ATOM    100  C   UNL A   1      38.167  33.533  38.002  1.00  0.00     0.200 A 
ATOM    101  F   UNL A   1      39.400  35.377  37.193  1.00  0.00    -0.200 F 
ATOM    102  F   UNL A   1      37.760  34.250  39.058  1.00  0.00    -0.200 F 
ENDBRANCH  69  92
ENDBRANCH  43  44
ENDBRANCH  36  38
ENDBRANCH  35  36
ENDBRANCH  34  35
ENDBRANCH  33  34
ENDBRANCH  32  33
ENDBRANCH  31  32
ENDBRANCH   1  31
TORSDOF 21
ENDMDL
MODEL 2
REMARK VINA RESULT:     -11.9      4.597      7.952
REMARK SMILES Cc1cc2nc(S/C(=C\c3ccc(O)cc3)C(=O)OCCOCCOCCOC(=O)c3ccc(-c4c5nc(c(-c6c(F)c(F)c(F)c(F)c6F)c6ccc([nH]6)c(-c6c(F)c(F)c(F)c(F)c6F)c6nc(c(-c7c(F)c(F)c(F)c(F)c7F)c7ccc4[nH]7)C=C6)C=C5)cc3)[nH]c2cc1C
REMARK SMILES IDX 23 1 22 2 21 3 20 4 19 5 17 6 18 7 8 8 9 9 7 10 6 11 1 12
REMARK SMILES IDX 2 13 3 14 97 15 4 16 96 17 98 18 5 19 95 20 94 21 10 23
REMARK SMILES IDX 11 24 16 25 12 26 15 27 13 28 14 29 24 31 25 32 26 33 27 34
REMARK SMILES IDX 28 35 29 36 30 37 31 38 32 39 93 40 33 41 92 42 34 43 35 44
REMARK SMILES IDX 36 45 86 46 37 47 91 48 85 49 87 50 38 51 90 52 84 53 83 54
REMARK SMILES IDX 39 56 71 57 51 58 70 59 52 60 55 61 69 62 88 63 53 64 54 65
REMARK SMILES IDX 68 67 89 68 56 69 40 70 41 71 49 72 42 73 43 74 47 75 50 76
REMARK SMILES IDX 44 77 45 78 48 79 46 80 72 81 73 82 81 83 74 84 75 85 79 86
REMARK SMILES IDX 82 87 76 88 77 89 80 90 78 91 57 92 58 93 66 94 59 95 60 96
REMARK SMILES IDX 64 97 67 98 61 99 62 100 65 101 63 102
REMARK H PARENT 94 22 14 30 87 55 55 66
REMARK Flexibility Score: inf
ROOT
ATOM      1  C   UNL A   1      33.758  22.364  24.688  1.00  0.00     0.188 C 
ENDROOT
BRANCH   1   2
ATOM      2  O   UNL A   1      32.404  22.690  24.980  1.00  0.00    -0.376 OA
BRANCH   2   3
ATOM      3  C   UNL A   1      31.640  23.434  24.038  1.00  0.00     0.202 C 
BRANCH   3   4
ATOM      4  C   UNL A   1      30.812  24.638  24.515  1.00  0.00     0.261 C 
BRANCH   4   5
ATOM      5  O   UNL A   1      30.478  25.576  23.479  1.00  0.00    -0.459 OA
BRANCH   5   6
ATOM      6  C   UNL A   1      29.403  26.384  23.702  1.00  0.00     0.345 C 
ATOM      7  O   UNL A   1      28.387  26.056  24.299  1.00  0.00    -0.246 OA
BRANCH   6   8
ATOM      8  C   UNL A   1      29.672  27.791  23.211  1.00  0.00     0.101 C 
ATOM      9  C   UNL A   1      28.592  28.589  23.073  1.00  0.00     0.031 C 
BRANCH   8  10
ATOM     10  S   UNL A   1      31.351  28.026  22.834  1.00  0.00    -0.044 SA
BRANCH  10  11
ATOM     11  C   UNL A   1      32.169  28.627  24.221  1.00  0.00     0.171 A 
ATOM     12  C   UNL A   1      36.025  29.704  28.587  1.00  0.00     0.044 C 
ATOM     13  C   UNL A   1      34.906  29.869  27.592  1.00  0.00    -0.046 A 
ATOM     14  C   UNL A   1      34.677  28.814  26.681  1.00  0.00     0.034 A 
ATOM     15  C   UNL A   1      34.055  30.995  27.590  1.00  0.00    -0.046 A 
ATOM     16  C   UNL A   1      33.594  28.889  25.792  1.00  0.00     0.090 A 
ATOM     17  C   UNL A   1      32.893  31.007  26.793  1.00  0.00     0.032 A 
ATOM     18  C   UNL A   1      34.353  32.220  28.414  1.00  0.00     0.044 C 
ATOM     19  N   UNL A   1      33.241  28.071  24.745  1.00  0.00    -0.222 NA
ATOM     20  C   UNL A   1      32.702  29.944  25.912  1.00  0.00     0.066 A 
ATOM     21  N   UNL A   1      31.731  29.672  24.980  1.00  0.00    -0.333 N 
ATOM     22  H   UNL A   1      30.873  30.145  24.879  1.00  0.00     0.169 HD
ENDBRANCH  10  11
ENDBRANCH   8  10
BRANCH   9  23
ATOM     23  C   UNL A   1      28.464  29.980  22.630  1.00  0.00    -0.024 A 
ATOM     24  C   UNL A   1      28.475  31.072  23.506  1.00  0.00     0.012 A 
ATOM     25  C   UNL A   1      28.297  30.203  21.254  1.00  0.00     0.012 A 
ATOM     26  C   UNL A   1      28.204  32.356  23.023  1.00  0.00     0.047 A 
ATOM     27  C   UNL A   1      28.043  31.484  20.772  1.00  0.00     0.047 A 
ATOM     28  C   UNL A   1      27.960  32.543  21.665  1.00  0.00     0.115 A 
BRANCH  28  29
ATOM     29  O   UNL A   1      27.576  33.756  21.176  1.00  0.00    -0.508 OA
ATOM     30  H   UNL A   1      26.769  33.838  20.707  1.00  0.00     0.293 HD
ENDBRANCH  28  29
ENDBRANCH   9  23
ENDBRANCH   6   8
ENDBRANCH   5   6
ENDBRANCH   4   5
ENDBRANCH   3   4
ENDBRANCH   2   3
ENDBRANCH   1   2
BRANCH   1  31
ATOM     31  C   UNL A   1      34.407  21.119  25.331  1.00  0.00     0.188 C 
BRANCH  31  32
ATOM     32  O   UNL A   1      35.705  21.335  25.826  1.00  0.00    -0.376 OA
BRANCH  32  33
ATOM     33  C   UNL A   1      36.818  21.118  24.976  1.00  0.00     0.202 C 
BRANCH  33  34
ATOM     34  C   UNL A   1      38.119  20.407  25.406  1.00  0.00     0.261 C 
BRANCH  34  35
ATOM     35  O   UNL A   1      39.315  21.186  25.524  1.00  0.00    -0.460 OA
BRANCH  35  36
ATOM     36  C   UNL A   1      40.010  21.079  26.679  1.00  0.00     0.338 C 
ATOM     37  O   UNL A   1      40.402  20.053  27.216  1.00  0.00    -0.246 OA
BRANCH  36  38
ATOM     38  C   UNL A   1      40.392  22.437  27.116  1.00  0.00     0.060 A 
ATOM     39  C   UNL A   1      39.741  23.543  26.552  1.00  0.00     0.016 A 
ATOM     40  C   UNL A   1      41.389  22.617  28.077  1.00  0.00     0.016 A 
ATOM     41  C   UNL A   1      40.095  24.836  26.941  1.00  0.00     0.010 A 
ATOM     42  C   UNL A   1      41.759  23.913  28.446  1.00  0.00     0.010 A 
ATOM     43  C   UNL A   1      41.132  25.030  27.862  1.00  0.00    -0.014 A 
BRANCH  43  44
ATOM     44  C   UNL A   1      41.678  26.392  28.095  1.00  0.00     0.031 A 
ATOM     45  C   UNL A   1      43.055  26.711  27.581  1.00  0.00     0.074 A 
ATOM     46  C   UNL A   1      40.967  27.330  28.744  1.00  0.00     0.049 A 
ATOM     47  N   UNL A   1      43.768  27.799  27.725  1.00  0.00    -0.248 NA
ATOM     48  C   UNL A   1      43.719  25.654  26.803  1.00  0.00     0.031 C 
ATOM     49  C   UNL A   1      39.608  27.162  29.249  1.00  0.00     0.029 A 
ATOM     50  N   UNL A   1      41.304  28.614  29.099  1.00  0.00    -0.354 N 
ATOM     51  C   UNL A   1      44.963  27.555  27.063  1.00  0.00     0.074 A 
ATOM     52  C   UNL A   1      44.895  26.205  26.547  1.00  0.00     0.031 C 
ATOM     53  C   UNL A   1      39.229  28.296  29.864  1.00  0.00     0.029 A 
ATOM     54  C   UNL A   1      40.332  29.256  29.827  1.00  0.00     0.049 A 
ATOM     55  H   UNL A   1      42.161  29.034  28.854  1.00  0.00     0.167 HD
ATOM     56  C   UNL A   1      46.021  28.385  26.894  1.00  0.00     0.037 A 
ATOM     57  C   UNL A   1      40.346  30.467  30.417  1.00  0.00     0.037 A 
ATOM     58  C   UNL A   1      46.088  29.726  27.412  1.00  0.00     0.049 A 
ATOM     59  C   UNL A   1      41.570  31.341  30.288  1.00  0.00     0.074 A 
ATOM     60  C   UNL A   1      47.107  30.653  27.277  1.00  0.00     0.029 A 
ATOM     61  N   UNL A   1      45.099  30.330  28.176  1.00  0.00    -0.354 N 
ATOM     62  N   UNL A   1      42.687  31.117  29.638  1.00  0.00    -0.248 NA
ATOM     63  C   UNL A   1      41.533  32.639  30.977  1.00  0.00     0.031 C 
ATOM     64  C   UNL A   1      46.764  31.792  28.013  1.00  0.00     0.029 A 
ATOM     65  C   UNL A   1      45.499  31.602  28.549  1.00  0.00     0.049 A 
ATOM     66  H   UNL A   1      44.239  29.914  28.418  1.00  0.00     0.167 HD
ATOM     67  C   UNL A   1      43.468  32.254  29.811  1.00  0.00     0.074 A 
ATOM     68  C   UNL A   1      42.691  33.173  30.616  1.00  0.00     0.031 C 
ATOM     69  C   UNL A   1      44.716  32.513  29.346  1.00  0.00     0.037 A 
BRANCH  56  70
ATOM     70  C   UNL A   1      47.208  27.852  26.143  1.00  0.00     0.064 A 
ATOM     71  C   UNL A   1      48.323  27.317  26.804  1.00  0.00     0.173 A 
ATOM     72  C   UNL A   1      47.214  27.849  24.740  1.00  0.00     0.173 A 
ATOM     73  F   UNL A   1      48.374  27.307  28.145  1.00  0.00    -0.203 F 
ATOM     74  C   UNL A   1      49.413  26.826  26.089  1.00  0.00     0.198 A 
ATOM     75  C   UNL A   1      48.290  27.327  24.028  1.00  0.00     0.198 A 
ATOM     76  F   UNL A   1      46.170  28.345  24.057  1.00  0.00    -0.203 F 
ATOM     77  F   UNL A   1      50.490  26.368  26.742  1.00  0.00    -0.200 F 
ATOM     78  C   UNL A   1      49.392  26.825  24.703  1.00  0.00     0.200 A 
ATOM     79  F   UNL A   1      48.261  27.312  22.688  1.00  0.00    -0.200 F 
ATOM     80  F   UNL A   1      50.438  26.345  24.015  1.00  0.00    -0.200 F 
ENDBRANCH  56  70
BRANCH  57  81
ATOM     81  C   UNL A   1      39.170  30.927  31.203  1.00  0.00     0.064 A 
ATOM     82  C   UNL A   1      38.212  31.783  30.642  1.00  0.00     0.173 A 
ATOM     83  C   UNL A   1      38.999  30.549  32.543  1.00  0.00     0.173 A 
ATOM     84  F   UNL A   1      38.348  32.201  29.375  1.00  0.00    -0.203 F 
ATOM     85  C   UNL A   1      37.141  32.260  31.397  1.00  0.00     0.198 A 
ATOM     86  C   UNL A   1      37.910  31.001  33.287  1.00  0.00     0.198 A 
ATOM     87  F   UNL A   1      39.892  29.741  33.134  1.00  0.00    -0.203 F 
ATOM     88  F   UNL A   1      36.273  33.124  30.852  1.00  0.00    -0.200 F 
ATOM     89  C   UNL A   1      36.987  31.862  32.716  1.00  0.00     0.200 A 
ATOM     90  F   UNL A   1      37.763  30.609  34.560  1.00  0.00    -0.200 F 
ATOM     91  F   UNL A   1      35.959  32.323  33.442  1.00  0.00    -0.200 F 
ENDBRANCH  57  81
BRANCH  69  92
ATOM     92  C   UNL A   1      45.309  33.859  29.659  1.00  0.00     0.064 A 
ATOM     93  C   UNL A   1      46.119  34.067  30.785  1.00  0.00     0.173 A 
ATOM     94  C   UNL A   1      45.100  34.944  28.794  1.00  0.00     0.173 A 
ATOM     95  F   UNL A   1      46.342  33.068  31.652  1.00  0.00    -0.203 F 
ATOM     96  C   UNL A   1      46.670  35.319  31.049  1.00  0.00     0.198 A 
ATOM     97  C   UNL A   1      45.683  36.184  29.041  1.00  0.00     0.198 A 
ATOM     98  F   UNL A   1      44.343  34.799  27.695  1.00  0.00    -0.203 F 
ATOM     99  F   UNL A   1      47.397  35.508  32.160  1.00  0.00    -0.200 F 
ATOM    100  C   UNL A   1      46.460  36.373  30.174  1.00  0.00     0.200 A 
ATOM    101  F   UNL A   1      45.493  37.196  28.183  1.00  0.00    -0.200 F 
ATOM    102  F   UNL A   1      47.002  37.573  30.423  1.00  0.00    -0.200 F 
ENDBRANCH  69  92
ENDBRANCH  43  44
ENDBRANCH  36  38
ENDBRANCH  35  36
ENDBRANCH  34  35
ENDBRANCH  33  34
ENDBRANCH  32  33
ENDBRANCH  31  32
ENDBRANCH   1  31
TORSDOF 21
ENDMDL
MODEL 3
REMARK VINA RESULT:     -11.6      5.144     10.473
REMARK SMILES Cc1cc2nc(S/C(=C\c3ccc(O)cc3)C(=O)OCCOCCOCCOC(=O)c3ccc(-c4c5nc(c(-c6c(F)c(F)c(F)c(F)c6F)c6ccc([nH]6)c(-c6c(F)c(F)c(F)c(F)c6F)c6nc(c(-c7c(F)c(F)c(F)c(F)c7F)c7ccc4[nH]7)C=C6)C=C5)cc3)[nH]c2cc1C
REMARK SMILES IDX 23 1 22 2 21 3 20 4 19 5 17 6 18 7 8 8 9 9 7 10 6 11 1 12
REMARK SMILES IDX 2 13 3 14 97 15 4 16 96 17 98 18 5 19 95 20 94 21 10 23
REMARK SMILES IDX 11 24 16 25 12 26 15 27 13 28 14 29 24 31 25 32 26 33 27 34
REMARK SMILES IDX 28 35 29 36 30 37 31 38 32 39 93 40 33 41 92 42 34 43 35 44
REMARK SMILES IDX 36 45 86 46 37 47 91 48 85 49 87 50 38 51 90 52 84 53 83 54
REMARK SMILES IDX 39 56 71 57 51 58 70 59 52 60 55 61 69 62 88 63 53 64 54 65
REMARK SMILES IDX 68 67 89 68 56 69 40 70 41 71 49 72 42 73 43 74 47 75 50 76
REMARK SMILES IDX 44 77 45 78 48 79 46 80 72 81 73 82 81 83 74 84 75 85 79 86
REMARK SMILES IDX 82 87 76 88 77 89 80 90 78 91 57 92 58 93 66 94 59 95 60 96
REMARK SMILES IDX 64 97 67 98 61 99 62 100 65 101 63 102
REMARK H PARENT 94 22 14 30 87 55 55 66
REMARK Flexibility Score: inf
ROOT
ATOM      1  C   UNL A   1      35.308  32.956  28.129  1.00  0.00     0.188 C 
ENDROOT
BRANCH   1   2
ATOM      2  O   UNL A   1      34.627  31.748  28.444  1.00  0.00    -0.376 OA
BRANCH   2   3
ATOM      3  C   UNL A   1      33.629  31.251  27.560  1.00  0.00     0.202 C 
BRANCH   3   4
ATOM      4  C   UNL A   1      33.953  30.062  26.641  1.00  0.00     0.261 C 
BRANCH   4   5
ATOM      5  O   UNL A   1      32.821  29.539  25.927  1.00  0.00    -0.459 OA
BRANCH   5   6
ATOM      6  C   UNL A   1      33.063  29.000  24.699  1.00  0.00     0.345 C 
ATOM      7  O   UNL A   1      33.605  29.580  23.769  1.00  0.00    -0.246 OA
BRANCH   6   8
ATOM      8  C   UNL A   1      32.672  27.537  24.663  1.00  0.00     0.101 C 
ATOM      9  C   UNL A   1      32.135  27.037  25.796  1.00  0.00     0.031 C 
BRANCH   8  10
ATOM     10  S   UNL A   1      33.113  26.795  23.156  1.00  0.00    -0.044 SA
BRANCH  10  11
ATOM     11  C   UNL A   1      33.396  25.118  23.407  1.00  0.00     0.171 A 
ATOM     12  C   UNL A   1      35.572  19.844  25.001  1.00  0.00     0.044 C 
ATOM     13  C   UNL A   1      34.620  20.929  24.570  1.00  0.00    -0.046 A 
ATOM     14  C   UNL A   1      35.131  22.241  24.450  1.00  0.00     0.034 A 
ATOM     15  C   UNL A   1      33.277  20.665  24.226  1.00  0.00    -0.046 A 
ATOM     16  C   UNL A   1      34.301  23.266  23.972  1.00  0.00     0.090 A 
ATOM     17  C   UNL A   1      32.488  21.663  23.620  1.00  0.00     0.032 A 
ATOM     18  C   UNL A   1      32.633  19.330  24.498  1.00  0.00     0.044 C 
ATOM     19  N   UNL A   1      34.516  24.621  23.885  1.00  0.00    -0.222 NA
ATOM     20  C   UNL A   1      33.033  22.942  23.515  1.00  0.00     0.066 A 
ATOM     21  N   UNL A   1      32.532  24.128  23.037  1.00  0.00    -0.333 N 
ATOM     22  H   UNL A   1      31.702  24.244  22.521  1.00  0.00     0.169 HD
ENDBRANCH  10  11
ENDBRANCH   8  10
BRANCH   9  23
ATOM     23  C   UNL A   1      31.651  25.695  26.131  1.00  0.00    -0.024 A 
ATOM     24  C   UNL A   1      32.433  24.732  26.777  1.00  0.00     0.012 A 
ATOM     25  C   UNL A   1      30.338  25.374  25.749  1.00  0.00     0.012 A 
ATOM     26  C   UNL A   1      31.948  23.429  26.932  1.00  0.00     0.047 A 
ATOM     27  C   UNL A   1      29.850  24.081  25.919  1.00  0.00     0.047 A 
ATOM     28  C   UNL A   1      30.673  23.111  26.473  1.00  0.00     0.115 A 
BRANCH  28  29
ATOM     29  O   UNL A   1      30.213  21.828  26.499  1.00  0.00    -0.508 OA
ATOM     30  H   UNL A   1      30.816  21.113  26.455  1.00  0.00     0.293 HD
ENDBRANCH  28  29
ENDBRANCH   9  23
ENDBRANCH   6   8
ENDBRANCH   5   6
ENDBRANCH   4   5
ENDBRANCH   3   4
ENDBRANCH   2   3
ENDBRANCH   1   2
BRANCH   1  31
ATOM     31  C   UNL A   1      34.978  34.251  28.903  1.00  0.00     0.188 C 
BRANCH  31  32
ATOM     32  O   UNL A   1      33.986  34.099  29.887  1.00  0.00    -0.376 OA
BRANCH  32  33
ATOM     33  C   UNL A   1      34.270  34.472  31.224  1.00  0.00     0.202 C 
BRANCH  33  34
ATOM     34  C   UNL A   1      34.374  33.480  32.402  1.00  0.00     0.261 C 
BRANCH  34  35
ATOM     35  O   UNL A   1      35.148  32.288  32.226  1.00  0.00    -0.460 OA
BRANCH  35  36
ATOM     36  C   UNL A   1      36.249  32.147  32.998  1.00  0.00     0.338 C 
ATOM     37  O   UNL A   1      36.352  32.387  34.191  1.00  0.00    -0.246 OA
BRANCH  36  38
ATOM     38  C   UNL A   1      37.288  31.467  32.199  1.00  0.00     0.060 A 
ATOM     39  C   UNL A   1      38.260  30.700  32.856  1.00  0.00     0.016 A 
ATOM     40  C   UNL A   1      37.303  31.588  30.808  1.00  0.00     0.016 A 
ATOM     41  C   UNL A   1      39.260  30.059  32.121  1.00  0.00     0.010 A 
ATOM     42  C   UNL A   1      38.320  30.967  30.077  1.00  0.00     0.010 A 
ATOM     43  C   UNL A   1      39.318  30.220  30.731  1.00  0.00    -0.014 A 
BRANCH  43  44
ATOM     44  C   UNL A   1      40.507  29.751  29.975  1.00  0.00     0.031 A 
ATOM     45  C   UNL A   1      41.622  30.725  29.713  1.00  0.00     0.074 A 
ATOM     46  C   UNL A   1      40.601  28.485  29.532  1.00  0.00     0.049 A 
ATOM     47  N   UNL A   1      42.721  30.571  29.018  1.00  0.00    -0.248 NA
ATOM     48  C   UNL A   1      41.474  32.059  30.315  1.00  0.00     0.031 C 
ATOM     49  C   UNL A   1      39.613  27.435  29.759  1.00  0.00     0.029 A 
ATOM     50  N   UNL A   1      41.579  27.875  28.784  1.00  0.00    -0.354 N 
ATOM     51  C   UNL A   1      43.387  31.785  29.094  1.00  0.00     0.074 A 
ATOM     52  C   UNL A   1      42.557  32.678  29.872  1.00  0.00     0.031 C 
ATOM     53  C   UNL A   1      40.027  26.310  29.149  1.00  0.00     0.029 A 
ATOM     54  C   UNL A   1      41.290  26.572  28.459  1.00  0.00     0.049 A 
ATOM     55  H   UNL A   1      42.408  28.329  28.507  1.00  0.00     0.167 HD
ATOM     56  C   UNL A   1      44.590  32.124  28.568  1.00  0.00     0.037 A 
ATOM     57  C   UNL A   1      41.957  25.704  27.674  1.00  0.00     0.037 A 
ATOM     58  C   UNL A   1      45.413  31.235  27.791  1.00  0.00     0.049 A 
ATOM     59  C   UNL A   1      43.252  26.133  27.027  1.00  0.00     0.074 A 
ATOM     60  C   UNL A   1      46.655  31.478  27.232  1.00  0.00     0.029 A 
ATOM     61  N   UNL A   1      45.070  29.934  27.452  1.00  0.00    -0.354 N 
ATOM     62  N   UNL A   1      43.893  27.273  27.124  1.00  0.00    -0.248 NA
ATOM     63  C   UNL A   1      43.917  25.149  26.160  1.00  0.00     0.031 C 
ATOM     64  C   UNL A   1      47.034  30.348  26.501  1.00  0.00     0.029 A 
ATOM     65  C   UNL A   1      46.061  29.374  26.662  1.00  0.00     0.049 A 
ATOM     66  H   UNL A   1      44.244  29.476  27.732  1.00  0.00     0.167 HD
ATOM     67  C   UNL A   1      45.047  27.133  26.362  1.00  0.00     0.074 A 
ATOM     68  C   UNL A   1      45.026  25.790  25.819  1.00  0.00     0.031 C 
ATOM     69  C   UNL A   1      46.034  28.034  26.131  1.00  0.00     0.037 A 
BRANCH  56  70
ATOM     70  C   UNL A   1      45.072  33.530  28.789  1.00  0.00     0.064 A 
ATOM     71  C   UNL A   1      44.735  34.575  27.917  1.00  0.00     0.173 A 
ATOM     72  C   UNL A   1      45.858  33.840  29.910  1.00  0.00     0.173 A 
ATOM     73  F   UNL A   1      43.996  34.331  26.823  1.00  0.00    -0.203 F 
ATOM     74  C   UNL A   1      45.191  35.871  28.140  1.00  0.00     0.198 A 
ATOM     75  C   UNL A   1      46.285  35.142  30.149  1.00  0.00     0.198 A 
ATOM     76  F   UNL A   1      46.206  32.878  30.779  1.00  0.00    -0.203 F 
ATOM     77  F   UNL A   1      44.900  36.843  27.265  1.00  0.00    -0.200 F 
ATOM     78  C   UNL A   1      45.959  36.155  29.260  1.00  0.00     0.200 A 
ATOM     79  F   UNL A   1      47.013  35.418  31.240  1.00  0.00    -0.200 F 
ATOM     80  F   UNL A   1      46.391  37.405  29.479  1.00  0.00    -0.200 F 
ENDBRANCH  56  70
BRANCH  57  81
ATOM     81  C   UNL A   1      41.408  24.343  27.433  1.00  0.00     0.064 A 
ATOM     82  C   UNL A   1      40.266  24.150  26.642  1.00  0.00     0.173 A 
ATOM     83  C   UNL A   1      41.991  23.209  28.020  1.00  0.00     0.173 A 
ATOM     84  F   UNL A   1      39.651  25.205  26.088  1.00  0.00    -0.203 F 
ATOM     85  C   UNL A   1      39.718  22.881  26.465  1.00  0.00     0.198 A 
ATOM     86  C   UNL A   1      41.460  21.937  27.815  1.00  0.00     0.198 A 
ATOM     87  F   UNL A   1      43.077  23.337  28.796  1.00  0.00    -0.203 F 
ATOM     88  F   UNL A   1      38.592  22.735  25.752  1.00  0.00    -0.200 F 
ATOM     89  C   UNL A   1      40.319  21.775  27.045  1.00  0.00     0.200 A 
ATOM     90  F   UNL A   1      42.048  20.870  28.373  1.00  0.00    -0.200 F 
ATOM     91  F   UNL A   1      39.789  20.556  26.876  1.00  0.00    -0.200 F 
ENDBRANCH  57  81
BRANCH  69  92
ATOM     92  C   UNL A   1      47.197  27.591  25.288  1.00  0.00     0.064 A 
ATOM     93  C   UNL A   1      47.244  27.829  23.907  1.00  0.00     0.173 A 
ATOM     94  C   UNL A   1      48.301  26.957  25.880  1.00  0.00     0.173 A 
ATOM     95  F   UNL A   1      46.210  28.420  23.288  1.00  0.00    -0.203 F 
ATOM     96  C   UNL A   1      48.338  27.423  23.146  1.00  0.00     0.198 A 
ATOM     97  C   UNL A   1      49.409  26.585  25.122  1.00  0.00     0.198 A 
ATOM     98  F   UNL A   1      48.316  26.714  27.199  1.00  0.00    -0.203 F 
ATOM     99  F   UNL A   1      48.336  27.614  21.819  1.00  0.00    -0.200 F 
ATOM    100  C   UNL A   1      49.422  26.810  23.754  1.00  0.00     0.200 A 
ATOM    101  F   UNL A   1      50.464  26.011  25.717  1.00  0.00    -0.200 F 
ATOM    102  F   UNL A   1      50.478  26.431  23.023  1.00  0.00    -0.200 F 
ENDBRANCH  69  92
ENDBRANCH  43  44
ENDBRANCH  36  38
ENDBRANCH  35  36
ENDBRANCH  34  35
ENDBRANCH  33  34
ENDBRANCH  32  33
ENDBRANCH  31  32
ENDBRANCH   1  31
TORSDOF 21
ENDMDL
