MODEL 1
REMARK VINA RESULT:     -11.0      0.000      0.000
REMARK SMILES O=C(C[C@H](NS(=O)(=O)c1cccs1)c1ccccc1Cl)OCCOCCOCCOC(=O)c1ccc(-c2c3nc(c(-c4c(F)c(F)c(F)c(F)c4F)c4ccc([nH]4)c(-c4c(F)c(F)c(F)c(F)c4F)c4nc(c(-c5c(F)c(F)c(F)c(F)c5F)c5ccc2[nH]5)C=C4)C=C3)cc1
REMARK SMILES IDX 25 1 24 2 23 3 22 4 21 5 2 6 1 7 3 8 4 9 14 10 15 11 19 12
REMARK SMILES IDX 16 13 18 14 20 15 17 16 5 17 6 19 7 20 8 21 9 22 10 23 13 24
REMARK SMILES IDX 11 25 12 26 26 27 27 28 28 29 29 30 30 31 31 32 32 33 33 34
REMARK SMILES IDX 34 35 95 36 35 37 94 38 36 39 37 40 38 41 88 42 39 43 93 44
REMARK SMILES IDX 87 45 89 46 40 47 92 48 86 49 85 50 41 52 73 53 53 54 72 55
REMARK SMILES IDX 54 56 57 57 71 58 90 59 55 60 56 61 70 63 91 64 58 65 42 66
REMARK SMILES IDX 43 67 51 68 44 69 45 70 49 71 52 72 46 73 47 74 50 75 48 76
REMARK SMILES IDX 74 77 75 78 83 79 76 80 77 81 81 82 84 83 78 84 79 85 82 86
REMARK SMILES IDX 80 87 59 88 60 89 68 90 61 91 62 92 66 93 69 94 63 95 64 96
REMARK SMILES IDX 67 97 65 98
REMARK H PARENT 5 18 89 51 57 62
REMARK Flexibility Score: inf
ROOT
ATOM      1  C   UNL A   1      31.805  25.884  25.542  1.00  0.00     0.188 C 
ENDROOT
BRANCH   1   2
ATOM      2  O   UNL A   1      32.379  26.361  24.344  1.00  0.00    -0.376 OA
BRANCH   2   3
ATOM      3  C   UNL A   1      31.763  26.108  23.097  1.00  0.00     0.202 C 
BRANCH   3   4
ATOM      4  C   UNL A   1      32.507  25.231  22.091  1.00  0.00     0.261 C 
BRANCH   4   5
ATOM      5  O   UNL A   1      32.955  23.901  22.474  1.00  0.00    -0.463 OA
BRANCH   5   6
ATOM      6  C   UNL A   1      34.086  23.442  23.037  1.00  0.00     0.307 C 
ATOM      7  O   UNL A   1      35.115  23.353  22.368  1.00  0.00    -0.252 OA
BRANCH   6   8
ATOM      8  C   UNL A   1      34.102  23.021  24.469  1.00  0.00     0.147 C 
BRANCH   8   9
ATOM      9  C   UNL A   1      35.020  21.809  24.658  1.00  0.00     0.112 C 
BRANCH   9  10
ATOM     10  C   UNL A   1      36.323  22.272  25.307  1.00  0.00    -0.011 A 
ATOM     11  C   UNL A   1      36.427  23.584  25.814  1.00  0.00     0.007 A 
ATOM     12  C   UNL A   1      37.477  21.460  25.361  1.00  0.00     0.045 A 
ATOM     13  C   UNL A   1      37.631  24.070  26.332  1.00  0.00     0.000 A 
ATOM     14  C   UNL A   1      38.677  21.949  25.892  1.00  0.00     0.021 A 
ATOM     15  Cl  UNL A   1      37.510  19.839  24.761  1.00  0.00    -0.084 Cl
ATOM     16  C   UNL A   1      38.755  23.252  26.373  1.00  0.00     0.002 A 
ENDBRANCH   9  10
BRANCH   9  17
ATOM     17  N   UNL A   1      34.251  20.815  25.448  1.00  0.00    -0.202 NA
ATOM     18  H   UNL A   1      33.786  21.319  26.202  1.00  0.00     0.142 HD
BRANCH  17  19
ATOM     19  S   UNL A   1      33.071  19.913  24.640  1.00  0.00     0.250 S 
ATOM     20  O   UNL A   1      31.881  20.023  25.457  1.00  0.00    -0.206 OA
ATOM     21  O   UNL A   1      33.087  20.285  23.248  1.00  0.00    -0.206 OA
BRANCH  19  22
ATOM     22  C   UNL A   1      33.586  18.229  24.812  1.00  0.00     0.134 A 
ATOM     23  C   UNL A   1      34.747  17.612  24.392  1.00  0.00     0.033 A 
ATOM     24  S   UNL A   1      32.507  17.123  25.537  1.00  0.00    -0.131 S 
ATOM     25  C   UNL A   1      34.687  16.204  24.555  1.00  0.00     0.013 A 
ATOM     26  C   UNL A   1      33.494  15.795  25.104  1.00  0.00     0.066 A 
ENDBRANCH  19  22
ENDBRANCH  17  19
ENDBRANCH   9  17
ENDBRANCH   8   9
ENDBRANCH   6   8
ENDBRANCH   5   6
ENDBRANCH   4   5
ENDBRANCH   3   4
ENDBRANCH   2   3
ENDBRANCH   1   2
BRANCH   1  27
ATOM     27  C   UNL A   1      30.766  26.851  26.127  1.00  0.00     0.188 C 
BRANCH  27  28
ATOM     28  O   UNL A   1      31.035  27.410  27.405  1.00  0.00    -0.376 OA
BRANCH  28  29
ATOM     29  C   UNL A   1      32.056  28.406  27.496  1.00  0.00     0.202 C 
BRANCH  29  30
ATOM     30  C   UNL A   1      31.833  29.767  26.807  1.00  0.00     0.261 C 
BRANCH  30  31
ATOM     31  O   UNL A   1      33.026  30.449  26.353  1.00  0.00    -0.460 OA
BRANCH  31  32
ATOM     32  C   UNL A   1      33.505  31.413  27.177  1.00  0.00     0.338 C 
ATOM     33  O   UNL A   1      32.925  32.414  27.563  1.00  0.00    -0.246 OA
BRANCH  32  34
ATOM     34  C   UNL A   1      34.857  31.069  27.661  1.00  0.00     0.060 A 
ATOM     35  C   UNL A   1      35.160  29.741  27.991  1.00  0.00     0.016 A 
ATOM     36  C   UNL A   1      35.771  32.084  27.944  1.00  0.00     0.016 A 
ATOM     37  C   UNL A   1      36.383  29.424  28.597  1.00  0.00     0.010 A 
ATOM     38  C   UNL A   1      36.986  31.767  28.566  1.00  0.00     0.010 A 
ATOM     39  C   UNL A   1      37.297  30.439  28.910  1.00  0.00    -0.014 A 
BRANCH  39  40
ATOM     40  C   UNL A   1      38.544  30.147  29.668  1.00  0.00     0.031 A 
ATOM     41  C   UNL A   1      39.534  29.153  29.123  1.00  0.00     0.074 A 
ATOM     42  C   UNL A   1      38.772  30.722  30.863  1.00  0.00     0.049 A 
ATOM     43  N   UNL A   1      40.592  28.635  29.697  1.00  0.00    -0.248 NA
ATOM     44  C   UNL A   1      39.300  28.677  27.752  1.00  0.00     0.031 C 
ATOM     45  C   UNL A   1      37.920  31.725  31.498  1.00  0.00     0.029 A 
ATOM     46  N   UNL A   1      39.780  30.514  31.775  1.00  0.00    -0.354 N 
ATOM     47  C   UNL A   1      41.138  27.759  28.767  1.00  0.00     0.074 A 
ATOM     48  C   UNL A   1      40.292  27.811  27.593  1.00  0.00     0.031 C 
ATOM     49  C   UNL A   1      38.416  32.014  32.715  1.00  0.00     0.029 A 
ATOM     50  C   UNL A   1      39.597  31.187  32.957  1.00  0.00     0.049 A 
ATOM     51  H   UNL A   1      40.558  29.937  31.598  1.00  0.00     0.167 HD
ATOM     52  C   UNL A   1      42.242  26.981  28.884  1.00  0.00     0.037 A 
ATOM     53  C   UNL A   1      40.274  31.109  34.120  1.00  0.00     0.037 A 
ATOM     54  C   UNL A   1      43.095  26.935  30.044  1.00  0.00     0.049 A 
ATOM     55  C   UNL A   1      41.450  30.174  34.250  1.00  0.00     0.074 A 
ATOM     56  C   UNL A   1      44.268  26.219  30.222  1.00  0.00     0.029 A 
ATOM     57  N   UNL A   1      42.862  27.617  31.227  1.00  0.00    -0.354 N 
ATOM     58  N   UNL A   1      41.980  29.379  33.354  1.00  0.00    -0.248 NA
ATOM     59  C   UNL A   1      42.114  30.119  35.562  1.00  0.00     0.031 C 
ATOM     60  C   UNL A   1      44.707  26.415  31.534  1.00  0.00     0.029 A 
ATOM     61  C   UNL A   1      43.843  27.300  32.154  1.00  0.00     0.049 A 
ATOM     62  H   UNL A   1      42.112  28.235  31.385  1.00  0.00     0.167 HD
ATOM     63  C   UNL A   1      43.042  28.746  33.988  1.00  0.00     0.074 A 
ATOM     64  C   UNL A   1      43.099  29.264  35.336  1.00  0.00     0.031 C 
ATOM     65  C   UNL A   1      43.893  27.814  33.496  1.00  0.00     0.037 A 
BRANCH  52  66
ATOM     66  C   UNL A   1      42.597  26.078  27.740  1.00  0.00     0.064 A 
ATOM     67  C   UNL A   1      43.511  26.463  26.751  1.00  0.00     0.173 A 
ATOM     68  C   UNL A   1      42.094  24.767  27.698  1.00  0.00     0.173 A 
ATOM     69  F   UNL A   1      44.016  27.706  26.745  1.00  0.00    -0.203 F 
ATOM     70  C   UNL A   1      43.905  25.571  25.756  1.00  0.00     0.198 A 
ATOM     71  C   UNL A   1      42.509  23.871  26.719  1.00  0.00     0.198 A 
ATOM     72  F   UNL A   1      41.224  24.348  28.629  1.00  0.00    -0.203 F 
ATOM     73  F   UNL A   1      44.766  25.965  24.807  1.00  0.00    -0.200 F 
ATOM     74  C   UNL A   1      43.413  24.274  25.748  1.00  0.00     0.200 A 
ATOM     75  F   UNL A   1      42.046  22.614  26.724  1.00  0.00    -0.200 F 
ATOM     76  F   UNL A   1      43.813  23.409  24.805  1.00  0.00    -0.200 F 
ENDBRANCH  52  66
BRANCH  53  77
ATOM     77  C   UNL A   1      39.818  31.864  35.314  1.00  0.00     0.064 A 
ATOM     78  C   UNL A   1      38.797  31.372  36.140  1.00  0.00     0.173 A 
ATOM     79  C   UNL A   1      40.315  33.148  35.577  1.00  0.00     0.173 A 
ATOM     80  F   UNL A   1      38.265  30.165  35.898  1.00  0.00    -0.203 F 
ATOM     81  C   UNL A   1      38.267  32.151  37.167  1.00  0.00     0.198 A 
ATOM     82  C   UNL A   1      39.791  33.919  36.608  1.00  0.00     0.198 A 
ATOM     83  F   UNL A   1      41.298  33.659  34.822  1.00  0.00    -0.203 F 
ATOM     84  F   UNL A   1      37.252  31.684  37.904  1.00  0.00    -0.200 F 
ATOM     85  C   UNL A   1      38.764  33.424  37.398  1.00  0.00     0.200 A 
ATOM     86  F   UNL A   1      40.285  35.143  36.842  1.00  0.00    -0.200 F 
ATOM     87  F   UNL A   1      38.255  34.177  38.383  1.00  0.00    -0.200 F 
ENDBRANCH  53  77
BRANCH  65  88
ATOM     88  C   UNL A   1      44.968  27.302  34.410  1.00  0.00     0.064 A 
ATOM     89  C   UNL A   1      46.200  27.959  34.535  1.00  0.00     0.173 A 
ATOM     90  C   UNL A   1      44.748  26.164  35.202  1.00  0.00     0.173 A 
ATOM     91  F   UNL A   1      46.468  29.039  33.784  1.00  0.00    -0.203 F 
ATOM     92  C   UNL A   1      47.180  27.487  35.404  1.00  0.00     0.198 A 
ATOM     93  C   UNL A   1      45.718  25.712  36.094  1.00  0.00     0.198 A 
ATOM     94  F   UNL A   1      43.587  25.500  35.124  1.00  0.00    -0.203 F 
ATOM     95  F   UNL A   1      48.368  28.105  35.473  1.00  0.00    -0.200 F 
ATOM     96  C   UNL A   1      46.935  26.370  36.189  1.00  0.00     0.200 A 
ATOM     97  F   UNL A   1      45.475  24.641  36.861  1.00  0.00    -0.200 F 
ATOM     98  F   UNL A   1      47.875  25.923  37.033  1.00  0.00    -0.200 F 
ENDBRANCH  65  88
ENDBRANCH  39  40
ENDBRANCH  32  34
ENDBRANCH  31  32
ENDBRANCH  30  31
ENDBRANCH  29  30
ENDBRANCH  28  29
ENDBRANCH  27  28
ENDBRANCH   1  27
TORSDOF 22
ENDMDL
MODEL 2
REMARK VINA RESULT:     -10.9      4.974      9.198
REMARK SMILES O=C(C[C@H](NS(=O)(=O)c1cccs1)c1ccccc1Cl)OCCOCCOCCOC(=O)c1ccc(-c2c3nc(c(-c4c(F)c(F)c(F)c(F)c4F)c4ccc([nH]4)c(-c4c(F)c(F)c(F)c(F)c4F)c4nc(c(-c5c(F)c(F)c(F)c(F)c5F)c5ccc2[nH]5)C=C4)C=C3)cc1
REMARK SMILES IDX 25 1 24 2 23 3 22 4 21 5 2 6 1 7 3 8 4 9 14 10 15 11 19 12
REMARK SMILES IDX 16 13 18 14 20 15 17 16 5 17 6 19 7 20 8 21 9 22 10 23 13 24
REMARK SMILES IDX 11 25 12 26 26 27 27 28 28 29 29 30 30 31 31 32 32 33 33 34
REMARK SMILES IDX 34 35 95 36 35 37 94 38 36 39 37 40 38 41 88 42 39 43 93 44
REMARK SMILES IDX 87 45 89 46 40 47 92 48 86 49 85 50 41 52 73 53 53 54 72 55
REMARK SMILES IDX 54 56 57 57 71 58 90 59 55 60 56 61 70 63 91 64 58 65 42 66
REMARK SMILES IDX 43 67 51 68 44 69 45 70 49 71 52 72 46 73 47 74 50 75 48 76
REMARK SMILES IDX 74 77 75 78 83 79 76 80 77 81 81 82 84 83 78 84 79 85 82 86
REMARK SMILES IDX 80 87 59 88 60 89 68 90 61 91 62 92 66 93 69 94 63 95 64 96
REMARK SMILES IDX 67 97 65 98
REMARK H PARENT 5 18 89 51 57 62
REMARK Flexibility Score: inf
ROOT
ATOM      1  C   UNL A   1      33.971  33.285  27.945  1.00  0.00     0.188 C 
ENDROOT
BRANCH   1   2
ATOM      2  O   UNL A   1      33.280  32.058  28.033  1.00  0.00    -0.376 OA
BRANCH   2   3
ATOM      3  C   UNL A   1      33.659  30.956  27.233  1.00  0.00     0.202 C 
BRANCH   3   4
ATOM      4  C   UNL A   1      32.595  29.911  26.897  1.00  0.00     0.261 C 
BRANCH   4   5
ATOM      5  O   UNL A   1      32.967  28.690  26.199  1.00  0.00    -0.463 OA
BRANCH   5   6
ATOM      6  C   UNL A   1      33.226  28.413  24.910  1.00  0.00     0.307 C 
ATOM      7  O   UNL A   1      33.307  29.326  24.088  1.00  0.00    -0.252 OA
BRANCH   6   8
ATOM      8  C   UNL A   1      33.401  27.001  24.459  1.00  0.00     0.147 C 
BRANCH   8   9
ATOM      9  C   UNL A   1      32.040  26.366  24.154  1.00  0.00     0.112 C 
BRANCH   9  10
ATOM     10  C   UNL A   1      31.859  25.136  25.042  1.00  0.00    -0.011 A 
ATOM     11  C   UNL A   1      32.510  25.071  26.291  1.00  0.00     0.007 A 
ATOM     12  C   UNL A   1      31.115  24.007  24.637  1.00  0.00     0.045 A 
ATOM     13  C   UNL A   1      32.439  23.925  27.089  1.00  0.00     0.000 A 
ATOM     14  C   UNL A   1      31.038  22.867  25.445  1.00  0.00     0.021 A 
ATOM     15  Cl  UNL A   1      30.279  23.931  23.125  1.00  0.00    -0.084 Cl
ATOM     16  C   UNL A   1      31.702  22.824  26.667  1.00  0.00     0.002 A 
ENDBRANCH   9  10
BRANCH   9  17
ATOM     17  N   UNL A   1      31.024  27.430  24.349  1.00  0.00    -0.202 NA
ATOM     18  H   UNL A   1      31.521  28.316  24.424  1.00  0.00     0.142 HD
BRANCH  17  19
ATOM     19  S   UNL A   1      29.840  27.614  23.157  1.00  0.00     0.250 S 
ATOM     20  O   UNL A   1      30.538  27.466  21.899  1.00  0.00    -0.206 OA
ATOM     21  O   UNL A   1      28.707  26.795  23.510  1.00  0.00    -0.206 OA
BRANCH  19  22
ATOM     22  C   UNL A   1      29.384  29.322  23.226  1.00  0.00     0.134 A 
ATOM     23  C   UNL A   1      29.933  30.355  23.960  1.00  0.00     0.033 A 
ATOM     24  S   UNL A   1      28.026  29.835  22.328  1.00  0.00    -0.131 S 
ATOM     25  C   UNL A   1      29.151  31.537  23.878  1.00  0.00     0.013 A 
ATOM     26  C   UNL A   1      28.044  31.372  23.077  1.00  0.00     0.066 A 
ENDBRANCH  19  22
ENDBRANCH  17  19
ENDBRANCH   9  17
ENDBRANCH   8   9
ENDBRANCH   6   8
ENDBRANCH   5   6
ENDBRANCH   4   5
ENDBRANCH   3   4
ENDBRANCH   2   3
ENDBRANCH   1   2
BRANCH   1  27
ATOM     27  C   UNL A   1      33.114  34.481  28.385  1.00  0.00     0.188 C 
BRANCH  27  28
ATOM     28  O   UNL A   1      33.793  35.640  28.847  1.00  0.00    -0.376 OA
BRANCH  28  29
ATOM     29  C   UNL A   1      33.744  35.930  30.245  1.00  0.00     0.202 C 
BRANCH  29  30
ATOM     30  C   UNL A   1      33.943  34.779  31.252  1.00  0.00     0.261 C 
BRANCH  30  31
ATOM     31  O   UNL A   1      35.147  33.995  31.087  1.00  0.00    -0.460 OA
BRANCH  31  32
ATOM     32  C   UNL A   1      35.148  32.779  31.688  1.00  0.00     0.338 C 
ATOM     33  O   UNL A   1      34.309  32.328  32.449  1.00  0.00    -0.246 OA
BRANCH  32  34
ATOM     34  C   UNL A   1      36.295  31.968  31.234  1.00  0.00     0.060 A 
ATOM     35  C   UNL A   1      37.165  31.404  32.177  1.00  0.00     0.016 A 
ATOM     36  C   UNL A   1      36.604  31.905  29.874  1.00  0.00     0.016 A 
ATOM     37  C   UNL A   1      38.340  30.766  31.762  1.00  0.00     0.010 A 
ATOM     38  C   UNL A   1      37.789  31.281  29.462  1.00  0.00     0.010 A 
ATOM     39  C   UNL A   1      38.674  30.719  30.401  1.00  0.00    -0.014 A 
BRANCH  39  40
ATOM     40  C   UNL A   1      39.976  30.163  29.945  1.00  0.00     0.031 A 
ATOM     41  C   UNL A   1      41.158  31.077  29.763  1.00  0.00     0.074 A 
ATOM     42  C   UNL A   1      40.096  28.856  29.641  1.00  0.00     0.049 A 
ATOM     43  N   UNL A   1      42.325  30.828  29.222  1.00  0.00    -0.248 NA
ATOM     44  C   UNL A   1      41.003  32.455  30.253  1.00  0.00     0.031 C 
ATOM     45  C   UNL A   1      39.049  27.850  29.799  1.00  0.00     0.029 A 
ATOM     46  N   UNL A   1      41.152  28.161  29.099  1.00  0.00    -0.354 N 
ATOM     47  C   UNL A   1      43.035  32.020  29.288  1.00  0.00     0.074 A 
ATOM     48  C   UNL A   1      42.168  32.994  29.916  1.00  0.00     0.031 C 
ATOM     49  C   UNL A   1      39.498  26.674  29.324  1.00  0.00     0.029 A 
ATOM     50  C   UNL A   1      40.849  26.857  28.794  1.00  0.00     0.049 A 
ATOM     51  H   UNL A   1      42.038  28.559  28.944  1.00  0.00     0.167 HD
ATOM     52  C   UNL A   1      44.295  32.278  28.860  1.00  0.00     0.037 A 
ATOM     53  C   UNL A   1      41.558  25.931  28.119  1.00  0.00     0.037 A 
ATOM     54  C   UNL A   1      45.169  31.311  28.245  1.00  0.00     0.049 A 
ATOM     55  C   UNL A   1      42.926  26.270  27.581  1.00  0.00     0.074 A 
ATOM     56  C   UNL A   1      46.483  31.474  27.837  1.00  0.00     0.029 A 
ATOM     57  N   UNL A   1      44.815  30.008  27.936  1.00  0.00    -0.354 N 
ATOM     58  N   UNL A   1      43.603  27.387  27.681  1.00  0.00    -0.248 NA
ATOM     59  C   UNL A   1      43.622  25.216  26.825  1.00  0.00     0.031 C 
ATOM     60  C   UNL A   1      46.901  30.292  27.220  1.00  0.00     0.029 A 
ATOM     61  C   UNL A   1      45.870  29.373  27.299  1.00  0.00     0.049 A 
ATOM     62  H   UNL A   1      43.945  29.594  28.139  1.00  0.00     0.167 HD
ATOM     63  C   UNL A   1      44.803  27.164  27.017  1.00  0.00     0.074 A 
ATOM     64  C   UNL A   1      44.775  25.801  26.538  1.00  0.00     0.031 C 
ATOM     65  C   UNL A   1      45.836  28.017  26.819  1.00  0.00     0.037 A 
BRANCH  52  66
ATOM     66  C   UNL A   1      44.821  33.676  29.005  1.00  0.00     0.064 A 
ATOM     67  C   UNL A   1      44.636  34.642  28.008  1.00  0.00     0.173 A 
ATOM     68  C   UNL A   1      45.425  34.077  30.208  1.00  0.00     0.173 A 
ATOM     69  F   UNL A   1      44.067  34.307  26.839  1.00  0.00    -0.203 F 
ATOM     70  C   UNL A   1      45.040  35.960  28.206  1.00  0.00     0.198 A 
ATOM     71  C   UNL A   1      45.805  35.400  30.413  1.00  0.00     0.198 A 
ATOM     72  F   UNL A   1      45.616  33.190  31.196  1.00  0.00    -0.203 F 
ATOM     73  F   UNL A   1      44.871  36.866  27.233  1.00  0.00    -0.200 F 
ATOM     74  C   UNL A   1      45.614  36.340  29.412  1.00  0.00     0.200 A 
ATOM     75  F   UNL A   1      46.342  35.767  31.584  1.00  0.00    -0.200 F 
ATOM     76  F   UNL A   1      45.979  37.614  29.611  1.00  0.00    -0.200 F 
ENDBRANCH  52  66
BRANCH  53  77
ATOM     77  C   UNL A   1      40.971  24.603  27.812  1.00  0.00     0.064 A 
ATOM     78  C   UNL A   1      41.529  23.424  28.328  1.00  0.00     0.173 A 
ATOM     79  C   UNL A   1      39.913  24.485  26.901  1.00  0.00     0.173 A 
ATOM     80  F   UNL A   1      42.569  23.490  29.172  1.00  0.00    -0.203 F 
ATOM     81  C   UNL A   1      41.071  22.174  27.916  1.00  0.00     0.198 A 
ATOM     82  C   UNL A   1      39.452  23.237  26.500  1.00  0.00     0.198 A 
ATOM     83  F   UNL A   1      39.340  25.583  26.388  1.00  0.00    -0.203 F 
ATOM     84  F   UNL A   1      41.659  21.062  28.376  1.00  0.00    -0.200 F 
ATOM     85  C   UNL A   1      40.034  22.082  27.002  1.00  0.00     0.200 A 
ATOM     86  F   UNL A   1      38.437  23.150  25.628  1.00  0.00    -0.200 F 
ATOM     87  F   UNL A   1      39.592  20.882  26.601  1.00  0.00    -0.200 F 
ENDBRANCH  53  77
BRANCH  65  88
ATOM     88  C   UNL A   1      47.028  27.503  26.065  1.00  0.00     0.064 A 
ATOM     89  C   UNL A   1      47.101  27.577  24.667  1.00  0.00     0.173 A 
ATOM     90  C   UNL A   1      48.129  26.969  26.752  1.00  0.00     0.173 A 
ATOM     91  F   UNL A   1      46.066  28.060  23.962  1.00  0.00    -0.203 F 
ATOM     92  C   UNL A   1      48.223  27.118  23.982  1.00  0.00     0.198 A 
ATOM     93  C   UNL A   1      49.263  26.540  26.067  1.00  0.00     0.198 A 
ATOM     94  F   UNL A   1      48.113  26.878  28.090  1.00  0.00    -0.203 F 
ATOM     95  F   UNL A   1      48.252  27.156  22.642  1.00  0.00    -0.200 F 
ATOM     96  C   UNL A   1      49.306  26.608  24.682  1.00  0.00     0.200 A 
ATOM     97  F   UNL A   1      50.314  26.060  26.746  1.00  0.00    -0.200 F 
ATOM     98  F   UNL A   1      50.390  26.177  24.023  1.00  0.00    -0.200 F 
ENDBRANCH  65  88
ENDBRANCH  39  40
ENDBRANCH  32  34
ENDBRANCH  31  32
ENDBRANCH  30  31
ENDBRANCH  29  30
ENDBRANCH  28  29
ENDBRANCH  27  28
ENDBRANCH   1  27
TORSDOF 22
ENDMDL
MODEL 3
REMARK VINA RESULT:     -10.8      3.409      9.052
REMARK SMILES O=C(C[C@H](NS(=O)(=O)c1cccs1)c1ccccc1Cl)OCCOCCOCCOC(=O)c1ccc(-c2c3nc(c(-c4c(F)c(F)c(F)c(F)c4F)c4ccc([nH]4)c(-c4c(F)c(F)c(F)c(F)c4F)c4nc(c(-c5c(F)c(F)c(F)c(F)c5F)c5ccc2[nH]5)C=C4)C=C3)cc1
REMARK SMILES IDX 25 1 24 2 23 3 22 4 21 5 2 6 1 7 3 8 4 9 14 10 15 11 19 12
REMARK SMILES IDX 16 13 18 14 20 15 17 16 5 17 6 19 7 20 8 21 9 22 10 23 13 24
REMARK SMILES IDX 11 25 12 26 26 27 27 28 28 29 29 30 30 31 31 32 32 33 33 34
REMARK SMILES IDX 34 35 95 36 35 37 94 38 36 39 37 40 38 41 88 42 39 43 93 44
REMARK SMILES IDX 87 45 89 46 40 47 92 48 86 49 85 50 41 52 73 53 53 54 72 55
REMARK SMILES IDX 54 56 57 57 71 58 90 59 55 60 56 61 70 63 91 64 58 65 42 66
REMARK SMILES IDX 43 67 51 68 44 69 45 70 49 71 52 72 46 73 47 74 50 75 48 76
REMARK SMILES IDX 74 77 75 78 83 79 76 80 77 81 81 82 84 83 78 84 79 85 82 86
REMARK SMILES IDX 80 87 59 88 60 89 68 90 61 91 62 92 66 93 69 94 63 95 64 96
REMARK SMILES IDX 67 97 65 98
REMARK H PARENT 5 18 89 51 57 62
REMARK Flexibility Score: inf
ROOT
ATOM      1  C   UNL A   1      34.914  32.213  28.423  1.00  0.00     0.188 C 
ENDROOT
BRANCH   1   2
ATOM      2  O   UNL A   1      35.444  31.288  27.498  1.00  0.00    -0.376 OA
BRANCH   2   3
ATOM      3  C   UNL A   1      35.540  29.915  27.822  1.00  0.00     0.202 C 
BRANCH   3   4
ATOM      4  C   UNL A   1      34.318  29.031  27.573  1.00  0.00     0.261 C 
BRANCH   4   5
ATOM      5  O   UNL A   1      33.784  28.887  26.227  1.00  0.00    -0.463 OA
BRANCH   5   6
ATOM      6  C   UNL A   1      32.566  28.578  25.753  1.00  0.00     0.307 C 
ATOM      7  O   UNL A   1      31.862  27.762  26.347  1.00  0.00    -0.252 OA
BRANCH   6   8
ATOM      8  C   UNL A   1      32.060  29.207  24.497  1.00  0.00     0.147 C 
BRANCH   8   9
ATOM      9  C   UNL A   1      31.385  28.157  23.608  1.00  0.00     0.112 C 
BRANCH   9  10
ATOM     10  C   UNL A   1      30.076  28.731  23.072  1.00  0.00    -0.011 A 
ATOM     11  C   UNL A   1      30.071  29.985  22.427  1.00  0.00     0.007 A 
ATOM     12  C   UNL A   1      28.832  28.089  23.255  1.00  0.00     0.045 A 
ATOM     13  C   UNL A   1      28.880  30.581  22.004  1.00  0.00     0.000 A 
ATOM     14  C   UNL A   1      27.642  28.686  22.818  1.00  0.00     0.021 A 
ATOM     15  Cl  UNL A   1      28.675  26.559  24.045  1.00  0.00    -0.084 Cl
ATOM     16  C   UNL A   1      27.665  29.931  22.198  1.00  0.00     0.002 A 
ENDBRANCH   9  10
BRANCH   9  17
ATOM     17  N   UNL A   1      32.375  27.785  22.567  1.00  0.00    -0.202 NA
ATOM     18  H   UNL A   1      33.274  28.177  22.847  1.00  0.00     0.142 HD
BRANCH  17  19
ATOM     19  S   UNL A   1      32.615  26.140  22.262  1.00  0.00     0.250 S 
ATOM     20  O   UNL A   1      31.300  25.610  21.971  1.00  0.00    -0.206 OA
ATOM     21  O   UNL A   1      33.720  26.003  21.348  1.00  0.00    -0.206 OA
BRANCH  19  22
ATOM     22  C   UNL A   1      33.048  25.443  23.829  1.00  0.00     0.134 A 
ATOM     23  C   UNL A   1      34.215  25.565  24.560  1.00  0.00     0.033 A 
ATOM     24  S   UNL A   1      31.935  24.393  24.584  1.00  0.00    -0.131 S 
ATOM     25  C   UNL A   1      34.234  24.690  25.676  1.00  0.00     0.013 A 
ATOM     26  C   UNL A   1      33.082  23.942  25.770  1.00  0.00     0.066 A 
ENDBRANCH  19  22
ENDBRANCH  17  19
ENDBRANCH   9  17
ENDBRANCH   8   9
ENDBRANCH   6   8
ENDBRANCH   5   6
ENDBRANCH   4   5
ENDBRANCH   3   4
ENDBRANCH   2   3
ENDBRANCH   1   2
BRANCH   1  27
ATOM     27  C   UNL A   1      35.782  33.471  28.568  1.00  0.00     0.188 C 
BRANCH  27  28
ATOM     28  O   UNL A   1      35.113  34.715  28.718  1.00  0.00    -0.376 OA
BRANCH  28  29
ATOM     29  C   UNL A   1      33.687  34.702  28.805  1.00  0.00     0.202 C 
BRANCH  29  30
ATOM     30  C   UNL A   1      32.982  35.786  29.645  1.00  0.00     0.261 C 
BRANCH  30  31
ATOM     31  O   UNL A   1      32.280  35.318  30.820  1.00  0.00    -0.460 OA
BRANCH  31  32
ATOM     32  C   UNL A   1      32.653  35.881  31.995  1.00  0.00     0.338 C 
ATOM     33  O   UNL A   1      32.119  36.813  32.573  1.00  0.00    -0.246 OA
BRANCH  32  34
ATOM     34  C   UNL A   1      33.792  35.154  32.590  1.00  0.00     0.060 A 
ATOM     35  C   UNL A   1      35.089  35.669  32.462  1.00  0.00     0.016 A 
ATOM     36  C   UNL A   1      33.596  33.882  33.129  1.00  0.00     0.016 A 
ATOM     37  C   UNL A   1      36.193  34.917  32.883  1.00  0.00     0.010 A 
ATOM     38  C   UNL A   1      34.704  33.124  33.533  1.00  0.00     0.010 A 
ATOM     39  C   UNL A   1      36.011  33.627  33.400  1.00  0.00    -0.014 A 
BRANCH  39  40
ATOM     40  C   UNL A   1      37.172  32.758  33.734  1.00  0.00     0.031 A 
ATOM     41  C   UNL A   1      37.971  33.024  34.981  1.00  0.00     0.074 A 
ATOM     42  C   UNL A   1      37.550  31.768  32.904  1.00  0.00     0.049 A 
ATOM     43  N   UNL A   1      39.106  32.497  35.369  1.00  0.00    -0.248 NA
ATOM     44  C   UNL A   1      37.419  34.018  35.915  1.00  0.00     0.031 C 
ATOM     45  C   UNL A   1      36.854  31.375  31.681  1.00  0.00     0.029 A 
ATOM     46  N   UNL A   1      38.642  30.933  32.951  1.00  0.00    -0.354 N 
ATOM     47  C   UNL A   1      39.415  33.108  36.578  1.00  0.00     0.074 A 
ATOM     48  C   UNL A   1      38.351  34.048  36.859  1.00  0.00     0.031 C 
ATOM     49  C   UNL A   1      37.557  30.405  31.070  1.00  0.00     0.029 A 
ATOM     50  C   UNL A   1      38.771  30.138  31.840  1.00  0.00     0.049 A 
ATOM     51  H   UNL A   1      39.269  30.908  33.709  1.00  0.00     0.167 HD
ATOM     52  C   UNL A   1      40.490  32.904  37.378  1.00  0.00     0.037 A 
ATOM     53  C   UNL A   1      39.777  29.325  31.461  1.00  0.00     0.037 A 
ATOM     54  C   UNL A   1      41.545  31.960  37.111  1.00  0.00     0.049 A 
ATOM     55  C   UNL A   1      41.000  29.178  32.331  1.00  0.00     0.074 A 
ATOM     56  C   UNL A   1      42.640  31.647  37.900  1.00  0.00     0.029 A 
ATOM     57  N   UNL A   1      41.649  31.190  35.965  1.00  0.00    -0.354 N 
ATOM     58  N   UNL A   1      41.265  29.730  33.489  1.00  0.00    -0.248 NA
ATOM     59  C   UNL A   1      42.070  28.300  31.831  1.00  0.00     0.031 C 
ATOM     60  C   UNL A   1      43.441  30.739  37.202  1.00  0.00     0.029 A 
ATOM     61  C   UNL A   1      42.814  30.440  36.005  1.00  0.00     0.049 A 
ATOM     62  H   UNL A   1      40.992  31.177  35.231  1.00  0.00     0.167 HD
ATOM     63  C   UNL A   1      42.518  29.255  33.859  1.00  0.00     0.074 A 
ATOM     64  C   UNL A   1      42.953  28.354  32.816  1.00  0.00     0.031 C 
ATOM     65  C   UNL A   1      43.245  29.547  34.963  1.00  0.00     0.037 A 
BRANCH  52  66
ATOM     66  C   UNL A   1      40.616  33.733  38.622  1.00  0.00     0.064 A 
ATOM     67  C   UNL A   1      40.000  33.361  39.824  1.00  0.00     0.173 A 
ATOM     68  C   UNL A   1      41.455  34.859  38.632  1.00  0.00     0.173 A 
ATOM     69  F   UNL A   1      39.186  32.294  39.864  1.00  0.00    -0.203 F 
ATOM     70  C   UNL A   1      40.214  34.088  40.992  1.00  0.00     0.198 A 
ATOM     71  C   UNL A   1      41.687  35.569  39.806  1.00  0.00     0.198 A 
ATOM     72  F   UNL A   1      42.074  35.251  37.509  1.00  0.00    -0.203 F 
ATOM     73  F   UNL A   1      39.601  33.727  42.127  1.00  0.00    -0.200 F 
ATOM     74  C   UNL A   1      41.066  35.184  40.985  1.00  0.00     0.200 A 
ATOM     75  F   UNL A   1      42.524  36.615  39.800  1.00  0.00    -0.200 F 
ATOM     76  F   UNL A   1      41.291  35.868  42.115  1.00  0.00    -0.200 F 
ENDBRANCH  52  66
BRANCH  53  77
ATOM     77  C   UNL A   1      39.742  28.640  30.144  1.00  0.00     0.064 A 
ATOM     78  C   UNL A   1      39.254  27.332  30.017  1.00  0.00     0.173 A 
ATOM     79  C   UNL A   1      40.309  29.243  29.013  1.00  0.00     0.173 A 
ATOM     80  F   UNL A   1      38.741  26.703  31.086  1.00  0.00    -0.203 F 
ATOM     81  C   UNL A   1      39.364  26.639  28.814  1.00  0.00     0.198 A 
ATOM     82  C   UNL A   1      40.408  28.553  27.811  1.00  0.00     0.198 A 
ATOM     83  F   UNL A   1      40.780  30.496  29.081  1.00  0.00    -0.203 F 
ATOM     84  F   UNL A   1      38.945  25.370  28.733  1.00  0.00    -0.200 F 
ATOM     85  C   UNL A   1      39.942  27.250  27.713  1.00  0.00     0.200 A 
ATOM     86  F   UNL A   1      40.952  29.152  26.742  1.00  0.00    -0.200 F 
ATOM     87  F   UNL A   1      40.052  26.586  26.554  1.00  0.00    -0.200 F 
ENDBRANCH  53  77
BRANCH  65  88
ATOM     88  C   UNL A   1      44.580  28.876  35.114  1.00  0.00     0.064 A 
ATOM     89  C   UNL A   1      44.702  27.610  35.706  1.00  0.00     0.173 A 
ATOM     90  C   UNL A   1      45.744  29.486  34.624  1.00  0.00     0.173 A 
ATOM     91  F   UNL A   1      43.622  26.994  36.210  1.00  0.00    -0.203 F 
ATOM     92  C   UNL A   1      45.943  26.989  35.819  1.00  0.00     0.198 A 
ATOM     93  C   UNL A   1      46.980  28.848  34.709  1.00  0.00     0.198 A 
ATOM     94  F   UNL A   1      45.683  30.694  34.046  1.00  0.00    -0.203 F 
ATOM     95  F   UNL A   1      46.043  25.800  36.430  1.00  0.00    -0.200 F 
ATOM     96  C   UNL A   1      47.078  27.603  35.313  1.00  0.00     0.200 A 
ATOM     97  F   UNL A   1      48.074  29.437  34.208  1.00  0.00    -0.200 F 
ATOM     98  F   UNL A   1      48.271  26.999  35.412  1.00  0.00    -0.200 F 
ENDBRANCH  65  88
ENDBRANCH  39  40
ENDBRANCH  32  34
ENDBRANCH  31  32
ENDBRANCH  30  31
ENDBRANCH  29  30
ENDBRANCH  28  29
ENDBRANCH  27  28
ENDBRANCH   1  27
TORSDOF 22
ENDMDL
