MODEL 1
REMARK VINA RESULT:     -11.7      0.000      0.000
REMARK SMILES O=C(OCCOCCOCCOC(=O)[C@H]1Cc2[nH]cnc2CN1C(=O)c1ccncc1Cl)c1ccc(-c2c3nc(c(-c4c(F)c(F)c(F)c(F)c4F)c4ccc([nH]4)c(-c4c(F)c(F)c(F)c(F)c4F)c4nc(c(-c5c(F)c(F)c(F)c(F)c5F)c5ccc2[nH]5)C=C4)C=C3)cc1
REMARK SMILES IDX 7 1 6 2 5 3 4 4 3 5 2 6 1 7 33 8 34 9 95 10 35 11 94 12
REMARK SMILES IDX 36 13 37 14 38 15 88 16 39 17 93 18 87 19 89 20 40 21 92 22
REMARK SMILES IDX 86 23 85 24 41 26 73 27 53 28 72 29 54 30 57 31 71 32 90 33
REMARK SMILES IDX 55 34 56 35 70 37 91 38 58 39 42 40 43 41 51 42 44 43 45 44
REMARK SMILES IDX 49 45 52 46 46 47 47 48 50 49 48 50 74 51 75 52 83 53 76 54
REMARK SMILES IDX 77 55 81 56 84 57 78 58 79 59 82 60 80 61 59 62 60 63 68 64
REMARK SMILES IDX 61 65 62 66 66 67 69 68 63 69 64 70 67 71 65 72 8 73 9 74
REMARK SMILES IDX 10 75 11 76 12 77 13 78 14 79 15 80 16 81 23 82 17 83 22 84
REMARK SMILES IDX 18 85 21 86 19 87 20 89 24 90 25 91 26 92 27 93 31 94 28 95
REMARK SMILES IDX 30 96 32 97 29 98
REMARK H PARENT 89 25 57 36 18 88
REMARK Flexibility Score: inf
ROOT
ATOM      1  C   UNL A   1      40.761  21.519  27.502  1.00  0.00     0.188 C 
ENDROOT
BRANCH   1   2
ATOM      2  O   UNL A   1      41.970  20.808  27.712  1.00  0.00    -0.376 OA
BRANCH   2   3
ATOM      3  C   UNL A   1      42.073  19.438  27.317  1.00  0.00     0.202 C 
BRANCH   3   4
ATOM      4  C   UNL A   1      42.746  18.909  26.026  1.00  0.00     0.261 C 
BRANCH   4   5
ATOM      5  O   UNL A   1      43.405  19.769  25.087  1.00  0.00    -0.460 OA
BRANCH   5   6
ATOM      6  C   UNL A   1      44.623  20.345  25.110  1.00  0.00     0.338 C 
ATOM      7  O   UNL A   1      45.628  19.650  25.125  1.00  0.00    -0.246 OA
BRANCH   6   8
ATOM      8  C   UNL A   1      44.794  21.810  25.150  1.00  0.00     0.060 A 
ATOM      9  C   UNL A   1      45.748  22.425  25.950  1.00  0.00     0.016 A 
ATOM     10  C   UNL A   1      43.766  22.563  24.542  1.00  0.00     0.016 A 
ATOM     11  C   UNL A   1      45.536  23.728  26.335  1.00  0.00     0.010 A 
ATOM     12  C   UNL A   1      43.548  23.866  24.929  1.00  0.00     0.010 A 
ATOM     13  C   UNL A   1      44.373  24.382  25.913  1.00  0.00    -0.014 A 
BRANCH  13  14
ATOM     14  C   UNL A   1      44.044  25.604  26.610  1.00  0.00     0.031 A 
ATOM     15  C   UNL A   1      45.042  26.670  26.419  1.00  0.00     0.074 A 
ATOM     16  C   UNL A   1      42.974  25.693  27.420  1.00  0.00     0.049 A 
ATOM     17  N   UNL A   1      45.931  27.062  27.268  1.00  0.00    -0.248 NA
ATOM     18  C   UNL A   1      45.195  27.229  25.071  1.00  0.00     0.031 C 
ATOM     19  C   UNL A   1      41.822  24.794  27.523  1.00  0.00     0.029 A 
ATOM     20  N   UNL A   1      42.672  26.679  28.306  1.00  0.00    -0.354 N 
ATOM     21  C   UNL A   1      46.633  28.074  26.629  1.00  0.00     0.074 A 
ATOM     22  C   UNL A   1      46.262  28.012  25.238  1.00  0.00     0.031 C 
ATOM     23  C   UNL A   1      40.850  25.399  28.246  1.00  0.00     0.029 A 
ATOM     24  C   UNL A   1      41.366  26.652  28.771  1.00  0.00     0.049 A 
ATOM     25  H   UNL A   1      43.326  27.356  28.593  1.00  0.00     0.167 HD
ATOM     26  C   UNL A   1      47.262  29.038  27.353  1.00  0.00     0.037 A 
ATOM     27  C   UNL A   1      40.756  27.640  29.471  1.00  0.00     0.037 A 
ATOM     28  C   UNL A   1      47.475  28.614  28.715  1.00  0.00     0.049 A 
ATOM     29  C   UNL A   1      41.824  28.478  30.079  1.00  0.00     0.074 A 
ATOM     30  C   UNL A   1      48.175  27.581  29.310  1.00  0.00     0.029 A 
ATOM     31  N   UNL A   1      46.617  29.085  29.678  1.00  0.00    -0.354 N 
ATOM     32  N   UNL A   1      42.597  28.070  31.047  1.00  0.00    -0.248 NA
ATOM     33  C   UNL A   1      42.342  29.593  29.296  1.00  0.00     0.031 C 
ATOM     34  C   UNL A   1      47.376  27.182  30.421  1.00  0.00     0.029 A 
ATOM     35  C   UNL A   1      46.270  28.029  30.480  1.00  0.00     0.049 A 
ATOM     36  H   UNL A   1      46.307  30.015  29.775  1.00  0.00     0.167 HD
ATOM     37  C   UNL A   1      43.854  28.562  30.726  1.00  0.00     0.074 A 
ATOM     38  C   UNL A   1      43.621  29.560  29.686  1.00  0.00     0.031 C 
ATOM     39  C   UNL A   1      44.984  27.907  31.122  1.00  0.00     0.037 A 
BRANCH  26  40
ATOM     40  C   UNL A   1      47.310  30.487  26.943  1.00  0.00     0.064 A 
ATOM     41  C   UNL A   1      48.530  31.183  27.045  1.00  0.00     0.173 A 
ATOM     42  C   UNL A   1      46.162  31.289  26.760  1.00  0.00     0.173 A 
ATOM     43  F   UNL A   1      49.680  30.520  27.237  1.00  0.00    -0.203 F 
ATOM     44  C   UNL A   1      48.580  32.579  27.057  1.00  0.00     0.198 A 
ATOM     45  C   UNL A   1      46.224  32.679  26.717  1.00  0.00     0.198 A 
ATOM     46  F   UNL A   1      44.926  30.779  26.734  1.00  0.00    -0.203 F 
ATOM     47  F   UNL A   1      49.744  33.198  27.293  1.00  0.00    -0.200 F 
ATOM     48  C   UNL A   1      47.427  33.325  26.900  1.00  0.00     0.200 A 
ATOM     49  F   UNL A   1      45.091  33.382  26.584  1.00  0.00    -0.200 F 
ATOM     50  F   UNL A   1      47.464  34.661  26.979  1.00  0.00    -0.200 F 
ENDBRANCH  26  40
BRANCH  27  51
ATOM     51  C   UNL A   1      39.352  28.103  29.361  1.00  0.00     0.064 A 
ATOM     52  C   UNL A   1      38.544  28.236  30.503  1.00  0.00     0.173 A 
ATOM     53  C   UNL A   1      38.865  28.698  28.181  1.00  0.00     0.173 A 
ATOM     54  F   UNL A   1      38.953  27.739  31.680  1.00  0.00    -0.203 F 
ATOM     55  C   UNL A   1      37.339  28.946  30.472  1.00  0.00     0.198 A 
ATOM     56  C   UNL A   1      37.660  29.400  28.148  1.00  0.00     0.198 A 
ATOM     57  F   UNL A   1      39.596  28.699  27.057  1.00  0.00    -0.203 F 
ATOM     58  F   UNL A   1      36.629  29.110  31.597  1.00  0.00    -0.200 F 
ATOM     59  C   UNL A   1      36.904  29.537  29.297  1.00  0.00     0.200 A 
ATOM     60  F   UNL A   1      37.270  29.999  27.014  1.00  0.00    -0.200 F 
ATOM     61  F   UNL A   1      35.784  30.273  29.281  1.00  0.00    -0.200 F 
ENDBRANCH  27  51
BRANCH  39  62
ATOM     62  C   UNL A   1      44.837  26.817  32.146  1.00  0.00     0.064 A 
ATOM     63  C   UNL A   1      44.676  25.455  31.830  1.00  0.00     0.173 A 
ATOM     64  C   UNL A   1      45.002  27.151  33.496  1.00  0.00     0.173 A 
ATOM     65  F   UNL A   1      44.620  25.044  30.556  1.00  0.00    -0.203 F 
ATOM     66  C   UNL A   1      44.633  24.485  32.830  1.00  0.00     0.198 A 
ATOM     67  C   UNL A   1      44.999  26.176  34.488  1.00  0.00     0.198 A 
ATOM     68  F   UNL A   1      45.220  28.429  33.850  1.00  0.00    -0.203 F 
ATOM     69  F   UNL A   1      44.468  23.193  32.507  1.00  0.00    -0.200 F 
ATOM     70  C   UNL A   1      44.802  24.846  34.157  1.00  0.00     0.200 A 
ATOM     71  F   UNL A   1      45.218  26.525  35.764  1.00  0.00    -0.200 F 
ATOM     72  F   UNL A   1      44.806  23.908  35.115  1.00  0.00    -0.200 F 
ENDBRANCH  39  62
ENDBRANCH  13  14
ENDBRANCH   6   8
ENDBRANCH   5   6
ENDBRANCH   4   5
ENDBRANCH   3   4
ENDBRANCH   2   3
ENDBRANCH   1   2
BRANCH   1  73
ATOM     73  C   UNL A   1      40.024  21.366  26.180  1.00  0.00     0.188 C 
BRANCH  73  74
ATOM     74  O   UNL A   1      38.622  21.613  26.222  1.00  0.00    -0.376 OA
BRANCH  74  75
ATOM     75  C   UNL A   1      38.054  22.298  25.119  1.00  0.00     0.202 C 
BRANCH  75  76
ATOM     76  C   UNL A   1      37.190  23.503  25.474  1.00  0.00     0.261 C 
BRANCH  76  77
ATOM     77  O   UNL A   1      35.774  23.388  25.216  1.00  0.00    -0.462 OA
BRANCH  77  78
ATOM     78  C   UNL A   1      35.440  22.913  23.983  1.00  0.00     0.329 C 
ATOM     79  O   UNL A   1      35.817  23.412  22.928  1.00  0.00    -0.250 OA
BRANCH  78  80
ATOM     80  C   UNL A   1      34.460  21.743  24.025  1.00  0.00     0.201 C 
ATOM     81  C   UNL A   1      34.456  20.901  25.335  1.00  0.00     0.093 C 
ATOM     82  N   UNL A   1      33.077  21.964  23.465  1.00  0.00    -0.318 N 
ATOM     83  C   UNL A   1      33.525  19.753  25.127  1.00  0.00     0.042 A 
ATOM     84  C   UNL A   1      32.342  20.731  23.093  1.00  0.00     0.179 C 
ATOM     85  N   UNL A   1      33.434  18.576  25.811  1.00  0.00    -0.348 N 
ATOM     86  C   UNL A   1      32.573  19.679  24.130  1.00  0.00     0.081 A 
ATOM     87  C   UNL A   1      32.442  17.842  25.209  1.00  0.00     0.197 A 
ATOM     88  H   UNL A   1      33.974  18.304  26.588  1.00  0.00     0.167 HD
ATOM     89  N   UNL A   1      31.913  18.481  24.188  1.00  0.00    -0.240 NA
BRANCH  82  90
ATOM     90  C   UNL A   1      32.359  23.155  23.382  1.00  0.00     0.256 C 
ATOM     91  O   UNL A   1      32.051  23.696  22.323  1.00  0.00    -0.269 OA
BRANCH  90  92
ATOM     92  C   UNL A   1      31.922  23.869  24.586  1.00  0.00     0.061 A 
ATOM     93  C   UNL A   1      30.907  23.296  25.357  1.00  0.00     0.035 A 
ATOM     94  C   UNL A   1      32.423  25.132  24.903  1.00  0.00     0.072 A 
ATOM     95  C   UNL A   1      30.477  23.989  26.473  1.00  0.00     0.112 A 
ATOM     96  C   UNL A   1      31.954  25.721  26.066  1.00  0.00     0.132 A 
ATOM     97  Cl  UNL A   1      33.605  25.951  23.955  1.00  0.00    -0.082 Cl
ATOM     98  N   UNL A   1      31.000  25.171  26.866  1.00  0.00    -0.263 NA
ENDBRANCH  90  92
ENDBRANCH  82  90
ENDBRANCH  78  80
ENDBRANCH  77  78
ENDBRANCH  76  77
ENDBRANCH  75  76
ENDBRANCH  74  75
ENDBRANCH  73  74
ENDBRANCH   1  73
TORSDOF 19
ENDMDL
MODEL 2
REMARK VINA RESULT:     -11.6      1.161      2.842
REMARK SMILES O=C(OCCOCCOCCOC(=O)[C@H]1Cc2[nH]cnc2CN1C(=O)c1ccncc1Cl)c1ccc(-c2c3nc(c(-c4c(F)c(F)c(F)c(F)c4F)c4ccc([nH]4)c(-c4c(F)c(F)c(F)c(F)c4F)c4nc(c(-c5c(F)c(F)c(F)c(F)c5F)c5ccc2[nH]5)C=C4)C=C3)cc1
REMARK SMILES IDX 7 1 6 2 5 3 4 4 3 5 2 6 1 7 33 8 34 9 95 10 35 11 94 12
REMARK SMILES IDX 36 13 37 14 38 15 88 16 39 17 93 18 87 19 89 20 40 21 92 22
REMARK SMILES IDX 86 23 85 24 41 26 73 27 53 28 72 29 54 30 57 31 71 32 90 33
REMARK SMILES IDX 55 34 56 35 70 37 91 38 58 39 42 40 43 41 51 42 44 43 45 44
REMARK SMILES IDX 49 45 52 46 46 47 47 48 50 49 48 50 74 51 75 52 83 53 76 54
REMARK SMILES IDX 77 55 81 56 84 57 78 58 79 59 82 60 80 61 59 62 60 63 68 64
REMARK SMILES IDX 61 65 62 66 66 67 69 68 63 69 64 70 67 71 65 72 8 73 9 74
REMARK SMILES IDX 10 75 11 76 12 77 13 78 14 79 15 80 16 81 23 82 17 83 22 84
REMARK SMILES IDX 18 85 21 86 19 87 20 89 24 90 25 91 26 92 27 93 31 94 28 95
REMARK SMILES IDX 30 96 32 97 29 98
REMARK H PARENT 89 25 57 36 18 88
REMARK Flexibility Score: inf
ROOT
ATOM      1  C   UNL A   1      40.500  21.240  27.445  1.00  0.00     0.188 C 
ENDROOT
BRANCH   1   2
ATOM      2  O   UNL A   1      41.817  20.717  27.513  1.00  0.00    -0.376 OA
BRANCH   2   3
ATOM      3  C   UNL A   1      42.061  19.348  27.181  1.00  0.00     0.202 C 
BRANCH   3   4
ATOM      4  C   UNL A   1      42.677  18.825  25.860  1.00  0.00     0.261 C 
BRANCH   4   5
ATOM      5  O   UNL A   1      43.372  19.676  24.938  1.00  0.00    -0.460 OA
BRANCH   5   6
ATOM      6  C   UNL A   1      44.595  20.236  24.992  1.00  0.00     0.338 C 
ATOM      7  O   UNL A   1      45.591  19.528  25.023  1.00  0.00    -0.246 OA
BRANCH   6   8
ATOM      8  C   UNL A   1      44.783  21.699  25.050  1.00  0.00     0.060 A 
ATOM      9  C   UNL A   1      45.754  22.293  25.846  1.00  0.00     0.016 A 
ATOM     10  C   UNL A   1      43.757  22.471  24.464  1.00  0.00     0.016 A 
ATOM     11  C   UNL A   1      45.562  23.592  26.251  1.00  0.00     0.010 A 
ATOM     12  C   UNL A   1      43.558  23.772  24.871  1.00  0.00     0.010 A 
ATOM     13  C   UNL A   1      44.401  24.265  25.851  1.00  0.00    -0.014 A 
BRANCH  13  14
ATOM     14  C   UNL A   1      44.094  25.481  26.568  1.00  0.00     0.031 A 
ATOM     15  C   UNL A   1      45.107  26.535  26.388  1.00  0.00     0.074 A 
ATOM     16  C   UNL A   1      43.030  25.574  27.384  1.00  0.00     0.049 A 
ATOM     17  N   UNL A   1      46.006  26.900  27.238  1.00  0.00    -0.248 NA
ATOM     18  C   UNL A   1      45.262  27.112  25.047  1.00  0.00     0.031 C 
ATOM     19  C   UNL A   1      41.864  24.692  27.480  1.00  0.00     0.029 A 
ATOM     20  N   UNL A   1      42.747  26.552  28.286  1.00  0.00    -0.354 N 
ATOM     21  C   UNL A   1      46.721  27.911  26.611  1.00  0.00     0.074 A 
ATOM     22  C   UNL A   1      46.343  27.875  25.221  1.00  0.00     0.031 C 
ATOM     23  C   UNL A   1      40.905  25.301  28.216  1.00  0.00     0.029 A 
ATOM     24  C   UNL A   1      41.443  26.537  28.758  1.00  0.00     0.049 A 
ATOM     25  H   UNL A   1      43.412  27.214  28.580  1.00  0.00     0.167 HD
ATOM     26  C   UNL A   1      47.368  28.854  27.345  1.00  0.00     0.037 A 
ATOM     27  C   UNL A   1      40.852  27.525  29.475  1.00  0.00     0.037 A 
ATOM     28  C   UNL A   1      47.581  28.406  28.700  1.00  0.00     0.049 A 
ATOM     29  C   UNL A   1      41.935  28.337  30.090  1.00  0.00     0.074 A 
ATOM     30  C   UNL A   1      48.267  27.354  29.276  1.00  0.00     0.029 A 
ATOM     31  N   UNL A   1      46.735  28.876  29.674  1.00  0.00    -0.354 N 
ATOM     32  N   UNL A   1      42.707  27.903  31.048  1.00  0.00    -0.248 NA
ATOM     33  C   UNL A   1      42.467  29.455  29.322  1.00  0.00     0.031 C 
ATOM     34  C   UNL A   1      47.468  26.951  30.385  1.00  0.00     0.029 A 
ATOM     35  C   UNL A   1      46.375  27.814  30.462  1.00  0.00     0.049 A 
ATOM     36  H   UNL A   1      46.440  29.809  29.786  1.00  0.00     0.167 HD
ATOM     37  C   UNL A   1      43.969  28.380  30.728  1.00  0.00     0.074 A 
ATOM     38  C   UNL A   1      43.746  29.397  29.704  1.00  0.00     0.031 C 
ATOM     39  C   UNL A   1      45.090  27.702  31.109  1.00  0.00     0.037 A 
BRANCH  26  40
ATOM     40  C   UNL A   1      47.436  30.308  26.957  1.00  0.00     0.064 A 
ATOM     41  C   UNL A   1      48.663  30.988  27.079  1.00  0.00     0.173 A 
ATOM     42  C   UNL A   1      46.299  31.127  26.777  1.00  0.00     0.173 A 
ATOM     43  F   UNL A   1      49.804  30.308  27.270  1.00  0.00    -0.203 F 
ATOM     44  C   UNL A   1      48.730  32.382  27.111  1.00  0.00     0.198 A 
ATOM     45  C   UNL A   1      46.379  32.516  26.754  1.00  0.00     0.198 A 
ATOM     46  F   UNL A   1      45.058  30.632  26.734  1.00  0.00    -0.203 F 
ATOM     47  F   UNL A   1      49.900  32.984  27.365  1.00  0.00    -0.200 F 
ATOM     48  C   UNL A   1      47.587  33.145  26.956  1.00  0.00     0.200 A 
ATOM     49  F   UNL A   1      45.255  33.234  26.623  1.00  0.00    -0.200 F 
ATOM     50  F   UNL A   1      47.639  34.479  27.054  1.00  0.00    -0.200 F 
ENDBRANCH  26  40
BRANCH  27  51
ATOM     51  C   UNL A   1      39.454  28.011  29.379  1.00  0.00     0.064 A 
ATOM     52  C   UNL A   1      38.652  28.132  30.526  1.00  0.00     0.173 A 
ATOM     53  C   UNL A   1      38.973  28.636  28.213  1.00  0.00     0.173 A 
ATOM     54  F   UNL A   1      39.056  27.607  31.692  1.00  0.00    -0.203 F 
ATOM     55  C   UNL A   1      37.457  28.861  30.513  1.00  0.00     0.198 A 
ATOM     56  C   UNL A   1      37.778  29.357  28.198  1.00  0.00     0.198 A 
ATOM     57  F   UNL A   1      39.701  28.649  27.087  1.00  0.00    -0.203 F 
ATOM     58  F   UNL A   1      36.753  29.013  31.644  1.00  0.00    -0.200 F 
ATOM     59  C   UNL A   1      37.027  29.482  29.351  1.00  0.00     0.200 A 
ATOM     60  F   UNL A   1      37.394  29.984  27.077  1.00  0.00    -0.200 F 
ATOM     61  F   UNL A   1      35.919  30.235  29.354  1.00  0.00    -0.200 F 
ENDBRANCH  27  51
BRANCH  39  62
ATOM     62  C   UNL A   1      44.932  26.599  32.117  1.00  0.00     0.064 A 
ATOM     63  C   UNL A   1      44.906  26.801  33.509  1.00  0.00     0.173 A 
ATOM     64  C   UNL A   1      44.660  25.308  31.647  1.00  0.00     0.173 A 
ATOM     65  F   UNL A   1      45.049  28.026  34.031  1.00  0.00    -0.203 F 
ATOM     66  C   UNL A   1      44.668  25.743  34.385  1.00  0.00     0.198 A 
ATOM     67  C   UNL A   1      44.384  24.263  32.522  1.00  0.00     0.198 A 
ATOM     68  F   UNL A   1      44.613  25.070  30.325  1.00  0.00    -0.203 F 
ATOM     69  F   UNL A   1      44.659  25.956  35.710  1.00  0.00    -0.200 F 
ATOM     70  C   UNL A   1      44.400  24.477  33.891  1.00  0.00     0.200 A 
ATOM     71  F   UNL A   1      44.071  23.053  32.037  1.00  0.00    -0.200 F 
ATOM     72  F   UNL A   1      44.126  23.469  34.731  1.00  0.00    -0.200 F 
ENDBRANCH  39  62
ENDBRANCH  13  14
ENDBRANCH   6   8
ENDBRANCH   5   6
ENDBRANCH   4   5
ENDBRANCH   3   4
ENDBRANCH   2   3
ENDBRANCH   1   2
BRANCH   1  73
ATOM     73  C   UNL A   1      40.016  21.881  26.153  1.00  0.00     0.188 C 
BRANCH  73  74
ATOM     74  O   UNL A   1      38.675  22.360  26.166  1.00  0.00    -0.376 OA
BRANCH  74  75
ATOM     75  C   UNL A   1      37.774  21.783  25.236  1.00  0.00     0.202 C 
BRANCH  75  76
ATOM     76  C   UNL A   1      36.342  21.615  25.734  1.00  0.00     0.261 C 
BRANCH  76  77
ATOM     77  O   UNL A   1      35.408  22.663  25.395  1.00  0.00    -0.462 OA
BRANCH  77  78
ATOM     78  C   UNL A   1      34.676  23.153  26.435  1.00  0.00     0.329 C 
ATOM     79  O   UNL A   1      34.576  22.605  27.526  1.00  0.00    -0.250 OA
BRANCH  78  80
ATOM     80  C   UNL A   1      33.897  24.420  26.088  1.00  0.00     0.201 C 
ATOM     81  C   UNL A   1      34.417  25.228  24.862  1.00  0.00     0.093 C 
ATOM     82  N   UNL A   1      32.391  24.359  26.155  1.00  0.00    -0.318 N 
ATOM     83  C   UNL A   1      33.599  26.472  24.766  1.00  0.00     0.042 A 
ATOM     84  C   UNL A   1      31.711  25.671  26.280  1.00  0.00     0.179 C 
ATOM     85  N   UNL A   1      33.866  27.638  24.108  1.00  0.00    -0.348 N 
ATOM     86  C   UNL A   1      32.385  26.670  25.393  1.00  0.00     0.081 A 
ATOM     87  C   UNL A   1      32.816  28.486  24.358  1.00  0.00     0.197 A 
ATOM     88  H   UNL A   1      34.659  27.833  23.558  1.00  0.00     0.167 HD
ATOM     89  N   UNL A   1      31.913  27.930  25.137  1.00  0.00    -0.240 NA
BRANCH  82  90
ATOM     90  C   UNL A   1      31.563  23.254  25.978  1.00  0.00     0.256 C 
ATOM     91  O   UNL A   1      30.598  22.999  26.696  1.00  0.00    -0.269 OA
BRANCH  90  92
ATOM     92  C   UNL A   1      31.799  22.286  24.901  1.00  0.00     0.061 A 
ATOM     93  C   UNL A   1      32.239  21.007  25.254  1.00  0.00     0.035 A 
ATOM     94  C   UNL A   1      31.691  22.651  23.560  1.00  0.00     0.072 A 
ATOM     95  C   UNL A   1      32.492  20.109  24.234  1.00  0.00     0.112 A 
ATOM     96  C   UNL A   1      31.926  21.663  22.618  1.00  0.00     0.132 A 
ATOM     97  Cl  UNL A   1      31.246  24.231  23.038  1.00  0.00    -0.082 Cl
ATOM     98  N   UNL A   1      32.312  20.395  22.926  1.00  0.00    -0.263 NA
ENDBRANCH  90  92
ENDBRANCH  82  90
ENDBRANCH  78  80
ENDBRANCH  77  78
ENDBRANCH  76  77
ENDBRANCH  75  76
ENDBRANCH  74  75
ENDBRANCH  73  74
ENDBRANCH   1  73
TORSDOF 19
ENDMDL
MODEL 3
REMARK VINA RESULT:     -11.2      1.431      2.386
REMARK SMILES O=C(OCCOCCOCCOC(=O)[C@H]1Cc2[nH]cnc2CN1C(=O)c1ccncc1Cl)c1ccc(-c2c3nc(c(-c4c(F)c(F)c(F)c(F)c4F)c4ccc([nH]4)c(-c4c(F)c(F)c(F)c(F)c4F)c4nc(c(-c5c(F)c(F)c(F)c(F)c5F)c5ccc2[nH]5)C=C4)C=C3)cc1
REMARK SMILES IDX 7 1 6 2 5 3 4 4 3 5 2 6 1 7 33 8 34 9 95 10 35 11 94 12
REMARK SMILES IDX 36 13 37 14 38 15 88 16 39 17 93 18 87 19 89 20 40 21 92 22
REMARK SMILES IDX 86 23 85 24 41 26 73 27 53 28 72 29 54 30 57 31 71 32 90 33
REMARK SMILES IDX 55 34 56 35 70 37 91 38 58 39 42 40 43 41 51 42 44 43 45 44
REMARK SMILES IDX 49 45 52 46 46 47 47 48 50 49 48 50 74 51 75 52 83 53 76 54
REMARK SMILES IDX 77 55 81 56 84 57 78 58 79 59 82 60 80 61 59 62 60 63 68 64
REMARK SMILES IDX 61 65 62 66 66 67 69 68 63 69 64 70 67 71 65 72 8 73 9 74
REMARK SMILES IDX 10 75 11 76 12 77 13 78 14 79 15 80 16 81 23 82 17 83 22 84
REMARK SMILES IDX 18 85 21 86 19 87 20 89 24 90 25 91 26 92 27 93 31 94 28 95
REMARK SMILES IDX 30 96 32 97 29 98
REMARK H PARENT 89 25 57 36 18 88
REMARK Flexibility Score: inf
ROOT
ATOM      1  C   UNL A   1      40.888  21.441  27.499  1.00  0.00     0.188 C 
ENDROOT
BRANCH   1   2
ATOM      2  O   UNL A   1      42.196  20.911  27.364  1.00  0.00    -0.376 OA
BRANCH   2   3
ATOM      3  C   UNL A   1      42.381  19.572  26.899  1.00  0.00     0.202 C 
BRANCH   3   4
ATOM      4  C   UNL A   1      43.033  19.153  25.558  1.00  0.00     0.261 C 
BRANCH   4   5
ATOM      5  O   UNL A   1      43.668  20.091  24.678  1.00  0.00    -0.460 OA
BRANCH   5   6
ATOM      6  C   UNL A   1      44.882  20.672  24.721  1.00  0.00     0.338 C 
ATOM      7  O   UNL A   1      45.891  19.987  24.632  1.00  0.00    -0.246 OA
BRANCH   6   8
ATOM      8  C   UNL A   1      45.047  22.127  24.908  1.00  0.00     0.060 A 
ATOM      9  C   UNL A   1      45.968  22.662  25.799  1.00  0.00     0.016 A 
ATOM     10  C   UNL A   1      44.041  22.934  24.336  1.00  0.00     0.016 A 
ATOM     11  C   UNL A   1      45.738  23.922  26.298  1.00  0.00     0.010 A 
ATOM     12  C   UNL A   1      43.803  24.195  24.837  1.00  0.00     0.010 A 
ATOM     13  C   UNL A   1      44.589  24.614  25.896  1.00  0.00    -0.014 A 
BRANCH  13  14
ATOM     14  C   UNL A   1      44.230  25.764  26.694  1.00  0.00     0.031 A 
ATOM     15  C   UNL A   1      45.233  26.841  26.648  1.00  0.00     0.074 A 
ATOM     16  C   UNL A   1      43.128  25.777  27.465  1.00  0.00     0.049 A 
ATOM     17  N   UNL A   1      46.086  27.147  27.565  1.00  0.00    -0.248 NA
ATOM     18  C   UNL A   1      45.440  27.527  25.367  1.00  0.00     0.031 C 
ATOM     19  C   UNL A   1      41.974  24.875  27.434  1.00  0.00     0.029 A 
ATOM     20  N   UNL A   1      42.789  26.674  28.428  1.00  0.00    -0.354 N 
ATOM     21  C   UNL A   1      46.812  28.214  27.056  1.00  0.00     0.074 A 
ATOM     22  C   UNL A   1      46.499  28.287  25.652  1.00  0.00     0.031 C 
ATOM     23  C   UNL A   1      40.973  25.410  28.171  1.00  0.00     0.029 A 
ATOM     24  C   UNL A   1      41.464  26.605  28.835  1.00  0.00     0.049 A 
ATOM     25  H   UNL A   1      43.429  27.318  28.805  1.00  0.00     0.167 HD
ATOM     26  C   UNL A   1      47.410  29.102  27.895  1.00  0.00     0.037 A 
ATOM     27  C   UNL A   1      40.825  27.523  29.601  1.00  0.00     0.037 A 
ATOM     28  C   UNL A   1      47.568  28.549  29.217  1.00  0.00     0.049 A 
ATOM     29  C   UNL A   1      41.866  28.296  30.330  1.00  0.00     0.074 A 
ATOM     30  C   UNL A   1      48.244  27.461  29.738  1.00  0.00     0.029 A 
ATOM     31  N   UNL A   1      46.670  28.927  30.185  1.00  0.00    -0.354 N 
ATOM     32  N   UNL A   1      42.600  27.795  31.286  1.00  0.00    -0.248 NA
ATOM     33  C   UNL A   1      42.414  29.479  29.681  1.00  0.00     0.031 C 
ATOM     34  C   UNL A   1      47.401  26.959  30.772  1.00  0.00     0.029 A 
ATOM     35  C   UNL A   1      46.292  27.800  30.867  1.00  0.00     0.049 A 
ATOM     36  H   UNL A   1      46.355  29.844  30.359  1.00  0.00     0.167 HD
ATOM     37  C   UNL A   1      43.867  28.312  31.064  1.00  0.00     0.074 A 
ATOM     38  C   UNL A   1      43.675  29.407  30.117  1.00  0.00     0.031 C 
ATOM     39  C   UNL A   1      44.981  27.619  31.442  1.00  0.00     0.037 A 
BRANCH  26  40
ATOM     40  C   UNL A   1      47.472  30.584  27.628  1.00  0.00     0.064 A 
ATOM     41  C   UNL A   1      46.276  31.280  27.372  1.00  0.00     0.173 A 
ATOM     42  C   UNL A   1      48.662  31.274  27.306  1.00  0.00     0.173 A 
ATOM     43  F   UNL A   1      45.088  30.711  27.625  1.00  0.00    -0.203 F 
ATOM     44  C   UNL A   1      46.272  32.532  26.754  1.00  0.00     0.198 A 
ATOM     45  C   UNL A   1      48.654  32.546  26.741  1.00  0.00     0.198 A 
ATOM     46  F   UNL A   1      49.870  30.710  27.411  1.00  0.00    -0.203 F 
ATOM     47  F   UNL A   1      45.109  33.097  26.405  1.00  0.00    -0.200 F 
ATOM     48  C   UNL A   1      47.461  33.161  26.432  1.00  0.00     0.200 A 
ATOM     49  F   UNL A   1      49.819  33.127  26.419  1.00  0.00    -0.200 F 
ATOM     50  F   UNL A   1      47.460  34.330  25.779  1.00  0.00    -0.200 F 
ENDBRANCH  26  40
BRANCH  27  51
ATOM     51  C   UNL A   1      39.426  27.998  29.480  1.00  0.00     0.064 A 
ATOM     52  C   UNL A   1      38.614  28.151  30.616  1.00  0.00     0.173 A 
ATOM     53  C   UNL A   1      38.950  28.583  28.291  1.00  0.00     0.173 A 
ATOM     54  F   UNL A   1      39.012  27.664  31.801  1.00  0.00    -0.203 F 
ATOM     55  C   UNL A   1      37.416  28.872  30.571  1.00  0.00     0.198 A 
ATOM     56  C   UNL A   1      37.751  29.296  28.244  1.00  0.00     0.198 A 
ATOM     57  F   UNL A   1      39.686  28.565  27.170  1.00  0.00    -0.203 F 
ATOM     58  F   UNL A   1      36.702  29.055  31.691  1.00  0.00    -0.200 F 
ATOM     59  C   UNL A   1      36.991  29.453  29.387  1.00  0.00     0.200 A 
ATOM     60  F   UNL A   1      37.373  29.885  27.101  1.00  0.00    -0.200 F 
ATOM     61  F   UNL A   1      35.878  30.200  29.357  1.00  0.00    -0.200 F 
ENDBRANCH  27  51
BRANCH  39  62
ATOM     62  C   UNL A   1      44.795  26.436  32.348  1.00  0.00     0.064 A 
ATOM     63  C   UNL A   1      44.775  26.514  33.753  1.00  0.00     0.173 A 
ATOM     64  C   UNL A   1      44.489  25.199  31.767  1.00  0.00     0.173 A 
ATOM     65  F   UNL A   1      44.951  27.685  34.381  1.00  0.00    -0.203 F 
ATOM     66  C   UNL A   1      44.510  25.390  34.533  1.00  0.00     0.198 A 
ATOM     67  C   UNL A   1      44.186  24.088  32.548  1.00  0.00     0.198 A 
ATOM     68  F   UNL A   1      44.434  25.080  30.430  1.00  0.00    -0.203 F 
ATOM     69  F   UNL A   1      44.508  25.485  35.871  1.00  0.00    -0.200 F 
ATOM     70  C   UNL A   1      44.209  24.179  33.930  1.00  0.00     0.200 A 
ATOM     71  F   UNL A   1      43.841  22.935  31.958  1.00  0.00    -0.200 F 
ATOM     72  F   UNL A   1      43.910  23.109  34.678  1.00  0.00    -0.200 F 
ENDBRANCH  39  62
ENDBRANCH  13  14
ENDBRANCH   6   8
ENDBRANCH   5   6
ENDBRANCH   4   5
ENDBRANCH   3   4
ENDBRANCH   2   3
ENDBRANCH   1   2
BRANCH   1  73
ATOM     73  C   UNL A   1      39.854  21.167  26.417  1.00  0.00     0.188 C 
BRANCH  73  74
ATOM     74  O   UNL A   1      39.048  22.277  26.037  1.00  0.00    -0.376 OA
BRANCH  74  75
ATOM     75  C   UNL A   1      37.676  22.023  25.789  1.00  0.00     0.202 C 
BRANCH  75  76
ATOM     76  C   UNL A   1      37.183  22.406  24.397  1.00  0.00     0.261 C 
BRANCH  76  77
ATOM     77  O   UNL A   1      36.207  23.467  24.321  1.00  0.00    -0.462 OA
BRANCH  77  78
ATOM     78  C   UNL A   1      35.187  23.262  23.440  1.00  0.00     0.329 C 
ATOM     79  O   UNL A   1      35.342  23.070  22.239  1.00  0.00    -0.250 OA
BRANCH  78  80
ATOM     80  C   UNL A   1      33.802  23.388  24.070  1.00  0.00     0.201 C 
ATOM     81  C   UNL A   1      33.729  23.165  25.610  1.00  0.00     0.093 C 
ATOM     82  N   UNL A   1      32.915  24.512  23.597  1.00  0.00    -0.318 N 
ATOM     83  C   UNL A   1      32.290  23.218  26.003  1.00  0.00     0.042 A 
ATOM     84  C   UNL A   1      31.467  24.329  23.861  1.00  0.00     0.179 C 
ATOM     85  N   UNL A   1      31.682  22.753  27.133  1.00  0.00    -0.348 N 
ATOM     86  C   UNL A   1      31.278  23.744  25.226  1.00  0.00     0.081 A 
ATOM     87  C   UNL A   1      30.341  23.013  26.998  1.00  0.00     0.197 A 
ATOM     88  H   UNL A   1      32.120  22.316  27.898  1.00  0.00     0.167 HD
ATOM     89  N   UNL A   1      30.069  23.603  25.854  1.00  0.00    -0.240 NA
BRANCH  82  90
ATOM     90  C   UNL A   1      33.290  25.748  23.075  1.00  0.00     0.256 C 
ATOM     91  O   UNL A   1      33.803  25.896  21.967  1.00  0.00    -0.269 OA
BRANCH  90  92
ATOM     92  C   UNL A   1      33.107  26.988  23.836  1.00  0.00     0.061 A 
ATOM     93  C   UNL A   1      33.924  27.200  24.950  1.00  0.00     0.035 A 
ATOM     94  C   UNL A   1      32.083  27.884  23.529  1.00  0.00     0.072 A 
ATOM     95  C   UNL A   1      33.725  28.355  25.683  1.00  0.00     0.112 A 
ATOM     96  C   UNL A   1      31.998  29.031  24.302  1.00  0.00     0.132 A 
ATOM     97  Cl  UNL A   1      30.973  27.651  22.233  1.00  0.00    -0.082 Cl
ATOM     98  N   UNL A   1      32.806  29.293  25.366  1.00  0.00    -0.263 NA
ENDBRANCH  90  92
ENDBRANCH  82  90
ENDBRANCH  78  80
ENDBRANCH  77  78
ENDBRANCH  76  77
ENDBRANCH  75  76
ENDBRANCH  74  75
ENDBRANCH  73  74
ENDBRANCH   1  73
TORSDOF 19
ENDMDL
