MODEL 1
REMARK VINA RESULT:     -10.4      0.000      0.000
REMARK SMILES CC(C)Cc1ccc([C@@H](C)C(=O)OCCOCCOCCOC(=O)c2ccc(-c3c4nc(c(-c5c(F)c(F)c(F)c(F)c5F)c5ccc([nH]5)c(-c5c(F)c(F)c(F)c(F)c5F)c5nc(c(-c6c(F)c(F)c(F)c(F)c6F)c6ccc3[nH]6)C=C5)C=C4)cc2)cc1
REMARK SMILES IDX 17 1 16 2 15 3 14 4 13 5 11 6 12 7 9 8 10 9 8 10 5 11 6 12
REMARK SMILES IDX 89 13 7 14 88 15 4 16 2 17 1 18 3 19 18 20 19 21 20 22 21 23
REMARK SMILES IDX 22 24 23 25 24 26 25 27 26 28 87 29 27 30 86 31 28 32 29 33
REMARK SMILES IDX 30 34 80 35 31 36 85 37 79 38 81 39 32 40 84 41 78 42 77 43
REMARK SMILES IDX 33 45 65 46 45 47 64 48 46 49 49 50 63 51 82 52 47 53 48 54
REMARK SMILES IDX 62 56 83 57 50 58 34 59 35 60 43 61 36 62 37 63 41 64 44 65
REMARK SMILES IDX 38 66 39 67 42 68 40 69 66 70 67 71 75 72 68 73 69 74 73 75
REMARK SMILES IDX 76 76 70 77 71 78 74 79 72 80 51 81 52 82 60 83 53 84 54 85
REMARK SMILES IDX 58 86 61 87 55 88 56 89 59 90 57 91
REMARK H PARENT 81 44 49 55
REMARK Flexibility Score: inf
ROOT
ATOM      1  C   UNL A   1      37.874  24.051  26.298  1.00  0.00     0.188 C 
ENDROOT
BRANCH   1   2
ATOM      2  O   UNL A   1      37.193  23.964  25.050  1.00  0.00    -0.376 OA
BRANCH   2   3
ATOM      3  C   UNL A   1      35.814  23.618  25.031  1.00  0.00     0.202 C 
BRANCH   3   4
ATOM      4  C   UNL A   1      34.875  24.421  24.116  1.00  0.00     0.261 C 
BRANCH   4   5
ATOM      5  O   UNL A   1      34.489  23.772  22.883  1.00  0.00    -0.463 OA
BRANCH   5   6
ATOM      6  C   UNL A   1      33.277  24.110  22.376  1.00  0.00     0.313 C 
ATOM      7  O   UNL A   1      33.120  24.992  21.534  1.00  0.00    -0.252 OA
BRANCH   6   8
ATOM      8  C   UNL A   1      32.075  23.314  22.893  1.00  0.00     0.126 C 
ATOM      9  C   UNL A   1      31.362  24.130  23.968  1.00  0.00     0.025 C 
BRANCH   8  10
ATOM     10  C   UNL A   1      32.215  21.861  23.338  1.00  0.00    -0.034 A 
ATOM     11  C   UNL A   1      32.551  19.197  24.275  1.00  0.00    -0.048 A 
ATOM     12  C   UNL A   1      32.312  19.458  22.919  1.00  0.00     0.004 A 
ATOM     13  C   UNL A   1      32.607  20.275  25.161  1.00  0.00     0.004 A 
ATOM     14  C   UNL A   1      32.151  20.774  22.454  1.00  0.00     0.005 A 
ATOM     15  C   UNL A   1      32.457  21.586  24.699  1.00  0.00     0.005 A 
BRANCH  11  16
ATOM     16  C   UNL A   1      32.799  17.787  24.768  1.00  0.00     0.038 C 
BRANCH  16  17
ATOM     17  C   UNL A   1      34.190  17.240  24.380  1.00  0.00    -0.013 C 
ATOM     18  C   UNL A   1      34.703  16.186  25.367  1.00  0.00     0.008 C 
ATOM     19  C   UNL A   1      34.153  16.631  22.975  1.00  0.00     0.008 C 
ENDBRANCH  16  17
ENDBRANCH  11  16
ENDBRANCH   8  10
ENDBRANCH   6   8
ENDBRANCH   5   6
ENDBRANCH   4   5
ENDBRANCH   3   4
ENDBRANCH   2   3
ENDBRANCH   1   2
BRANCH   1  20
ATOM     20  C   UNL A   1      39.235  23.361  26.472  1.00  0.00     0.188 C 
BRANCH  20  21
ATOM     21  O   UNL A   1      39.153  21.971  26.702  1.00  0.00    -0.376 OA
BRANCH  21  22
ATOM     22  C   UNL A   1      38.993  21.152  25.563  1.00  0.00     0.202 C 
BRANCH  22  23
ATOM     23  C   UNL A   1      39.508  19.717  25.742  1.00  0.00     0.261 C 
BRANCH  23  24
ATOM     24  O   UNL A   1      40.607  19.559  26.660  1.00  0.00    -0.460 OA
BRANCH  24  25
ATOM     25  C   UNL A   1      41.847  19.479  26.131  1.00  0.00     0.338 C 
ATOM     26  O   UNL A   1      42.275  18.611  25.386  1.00  0.00    -0.246 OA
BRANCH  25  27
ATOM     27  C   UNL A   1      42.565  20.736  26.444  1.00  0.00     0.060 A 
ATOM     28  C   UNL A   1      42.457  21.287  27.729  1.00  0.00     0.016 A 
ATOM     29  C   UNL A   1      43.338  21.374  25.472  1.00  0.00     0.016 A 
ATOM     30  C   UNL A   1      43.092  22.495  28.033  1.00  0.00     0.010 A 
ATOM     31  C   UNL A   1      43.957  22.594  25.772  1.00  0.00     0.010 A 
ATOM     32  C   UNL A   1      43.811  23.179  27.044  1.00  0.00    -0.014 A 
BRANCH  32  33
ATOM     33  C   UNL A   1      44.247  24.583  27.267  1.00  0.00     0.031 A 
ATOM     34  C   UNL A   1      43.225  25.588  27.725  1.00  0.00     0.074 A 
ATOM     35  C   UNL A   1      45.522  24.969  27.074  1.00  0.00     0.049 A 
ATOM     36  N   UNL A   1      43.346  26.877  27.919  1.00  0.00    -0.248 NA
ATOM     37  C   UNL A   1      41.877  25.064  28.000  1.00  0.00     0.031 C 
ATOM     38  C   UNL A   1      46.619  24.095  26.671  1.00  0.00     0.029 A 
ATOM     39  N   UNL A   1      46.102  26.212  27.182  1.00  0.00    -0.354 N 
ATOM     40  C   UNL A   1      42.093  27.318  28.324  1.00  0.00     0.074 A 
ATOM     41  C   UNL A   1      41.217  26.166  28.317  1.00  0.00     0.031 C 
ATOM     42  C   UNL A   1      47.740  24.829  26.553  1.00  0.00     0.029 A 
ATOM     43  C   UNL A   1      47.431  26.231  26.835  1.00  0.00     0.049 A 
ATOM     44  H   UNL A   1      45.611  27.011  27.480  1.00  0.00     0.167 HD
ATOM     45  C   UNL A   1      41.707  28.567  28.678  1.00  0.00     0.037 A 
ATOM     46  C   UNL A   1      48.289  27.266  26.733  1.00  0.00     0.037 A 
ATOM     47  C   UNL A   1      42.575  29.715  28.684  1.00  0.00     0.049 A 
ATOM     48  C   UNL A   1      47.813  28.664  27.053  1.00  0.00     0.074 A 
ATOM     49  C   UNL A   1      42.281  31.017  29.048  1.00  0.00     0.029 A 
ATOM     50  N   UNL A   1      43.907  29.700  28.296  1.00  0.00    -0.354 N 
ATOM     51  N   UNL A   1      46.636  29.069  27.465  1.00  0.00    -0.248 NA
ATOM     52  C   UNL A   1      48.792  29.751  26.893  1.00  0.00     0.031 C 
ATOM     53  C   UNL A   1      43.415  31.802  28.819  1.00  0.00     0.029 A 
ATOM     54  C   UNL A   1      44.439  30.977  28.381  1.00  0.00     0.049 A 
ATOM     55  H   UNL A   1      44.401  28.901  28.003  1.00  0.00     0.167 HD
ATOM     56  C   UNL A   1      46.744  30.443  27.649  1.00  0.00     0.074 A 
ATOM     57  C   UNL A   1      48.105  30.802  27.316  1.00  0.00     0.031 C 
ATOM     58  C   UNL A   1      45.800  31.325  28.060  1.00  0.00     0.037 A 
BRANCH  45  59
ATOM     59  C   UNL A   1      40.268  28.767  29.060  1.00  0.00     0.064 A 
ATOM     60  C   UNL A   1      39.291  29.114  28.115  1.00  0.00     0.173 A 
ATOM     61  C   UNL A   1      39.854  28.576  30.388  1.00  0.00     0.173 A 
ATOM     62  F   UNL A   1      39.633  29.320  26.834  1.00  0.00    -0.203 F 
ATOM     63  C   UNL A   1      37.960  29.291  28.489  1.00  0.00     0.198 A 
ATOM     64  C   UNL A   1      38.519  28.721  30.752  1.00  0.00     0.198 A 
ATOM     65  F   UNL A   1      40.746  28.239  31.333  1.00  0.00    -0.203 F 
ATOM     66  F   UNL A   1      37.055  29.675  27.579  1.00  0.00    -0.200 F 
ATOM     67  C   UNL A   1      37.575  29.087  29.805  1.00  0.00     0.200 A 
ATOM     68  F   UNL A   1      38.146  28.507  32.022  1.00  0.00    -0.200 F 
ATOM     69  F   UNL A   1      36.294  29.249  30.163  1.00  0.00    -0.200 F 
ENDBRANCH  45  59
BRANCH  46  70
ATOM     70  C   UNL A   1      49.693  27.034  26.294  1.00  0.00     0.064 A 
ATOM     71  C   UNL A   1      50.049  27.108  24.940  1.00  0.00     0.173 A 
ATOM     72  C   UNL A   1      50.697  26.692  27.212  1.00  0.00     0.173 A 
ATOM     73  F   UNL A   1      49.119  27.399  24.018  1.00  0.00    -0.203 F 
ATOM     74  C   UNL A   1      51.348  26.827  24.519  1.00  0.00     0.198 A 
ATOM     75  C   UNL A   1      52.004  26.445  26.793  1.00  0.00     0.198 A 
ATOM     76  F   UNL A   1      50.410  26.598  28.519  1.00  0.00    -0.203 F 
ATOM     77  F   UNL A   1      51.644  26.847  23.212  1.00  0.00    -0.200 F 
ATOM     78  C   UNL A   1      52.325  26.503  25.446  1.00  0.00     0.200 A 
ATOM     79  F   UNL A   1      52.946  26.138  27.695  1.00  0.00    -0.200 F 
ATOM     80  F   UNL A   1      53.573  26.230  25.041  1.00  0.00    -0.200 F 
ENDBRANCH  46  70
BRANCH  58  81
ATOM     81  C   UNL A   1      46.212  32.763  28.226  1.00  0.00     0.064 A 
ATOM     82  C   UNL A   1      46.783  33.241  29.415  1.00  0.00     0.173 A 
ATOM     83  C   UNL A   1      46.075  33.665  27.158  1.00  0.00     0.173 A 
ATOM     84  F   UNL A   1      46.927  32.425  30.470  1.00  0.00    -0.203 F 
ATOM     85  C   UNL A   1      47.172  34.573  29.539  1.00  0.00     0.198 A 
ATOM     86  C   UNL A   1      46.498  34.986  27.273  1.00  0.00     0.198 A 
ATOM     87  F   UNL A   1      45.544  33.260  25.994  1.00  0.00    -0.203 F 
ATOM     88  F   UNL A   1      47.666  35.019  30.701  1.00  0.00    -0.200 F 
ATOM     89  C   UNL A   1      47.037  35.441  28.466  1.00  0.00     0.200 A 
ATOM     90  F   UNL A   1      46.384  35.818  26.228  1.00  0.00    -0.200 F 
ATOM     91  F   UNL A   1      47.422  36.720  28.583  1.00  0.00    -0.200 F 
ENDBRANCH  58  81
ENDBRANCH  32  33
ENDBRANCH  25  27
ENDBRANCH  24  25
ENDBRANCH  23  24
ENDBRANCH  22  23
ENDBRANCH  21  22
ENDBRANCH  20  21
ENDBRANCH   1  20
TORSDOF 20
ENDMDL
MODEL 2
REMARK VINA RESULT:     -10.1      1.709      8.066
REMARK SMILES CC(C)Cc1ccc([C@@H](C)C(=O)OCCOCCOCCOC(=O)c2ccc(-c3c4nc(c(-c5c(F)c(F)c(F)c(F)c5F)c5ccc([nH]5)c(-c5c(F)c(F)c(F)c(F)c5F)c5nc(c(-c6c(F)c(F)c(F)c(F)c6F)c6ccc3[nH]6)C=C5)C=C4)cc2)cc1
REMARK SMILES IDX 17 1 16 2 15 3 14 4 13 5 11 6 12 7 9 8 10 9 8 10 5 11 6 12
REMARK SMILES IDX 89 13 7 14 88 15 4 16 2 17 1 18 3 19 18 20 19 21 20 22 21 23
REMARK SMILES IDX 22 24 23 25 24 26 25 27 26 28 87 29 27 30 86 31 28 32 29 33
REMARK SMILES IDX 30 34 80 35 31 36 85 37 79 38 81 39 32 40 84 41 78 42 77 43
REMARK SMILES IDX 33 45 65 46 45 47 64 48 46 49 49 50 63 51 82 52 47 53 48 54
REMARK SMILES IDX 62 56 83 57 50 58 34 59 35 60 43 61 36 62 37 63 41 64 44 65
REMARK SMILES IDX 38 66 39 67 42 68 40 69 66 70 67 71 75 72 68 73 69 74 73 75
REMARK SMILES IDX 76 76 70 77 71 78 74 79 72 80 51 81 52 82 60 83 53 84 54 85
REMARK SMILES IDX 58 86 61 87 55 88 56 89 59 90 57 91
REMARK H PARENT 81 44 49 55
REMARK Flexibility Score: inf
ROOT
ATOM      1  C   UNL A   1      35.817  21.136  24.675  1.00  0.00     0.188 C 
ENDROOT
BRANCH   1   2
ATOM      2  O   UNL A   1      34.760  20.423  25.310  1.00  0.00    -0.376 OA
BRANCH   2   3
ATOM      3  C   UNL A   1      33.447  20.494  24.768  1.00  0.00     0.202 C 
BRANCH   3   4
ATOM      4  C   UNL A   1      32.814  21.881  24.575  1.00  0.00     0.261 C 
BRANCH   4   5
ATOM      5  O   UNL A   1      32.556  22.272  23.206  1.00  0.00    -0.463 OA
BRANCH   5   6
ATOM      6  C   UNL A   1      33.195  23.384  22.765  1.00  0.00     0.313 C 
ATOM      7  O   UNL A   1      34.358  23.380  22.366  1.00  0.00    -0.252 OA
BRANCH   6   8
ATOM      8  C   UNL A   1      32.383  24.682  22.764  1.00  0.00     0.126 C 
ATOM      9  C   UNL A   1      32.793  25.526  21.560  1.00  0.00     0.025 C 
BRANCH   8  10
ATOM     10  C   UNL A   1      32.276  25.556  24.010  1.00  0.00    -0.034 A 
ATOM     11  C   UNL A   1      31.945  27.211  26.299  1.00  0.00    -0.048 A 
ATOM     12  C   UNL A   1      33.211  27.011  25.732  1.00  0.00     0.004 A 
ATOM     13  C   UNL A   1      30.848  26.567  25.722  1.00  0.00     0.004 A 
ATOM     14  C   UNL A   1      33.376  26.197  24.599  1.00  0.00     0.005 A 
ATOM     15  C   UNL A   1      31.008  25.766  24.588  1.00  0.00     0.005 A 
BRANCH  11  16
ATOM     16  C   UNL A   1      31.753  28.145  27.476  1.00  0.00     0.038 C 
BRANCH  16  17
ATOM     17  C   UNL A   1      32.074  29.619  27.143  1.00  0.00    -0.013 C 
ATOM     18  C   UNL A   1      33.569  29.934  27.259  1.00  0.00     0.008 C 
ATOM     19  C   UNL A   1      31.600  29.964  25.728  1.00  0.00     0.008 C 
ENDBRANCH  16  17
ENDBRANCH  11  16
ENDBRANCH   8  10
ENDBRANCH   6   8
ENDBRANCH   5   6
ENDBRANCH   4   5
ENDBRANCH   3   4
ENDBRANCH   2   3
ENDBRANCH   1   2
BRANCH   1  20
ATOM     20  C   UNL A   1      37.268  20.671  24.862  1.00  0.00     0.188 C 
BRANCH  20  21
ATOM     21  O   UNL A   1      38.039  21.501  25.703  1.00  0.00    -0.376 OA
BRANCH  21  22
ATOM     22  C   UNL A   1      39.420  21.216  25.777  1.00  0.00     0.202 C 
BRANCH  22  23
ATOM     23  C   UNL A   1      39.743  19.753  26.107  1.00  0.00     0.261 C 
BRANCH  23  24
ATOM     24  O   UNL A   1      40.874  19.192  25.411  1.00  0.00    -0.460 OA
BRANCH  24  25
ATOM     25  C   UNL A   1      42.016  19.034  26.114  1.00  0.00     0.338 C 
ATOM     26  O   UNL A   1      42.601  17.986  26.342  1.00  0.00    -0.246 OA
BRANCH  25  27
ATOM     27  C   UNL A   1      42.567  20.377  26.408  1.00  0.00     0.060 A 
ATOM     28  C   UNL A   1      42.497  20.877  27.717  1.00  0.00     0.016 A 
ATOM     29  C   UNL A   1      43.146  21.144  25.395  1.00  0.00     0.016 A 
ATOM     30  C   UNL A   1      42.972  22.159  28.007  1.00  0.00     0.010 A 
ATOM     31  C   UNL A   1      43.603  22.436  25.684  1.00  0.00     0.010 A 
ATOM     32  C   UNL A   1      43.490  22.965  26.984  1.00  0.00    -0.014 A 
BRANCH  32  33
ATOM     33  C   UNL A   1      43.734  24.413  27.218  1.00  0.00     0.031 A 
ATOM     34  C   UNL A   1      45.144  24.929  27.111  1.00  0.00     0.074 A 
ATOM     35  C   UNL A   1      42.733  25.262  27.516  1.00  0.00     0.049 A 
ATOM     36  N   UNL A   1      45.616  26.129  27.339  1.00  0.00    -0.248 NA
ATOM     37  C   UNL A   1      46.162  23.953  26.692  1.00  0.00     0.031 C 
ATOM     38  C   UNL A   1      41.321  24.906  27.612  1.00  0.00     0.029 A 
ATOM     39  N   UNL A   1      42.764  26.606  27.807  1.00  0.00    -0.354 N 
ATOM     40  C   UNL A   1      46.982  26.048  27.103  1.00  0.00     0.074 A 
ATOM     41  C   UNL A   1      47.270  24.676  26.747  1.00  0.00     0.031 C 
ATOM     42  C   UNL A   1      40.618  26.001  27.951  1.00  0.00     0.029 A 
ATOM     43  C   UNL A   1      41.535  27.126  28.134  1.00  0.00     0.049 A 
ATOM     44  H   UNL A   1      43.588  27.143  27.783  1.00  0.00     0.167 HD
ATOM     45  C   UNL A   1      47.913  27.030  27.169  1.00  0.00     0.037 A 
ATOM     46  C   UNL A   1      41.197  28.362  28.556  1.00  0.00     0.037 A 
ATOM     47  C   UNL A   1      47.630  28.396  27.525  1.00  0.00     0.049 A 
ATOM     48  C   UNL A   1      42.266  29.419  28.702  1.00  0.00     0.074 A 
ATOM     49  C   UNL A   1      48.503  29.466  27.598  1.00  0.00     0.029 A 
ATOM     50  N   UNL A   1      46.378  28.876  27.879  1.00  0.00    -0.354 N 
ATOM     51  N   UNL A   1      43.550  29.344  28.448  1.00  0.00    -0.248 NA
ATOM     52  C   UNL A   1      41.835  30.736  29.194  1.00  0.00     0.031 C 
ATOM     53  C   UNL A   1      47.793  30.580  28.058  1.00  0.00     0.029 A 
ATOM     54  C   UNL A   1      46.462  30.221  28.203  1.00  0.00     0.049 A 
ATOM     55  H   UNL A   1      45.552  28.342  27.899  1.00  0.00     0.167 HD
ATOM     56  C   UNL A   1      44.069  30.607  28.712  1.00  0.00     0.074 A 
ATOM     57  C   UNL A   1      42.960  31.433  29.134  1.00  0.00     0.031 C 
ATOM     58  C   UNL A   1      45.350  31.042  28.610  1.00  0.00     0.037 A 
BRANCH  45  59
ATOM     59  C   UNL A   1      49.339  26.655  26.879  1.00  0.00     0.064 A 
ATOM     60  C   UNL A   1      49.874  26.721  25.584  1.00  0.00     0.173 A 
ATOM     61  C   UNL A   1      50.191  26.254  27.920  1.00  0.00     0.173 A 
ATOM     62  F   UNL A   1      49.099  27.086  24.551  1.00  0.00    -0.203 F 
ATOM     63  C   UNL A   1      51.200  26.372  25.336  1.00  0.00     0.198 A 
ATOM     64  C   UNL A   1      51.524  25.938  27.674  1.00  0.00     0.198 A 
ATOM     65  F   UNL A   1      49.733  26.176  29.179  1.00  0.00    -0.203 F 
ATOM     66  F   UNL A   1      51.673  26.392  24.083  1.00  0.00    -0.200 F 
ATOM     67  C   UNL A   1      52.025  25.990  26.382  1.00  0.00     0.200 A 
ATOM     68  F   UNL A   1      52.325  25.584  28.689  1.00  0.00    -0.200 F 
ATOM     69  F   UNL A   1      53.303  25.662  26.145  1.00  0.00    -0.200 F 
ENDBRANCH  45  59
BRANCH  46  70
ATOM     70  C   UNL A   1      39.780  28.677  28.889  1.00  0.00     0.064 A 
ATOM     71  C   UNL A   1      38.922  29.248  27.938  1.00  0.00     0.173 A 
ATOM     72  C   UNL A   1      39.268  28.455  30.176  1.00  0.00     0.173 A 
ATOM     73  F   UNL A   1      39.374  29.511  26.703  1.00  0.00    -0.203 F 
ATOM     74  C   UNL A   1      37.616  29.604  28.266  1.00  0.00     0.198 A 
ATOM     75  C   UNL A   1      37.950  28.781  30.493  1.00  0.00     0.198 A 
ATOM     76  F   UNL A   1      40.047  27.920  31.127  1.00  0.00    -0.203 F 
ATOM     77  F   UNL A   1      36.838  30.203  27.354  1.00  0.00    -0.200 F 
ATOM     78  C   UNL A   1      37.129  29.364  29.541  1.00  0.00     0.200 A 
ATOM     79  F   UNL A   1      37.482  28.540  31.726  1.00  0.00    -0.200 F 
ATOM     80  F   UNL A   1      35.873  29.710  29.858  1.00  0.00    -0.200 F 
ENDBRANCH  46  70
BRANCH  58  81
ATOM     81  C   UNL A   1      45.621  32.491  28.910  1.00  0.00     0.064 A 
ATOM     82  C   UNL A   1      45.476  33.492  27.937  1.00  0.00     0.173 A 
ATOM     83  C   UNL A   1      45.988  32.888  30.206  1.00  0.00     0.173 A 
ATOM     84  F   UNL A   1      45.138  33.167  26.680  1.00  0.00    -0.203 F 
ATOM     85  C   UNL A   1      45.717  34.829  28.243  1.00  0.00     0.198 A 
ATOM     86  C   UNL A   1      46.194  34.229  30.517  1.00  0.00     0.198 A 
ATOM     87  F   UNL A   1      46.133  31.974  31.178  1.00  0.00    -0.203 F 
ATOM     88  F   UNL A   1      45.624  35.761  27.285  1.00  0.00    -0.200 F 
ATOM     89  C   UNL A   1      46.067  35.198  29.533  1.00  0.00     0.200 A 
ATOM     90  F   UNL A   1      46.513  34.584  31.769  1.00  0.00    -0.200 F 
ATOM     91  F   UNL A   1      46.289  36.486  29.828  1.00  0.00    -0.200 F 
ENDBRANCH  58  81
ENDBRANCH  32  33
ENDBRANCH  25  27
ENDBRANCH  24  25
ENDBRANCH  23  24
ENDBRANCH  22  23
ENDBRANCH  21  22
ENDBRANCH  20  21
ENDBRANCH   1  20
TORSDOF 20
ENDMDL
MODEL 3
REMARK VINA RESULT:     -10.1      1.977      8.211
REMARK SMILES CC(C)Cc1ccc([C@@H](C)C(=O)OCCOCCOCCOC(=O)c2ccc(-c3c4nc(c(-c5c(F)c(F)c(F)c(F)c5F)c5ccc([nH]5)c(-c5c(F)c(F)c(F)c(F)c5F)c5nc(c(-c6c(F)c(F)c(F)c(F)c6F)c6ccc3[nH]6)C=C5)C=C4)cc2)cc1
REMARK SMILES IDX 17 1 16 2 15 3 14 4 13 5 11 6 12 7 9 8 10 9 8 10 5 11 6 12
REMARK SMILES IDX 89 13 7 14 88 15 4 16 2 17 1 18 3 19 18 20 19 21 20 22 21 23
REMARK SMILES IDX 22 24 23 25 24 26 25 27 26 28 87 29 27 30 86 31 28 32 29 33
REMARK SMILES IDX 30 34 80 35 31 36 85 37 79 38 81 39 32 40 84 41 78 42 77 43
REMARK SMILES IDX 33 45 65 46 45 47 64 48 46 49 49 50 63 51 82 52 47 53 48 54
REMARK SMILES IDX 62 56 83 57 50 58 34 59 35 60 43 61 36 62 37 63 41 64 44 65
REMARK SMILES IDX 38 66 39 67 42 68 40 69 66 70 67 71 75 72 68 73 69 74 73 75
REMARK SMILES IDX 76 76 70 77 71 78 74 79 72 80 51 81 52 82 60 83 53 84 54 85
REMARK SMILES IDX 58 86 61 87 55 88 56 89 59 90 57 91
REMARK H PARENT 81 44 49 55
REMARK Flexibility Score: inf
ROOT
ATOM      1  C   UNL A   1      35.630  21.003  24.784  1.00  0.00     0.188 C 
ENDROOT
BRANCH   1   2
ATOM      2  O   UNL A   1      34.649  20.777  25.790  1.00  0.00    -0.376 OA
BRANCH   2   3
ATOM      3  C   UNL A   1      33.348  20.345  25.411  1.00  0.00     0.202 C 
BRANCH   3   4
ATOM      4  C   UNL A   1      32.362  21.393  24.868  1.00  0.00     0.261 C 
BRANCH   4   5
ATOM      5  O   UNL A   1      31.269  21.745  25.747  1.00  0.00    -0.463 OA
BRANCH   5   6
ATOM      6  C   UNL A   1      31.314  22.981  26.303  1.00  0.00     0.313 C 
ATOM      7  O   UNL A   1      30.675  23.294  27.305  1.00  0.00    -0.252 OA
BRANCH   6   8
ATOM      8  C   UNL A   1      32.234  24.001  25.625  1.00  0.00     0.126 C 
ATOM      9  C   UNL A   1      33.546  24.081  26.401  1.00  0.00     0.025 C 
BRANCH   8  10
ATOM     10  C   UNL A   1      31.744  25.401  25.268  1.00  0.00    -0.034 A 
ATOM     11  C   UNL A   1      30.767  27.957  24.492  1.00  0.00    -0.048 A 
ATOM     12  C   UNL A   1      31.938  27.834  25.252  1.00  0.00     0.004 A 
ATOM     13  C   UNL A   1      30.080  26.793  24.135  1.00  0.00     0.004 A 
ATOM     14  C   UNL A   1      32.425  26.572  25.632  1.00  0.00     0.005 A 
ATOM     15  C   UNL A   1      30.569  25.536  24.503  1.00  0.00     0.005 A 
BRANCH  11  16
ATOM     16  C   UNL A   1      30.278  29.309  24.018  1.00  0.00     0.038 C 
BRANCH  16  17
ATOM     17  C   UNL A   1      29.335  29.224  22.798  1.00  0.00    -0.013 C 
ATOM     18  C   UNL A   1      27.920  29.722  23.114  1.00  0.00     0.008 C 
ATOM     19  C   UNL A   1      29.898  30.036  21.627  1.00  0.00     0.008 C 
ENDBRANCH  16  17
ENDBRANCH  11  16
ENDBRANCH   8  10
ENDBRANCH   6   8
ENDBRANCH   5   6
ENDBRANCH   4   5
ENDBRANCH   3   4
ENDBRANCH   2   3
ENDBRANCH   1   2
BRANCH   1  20
ATOM     20  C   UNL A   1      37.077  20.541  25.014  1.00  0.00     0.188 C 
BRANCH  20  21
ATOM     21  O   UNL A   1      37.875  21.465  25.721  1.00  0.00    -0.376 OA
BRANCH  21  22
ATOM     22  C   UNL A   1      39.261  21.202  25.759  1.00  0.00     0.202 C 
BRANCH  22  23
ATOM     23  C   UNL A   1      39.616  19.748  26.094  1.00  0.00     0.261 C 
BRANCH  23  24
ATOM     24  O   UNL A   1      40.766  19.213  25.408  1.00  0.00    -0.460 OA
BRANCH  24  25
ATOM     25  C   UNL A   1      41.906  19.085  26.122  1.00  0.00     0.338 C 
ATOM     26  O   UNL A   1      42.500  18.049  26.379  1.00  0.00    -0.246 OA
BRANCH  25  27
ATOM     27  C   UNL A   1      42.442  20.440  26.384  1.00  0.00     0.060 A 
ATOM     28  C   UNL A   1      42.396  20.956  27.687  1.00  0.00     0.016 A 
ATOM     29  C   UNL A   1      42.982  21.203  25.347  1.00  0.00     0.016 A 
ATOM     30  C   UNL A   1      42.858  22.250  27.949  1.00  0.00     0.010 A 
ATOM     31  C   UNL A   1      43.426  22.506  25.608  1.00  0.00     0.010 A 
ATOM     32  C   UNL A   1      43.336  23.050  26.903  1.00  0.00    -0.014 A 
BRANCH  32  33
ATOM     33  C   UNL A   1      43.562  24.505  27.112  1.00  0.00     0.031 A 
ATOM     34  C   UNL A   1      44.933  25.064  26.842  1.00  0.00     0.074 A 
ATOM     35  C   UNL A   1      42.579  25.323  27.530  1.00  0.00     0.049 A 
ATOM     36  N   UNL A   1      45.392  26.277  27.017  1.00  0.00    -0.248 NA
ATOM     37  C   UNL A   1      45.924  24.120  26.301  1.00  0.00     0.031 C 
ATOM     38  C   UNL A   1      41.199  24.923  27.792  1.00  0.00     0.029 A 
ATOM     39  N   UNL A   1      42.603  26.667  27.821  1.00  0.00    -0.354 N 
ATOM     40  C   UNL A   1      46.723  26.239  26.621  1.00  0.00     0.074 A 
ATOM     41  C   UNL A   1      47.008  24.876  26.228  1.00  0.00     0.031 C 
ATOM     42  C   UNL A   1      40.508  25.997  28.216  1.00  0.00     0.029 A 
ATOM     43  C   UNL A   1      41.406  27.149  28.293  1.00  0.00     0.049 A 
ATOM     44  H   UNL A   1      43.401  27.229  27.701  1.00  0.00     0.167 HD
ATOM     45  C   UNL A   1      47.625  27.248  26.580  1.00  0.00     0.037 A 
ATOM     46  C   UNL A   1      41.083  28.374  28.757  1.00  0.00     0.037 A 
ATOM     47  C   UNL A   1      47.345  28.605  26.972  1.00  0.00     0.049 A 
ATOM     48  C   UNL A   1      42.130  29.463  28.780  1.00  0.00     0.074 A 
ATOM     49  C   UNL A   1      48.188  29.702  26.946  1.00  0.00     0.029 A 
ATOM     50  N   UNL A   1      46.130  29.046  27.474  1.00  0.00    -0.354 N 
ATOM     51  N   UNL A   1      43.376  29.427  28.376  1.00  0.00    -0.248 NA
ATOM     52  C   UNL A   1      41.720  30.766  29.325  1.00  0.00     0.031 C 
ATOM     53  C   UNL A   1      47.504  30.793  27.491  1.00  0.00     0.029 A 
ATOM     54  C   UNL A   1      46.211  30.393  27.791  1.00  0.00     0.049 A 
ATOM     55  H   UNL A   1      45.328  28.487  27.589  1.00  0.00     0.167 HD
ATOM     56  C   UNL A   1      43.884  30.705  28.581  1.00  0.00     0.074 A 
ATOM     57  C   UNL A   1      42.808  31.497  29.135  1.00  0.00     0.031 C 
ATOM     58  C   UNL A   1      45.129  31.180  28.330  1.00  0.00     0.037 A 
BRANCH  45  59
ATOM     59  C   UNL A   1      49.017  26.917  26.122  1.00  0.00     0.064 A 
ATOM     60  C   UNL A   1      49.997  26.449  27.010  1.00  0.00     0.173 A 
ATOM     61  C   UNL A   1      49.365  27.040  24.768  1.00  0.00     0.173 A 
ATOM     62  F   UNL A   1      49.722  26.325  28.317  1.00  0.00    -0.203 F 
ATOM     63  C   UNL A   1      51.282  26.144  26.565  1.00  0.00     0.198 A 
ATOM     64  C   UNL A   1      50.640  26.703  24.321  1.00  0.00     0.198 A 
ATOM     65  F   UNL A   1      48.466  27.479  23.875  1.00  0.00    -0.203 F 
ATOM     66  F   UNL A   1      52.217  25.750  27.440  1.00  0.00    -0.200 F 
ATOM     67  C   UNL A   1      51.599  26.264  25.221  1.00  0.00     0.200 A 
ATOM     68  F   UNL A   1      50.939  26.803  23.019  1.00  0.00    -0.200 F 
ATOM     69  F   UNL A   1      52.832  25.963  24.792  1.00  0.00    -0.200 F 
ENDBRANCH  45  59
BRANCH  46  70
ATOM     70  C   UNL A   1      39.707  28.645  29.257  1.00  0.00     0.064 A 
ATOM     71  C   UNL A   1      38.730  29.205  28.421  1.00  0.00     0.173 A 
ATOM     72  C   UNL A   1      39.353  28.392  30.590  1.00  0.00     0.173 A 
ATOM     73  F   UNL A   1      39.028  29.496  27.146  1.00  0.00    -0.203 F 
ATOM     74  C   UNL A   1      37.462  29.520  28.904  1.00  0.00     0.198 A 
ATOM     75  C   UNL A   1      38.072  28.677  31.063  1.00  0.00     0.198 A 
ATOM     76  F   UNL A   1      40.250  27.866  31.437  1.00  0.00    -0.203 F 
ATOM     77  F   UNL A   1      36.568  30.110  28.097  1.00  0.00    -0.200 F 
ATOM     78  C   UNL A   1      37.132  29.250  30.222  1.00  0.00     0.200 A 
ATOM     79  F   UNL A   1      37.757  28.407  32.337  1.00  0.00    -0.200 F 
ATOM     80  F   UNL A   1      35.912  29.557  30.687  1.00  0.00    -0.200 F 
ENDBRANCH  46  70
BRANCH  58  81
ATOM     81  C   UNL A   1      45.391  32.636  28.601  1.00  0.00     0.064 A 
ATOM     82  C   UNL A   1      45.934  33.081  29.816  1.00  0.00     0.173 A 
ATOM     83  C   UNL A   1      45.136  33.597  27.609  1.00  0.00     0.173 A 
ATOM     84  F   UNL A   1      46.187  32.207  30.802  1.00  0.00    -0.203 F 
ATOM     85  C   UNL A   1      46.182  34.433  30.039  1.00  0.00     0.198 A 
ATOM     86  C   UNL A   1      45.419  34.944  27.821  1.00  0.00     0.198 A 
ATOM     87  F   UNL A   1      44.625  33.227  26.425  1.00  0.00    -0.203 F 
ATOM     88  F   UNL A   1      46.651  34.840  31.226  1.00  0.00    -0.200 F 
ATOM     89  C   UNL A   1      45.933  35.362  29.039  1.00  0.00     0.200 A 
ATOM     90  F   UNL A   1      45.195  35.835  26.847  1.00  0.00    -0.200 F 
ATOM     91  F   UNL A   1      46.183  36.661  29.250  1.00  0.00    -0.200 F 
ENDBRANCH  58  81
ENDBRANCH  32  33
ENDBRANCH  25  27
ENDBRANCH  24  25
ENDBRANCH  23  24
ENDBRANCH  22  23
ENDBRANCH  21  22
ENDBRANCH  20  21
ENDBRANCH   1  20
TORSDOF 20
ENDMDL
