MODEL 1
REMARK VINA RESULT:      -9.9      0.000      0.000
REMARK SMILES CCOc1cc(OCC)cc(-c2ccc([C@@H](C)C(=O)OCCOCCOCCOC(=O)c3ccc(-c4c5nc(c(-c6c(F)c(F)c(F)c(F)c6F)c6ccc([nH]6)c(-c6c(F)c(F)c(F)c(F)c6F)c6nc(c(-c7c(F)c(F)c(F)c(F)c7F)c7ccc4[nH]7)C=C6)C=C5)cc3)cc2F)c1
REMARK SMILES IDX 24 1 23 2 22 3 21 4 20 5 18 6 19 7 16 8 17 9 15 10 12 11
REMARK SMILES IDX 13 12 96 13 14 14 95 15 97 16 11 17 4 18 5 19 98 20 6 21
REMARK SMILES IDX 10 22 3 23 2 24 1 25 7 26 8 27 9 28 25 29 26 30 27 31 28 32
REMARK SMILES IDX 29 33 30 34 31 35 32 36 33 37 94 38 34 39 93 40 35 41 36 42
REMARK SMILES IDX 37 43 87 44 38 45 92 46 86 47 88 48 39 49 91 50 85 51 84 52
REMARK SMILES IDX 40 54 72 55 52 56 71 57 53 58 56 59 70 60 89 61 54 62 55 63
REMARK SMILES IDX 69 65 90 66 57 67 41 68 42 69 50 70 43 71 44 72 48 73 51 74
REMARK SMILES IDX 45 75 46 76 49 77 47 78 73 79 74 80 82 81 75 82 76 83 80 84
REMARK SMILES IDX 83 85 77 86 78 87 81 88 79 89 58 90 59 91 67 92 60 93 61 94
REMARK SMILES IDX 65 95 68 96 62 97 63 98 66 99 64 100
REMARK H PARENT 88 53 56 64
REMARK Flexibility Score: inf
ROOT
ATOM      1  C   UNL A   1      35.167  22.199  26.256  1.00  0.00     0.188 C 
ENDROOT
BRANCH   1   2
ATOM      2  O   UNL A   1      33.886  22.173  25.639  1.00  0.00    -0.376 OA
BRANCH   2   3
ATOM      3  C   UNL A   1      33.760  22.551  24.274  1.00  0.00     0.202 C 
BRANCH   3   4
ATOM      4  C   UNL A   1      33.701  24.049  23.937  1.00  0.00     0.261 C 
BRANCH   4   5
ATOM      5  O   UNL A   1      32.409  24.677  24.100  1.00  0.00    -0.463 OA
BRANCH   5   6
ATOM      6  C   UNL A   1      32.355  26.016  23.882  1.00  0.00     0.313 C 
ATOM      7  O   UNL A   1      32.859  26.562  22.903  1.00  0.00    -0.252 OA
BRANCH   6   8
ATOM      8  C   UNL A   1      31.610  26.844  24.934  1.00  0.00     0.126 C 
ATOM      9  C   UNL A   1      30.206  27.152  24.417  1.00  0.00     0.025 C 
BRANCH   8  10
ATOM     10  C   UNL A   1      32.237  28.095  25.542  1.00  0.00    -0.031 A 
ATOM     11  C   UNL A   1      33.491  30.373  26.748  1.00  0.00     0.018 A 
ATOM     12  C   UNL A   1      32.297  30.487  26.009  1.00  0.00     0.012 A 
ATOM     13  C   UNL A   1      34.045  29.096  26.859  1.00  0.00     0.131 A 
ATOM     14  C   UNL A   1      31.671  29.370  25.429  1.00  0.00     0.005 A 
ATOM     15  C   UNL A   1      33.433  27.977  26.280  1.00  0.00     0.044 A 
ATOM     16  F   UNL A   1      35.178  28.904  27.551  1.00  0.00    -0.206 F 
BRANCH  11  17
ATOM     17  C   UNL A   1      34.063  31.545  27.438  1.00  0.00    -0.008 A 
ATOM     18  C   UNL A   1      35.924  32.905  28.226  1.00  0.00     0.123 A 
ATOM     19  C   UNL A   1      35.035  33.827  28.779  1.00  0.00     0.092 A 
ATOM     20  C   UNL A   1      35.443  31.764  27.571  1.00  0.00     0.055 A 
ATOM     21  C   UNL A   1      33.661  33.614  28.690  1.00  0.00     0.123 A 
ATOM     22  C   UNL A   1      33.192  32.479  28.026  1.00  0.00     0.055 A 
BRANCH  18  23
ATOM     23  O   UNL A   1      37.254  33.073  28.507  1.00  0.00    -0.494 OA
BRANCH  23  24
ATOM     24  C   UNL A   1      37.567  34.274  29.220  1.00  0.00     0.226 C 
ATOM     25  C   UNL A   1      37.950  33.974  30.654  1.00  0.00     0.049 C 
ENDBRANCH  23  24
ENDBRANCH  18  23
BRANCH  21  26
ATOM     26  O   UNL A   1      32.871  34.570  29.270  1.00  0.00    -0.494 OA
BRANCH  26  27
ATOM     27  C   UNL A   1      33.520  35.714  29.831  1.00  0.00     0.226 C 
ATOM     28  C   UNL A   1      33.194  36.978  29.050  1.00  0.00     0.049 C 
ENDBRANCH  26  27
ENDBRANCH  21  26
ENDBRANCH  11  17
ENDBRANCH   8  10
ENDBRANCH   6   8
ENDBRANCH   5   6
ENDBRANCH   4   5
ENDBRANCH   3   4
ENDBRANCH   2   3
ENDBRANCH   1   2
BRANCH   1  29
ATOM     29  C   UNL A   1      36.417  21.829  25.442  1.00  0.00     0.188 C 
BRANCH  29  30
ATOM     30  O   UNL A   1      36.855  20.494  25.590  1.00  0.00    -0.376 OA
BRANCH  30  31
ATOM     31  C   UNL A   1      37.927  20.096  24.757  1.00  0.00     0.202 C 
BRANCH  31  32
ATOM     32  C   UNL A   1      39.058  19.367  25.498  1.00  0.00     0.261 C 
BRANCH  32  33
ATOM     33  O   UNL A   1      39.520  20.011  26.706  1.00  0.00    -0.460 OA
BRANCH  33  34
ATOM     34  C   UNL A   1      40.847  20.240  26.783  1.00  0.00     0.338 C 
ATOM     35  O   UNL A   1      41.732  19.484  26.401  1.00  0.00    -0.246 OA
BRANCH  34  36
ATOM     36  C   UNL A   1      41.093  21.634  27.202  1.00  0.00     0.060 A 
ATOM     37  C   UNL A   1      40.422  22.671  26.538  1.00  0.00     0.016 A 
ATOM     38  C   UNL A   1      42.007  21.925  28.216  1.00  0.00     0.016 A 
ATOM     39  C   UNL A   1      40.684  24.001  26.867  1.00  0.00     0.010 A 
ATOM     40  C   UNL A   1      42.283  23.261  28.532  1.00  0.00     0.010 A 
ATOM     41  C   UNL A   1      41.647  24.308  27.839  1.00  0.00    -0.014 A 
BRANCH  41  42
ATOM     42  C   UNL A   1      42.093  25.715  28.012  1.00  0.00     0.031 A 
ATOM     43  C   UNL A   1      43.397  26.148  27.396  1.00  0.00     0.074 A 
ATOM     44  C   UNL A   1      41.336  26.610  28.670  1.00  0.00     0.049 A 
ATOM     45  N   UNL A   1      43.978  27.321  27.411  1.00  0.00    -0.248 NA
ATOM     46  C   UNL A   1      44.148  25.115  26.665  1.00  0.00     0.031 C 
ATOM     47  C   UNL A   1      40.044  26.329  29.291  1.00  0.00     0.029 A 
ATOM     48  N   UNL A   1      41.551  27.943  28.927  1.00  0.00    -0.354 N 
ATOM     49  C   UNL A   1      45.160  27.168  26.695  1.00  0.00     0.074 A 
ATOM     50  C   UNL A   1      45.231  25.780  26.292  1.00  0.00     0.031 C 
ATOM     51  C   UNL A   1      39.579  27.456  29.859  1.00  0.00     0.029 A 
ATOM     52  C   UNL A   1      40.554  28.529  29.667  1.00  0.00     0.049 A 
ATOM     53  H   UNL A   1      42.345  28.430  28.610  1.00  0.00     0.167 HD
ATOM     54  C   UNL A   1      46.093  28.102  26.390  1.00  0.00     0.037 A 
ATOM     55  C   UNL A   1      40.448  29.785  30.145  1.00  0.00     0.037 A 
ATOM     56  C   UNL A   1      46.027  29.483  26.792  1.00  0.00     0.049 A 
ATOM     57  C   UNL A   1      41.531  30.789  29.842  1.00  0.00     0.074 A 
ATOM     58  C   UNL A   1      46.916  30.508  26.515  1.00  0.00     0.029 A 
ATOM     59  N   UNL A   1      45.016  30.033  27.569  1.00  0.00    -0.354 N 
ATOM     60  N   UNL A   1      42.626  30.645  29.135  1.00  0.00    -0.248 NA
ATOM     61  C   UNL A   1      41.354  32.139  30.396  1.00  0.00     0.031 C 
ATOM     62  C   UNL A   1      46.476  31.662  27.173  1.00  0.00     0.029 A 
ATOM     63  C   UNL A   1      45.276  31.375  27.803  1.00  0.00     0.049 A 
ATOM     64  H   UNL A   1      44.231  29.542  27.903  1.00  0.00     0.167 HD
ATOM     65  C   UNL A   1      43.251  31.887  29.134  1.00  0.00     0.074 A 
ATOM     66  C   UNL A   1      42.397  32.780  29.891  1.00  0.00     0.031 C 
ATOM     67  C   UNL A   1      44.423  32.257  28.560  1.00  0.00     0.037 A 
BRANCH  54  68
ATOM     68  C   UNL A   1      47.290  27.651  25.599  1.00  0.00     0.064 A 
ATOM     69  C   UNL A   1      47.304  27.681  24.196  1.00  0.00     0.173 A 
ATOM     70  C   UNL A   1      48.451  27.214  26.255  1.00  0.00     0.173 A 
ATOM     71  F   UNL A   1      46.217  28.077  23.517  1.00  0.00    -0.203 F 
ATOM     72  C   UNL A   1      48.425  27.264  23.481  1.00  0.00     0.198 A 
ATOM     73  C   UNL A   1      49.580  26.829  25.538  1.00  0.00     0.198 A 
ATOM     74  F   UNL A   1      48.494  27.169  27.596  1.00  0.00    -0.203 F 
ATOM     75  F   UNL A   1      48.396  27.253  22.140  1.00  0.00    -0.200 F 
ATOM     76  C   UNL A   1      49.564  26.847  24.152  1.00  0.00     0.200 A 
ATOM     77  F   UNL A   1      50.686  26.440  26.189  1.00  0.00    -0.200 F 
ATOM     78  F   UNL A   1      50.644  26.454  23.462  1.00  0.00    -0.200 F 
ENDBRANCH  54  68
BRANCH  55  79
ATOM     79  C   UNL A   1      39.269  30.173  30.967  1.00  0.00     0.064 A 
ATOM     80  C   UNL A   1      39.380  30.364  32.351  1.00  0.00     0.173 A 
ATOM     81  C   UNL A   1      38.000  30.324  30.389  1.00  0.00     0.173 A 
ATOM     82  F   UNL A   1      40.566  30.202  32.956  1.00  0.00    -0.203 F 
ATOM     83  C   UNL A   1      38.264  30.669  33.128  1.00  0.00     0.198 A 
ATOM     84  C   UNL A   1      36.891  30.662  31.162  1.00  0.00     0.198 A 
ATOM     85  F   UNL A   1      37.837  30.146  29.070  1.00  0.00    -0.203 F 
ATOM     86  F   UNL A   1      38.389  30.789  34.457  1.00  0.00    -0.200 F 
ATOM     87  C   UNL A   1      37.022  30.823  32.533  1.00  0.00     0.200 A 
ATOM     88  F   UNL A   1      35.695  30.821  30.580  1.00  0.00    -0.200 F 
ATOM     89  F   UNL A   1      35.949  31.117  33.280  1.00  0.00    -0.200 F 
ENDBRANCH  55  79
BRANCH  67  90
ATOM     90  C   UNL A   1      44.830  33.700  28.695  1.00  0.00     0.064 A 
ATOM     91  C   UNL A   1      45.638  34.147  29.752  1.00  0.00     0.173 A 
ATOM     92  C   UNL A   1      44.408  34.649  27.750  1.00  0.00     0.173 A 
ATOM     93  F   UNL A   1      46.062  33.285  30.689  1.00  0.00    -0.203 F 
ATOM     94  C   UNL A   1      45.962  35.495  29.887  1.00  0.00     0.198 A 
ATOM     95  C   UNL A   1      44.767  35.989  27.867  1.00  0.00     0.198 A 
ATOM     96  F   UNL A   1      43.646  34.277  26.711  1.00  0.00    -0.203 F 
ATOM     97  F   UNL A   1      46.671  35.908  30.947  1.00  0.00    -0.200 F 
ATOM     98  C   UNL A   1      45.531  36.414  28.943  1.00  0.00     0.200 A 
ATOM     99  F   UNL A   1      44.364  36.872  26.943  1.00  0.00    -0.200 F 
ATOM    100  F   UNL A   1      45.840  37.711  29.077  1.00  0.00    -0.200 F 
ENDBRANCH  67  90
ENDBRANCH  41  42
ENDBRANCH  34  36
ENDBRANCH  33  34
ENDBRANCH  32  33
ENDBRANCH  31  32
ENDBRANCH  30  31
ENDBRANCH  29  30
ENDBRANCH   1  29
TORSDOF 23
ENDMDL
MODEL 2
REMARK VINA RESULT:      -9.7      1.036      2.241
REMARK SMILES CCOc1cc(OCC)cc(-c2ccc([C@@H](C)C(=O)OCCOCCOCCOC(=O)c3ccc(-c4c5nc(c(-c6c(F)c(F)c(F)c(F)c6F)c6ccc([nH]6)c(-c6c(F)c(F)c(F)c(F)c6F)c6nc(c(-c7c(F)c(F)c(F)c(F)c7F)c7ccc4[nH]7)C=C6)C=C5)cc3)cc2F)c1
REMARK SMILES IDX 24 1 23 2 22 3 21 4 20 5 18 6 19 7 16 8 17 9 15 10 12 11
REMARK SMILES IDX 13 12 96 13 14 14 95 15 97 16 11 17 4 18 5 19 98 20 6 21
REMARK SMILES IDX 10 22 3 23 2 24 1 25 7 26 8 27 9 28 25 29 26 30 27 31 28 32
REMARK SMILES IDX 29 33 30 34 31 35 32 36 33 37 94 38 34 39 93 40 35 41 36 42
REMARK SMILES IDX 37 43 87 44 38 45 92 46 86 47 88 48 39 49 91 50 85 51 84 52
REMARK SMILES IDX 40 54 72 55 52 56 71 57 53 58 56 59 70 60 89 61 54 62 55 63
REMARK SMILES IDX 69 65 90 66 57 67 41 68 42 69 50 70 43 71 44 72 48 73 51 74
REMARK SMILES IDX 45 75 46 76 49 77 47 78 73 79 74 80 82 81 75 82 76 83 80 84
REMARK SMILES IDX 83 85 77 86 78 87 81 88 79 89 58 90 59 91 67 92 60 93 61 94
REMARK SMILES IDX 65 95 68 96 62 97 63 98 66 99 64 100
REMARK H PARENT 88 53 56 64
REMARK Flexibility Score: inf
ROOT
ATOM      1  C   UNL A   1      35.174  21.369  25.863  1.00  0.00     0.188 C 
ENDROOT
BRANCH   1   2
ATOM      2  O   UNL A   1      33.823  21.635  25.508  1.00  0.00    -0.376 OA
BRANCH   2   3
ATOM      3  C   UNL A   1      33.538  22.643  24.547  1.00  0.00     0.202 C 
BRANCH   3   4
ATOM      4  C   UNL A   1      32.332  23.562  24.793  1.00  0.00     0.261 C 
BRANCH   4   5
ATOM      5  O   UNL A   1      32.646  24.939  25.105  1.00  0.00    -0.463 OA
BRANCH   5   6
ATOM      6  C   UNL A   1      31.683  25.651  25.743  1.00  0.00     0.313 C 
ATOM      7  O   UNL A   1      31.039  25.214  26.695  1.00  0.00    -0.252 OA
BRANCH   6   8
ATOM      8  C   UNL A   1      31.429  27.068  25.219  1.00  0.00     0.126 C 
ATOM      9  C   UNL A   1      31.590  27.070  23.701  1.00  0.00     0.025 C 
BRANCH   8  10
ATOM     10  C   UNL A   1      32.138  28.274  25.829  1.00  0.00    -0.031 A 
ATOM     11  C   UNL A   1      33.556  30.463  27.018  1.00  0.00     0.018 A 
ATOM     12  C   UNL A   1      32.251  30.612  26.510  1.00  0.00     0.012 A 
ATOM     13  C   UNL A   1      34.136  29.197  26.907  1.00  0.00     0.131 A 
ATOM     14  C   UNL A   1      31.546  29.537  25.940  1.00  0.00     0.005 A 
ATOM     15  C   UNL A   1      33.445  28.120  26.335  1.00  0.00     0.044 A 
ATOM     16  F   UNL A   1      35.375  28.973  27.372  1.00  0.00    -0.206 F 
BRANCH  11  17
ATOM     17  C   UNL A   1      34.227  31.581  27.710  1.00  0.00    -0.008 A 
ATOM     18  C   UNL A   1      36.193  32.854  28.376  1.00  0.00     0.123 A 
ATOM     19  C   UNL A   1      35.389  33.760  29.069  1.00  0.00     0.092 A 
ATOM     20  C   UNL A   1      35.618  31.764  27.710  1.00  0.00     0.055 A 
ATOM     21  C   UNL A   1      34.009  33.579  29.112  1.00  0.00     0.123 A 
ATOM     22  C   UNL A   1      33.445  32.496  28.437  1.00  0.00     0.055 A 
BRANCH  18  23
ATOM     23  O   UNL A   1      37.548  32.980  28.525  1.00  0.00    -0.494 OA
BRANCH  23  24
ATOM     24  C   UNL A   1      37.981  33.230  29.866  1.00  0.00     0.226 C 
ATOM     25  C   UNL A   1      38.822  34.488  29.944  1.00  0.00     0.049 C 
ENDBRANCH  23  24
ENDBRANCH  18  23
BRANCH  21  26
ATOM     26  O   UNL A   1      33.307  34.515  29.824  1.00  0.00    -0.494 OA
BRANCH  26  27
ATOM     27  C   UNL A   1      33.999  35.704  30.215  1.00  0.00     0.226 C 
ATOM     28  C   UNL A   1      33.107  36.622  31.038  1.00  0.00     0.049 C 
ENDBRANCH  26  27
ENDBRANCH  21  26
ENDBRANCH  11  17
ENDBRANCH   8  10
ENDBRANCH   6   8
ENDBRANCH   5   6
ENDBRANCH   4   5
ENDBRANCH   3   4
ENDBRANCH   2   3
ENDBRANCH   1   2
BRANCH   1  29
ATOM     29  C   UNL A   1      36.006  20.385  25.027  1.00  0.00     0.188 C 
BRANCH  29  30
ATOM     30  O   UNL A   1      37.218  20.903  24.521  1.00  0.00    -0.376 OA
BRANCH  30  31
ATOM     31  C   UNL A   1      38.284  21.009  25.445  1.00  0.00     0.202 C 
BRANCH  31  32
ATOM     32  C   UNL A   1      39.276  19.838  25.393  1.00  0.00     0.261 C 
BRANCH  32  33
ATOM     33  O   UNL A   1      40.114  19.686  26.560  1.00  0.00    -0.460 OA
BRANCH  33  34
ATOM     34  C   UNL A   1      41.443  19.665  26.334  1.00  0.00     0.338 C 
ATOM     35  O   UNL A   1      42.077  18.738  25.845  1.00  0.00    -0.246 OA
BRANCH  34  36
ATOM     36  C   UNL A   1      42.014  21.007  26.564  1.00  0.00     0.060 A 
ATOM     37  C   UNL A   1      42.155  21.467  27.882  1.00  0.00     0.016 A 
ATOM     38  C   UNL A   1      42.374  21.825  25.492  1.00  0.00     0.016 A 
ATOM     39  C   UNL A   1      42.629  22.757  28.128  1.00  0.00     0.010 A 
ATOM     40  C   UNL A   1      42.831  23.126  25.740  1.00  0.00     0.010 A 
ATOM     41  C   UNL A   1      42.932  23.610  27.058  1.00  0.00    -0.014 A 
BRANCH  41  42
ATOM     42  C   UNL A   1      43.202  25.049  27.319  1.00  0.00     0.031 A 
ATOM     43  C   UNL A   1      44.479  25.657  26.803  1.00  0.00     0.074 A 
ATOM     44  C   UNL A   1      42.310  25.817  27.968  1.00  0.00     0.049 A 
ATOM     45  N   UNL A   1      44.919  26.886  26.906  1.00  0.00    -0.248 NA
ATOM     46  C   UNL A   1      45.384  24.754  26.076  1.00  0.00     0.031 C 
ATOM     47  C   UNL A   1      41.027  25.362  28.495  1.00  0.00     0.029 A 
ATOM     48  N   UNL A   1      42.355  27.152  28.296  1.00  0.00    -0.354 N 
ATOM     49  C   UNL A   1      46.148  26.904  26.258  1.00  0.00     0.074 A 
ATOM     50  C   UNL A   1      46.403  25.554  25.800  1.00  0.00     0.031 C 
ATOM     51  C   UNL A   1      40.404  26.398  29.083  1.00  0.00     0.029 A 
ATOM     52  C   UNL A   1      41.257  27.583  28.997  1.00  0.00     0.049 A 
ATOM     53  H   UNL A   1      43.103  27.741  28.050  1.00  0.00     0.167 HD
ATOM     54  C   UNL A   1      46.982  27.951  26.051  1.00  0.00     0.037 A 
ATOM     55  C   UNL A   1      40.979  28.793  29.523  1.00  0.00     0.037 A 
ATOM     56  C   UNL A   1      46.734  29.293  26.509  1.00  0.00     0.049 A 
ATOM     57  C   UNL A   1      41.954  29.927  29.331  1.00  0.00     0.074 A 
ATOM     58  C   UNL A   1      47.513  30.425  26.331  1.00  0.00     0.029 A 
ATOM     59  N   UNL A   1      45.625  29.686  27.245  1.00  0.00    -0.354 N 
ATOM     60  N   UNL A   1      43.096  29.944  28.687  1.00  0.00    -0.248 NA
ATOM     61  C   UNL A   1      41.590  31.219  29.931  1.00  0.00     0.031 C 
ATOM     62  C   UNL A   1      46.905  31.487  27.011  1.00  0.00     0.029 A 
ATOM     63  C   UNL A   1      45.713  31.035  27.553  1.00  0.00     0.049 A 
ATOM     64  H   UNL A   1      44.884  29.093  27.509  1.00  0.00     0.167 HD
ATOM     65  C   UNL A   1      43.571  31.248  28.779  1.00  0.00     0.074 A 
ATOM     66  C   UNL A   1      42.579  31.999  29.519  1.00  0.00     0.031 C 
ATOM     67  C   UNL A   1      44.723  31.776  28.294  1.00  0.00     0.037 A 
BRANCH  54  68
ATOM     68  C   UNL A   1      48.266  27.679  25.316  1.00  0.00     0.064 A 
ATOM     69  C   UNL A   1      49.461  27.393  25.994  1.00  0.00     0.173 A 
ATOM     70  C   UNL A   1      48.292  27.670  23.913  1.00  0.00     0.173 A 
ATOM     71  F   UNL A   1      49.495  27.402  27.335  1.00  0.00    -0.203 F 
ATOM     72  C   UNL A   1      50.639  27.139  25.296  1.00  0.00     0.198 A 
ATOM     73  C   UNL A   1      49.464  27.383  23.218  1.00  0.00     0.198 A 
ATOM     74  F   UNL A   1      47.177  27.932  23.214  1.00  0.00    -0.203 F 
ATOM     75  F   UNL A   1      51.780  26.920  25.966  1.00  0.00    -0.200 F 
ATOM     76  C   UNL A   1      50.637  27.126  23.909  1.00  0.00     0.200 A 
ATOM     77  F   UNL A   1      49.457  27.356  21.878  1.00  0.00    -0.200 F 
ATOM     78  F   UNL A   1      51.770  26.872  23.239  1.00  0.00    -0.200 F 
ENDBRANCH  54  68
BRANCH  55  79
ATOM     79  C   UNL A   1      39.719  29.003  30.287  1.00  0.00     0.064 A 
ATOM     80  C   UNL A   1      38.495  29.191  29.632  1.00  0.00     0.173 A 
ATOM     81  C   UNL A   1      39.721  29.056  31.689  1.00  0.00     0.173 A 
ATOM     82  F   UNL A   1      38.445  29.180  28.291  1.00  0.00    -0.203 F 
ATOM     83  C   UNL A   1      37.327  29.448  30.346  1.00  0.00     0.198 A 
ATOM     84  C   UNL A   1      38.547  29.279  32.404  1.00  0.00     0.198 A 
ATOM     85  F   UNL A   1      40.867  28.890  32.366  1.00  0.00    -0.203 F 
ATOM     86  F   UNL A   1      36.181  29.681  29.692  1.00  0.00    -0.200 F 
ATOM     87  C   UNL A   1      37.352  29.485  31.732  1.00  0.00     0.200 A 
ATOM     88  F   UNL A   1      38.575  29.303  33.744  1.00  0.00    -0.200 F 
ATOM     89  F   UNL A   1      36.228  29.730  32.419  1.00  0.00    -0.200 F 
ENDBRANCH  55  79
BRANCH  67  90
ATOM     90  C   UNL A   1      44.952  33.247  28.517  1.00  0.00     0.064 A 
ATOM     91  C   UNL A   1      44.456  34.218  27.633  1.00  0.00     0.173 A 
ATOM     92  C   UNL A   1      45.679  33.691  29.633  1.00  0.00     0.173 A 
ATOM     93  F   UNL A   1      43.763  33.849  26.544  1.00  0.00    -0.203 F 
ATOM     94  C   UNL A   1      44.723  35.571  27.830  1.00  0.00     0.198 A 
ATOM     95  C   UNL A   1      45.910  35.047  29.848  1.00  0.00     0.198 A 
ATOM     96  F   UNL A   1      46.166  32.810  30.519  1.00  0.00    -0.203 F 
ATOM     97  F   UNL A   1      44.302  36.471  26.931  1.00  0.00    -0.200 F 
ATOM     98  C   UNL A   1      45.445  35.985  28.938  1.00  0.00     0.200 A 
ATOM     99  F   UNL A   1      46.593  35.447  30.930  1.00  0.00    -0.200 F 
ATOM    100  F   UNL A   1      45.705  37.287  29.123  1.00  0.00    -0.200 F 
ENDBRANCH  67  90
ENDBRANCH  41  42
ENDBRANCH  34  36
ENDBRANCH  33  34
ENDBRANCH  32  33
ENDBRANCH  31  32
ENDBRANCH  30  31
ENDBRANCH  29  30
ENDBRANCH   1  29
TORSDOF 23
ENDMDL
MODEL 3
REMARK VINA RESULT:      -9.6      1.201      2.304
REMARK SMILES CCOc1cc(OCC)cc(-c2ccc([C@@H](C)C(=O)OCCOCCOCCOC(=O)c3ccc(-c4c5nc(c(-c6c(F)c(F)c(F)c(F)c6F)c6ccc([nH]6)c(-c6c(F)c(F)c(F)c(F)c6F)c6nc(c(-c7c(F)c(F)c(F)c(F)c7F)c7ccc4[nH]7)C=C6)C=C5)cc3)cc2F)c1
REMARK SMILES IDX 24 1 23 2 22 3 21 4 20 5 18 6 19 7 16 8 17 9 15 10 12 11
REMARK SMILES IDX 13 12 96 13 14 14 95 15 97 16 11 17 4 18 5 19 98 20 6 21
REMARK SMILES IDX 10 22 3 23 2 24 1 25 7 26 8 27 9 28 25 29 26 30 27 31 28 32
REMARK SMILES IDX 29 33 30 34 31 35 32 36 33 37 94 38 34 39 93 40 35 41 36 42
REMARK SMILES IDX 37 43 87 44 38 45 92 46 86 47 88 48 39 49 91 50 85 51 84 52
REMARK SMILES IDX 40 54 72 55 52 56 71 57 53 58 56 59 70 60 89 61 54 62 55 63
REMARK SMILES IDX 69 65 90 66 57 67 41 68 42 69 50 70 43 71 44 72 48 73 51 74
REMARK SMILES IDX 45 75 46 76 49 77 47 78 73 79 74 80 82 81 75 82 76 83 80 84
REMARK SMILES IDX 83 85 77 86 78 87 81 88 79 89 58 90 59 91 67 92 60 93 61 94
REMARK SMILES IDX 65 95 68 96 62 97 63 98 66 99 64 100
REMARK H PARENT 88 53 56 64
REMARK Flexibility Score: inf
ROOT
ATOM      1  C   UNL A   1      35.518  21.779  25.856  1.00  0.00     0.188 C 
ENDROOT
BRANCH   1   2
ATOM      2  O   UNL A   1      34.173  22.029  25.469  1.00  0.00    -0.376 OA
BRANCH   2   3
ATOM      3  C   UNL A   1      33.912  22.847  24.336  1.00  0.00     0.202 C 
BRANCH   3   4
ATOM      4  C   UNL A   1      32.725  23.821  24.399  1.00  0.00     0.261 C 
BRANCH   4   5
ATOM      5  O   UNL A   1      33.056  25.191  24.720  1.00  0.00    -0.463 OA
BRANCH   5   6
ATOM      6  C   UNL A   1      32.037  25.974  25.157  1.00  0.00     0.313 C 
ATOM      7  O   UNL A   1      31.133  25.564  25.882  1.00  0.00    -0.252 OA
BRANCH   6   8
ATOM      8  C   UNL A   1      32.063  27.437  24.703  1.00  0.00     0.126 C 
ATOM      9  C   UNL A   1      32.676  27.510  23.306  1.00  0.00     0.025 C 
BRANCH   8  10
ATOM     10  C   UNL A   1      32.646  28.529  25.595  1.00  0.00    -0.031 A 
ATOM     11  C   UNL A   1      33.654  30.656  27.231  1.00  0.00     0.018 A 
ATOM     12  C   UNL A   1      34.381  29.466  27.030  1.00  0.00     0.012 A 
ATOM     13  C   UNL A   1      32.410  30.750  26.602  1.00  0.00     0.131 A 
ATOM     14  C   UNL A   1      33.897  28.427  26.217  1.00  0.00     0.005 A 
ATOM     15  C   UNL A   1      31.916  29.718  25.794  1.00  0.00     0.044 A 
ATOM     16  F   UNL A   1      31.660  31.855  26.740  1.00  0.00    -0.206 F 
BRANCH  11  17
ATOM     17  C   UNL A   1      34.237  31.773  27.999  1.00  0.00    -0.008 A 
ATOM     18  C   UNL A   1      34.082  33.733  29.436  1.00  0.00     0.123 A 
ATOM     19  C   UNL A   1      35.471  33.865  29.432  1.00  0.00     0.092 A 
ATOM     20  C   UNL A   1      33.467  32.702  28.715  1.00  0.00     0.055 A 
ATOM     21  C   UNL A   1      36.255  32.976  28.700  1.00  0.00     0.123 A 
ATOM     22  C   UNL A   1      35.633  31.945  27.993  1.00  0.00     0.055 A 
BRANCH  18  23
ATOM     23  O   UNL A   1      33.360  34.742  30.018  1.00  0.00    -0.494 OA
BRANCH  23  24
ATOM     24  C   UNL A   1      33.202  35.909  29.205  1.00  0.00     0.226 C 
ATOM     25  C   UNL A   1      33.278  37.172  30.038  1.00  0.00     0.049 C 
ENDBRANCH  23  24
ENDBRANCH  18  23
BRANCH  21  26
ATOM     26  O   UNL A   1      37.606  33.192  28.751  1.00  0.00    -0.494 OA
BRANCH  26  27
ATOM     27  C   UNL A   1      38.086  34.164  29.684  1.00  0.00     0.226 C 
ATOM     28  C   UNL A   1      39.499  34.613  29.343  1.00  0.00     0.049 C 
ENDBRANCH  26  27
ENDBRANCH  21  26
ENDBRANCH  11  17
ENDBRANCH   8  10
ENDBRANCH   6   8
ENDBRANCH   5   6
ENDBRANCH   4   5
ENDBRANCH   3   4
ENDBRANCH   2   3
ENDBRANCH   1   2
BRANCH   1  29
ATOM     29  C   UNL A   1      36.294  20.616  25.219  1.00  0.00     0.188 C 
BRANCH  29  30
ATOM     30  O   UNL A   1      37.496  20.980  24.572  1.00  0.00    -0.376 OA
BRANCH  30  31
ATOM     31  C   UNL A   1      38.652  21.020  25.386  1.00  0.00     0.202 C 
BRANCH  31  32
ATOM     32  C   UNL A   1      39.349  19.661  25.552  1.00  0.00     0.261 C 
BRANCH  32  33
ATOM     33  O   UNL A   1      40.286  19.577  26.648  1.00  0.00    -0.460 OA
BRANCH  33  34
ATOM     34  C   UNL A   1      41.592  19.580  26.310  1.00  0.00     0.338 C 
ATOM     35  O   UNL A   1      42.193  18.673  25.748  1.00  0.00    -0.246 OA
BRANCH  34  36
ATOM     36  C   UNL A   1      42.163  20.926  26.521  1.00  0.00     0.060 A 
ATOM     37  C   UNL A   1      42.444  21.345  27.829  1.00  0.00     0.016 A 
ATOM     38  C   UNL A   1      42.384  21.786  25.445  1.00  0.00     0.016 A 
ATOM     39  C   UNL A   1      42.922  22.636  28.066  1.00  0.00     0.010 A 
ATOM     40  C   UNL A   1      42.845  23.086  25.685  1.00  0.00     0.010 A 
ATOM     41  C   UNL A   1      43.087  23.529  26.998  1.00  0.00    -0.014 A 
BRANCH  41  42
ATOM     42  C   UNL A   1      43.360  24.964  27.278  1.00  0.00     0.031 A 
ATOM     43  C   UNL A   1      44.659  25.563  26.809  1.00  0.00     0.074 A 
ATOM     44  C   UNL A   1      42.455  25.736  27.902  1.00  0.00     0.049 A 
ATOM     45  N   UNL A   1      45.107  26.788  26.934  1.00  0.00    -0.248 NA
ATOM     46  C   UNL A   1      45.580  24.657  26.106  1.00  0.00     0.031 C 
ATOM     47  C   UNL A   1      41.150  25.290  28.383  1.00  0.00     0.029 A 
ATOM     48  N   UNL A   1      42.500  27.069  28.239  1.00  0.00    -0.354 N 
ATOM     49  C   UNL A   1      46.357  26.799  26.327  1.00  0.00     0.074 A 
ATOM     50  C   UNL A   1      46.615  25.449  25.870  1.00  0.00     0.031 C 
ATOM     51  C   UNL A   1      40.517  26.328  28.956  1.00  0.00     0.029 A 
ATOM     52  C   UNL A   1      41.383  27.505  28.906  1.00  0.00     0.049 A 
ATOM     53  H   UNL A   1      43.261  27.653  28.022  1.00  0.00     0.167 HD
ATOM     54  C   UNL A   1      47.207  27.839  26.155  1.00  0.00     0.037 A 
ATOM     55  C   UNL A   1      41.099  28.715  29.430  1.00  0.00     0.037 A 
ATOM     56  C   UNL A   1      46.956  29.181  26.613  1.00  0.00     0.049 A 
ATOM     57  C   UNL A   1      42.090  29.841  29.278  1.00  0.00     0.074 A 
ATOM     58  C   UNL A   1      47.750  30.307  26.469  1.00  0.00     0.029 A 
ATOM     59  N   UNL A   1      45.826  29.579  27.314  1.00  0.00    -0.354 N 
ATOM     60  N   UNL A   1      43.253  29.852  28.673  1.00  0.00    -0.248 NA
ATOM     61  C   UNL A   1      41.718  31.133  29.874  1.00  0.00     0.031 C 
ATOM     62  C   UNL A   1      47.129  31.370  27.135  1.00  0.00     0.029 A 
ATOM     63  C   UNL A   1      45.916  30.925  27.634  1.00  0.00     0.049 A 
ATOM     64  H   UNL A   1      45.072  28.991  27.549  1.00  0.00     0.167 HD
ATOM     65  C   UNL A   1      43.736  31.150  28.789  1.00  0.00     0.074 A 
ATOM     66  C   UNL A   1      42.727  31.906  29.501  1.00  0.00     0.031 C 
ATOM     67  C   UNL A   1      44.908  31.671  28.346  1.00  0.00     0.037 A 
BRANCH  54  68
ATOM     68  C   UNL A   1      48.512  27.560  25.462  1.00  0.00     0.064 A 
ATOM     69  C   UNL A   1      48.617  27.541  24.062  1.00  0.00     0.173 A 
ATOM     70  C   UNL A   1      49.680  27.342  26.208  1.00  0.00     0.173 A 
ATOM     71  F   UNL A   1      47.530  27.729  23.300  1.00  0.00    -0.203 F 
ATOM     72  C   UNL A   1      49.836  27.285  23.438  1.00  0.00     0.198 A 
ATOM     73  C   UNL A   1      50.902  27.119  25.581  1.00  0.00     0.198 A 
ATOM     74  F   UNL A   1      49.637  27.353  27.550  1.00  0.00    -0.203 F 
ATOM     75  F   UNL A   1      49.902  27.221  22.101  1.00  0.00    -0.200 F 
ATOM     76  C   UNL A   1      50.978  27.083  24.198  1.00  0.00     0.200 A 
ATOM     77  F   UNL A   1      52.009  26.939  26.317  1.00  0.00    -0.200 F 
ATOM     78  F   UNL A   1      52.152  26.846  23.595  1.00  0.00    -0.200 F 
ENDBRANCH  54  68
BRANCH  55  79
ATOM     79  C   UNL A   1      39.816  28.932  30.153  1.00  0.00     0.064 A 
ATOM     80  C   UNL A   1      38.606  29.070  29.460  1.00  0.00     0.173 A 
ATOM     81  C   UNL A   1      39.781  29.042  31.551  1.00  0.00     0.173 A 
ATOM     82  F   UNL A   1      38.591  29.003  28.120  1.00  0.00    -0.203 F 
ATOM     83  C   UNL A   1      37.415  29.333  30.134  1.00  0.00     0.198 A 
ATOM     84  C   UNL A   1      38.585  29.271  32.227  1.00  0.00     0.198 A 
ATOM     85  F   UNL A   1      40.911  28.925  32.263  1.00  0.00    -0.203 F 
ATOM     86  F   UNL A   1      36.283  29.517  29.442  1.00  0.00    -0.200 F 
ATOM     87  C   UNL A   1      37.404  29.427  31.517  1.00  0.00     0.200 A 
ATOM     88  F   UNL A   1      38.578  29.350  33.565  1.00  0.00    -0.200 F 
ATOM     89  F   UNL A   1      36.258  29.678  32.165  1.00  0.00    -0.200 F 
ENDBRANCH  55  79
BRANCH  67  90
ATOM     90  C   UNL A   1      45.143  33.138  28.586  1.00  0.00     0.064 A 
ATOM     91  C   UNL A   1      45.840  33.605  29.711  1.00  0.00     0.173 A 
ATOM     92  C   UNL A   1      44.665  34.092  27.673  1.00  0.00     0.173 A 
ATOM     93  F   UNL A   1      46.311  32.738  30.621  1.00  0.00    -0.203 F 
ATOM     94  C   UNL A   1      46.003  34.969  29.940  1.00  0.00     0.198 A 
ATOM     95  C   UNL A   1      44.864  35.454  27.885  1.00  0.00     0.198 A 
ATOM     96  F   UNL A   1      44.003  33.705  26.572  1.00  0.00    -0.203 F 
ATOM     97  F   UNL A   1      46.606  35.390  31.060  1.00  0.00    -0.200 F 
ATOM     98  C   UNL A   1      45.519  35.892  29.026  1.00  0.00     0.200 A 
ATOM     99  F   UNL A   1      44.412  36.344  26.991  1.00  0.00    -0.200 F 
ATOM    100  F   UNL A   1      45.673  37.204  29.251  1.00  0.00    -0.200 F 
ENDBRANCH  67  90
ENDBRANCH  41  42
ENDBRANCH  34  36
ENDBRANCH  33  34
ENDBRANCH  32  33
ENDBRANCH  31  32
ENDBRANCH  30  31
ENDBRANCH  29  30
ENDBRANCH   1  29
TORSDOF 23
ENDMDL
