MODEL 1
REMARK VINA RESULT:     -10.2      0.000      0.000
REMARK SMILES CCC[C@@H]1SC[C@H](C(=O)OCCOCCOCCOC(=O)c2ccc(-c3c4nc(c(-c5c(F)c(F)c(F)c(F)c5F)c5ccc([nH]5)c(-c5c(F)c(F)c(F)c(F)c5F)c5nc(c(-c6c(F)c(F)c(F)c(F)c6F)c6ccc3[nH]6)C=C5)C=C4)cc2)N1C(=O)C[NH+]1CCC([NH3+])CC1
REMARK SMILES IDX 14 1 13 2 12 3 11 4 10 5 8 6 9 7 7 8 4 9 5 10 85 11 6 12
REMARK SMILES IDX 3 13 2 14 1 15 86 16 87 17 88 18 89 19 90 20 95 21 91 23
REMARK SMILES IDX 94 24 92 25 93 26 15 30 16 31 17 32 18 33 19 34 20 35 21 36
REMARK SMILES IDX 22 37 23 38 84 39 24 40 83 41 25 42 26 43 27 44 77 45 28 46
REMARK SMILES IDX 82 47 76 48 78 49 29 50 81 51 75 52 74 53 30 55 62 56 42 57
REMARK SMILES IDX 61 58 43 59 46 60 60 61 79 62 44 63 45 64 59 66 80 67 47 68
REMARK SMILES IDX 31 69 32 70 40 71 33 72 34 73 38 74 41 75 35 76 36 77 39 78
REMARK SMILES IDX 37 79 63 80 64 81 72 82 65 83 66 84 70 85 73 86 67 87 68 88
REMARK SMILES IDX 71 89 69 90 48 91 49 92 57 93 50 94 51 95 55 96 58 97 52 98
REMARK SMILES IDX 53 99 56 100 54 101
REMARK H PARENT 89 22 93 27 93 28 93 29 78 54 46 65
REMARK Flexibility Score: inf
ROOT
ATOM      1  C   UNL A   1      34.815  31.551  28.638  1.00  0.00     0.188 C 
ENDROOT
BRANCH   1   2
ATOM      2  O   UNL A   1      34.498  30.601  27.624  1.00  0.00    -0.376 OA
BRANCH   2   3
ATOM      3  C   UNL A   1      33.270  30.767  26.931  1.00  0.00     0.202 C 
BRANCH   3   4
ATOM      4  C   UNL A   1      32.495  29.466  26.737  1.00  0.00     0.261 C 
BRANCH   4   5
ATOM      5  O   UNL A   1      33.344  28.454  26.172  1.00  0.00    -0.462 OA
BRANCH   5   6
ATOM      6  C   UNL A   1      33.564  28.396  24.815  1.00  0.00     0.329 C 
ATOM      7  O   UNL A   1      33.378  29.292  24.013  1.00  0.00    -0.250 OA
BRANCH   6   8
ATOM      8  C   UNL A   1      33.905  26.937  24.516  1.00  0.00     0.206 C 
ATOM      9  C   UNL A   1      33.906  24.696  23.942  1.00  0.00     0.144 C 
ATOM     10  S   UNL A   1      33.453  24.510  25.666  1.00  0.00    -0.134 SA
ATOM     11  N   UNL A   1      33.287  25.961  23.579  1.00  0.00    -0.311 N 
ATOM     12  C   UNL A   1      33.823  26.276  25.936  1.00  0.00     0.109 C 
BRANCH   9  13
ATOM     13  C   UNL A   1      34.016  23.492  23.047  1.00  0.00     0.036 C 
BRANCH  13  14
ATOM     14  C   UNL A   1      34.277  22.254  23.939  1.00  0.00    -0.000 C 
ATOM     15  C   UNL A   1      35.731  22.044  24.305  1.00  0.00     0.004 C 
ENDBRANCH  13  14
ENDBRANCH   9  13
BRANCH  11  16
ATOM     16  C   UNL A   1      32.854  26.300  22.295  1.00  0.00     0.279 C 
ATOM     17  O   UNL A   1      33.685  26.403  21.386  1.00  0.00    -0.268 OA
BRANCH  16  18
ATOM     18  C   UNL A   1      31.337  26.764  22.088  1.00  0.00     0.363 C 
BRANCH  18  19
ATOM     19  N   UNL A   1      30.751  27.491  23.251  1.00  0.00    -0.327 N 
ATOM     20  C   UNL A   1      30.213  28.823  22.962  1.00  0.00     0.268 C 
ATOM     21  C   UNL A   1      29.787  26.751  24.092  1.00  0.00     0.268 C 
ATOM     22  H   UNL A   1      31.601  27.599  23.803  1.00  0.00     0.348 HD
ATOM     23  C   UNL A   1      28.802  28.866  22.396  1.00  0.00     0.126 C 
ATOM     24  C   UNL A   1      28.280  26.878  23.753  1.00  0.00     0.126 C 
ATOM     25  C   UNL A   1      27.865  28.321  23.456  1.00  0.00     0.192 C 
BRANCH  25  26
ATOM     26  N   UNL A   1      26.474  28.429  23.022  1.00  0.00    -0.355 N 
ATOM     27  H   UNL A   1      26.186  27.554  22.583  1.00  0.00     0.344 HD
ATOM     28  H   UNL A   1      26.384  29.193  22.352  1.00  0.00     0.344 HD
ATOM     29  H   UNL A   1      25.879  28.615  23.830  1.00  0.00     0.344 HD
ENDBRANCH  25  26
ENDBRANCH  18  19
ENDBRANCH  16  18
ENDBRANCH  11  16
ENDBRANCH   6   8
ENDBRANCH   5   6
ENDBRANCH   4   5
ENDBRANCH   3   4
ENDBRANCH   2   3
ENDBRANCH   1   2
BRANCH   1  30
ATOM     30  C   UNL A   1      35.260  32.951  28.173  1.00  0.00     0.188 C 
BRANCH  30  31
ATOM     31  O   UNL A   1      35.107  34.010  29.119  1.00  0.00    -0.376 OA
BRANCH  31  32
ATOM     32  C   UNL A   1      34.338  35.136  28.696  1.00  0.00     0.202 C 
BRANCH  32  33
ATOM     33  C   UNL A   1      33.005  35.292  29.427  1.00  0.00     0.261 C 
BRANCH  33  34
ATOM     34  O   UNL A   1      33.148  36.263  30.477  1.00  0.00    -0.460 OA
BRANCH  34  35
ATOM     35  C   UNL A   1      32.637  35.901  31.671  1.00  0.00     0.338 C 
ATOM     36  O   UNL A   1      31.497  36.076  32.061  1.00  0.00    -0.246 OA
BRANCH  35  37
ATOM     37  C   UNL A   1      33.692  35.254  32.482  1.00  0.00     0.060 A 
ATOM     38  C   UNL A   1      34.908  35.897  32.723  1.00  0.00     0.016 A 
ATOM     39  C   UNL A   1      33.511  33.936  32.900  1.00  0.00     0.016 A 
ATOM     40  C   UNL A   1      35.972  35.194  33.300  1.00  0.00     0.010 A 
ATOM     41  C   UNL A   1      34.567  33.247  33.508  1.00  0.00     0.010 A 
ATOM     42  C   UNL A   1      35.835  33.843  33.648  1.00  0.00    -0.014 A 
BRANCH  42  43
ATOM     43  C   UNL A   1      37.026  32.989  33.952  1.00  0.00     0.031 A 
ATOM     44  C   UNL A   1      37.650  33.078  35.326  1.00  0.00     0.074 A 
ATOM     45  C   UNL A   1      37.537  32.091  33.087  1.00  0.00     0.049 A 
ATOM     46  N   UNL A   1      38.825  32.674  35.742  1.00  0.00    -0.248 NA
ATOM     47  C   UNL A   1      36.836  33.723  36.368  1.00  0.00     0.031 C 
ATOM     48  C   UNL A   1      36.995  31.767  31.771  1.00  0.00     0.029 A 
ATOM     49  N   UNL A   1      38.636  31.270  33.207  1.00  0.00    -0.354 N 
ATOM     50  C   UNL A   1      38.928  33.108  37.059  1.00  0.00     0.074 A 
ATOM     51  C   UNL A   1      37.685  33.775  37.382  1.00  0.00     0.031 C 
ATOM     52  C   UNL A   1      37.732  30.784  31.225  1.00  0.00     0.029 A 
ATOM     53  C   UNL A   1      38.856  30.476  32.108  1.00  0.00     0.049 A 
ATOM     54  H   UNL A   1      39.210  31.254  34.006  1.00  0.00     0.167 HD
ATOM     55  C   UNL A   1      39.972  32.980  37.913  1.00  0.00     0.037 A 
ATOM     56  C   UNL A   1      39.867  29.630  31.825  1.00  0.00     0.037 A 
ATOM     57  C   UNL A   1      41.168  32.231  37.632  1.00  0.00     0.049 A 
ATOM     58  C   UNL A   1      41.031  29.506  32.776  1.00  0.00     0.074 A 
ATOM     59  C   UNL A   1      42.296  32.068  38.419  1.00  0.00     0.029 A 
ATOM     60  N   UNL A   1      41.370  31.481  36.484  1.00  0.00    -0.354 N 
ATOM     61  N   UNL A   1      41.207  30.058  33.950  1.00  0.00    -0.248 NA
ATOM     62  C   UNL A   1      42.158  28.667  32.337  1.00  0.00     0.031 C 
ATOM     63  C   UNL A   1      43.189  31.233  37.737  1.00  0.00     0.029 A 
ATOM     64  C   UNL A   1      42.603  30.850  36.543  1.00  0.00     0.049 A 
ATOM     65  H   UNL A   1      40.733  31.408  35.738  1.00  0.00     0.167 HD
ATOM     66  C   UNL A   1      42.458  29.641  34.388  1.00  0.00     0.074 A 
ATOM     67  C   UNL A   1      42.987  28.761  33.368  1.00  0.00     0.031 C 
ATOM     68  C   UNL A   1      43.117  29.972  35.526  1.00  0.00     0.037 A 
BRANCH  55  69
ATOM     69  C   UNL A   1      39.891  33.727  39.212  1.00  0.00     0.064 A 
ATOM     70  C   UNL A   1      39.271  33.194  40.349  1.00  0.00     0.173 A 
ATOM     71  C   UNL A   1      40.458  35.008  39.311  1.00  0.00     0.173 A 
ATOM     72  F   UNL A   1      38.697  31.983  40.300  1.00  0.00    -0.203 F 
ATOM     73  C   UNL A   1      39.193  33.929  41.530  1.00  0.00     0.198 A 
ATOM     74  C   UNL A   1      40.404  35.728  40.500  1.00  0.00     0.198 A 
ATOM     75  F   UNL A   1      41.069  35.561  38.251  1.00  0.00    -0.203 F 
ATOM     76  F   UNL A   1      38.547  33.425  42.591  1.00  0.00    -0.200 F 
ATOM     77  C   UNL A   1      39.763  35.193  41.606  1.00  0.00     0.200 A 
ATOM     78  F   UNL A   1      40.966  36.943  40.574  1.00  0.00    -0.200 F 
ATOM     79  F   UNL A   1      39.686  35.898  42.743  1.00  0.00    -0.200 F 
ENDBRANCH  55  69
BRANCH  56  80
ATOM     80  C   UNL A   1      39.859  28.860  30.552  1.00  0.00     0.064 A 
ATOM     81  C   UNL A   1      40.390  29.412  29.377  1.00  0.00     0.173 A 
ATOM     82  C   UNL A   1      39.313  27.570  30.478  1.00  0.00     0.173 A 
ATOM     83  F   UNL A   1      40.888  30.657  29.388  1.00  0.00    -0.203 F 
ATOM     84  C   UNL A   1      40.371  28.704  28.177  1.00  0.00     0.198 A 
ATOM     85  C   UNL A   1      39.323  26.852  29.285  1.00  0.00     0.198 A 
ATOM     86  F   UNL A   1      38.778  27.003  31.569  1.00  0.00    -0.203 F 
ATOM     87  F   UNL A   1      40.846  29.271  27.061  1.00  0.00    -0.200 F 
ATOM     88  C   UNL A   1      39.847  27.420  28.135  1.00  0.00     0.200 A 
ATOM     89  F   UNL A   1      38.823  25.609  29.249  1.00  0.00    -0.200 F 
ATOM     90  F   UNL A   1      39.838  26.737  26.982  1.00  0.00    -0.200 F 
ENDBRANCH  56  80
BRANCH  68  91
ATOM     91  C   UNL A   1      44.474  29.371  35.739  1.00  0.00     0.064 A 
ATOM     92  C   UNL A   1      44.637  28.152  36.413  1.00  0.00     0.173 A 
ATOM     93  C   UNL A   1      45.620  29.998  35.227  1.00  0.00     0.173 A 
ATOM     94  F   UNL A   1      43.573  27.522  36.932  1.00  0.00    -0.203 F 
ATOM     95  C   UNL A   1      45.900  27.590  36.583  1.00  0.00     0.198 A 
ATOM     96  C   UNL A   1      46.880  29.424  35.380  1.00  0.00     0.198 A 
ATOM     97  F   UNL A   1      45.518  31.163  34.571  1.00  0.00    -0.203 F 
ATOM     98  F   UNL A   1      46.037  26.443  37.262  1.00  0.00    -0.200 F 
ATOM     99  C   UNL A   1      47.020  28.224  36.063  1.00  0.00     0.200 A 
ATOM    100  F   UNL A   1      47.959  30.032  34.871  1.00  0.00    -0.200 F 
ATOM    101  F   UNL A   1      48.234  27.681  36.225  1.00  0.00    -0.200 F 
ENDBRANCH  68  91
ENDBRANCH  42  43
ENDBRANCH  35  37
ENDBRANCH  34  35
ENDBRANCH  33  34
ENDBRANCH  32  33
ENDBRANCH  31  32
ENDBRANCH  30  31
ENDBRANCH   1  30
TORSDOF 23
ENDMDL
MODEL 2
REMARK VINA RESULT:     -10.0      6.176     11.566
REMARK SMILES CCC[C@@H]1SC[C@H](C(=O)OCCOCCOCCOC(=O)c2ccc(-c3c4nc(c(-c5c(F)c(F)c(F)c(F)c5F)c5ccc([nH]5)c(-c5c(F)c(F)c(F)c(F)c5F)c5nc(c(-c6c(F)c(F)c(F)c(F)c6F)c6ccc3[nH]6)C=C5)C=C4)cc2)N1C(=O)C[NH+]1CCC([NH3+])CC1
REMARK SMILES IDX 14 1 13 2 12 3 11 4 10 5 8 6 9 7 7 8 4 9 5 10 85 11 6 12
REMARK SMILES IDX 3 13 2 14 1 15 86 16 87 17 88 18 89 19 90 20 95 21 91 23
REMARK SMILES IDX 94 24 92 25 93 26 15 30 16 31 17 32 18 33 19 34 20 35 21 36
REMARK SMILES IDX 22 37 23 38 84 39 24 40 83 41 25 42 26 43 27 44 77 45 28 46
REMARK SMILES IDX 82 47 76 48 78 49 29 50 81 51 75 52 74 53 30 55 62 56 42 57
REMARK SMILES IDX 61 58 43 59 46 60 60 61 79 62 44 63 45 64 59 66 80 67 47 68
REMARK SMILES IDX 31 69 32 70 40 71 33 72 34 73 38 74 41 75 35 76 36 77 39 78
REMARK SMILES IDX 37 79 63 80 64 81 72 82 65 83 66 84 70 85 73 86 67 87 68 88
REMARK SMILES IDX 71 89 69 90 48 91 49 92 57 93 50 94 51 95 55 96 58 97 52 98
REMARK SMILES IDX 53 99 56 100 54 101
REMARK H PARENT 89 22 93 27 93 28 93 29 78 54 46 65
REMARK Flexibility Score: inf
ROOT
ATOM      1  C   UNL A   1      35.439  21.768  26.019  1.00  0.00     0.188 C 
ENDROOT
BRANCH   1   2
ATOM      2  O   UNL A   1      34.028  21.686  26.208  1.00  0.00    -0.376 OA
BRANCH   2   3
ATOM      3  C   UNL A   1      33.313  22.905  26.345  1.00  0.00     0.202 C 
BRANCH   3   4
ATOM      4  C   UNL A   1      33.732  23.977  25.343  1.00  0.00     0.261 C 
BRANCH   4   5
ATOM      5  O   UNL A   1      32.697  24.188  24.369  1.00  0.00    -0.462 OA
BRANCH   5   6
ATOM      6  C   UNL A   1      32.997  24.672  23.117  1.00  0.00     0.329 C 
ATOM      7  O   UNL A   1      34.002  24.438  22.471  1.00  0.00    -0.250 OA
BRANCH   6   8
ATOM      8  C   UNL A   1      31.906  25.693  22.799  1.00  0.00     0.206 C 
ATOM      9  C   UNL A   1      30.472  27.507  22.720  1.00  0.00     0.144 C 
ATOM     10  S   UNL A   1      29.576  26.535  23.929  1.00  0.00    -0.134 SA
ATOM     11  N   UNL A   1      31.859  27.167  22.994  1.00  0.00    -0.311 N 
ATOM     12  C   UNL A   1      30.673  25.120  23.580  1.00  0.00     0.109 C 
BRANCH   9  13
ATOM     13  C   UNL A   1      29.973  28.865  22.310  1.00  0.00     0.036 C 
BRANCH  13  14
ATOM     14  C   UNL A   1      28.438  28.892  22.505  1.00  0.00    -0.000 C 
ATOM     15  C   UNL A   1      27.904  30.186  23.081  1.00  0.00     0.004 C 
ENDBRANCH  13  14
ENDBRANCH   9  13
BRANCH  11  16
ATOM     16  C   UNL A   1      32.950  28.006  22.756  1.00  0.00     0.279 C 
ATOM     17  O   UNL A   1      33.804  27.665  21.930  1.00  0.00    -0.268 OA
BRANCH  16  18
ATOM     18  C   UNL A   1      33.181  29.265  23.716  1.00  0.00     0.363 C 
BRANCH  18  19
ATOM     19  N   UNL A   1      33.821  28.936  25.022  1.00  0.00    -0.327 N 
ATOM     20  C   UNL A   1      33.527  29.856  26.124  1.00  0.00     0.268 C 
ATOM     21  C   UNL A   1      33.691  27.544  25.504  1.00  0.00     0.268 C 
ATOM     22  H   UNL A   1      34.794  29.062  24.747  1.00  0.00     0.348 HD
ATOM     23  C   UNL A   1      32.217  29.621  26.860  1.00  0.00     0.126 C 
ATOM     24  C   UNL A   1      32.507  27.210  26.446  1.00  0.00     0.126 C 
ATOM     25  C   UNL A   1      32.307  28.266  27.535  1.00  0.00     0.192 C 
BRANCH  25  26
ATOM     26  N   UNL A   1      31.120  28.016  28.352  1.00  0.00    -0.355 N 
ATOM     27  H   UNL A   1      31.401  27.870  29.322  1.00  0.00     0.344 HD
ATOM     28  H   UNL A   1      30.639  27.185  28.008  1.00  0.00     0.344 HD
ATOM     29  H   UNL A   1      30.494  28.819  28.296  1.00  0.00     0.344 HD
ENDBRANCH  25  26
ENDBRANCH  18  19
ENDBRANCH  16  18
ENDBRANCH  11  16
ENDBRANCH   6   8
ENDBRANCH   5   6
ENDBRANCH   4   5
ENDBRANCH   3   4
ENDBRANCH   2   3
ENDBRANCH   1   2
BRANCH   1  30
ATOM     30  C   UNL A   1      36.063  20.821  24.977  1.00  0.00     0.188 C 
BRANCH  30  31
ATOM     31  O   UNL A   1      37.379  21.149  24.531  1.00  0.00    -0.376 OA
BRANCH  31  32
ATOM     32  C   UNL A   1      38.429  21.010  25.489  1.00  0.00     0.202 C 
BRANCH  32  33
ATOM     33  C   UNL A   1      39.200  19.693  25.382  1.00  0.00     0.261 C 
BRANCH  33  34
ATOM     34  O   UNL A   1      40.092  19.572  26.503  1.00  0.00    -0.460 OA
BRANCH  34  35
ATOM     35  C   UNL A   1      41.395  19.427  26.190  1.00  0.00     0.338 C 
ATOM     36  O   UNL A   1      41.937  18.423  25.762  1.00  0.00    -0.246 OA
BRANCH  35  37
ATOM     37  C   UNL A   1      42.110  20.692  26.462  1.00  0.00     0.060 A 
ATOM     38  C   UNL A   1      42.292  21.147  27.769  1.00  0.00     0.016 A 
ATOM     39  C   UNL A   1      42.493  21.497  25.390  1.00  0.00     0.016 A 
ATOM     40  C   UNL A   1      42.772  22.441  28.002  1.00  0.00     0.010 A 
ATOM     41  C   UNL A   1      43.004  22.779  25.628  1.00  0.00     0.010 A 
ATOM     42  C   UNL A   1      43.081  23.296  26.936  1.00  0.00    -0.014 A 
BRANCH  42  43
ATOM     43  C   UNL A   1      43.273  24.766  27.140  1.00  0.00     0.031 A 
ATOM     44  C   UNL A   1      44.556  25.402  26.655  1.00  0.00     0.074 A 
ATOM     45  C   UNL A   1      42.337  25.572  27.675  1.00  0.00     0.049 A 
ATOM     46  N   UNL A   1      45.084  26.563  26.956  1.00  0.00    -0.248 NA
ATOM     47  C   UNL A   1      45.357  24.609  25.709  1.00  0.00     0.031 C 
ATOM     48  C   UNL A   1      40.993  25.170  28.079  1.00  0.00     0.029 A 
ATOM     49  N   UNL A   1      42.381  26.919  27.958  1.00  0.00    -0.354 N 
ATOM     50  C   UNL A   1      46.320  26.593  26.320  1.00  0.00     0.074 A 
ATOM     51  C   UNL A   1      46.449  25.349  25.591  1.00  0.00     0.031 C 
ATOM     52  C   UNL A   1      40.324  26.253  28.510  1.00  0.00     0.029 A 
ATOM     53  C   UNL A   1      41.221  27.408  28.507  1.00  0.00     0.049 A 
ATOM     54  H   UNL A   1      43.171  27.479  27.782  1.00  0.00     0.167 HD
ATOM     55  C   UNL A   1      47.268  27.559  26.358  1.00  0.00     0.037 A 
ATOM     56  C   UNL A   1      40.927  28.631  28.992  1.00  0.00     0.037 A 
ATOM     57  C   UNL A   1      47.104  28.838  26.997  1.00  0.00     0.049 A 
ATOM     58  C   UNL A   1      41.995  29.695  29.042  1.00  0.00     0.074 A 
ATOM     59  C   UNL A   1      48.018  29.871  27.119  1.00  0.00     0.029 A 
ATOM     60  N   UNL A   1      45.928  29.273  27.586  1.00  0.00    -0.354 N 
ATOM     61  N   UNL A   1      43.225  29.660  28.595  1.00  0.00    -0.248 NA
ATOM     62  C   UNL A   1      41.638  30.960  29.707  1.00  0.00     0.031 C 
ATOM     63  C   UNL A   1      47.397  30.927  27.798  1.00  0.00     0.029 A 
ATOM     64  C   UNL A   1      46.090  30.562  28.068  1.00  0.00     0.049 A 
ATOM     65  H   UNL A   1      45.100  28.745  27.651  1.00  0.00     0.167 HD
ATOM     66  C   UNL A   1      43.789  30.886  28.924  1.00  0.00     0.074 A 
ATOM     67  C   UNL A   1      42.758  31.660  29.581  1.00  0.00     0.031 C 
ATOM     68  C   UNL A   1      45.055  31.325  28.715  1.00  0.00     0.037 A 
BRANCH  55  69
ATOM     69  C   UNL A   1      48.599  27.238  25.744  1.00  0.00     0.064 A 
ATOM     70  C   UNL A   1      48.849  27.378  24.374  1.00  0.00     0.173 A 
ATOM     71  C   UNL A   1      49.648  26.784  26.561  1.00  0.00     0.173 A 
ATOM     72  F   UNL A   1      47.875  27.789  23.548  1.00  0.00    -0.203 F 
ATOM     73  C   UNL A   1      50.091  27.045  23.836  1.00  0.00     0.198 A 
ATOM     74  C   UNL A   1      50.895  26.479  26.026  1.00  0.00     0.198 A 
ATOM     75  F   UNL A   1      49.462  26.638  27.883  1.00  0.00    -0.203 F 
ATOM     76  F   UNL A   1      50.293  27.132  22.514  1.00  0.00    -0.200 F 
ATOM     77  C   UNL A   1      51.114  26.600  24.663  1.00  0.00     0.200 A 
ATOM     78  F   UNL A   1      51.885  26.062  26.829  1.00  0.00    -0.200 F 
ATOM     79  F   UNL A   1      52.307  26.280  24.143  1.00  0.00    -0.200 F 
ENDBRANCH  55  69
BRANCH  56  80
ATOM     80  C   UNL A   1      39.567  28.915  29.523  1.00  0.00     0.064 A 
ATOM     81  C   UNL A   1      38.569  29.446  28.692  1.00  0.00     0.173 A 
ATOM     82  C   UNL A   1      39.238  28.676  30.866  1.00  0.00     0.173 A 
ATOM     83  F   UNL A   1      38.845  29.728  27.410  1.00  0.00    -0.203 F 
ATOM     84  C   UNL A   1      37.298  29.730  29.186  1.00  0.00     0.198 A 
ATOM     85  C   UNL A   1      37.958  28.932  31.350  1.00  0.00     0.198 A 
ATOM     86  F   UNL A   1      40.161  28.184  31.705  1.00  0.00    -0.203 F 
ATOM     87  F   UNL A   1      36.376  30.276  28.381  1.00  0.00    -0.200 F 
ATOM     88  C   UNL A   1      36.990  29.463  30.512  1.00  0.00     0.200 A 
ATOM     89  F   UNL A   1      37.662  28.664  32.629  1.00  0.00    -0.200 F 
ATOM     90  F   UNL A   1      35.764  29.728  30.983  1.00  0.00    -0.200 F 
ENDBRANCH  56  80
BRANCH  68  91
ATOM     91  C   UNL A   1      45.395  32.708  29.187  1.00  0.00     0.064 A 
ATOM     92  C   UNL A   1      45.943  32.932  30.458  1.00  0.00     0.173 A 
ATOM     93  C   UNL A   1      45.211  33.814  28.344  1.00  0.00     0.173 A 
ATOM     94  F   UNL A   1      46.126  31.908  31.305  1.00  0.00    -0.203 F 
ATOM     95  C   UNL A   1      46.279  34.218  30.876  1.00  0.00     0.198 A 
ATOM     96  C   UNL A   1      45.567  35.096  28.757  1.00  0.00     0.198 A 
ATOM     97  F   UNL A   1      44.694  33.652  27.118  1.00  0.00    -0.203 F 
ATOM     98  F   UNL A   1      46.768  34.415  32.108  1.00  0.00    -0.200 F 
ATOM     99  C   UNL A   1      46.095  35.298  30.024  1.00  0.00     0.200 A 
ATOM    100  F   UNL A   1      45.396  36.137  27.931  1.00  0.00    -0.200 F 
ATOM    101  F   UNL A   1      46.422  36.534  30.427  1.00  0.00    -0.200 F 
ENDBRANCH  68  91
ENDBRANCH  42  43
ENDBRANCH  35  37
ENDBRANCH  34  35
ENDBRANCH  33  34
ENDBRANCH  32  33
ENDBRANCH  31  32
ENDBRANCH  30  31
ENDBRANCH   1  30
TORSDOF 23
ENDMDL
MODEL 3
REMARK VINA RESULT:      -9.7      7.312     12.604
REMARK SMILES CCC[C@@H]1SC[C@H](C(=O)OCCOCCOCCOC(=O)c2ccc(-c3c4nc(c(-c5c(F)c(F)c(F)c(F)c5F)c5ccc([nH]5)c(-c5c(F)c(F)c(F)c(F)c5F)c5nc(c(-c6c(F)c(F)c(F)c(F)c6F)c6ccc3[nH]6)C=C5)C=C4)cc2)N1C(=O)C[NH+]1CCC([NH3+])CC1
REMARK SMILES IDX 14 1 13 2 12 3 11 4 10 5 8 6 9 7 7 8 4 9 5 10 85 11 6 12
REMARK SMILES IDX 3 13 2 14 1 15 86 16 87 17 88 18 89 19 90 20 95 21 91 23
REMARK SMILES IDX 94 24 92 25 93 26 15 30 16 31 17 32 18 33 19 34 20 35 21 36
REMARK SMILES IDX 22 37 23 38 84 39 24 40 83 41 25 42 26 43 27 44 77 45 28 46
REMARK SMILES IDX 82 47 76 48 78 49 29 50 81 51 75 52 74 53 30 55 62 56 42 57
REMARK SMILES IDX 61 58 43 59 46 60 60 61 79 62 44 63 45 64 59 66 80 67 47 68
REMARK SMILES IDX 31 69 32 70 40 71 33 72 34 73 38 74 41 75 35 76 36 77 39 78
REMARK SMILES IDX 37 79 63 80 64 81 72 82 65 83 66 84 70 85 73 86 67 87 68 88
REMARK SMILES IDX 71 89 69 90 48 91 49 92 57 93 50 94 51 95 55 96 58 97 52 98
REMARK SMILES IDX 53 99 56 100 54 101
REMARK H PARENT 89 22 93 27 93 28 93 29 78 54 46 65
REMARK Flexibility Score: inf
ROOT
ATOM      1  C   UNL A   1      49.772  28.144  21.262  1.00  0.00     0.188 C 
ENDROOT
BRANCH   1   2
ATOM      2  O   UNL A   1      48.729  28.175  22.234  1.00  0.00    -0.376 OA
BRANCH   2   3
ATOM      3  C   UNL A   1      48.633  27.078  23.129  1.00  0.00     0.202 C 
BRANCH   3   4
ATOM      4  C   UNL A   1      47.978  27.431  24.463  1.00  0.00     0.261 C 
BRANCH   4   5
ATOM      5  O   UNL A   1      46.589  27.065  24.453  1.00  0.00    -0.462 OA
BRANCH   5   6
ATOM      6  C   UNL A   1      46.156  25.927  25.095  1.00  0.00     0.329 C 
ATOM      7  O   UNL A   1      46.319  24.780  24.722  1.00  0.00    -0.250 OA
BRANCH   6   8
ATOM      8  C   UNL A   1      45.285  26.414  26.251  1.00  0.00     0.206 C 
ATOM      9  C   UNL A   1      43.663  26.738  27.868  1.00  0.00     0.144 C 
ATOM     10  S   UNL A   1      42.882  27.661  26.546  1.00  0.00    -0.134 SA
ATOM     11  N   UNL A   1      44.361  25.680  27.156  1.00  0.00    -0.311 N 
ATOM     12  C   UNL A   1      44.418  27.530  25.570  1.00  0.00     0.109 C 
BRANCH   9  13
ATOM     13  C   UNL A   1      42.981  26.588  29.201  1.00  0.00     0.036 C 
BRANCH  13  14
ATOM     14  C   UNL A   1      41.776  27.558  29.235  1.00  0.00    -0.000 C 
ATOM     15  C   UNL A   1      40.425  26.879  29.152  1.00  0.00     0.004 C 
ENDBRANCH  13  14
ENDBRANCH   9  13
BRANCH  11  16
ATOM     16  C   UNL A   1      44.645  24.416  27.679  1.00  0.00     0.279 C 
ATOM     17  O   UNL A   1      45.429  24.320  28.631  1.00  0.00    -0.268 OA
BRANCH  16  18
ATOM     18  C   UNL A   1      44.130  23.121  26.895  1.00  0.00     0.363 C 
BRANCH  18  19
ATOM     19  N   UNL A   1      43.171  22.276  27.663  1.00  0.00    -0.327 N 
ATOM     20  C   UNL A   1      42.189  23.002  28.472  1.00  0.00     0.268 C 
ATOM     21  C   UNL A   1      42.486  21.194  26.925  1.00  0.00     0.268 C 
ATOM     22  H   UNL A   1      43.837  21.827  28.291  1.00  0.00     0.348 HD
ATOM     23  C   UNL A   1      40.953  23.499  27.737  1.00  0.00     0.126 C 
ATOM     24  C   UNL A   1      41.103  21.504  26.299  1.00  0.00     0.126 C 
ATOM     25  C   UNL A   1      40.190  22.283  27.250  1.00  0.00     0.192 C 
BRANCH  25  26
ATOM     26  N   UNL A   1      38.931  22.680  26.622  1.00  0.00    -0.355 N 
ATOM     27  H   UNL A   1      39.080  23.520  26.062  1.00  0.00     0.344 HD
ATOM     28  H   UNL A   1      38.236  22.870  27.344  1.00  0.00     0.344 HD
ATOM     29  H   UNL A   1      38.599  21.925  26.021  1.00  0.00     0.344 HD
ENDBRANCH  25  26
ENDBRANCH  18  19
ENDBRANCH  16  18
ENDBRANCH  11  16
ENDBRANCH   6   8
ENDBRANCH   5   6
ENDBRANCH   4   5
ENDBRANCH   3   4
ENDBRANCH   2   3
ENDBRANCH   1   2
BRANCH   1  30
ATOM     30  C   UNL A   1      50.894  27.110  21.471  1.00  0.00     0.188 C 
BRANCH  30  31
ATOM     31  O   UNL A   1      52.105  27.598  22.049  1.00  0.00    -0.376 OA
BRANCH  31  32
ATOM     32  C   UNL A   1      52.717  26.772  23.040  1.00  0.00     0.202 C 
BRANCH  32  33
ATOM     33  C   UNL A   1      52.180  26.993  24.454  1.00  0.00     0.261 C 
BRANCH  33  34
ATOM     34  O   UNL A   1      51.440  25.832  24.869  1.00  0.00    -0.460 OA
BRANCH  34  35
ATOM     35  C   UNL A   1      51.822  25.295  26.046  1.00  0.00     0.338 C 
ATOM     36  O   UNL A   1      52.834  24.653  26.262  1.00  0.00    -0.246 OA
BRANCH  35  37
ATOM     37  C   UNL A   1      50.799  25.586  27.073  1.00  0.00     0.060 A 
ATOM     38  C   UNL A   1      49.522  25.028  26.993  1.00  0.00     0.016 A 
ATOM     39  C   UNL A   1      51.081  26.528  28.062  1.00  0.00     0.016 A 
ATOM     40  C   UNL A   1      48.503  25.478  27.841  1.00  0.00     0.010 A 
ATOM     41  C   UNL A   1      50.068  26.952  28.930  1.00  0.00     0.010 A 
ATOM     42  C   UNL A   1      48.747  26.486  28.783  1.00  0.00    -0.014 A 
BRANCH  42  43
ATOM     43  C   UNL A   1      47.627  27.211  29.463  1.00  0.00     0.031 A 
ATOM     44  C   UNL A   1      47.098  26.664  30.769  1.00  0.00     0.074 A 
ATOM     45  C   UNL A   1      47.103  28.365  29.007  1.00  0.00     0.049 A 
ATOM     46  N   UNL A   1      45.979  26.926  31.398  1.00  0.00    -0.248 NA
ATOM     47  C   UNL A   1      47.950  25.678  31.452  1.00  0.00     0.031 C 
ATOM     48  C   UNL A   1      47.566  29.113  27.843  1.00  0.00     0.029 A 
ATOM     49  N   UNL A   1      46.060  29.119  29.495  1.00  0.00    -0.354 N 
ATOM     50  C   UNL A   1      45.947  26.064  32.488  1.00  0.00     0.074 A 
ATOM     51  C   UNL A   1      47.173  25.296  32.454  1.00  0.00     0.031 C 
ATOM     52  C   UNL A   1      46.845  30.242  27.734  1.00  0.00     0.029 A 
ATOM     53  C   UNL A   1      45.804  30.251  28.761  1.00  0.00     0.049 A 
ATOM     54  H   UNL A   1      45.545  28.871  30.297  1.00  0.00     0.167 HD
ATOM     55  C   UNL A   1      44.975  25.912  33.419  1.00  0.00     0.037 A 
ATOM     56  C   UNL A   1      44.821  31.167  28.873  1.00  0.00     0.037 A 
ATOM     57  C   UNL A   1      43.802  26.740  33.515  1.00  0.00     0.049 A 
ATOM     58  C   UNL A   1      43.736  30.981  29.904  1.00  0.00     0.074 A 
ATOM     59  C   UNL A   1      42.743  26.647  34.403  1.00  0.00     0.029 A 
ATOM     60  N   UNL A   1      43.558  27.847  32.718  1.00  0.00    -0.354 N 
ATOM     61  N   UNL A   1      43.615  30.059  30.826  1.00  0.00    -0.248 NA
ATOM     62  C   UNL A   1      42.625  31.947  29.878  1.00  0.00     0.031 C 
ATOM     63  C   UNL A   1      41.849  27.689  34.130  1.00  0.00     0.029 A 
ATOM     64  C   UNL A   1      42.368  28.449  33.096  1.00  0.00     0.049 A 
ATOM     65  H   UNL A   1      44.144  28.160  31.992  1.00  0.00     0.167 HD
ATOM     66  C   UNL A   1      42.422  30.328  31.485  1.00  0.00     0.074 A 
ATOM     67  C   UNL A   1      41.868  31.520  30.880  1.00  0.00     0.031 C 
ATOM     68  C   UNL A   1      41.829  29.638  32.491  1.00  0.00     0.037 A 
BRANCH  55  69
ATOM     69  C   UNL A   1      45.108  24.759  34.369  1.00  0.00     0.064 A 
ATOM     70  C   UNL A   1      44.714  23.458  34.033  1.00  0.00     0.173 A 
ATOM     71  C   UNL A   1      45.653  24.972  35.646  1.00  0.00     0.173 A 
ATOM     72  F   UNL A   1      44.169  23.206  32.834  1.00  0.00    -0.203 F 
ATOM     73  C   UNL A   1      44.829  22.417  34.953  1.00  0.00     0.198 A 
ATOM     74  C   UNL A   1      45.794  23.925  36.551  1.00  0.00     0.198 A 
ATOM     75  F   UNL A   1      46.052  26.200  36.015  1.00  0.00    -0.203 F 
ATOM     76  F   UNL A   1      44.394  21.190  34.632  1.00  0.00    -0.200 F 
ATOM     77  C   UNL A   1      45.373  22.650  36.208  1.00  0.00     0.200 A 
ATOM     78  F   UNL A   1      46.331  24.152  37.759  1.00  0.00    -0.200 F 
ATOM     79  F   UNL A   1      45.483  21.647  37.090  1.00  0.00    -0.200 F 
ENDBRANCH  55  69
BRANCH  56  80
ATOM     80  C   UNL A   1      44.778  32.331  27.949  1.00  0.00     0.064 A 
ATOM     81  C   UNL A   1      44.169  32.225  26.690  1.00  0.00     0.173 A 
ATOM     82  C   UNL A   1      45.353  33.564  28.293  1.00  0.00     0.173 A 
ATOM     83  F   UNL A   1      43.640  31.056  26.299  1.00  0.00    -0.203 F 
ATOM     84  C   UNL A   1      44.140  33.305  25.811  1.00  0.00     0.198 A 
ATOM     85  C   UNL A   1      45.296  34.652  27.425  1.00  0.00     0.198 A 
ATOM     86  F   UNL A   1      45.962  33.713  29.478  1.00  0.00    -0.203 F 
ATOM     87  F   UNL A   1      43.589  33.164  24.598  1.00  0.00    -0.200 F 
ATOM     88  C   UNL A   1      44.694  34.521  26.184  1.00  0.00     0.200 A 
ATOM     89  F   UNL A   1      45.825  35.827  27.792  1.00  0.00    -0.200 F 
ATOM     90  F   UNL A   1      44.657  35.563  25.341  1.00  0.00    -0.200 F 
ENDBRANCH  56  80
BRANCH  68  91
ATOM     91  C   UNL A   1      40.523  30.159  33.012  1.00  0.00     0.064 A 
ATOM     92  C   UNL A   1      40.475  31.190  33.962  1.00  0.00     0.173 A 
ATOM     93  C   UNL A   1      39.308  29.655  32.527  1.00  0.00     0.173 A 
ATOM     94  F   UNL A   1      41.610  31.697  34.466  1.00  0.00    -0.203 F 
ATOM     95  C   UNL A   1      39.256  31.685  34.421  1.00  0.00     0.198 A 
ATOM     96  C   UNL A   1      38.091  30.165  32.972  1.00  0.00     0.198 A 
ATOM     97  F   UNL A   1      39.300  28.671  31.615  1.00  0.00    -0.203 F 
ATOM     98  F   UNL A   1      39.232  32.646  35.355  1.00  0.00    -0.200 F 
ATOM     99  C   UNL A   1      38.066  31.175  33.922  1.00  0.00     0.200 A 
ATOM    100  F   UNL A   1      36.942  29.678  32.484  1.00  0.00    -0.200 F 
ATOM    101  F   UNL A   1      36.894  31.655  34.362  1.00  0.00    -0.200 F 
ENDBRANCH  68  91
ENDBRANCH  42  43
ENDBRANCH  35  37
ENDBRANCH  34  35
ENDBRANCH  33  34
ENDBRANCH  32  33
ENDBRANCH  31  32
ENDBRANCH  30  31
ENDBRANCH   1  30
TORSDOF 23
ENDMDL
