MODEL 1
REMARK VINA RESULT:     -10.7      0.000      0.000
REMARK SMILES CC(C)CCc1cc2c(cc1Cl)C=C(C(=O)OCCOCCOCCOC(=O)c1ccc(-c3c4nc(c(-c5c(F)c(F)c(F)c(F)c5F)c5ccc([nH]5)c(-c5c(F)c(F)c(F)c(F)c5F)c5nc(c(-c6c(F)c(F)c(F)c(F)c6F)c6ccc3[nH]6)C=C5)C=C4)cc1)[C@H](C(F)(F)F)O2
REMARK SMILES IDX 21 1 20 2 19 3 18 4 17 5 15 6 16 7 14 8 6 9 7 10 11 11 8 12
REMARK SMILES IDX 10 13 12 14 9 15 97 16 13 17 92 18 5 19 4 20 2 21 1 22 3 23
REMARK SMILES IDX 93 24 94 25 95 26 96 27 22 28 23 29 24 30 25 31 26 32 27 33
REMARK SMILES IDX 28 34 29 35 30 36 91 37 31 38 90 39 32 40 33 41 34 42 84 43
REMARK SMILES IDX 35 44 89 45 83 46 85 47 36 48 88 49 82 50 81 51 37 53 69 54
REMARK SMILES IDX 49 55 68 56 50 57 53 58 67 59 86 60 51 61 52 62 66 64 87 65
REMARK SMILES IDX 54 66 38 67 39 68 47 69 40 70 41 71 45 72 48 73 42 74 43 75
REMARK SMILES IDX 46 76 44 77 70 78 71 79 79 80 72 81 73 82 77 83 80 84 74 85
REMARK SMILES IDX 75 86 78 87 76 88 55 89 56 90 64 91 57 92 58 93 62 94 65 95
REMARK SMILES IDX 59 96 60 97 63 98 61 99
REMARK H PARENT 85 52 53 63
REMARK Flexibility Score: inf
ROOT
ATOM      1  C   UNL A   1      34.502  31.476  27.629  1.00  0.00     0.188 C 
ENDROOT
BRANCH   1   2
ATOM      2  O   UNL A   1      33.136  31.128  27.431  1.00  0.00    -0.376 OA
BRANCH   2   3
ATOM      3  C   UNL A   1      32.802  29.802  27.032  1.00  0.00     0.202 C 
BRANCH   3   4
ATOM      4  C   UNL A   1      33.209  29.385  25.616  1.00  0.00     0.261 C 
BRANCH   4   5
ATOM      5  O   UNL A   1      33.890  28.116  25.590  1.00  0.00    -0.460 OA
BRANCH   5   6
ATOM      6  C   UNL A   1      33.649  27.352  24.506  1.00  0.00     0.338 C 
ATOM      7  O   UNL A   1      33.722  27.706  23.340  1.00  0.00    -0.246 OA
BRANCH   6   8
ATOM      8  C   UNL A   1      33.456  25.940  24.888  1.00  0.00     0.087 C 
ATOM      9  C   UNL A   1      34.454  20.986  24.852  1.00  0.00    -0.026 A 
ATOM     10  C   UNL A   1      33.277  21.779  24.829  1.00  0.00     0.052 A 
ATOM     11  C   UNL A   1      35.675  21.670  24.968  1.00  0.00     0.045 A 
ATOM     12  C   UNL A   1      33.314  23.175  24.905  1.00  0.00     0.128 A 
ATOM     13  C   UNL A   1      35.701  23.063  25.137  1.00  0.00     0.032 A 
ATOM     14  Cl  UNL A   1      37.239  20.961  24.805  1.00  0.00    -0.084 Cl
ATOM     15  C   UNL A   1      34.529  23.817  25.085  1.00  0.00     0.019 A 
ATOM     16  O   UNL A   1      32.133  23.832  24.706  1.00  0.00    -0.475 OA
ATOM     17  C   UNL A   1      34.602  25.265  25.047  1.00  0.00     0.027 C 
ATOM     18  C   UNL A   1      32.099  25.287  24.833  1.00  0.00     0.316 C 
BRANCH   9  19
ATOM     19  C   UNL A   1      34.209  19.497  24.666  1.00  0.00     0.037 C 
BRANCH  19  20
ATOM     20  C   UNL A   1      32.884  18.806  25.007  1.00  0.00     0.008 C 
BRANCH  20  21
ATOM     21  C   UNL A   1      32.666  17.420  24.366  1.00  0.00    -0.017 C 
ATOM     22  C   UNL A   1      33.591  17.176  23.174  1.00  0.00     0.007 C 
ATOM     23  C   UNL A   1      32.884  16.329  25.421  1.00  0.00     0.007 C 
ENDBRANCH  20  21
ENDBRANCH  19  20
ENDBRANCH   9  19
BRANCH  18  24
ATOM     24  C   UNL A   1      31.165  25.617  26.009  1.00  0.00     0.430 C 
ATOM     25  F   UNL A   1      30.801  26.916  26.024  1.00  0.00    -0.167 F 
ATOM     26  F   UNL A   1      30.017  24.898  25.928  1.00  0.00    -0.167 F 
ATOM     27  F   UNL A   1      31.731  25.326  27.204  1.00  0.00    -0.167 F 
ENDBRANCH  18  24
ENDBRANCH   6   8
ENDBRANCH   5   6
ENDBRANCH   4   5
ENDBRANCH   3   4
ENDBRANCH   2   3
ENDBRANCH   1   2
BRANCH   1  28
ATOM     28  C   UNL A   1      34.884  32.921  27.994  1.00  0.00     0.188 C 
BRANCH  28  29
ATOM     29  O   UNL A   1      34.182  33.443  29.108  1.00  0.00    -0.376 OA
BRANCH  29  30
ATOM     30  C   UNL A   1      34.395  32.771  30.340  1.00  0.00     0.202 C 
BRANCH  30  31
ATOM     31  C   UNL A   1      34.726  33.731  31.487  1.00  0.00     0.261 C 
BRANCH  31  32
ATOM     32  O   UNL A   1      36.097  33.694  31.920  1.00  0.00    -0.460 OA
BRANCH  32  33
ATOM     33  C   UNL A   1      36.515  32.576  32.555  1.00  0.00     0.338 C 
ATOM     34  O   UNL A   1      35.916  31.937  33.400  1.00  0.00    -0.246 OA
BRANCH  33  35
ATOM     35  C   UNL A   1      37.753  32.133  31.878  1.00  0.00     0.060 A 
ATOM     36  C   UNL A   1      38.792  31.558  32.613  1.00  0.00     0.016 A 
ATOM     37  C   UNL A   1      37.894  32.346  30.500  1.00  0.00     0.016 A 
ATOM     38  C   UNL A   1      39.969  31.177  31.966  1.00  0.00     0.010 A 
ATOM     39  C   UNL A   1      39.080  31.981  29.857  1.00  0.00     0.010 A 
ATOM     40  C   UNL A   1      40.117  31.377  30.582  1.00  0.00    -0.014 A 
BRANCH  40  41
ATOM     41  C   UNL A   1      41.277  30.785  29.874  1.00  0.00     0.031 A 
ATOM     42  C   UNL A   1      41.284  29.366  29.395  1.00  0.00     0.074 A 
ATOM     43  C   UNL A   1      42.351  31.571  29.673  1.00  0.00     0.049 A 
ATOM     44  N   UNL A   1      42.207  28.736  28.711  1.00  0.00    -0.248 NA
ATOM     45  C   UNL A   1      40.111  28.546  29.725  1.00  0.00     0.031 C 
ATOM     46  C   UNL A   1      42.458  32.963  30.110  1.00  0.00     0.029 A 
ATOM     47  N   UNL A   1      43.546  31.319  29.053  1.00  0.00    -0.354 N 
ATOM     48  C   UNL A   1      41.722  27.453  28.506  1.00  0.00     0.074 A 
ATOM     49  C   UNL A   1      40.438  27.382  29.177  1.00  0.00     0.031 C 
ATOM     50  C   UNL A   1      43.651  33.447  29.736  1.00  0.00     0.029 A 
ATOM     51  C   UNL A   1      44.396  32.395  29.050  1.00  0.00     0.049 A 
ATOM     52  H   UNL A   1      43.774  30.450  28.649  1.00  0.00     0.167 HD
ATOM     53  C   UNL A   1      42.293  26.441  27.807  1.00  0.00     0.037 A 
ATOM     54  C   UNL A   1      45.637  32.527  28.547  1.00  0.00     0.037 A 
ATOM     55  C   UNL A   1      43.583  26.515  27.162  1.00  0.00     0.049 A 
ATOM     56  C   UNL A   1      46.264  31.375  27.816  1.00  0.00     0.074 A 
ATOM     57  C   UNL A   1      44.228  25.546  26.411  1.00  0.00     0.029 A 
ATOM     58  N   UNL A   1      44.431  27.613  27.201  1.00  0.00    -0.354 N 
ATOM     59  N   UNL A   1      45.769  30.185  27.573  1.00  0.00    -0.248 NA
ATOM     60  C   UNL A   1      47.613  31.588  27.276  1.00  0.00     0.031 C 
ATOM     61  C   UNL A   1      45.485  26.038  26.040  1.00  0.00     0.029 A 
ATOM     62  C   UNL A   1      45.601  27.336  26.508  1.00  0.00     0.049 A 
ATOM     63  H   UNL A   1      44.231  28.464  27.654  1.00  0.00     0.167 HD
ATOM     64  C   UNL A   1      46.731  29.518  26.829  1.00  0.00     0.074 A 
ATOM     65  C   UNL A   1      47.834  30.441  26.651  1.00  0.00     0.031 C 
ATOM     66  C   UNL A   1      46.697  28.256  26.335  1.00  0.00     0.037 A 
BRANCH  53  67
ATOM     67  C   UNL A   1      41.530  25.153  27.689  1.00  0.00     0.064 A 
ATOM     68  C   UNL A   1      40.453  25.022  26.800  1.00  0.00     0.173 A 
ATOM     69  C   UNL A   1      41.938  24.010  28.395  1.00  0.00     0.173 A 
ATOM     70  F   UNL A   1      40.023  26.084  26.101  1.00  0.00    -0.203 F 
ATOM     71  C   UNL A   1      39.806  23.801  26.631  1.00  0.00     0.198 A 
ATOM     72  C   UNL A   1      41.304  22.784  28.205  1.00  0.00     0.198 A 
ATOM     73  F   UNL A   1      42.970  24.075  29.249  1.00  0.00    -0.203 F 
ATOM     74  F   UNL A   1      38.764  23.707  25.792  1.00  0.00    -0.200 F 
ATOM     75  C   UNL A   1      40.237  22.681  27.325  1.00  0.00     0.200 A 
ATOM     76  F   UNL A   1      41.733  21.698  28.864  1.00  0.00    -0.200 F 
ATOM     77  F   UNL A   1      39.624  21.502  27.147  1.00  0.00    -0.200 F 
ENDBRANCH  53  67
BRANCH  54  78
ATOM     78  C   UNL A   1      46.337  33.828  28.680  1.00  0.00     0.064 A 
ATOM     79  C   UNL A   1      46.098  34.866  27.772  1.00  0.00     0.173 A 
ATOM     80  C   UNL A   1      47.214  34.076  29.747  1.00  0.00     0.173 A 
ATOM     81  F   UNL A   1      45.279  34.668  26.728  1.00  0.00    -0.203 F 
ATOM     82  C   UNL A   1      46.715  36.106  27.920  1.00  0.00     0.198 A 
ATOM     83  C   UNL A   1      47.809  35.324  29.909  1.00  0.00     0.198 A 
ATOM     84  F   UNL A   1      47.465  33.115  30.647  1.00  0.00    -0.203 F 
ATOM     85  F   UNL A   1      46.490  37.075  27.024  1.00  0.00    -0.200 F 
ATOM     86  C   UNL A   1      47.562  36.337  28.994  1.00  0.00     0.200 A 
ATOM     87  F   UNL A   1      48.613  35.548  30.957  1.00  0.00    -0.200 F 
ATOM     88  F   UNL A   1      48.141  37.535  29.147  1.00  0.00    -0.200 F 
ENDBRANCH  54  78
BRANCH  66  89
ATOM     89  C   UNL A   1      47.879  27.801  25.525  1.00  0.00     0.064 A 
ATOM     90  C   UNL A   1      49.056  27.340  26.133  1.00  0.00     0.173 A 
ATOM     91  C   UNL A   1      47.817  27.793  24.123  1.00  0.00     0.173 A 
ATOM     92  F   UNL A   1      49.172  27.341  27.469  1.00  0.00    -0.203 F 
ATOM     93  C   UNL A   1      50.138  26.914  25.366  1.00  0.00     0.198 A 
ATOM     94  C   UNL A   1      48.890  27.339  23.360  1.00  0.00     0.198 A 
ATOM     95  F   UNL A   1      46.713  28.219  23.492  1.00  0.00    -0.203 F 
ATOM     96  F   UNL A   1      51.271  26.524  25.967  1.00  0.00    -0.200 F 
ATOM     97  C   UNL A   1      50.052  26.907  23.982  1.00  0.00     0.200 A 
ATOM     98  F   UNL A   1      48.800  27.321  22.024  1.00  0.00    -0.200 F 
ATOM     99  F   UNL A   1      51.092  26.491  23.246  1.00  0.00    -0.200 F 
ENDBRANCH  66  89
ENDBRANCH  40  41
ENDBRANCH  33  35
ENDBRANCH  32  33
ENDBRANCH  31  32
ENDBRANCH  30  31
ENDBRANCH  29  30
ENDBRANCH  28  29
ENDBRANCH   1  28
TORSDOF 21
ENDMDL
MODEL 2
REMARK VINA RESULT:     -10.6      2.935      9.123
REMARK SMILES CC(C)CCc1cc2c(cc1Cl)C=C(C(=O)OCCOCCOCCOC(=O)c1ccc(-c3c4nc(c(-c5c(F)c(F)c(F)c(F)c5F)c5ccc([nH]5)c(-c5c(F)c(F)c(F)c(F)c5F)c5nc(c(-c6c(F)c(F)c(F)c(F)c6F)c6ccc3[nH]6)C=C5)C=C4)cc1)[C@H](C(F)(F)F)O2
REMARK SMILES IDX 21 1 20 2 19 3 18 4 17 5 15 6 16 7 14 8 6 9 7 10 11 11 8 12
REMARK SMILES IDX 10 13 12 14 9 15 97 16 13 17 92 18 5 19 4 20 2 21 1 22 3 23
REMARK SMILES IDX 93 24 94 25 95 26 96 27 22 28 23 29 24 30 25 31 26 32 27 33
REMARK SMILES IDX 28 34 29 35 30 36 91 37 31 38 90 39 32 40 33 41 34 42 84 43
REMARK SMILES IDX 35 44 89 45 83 46 85 47 36 48 88 49 82 50 81 51 37 53 69 54
REMARK SMILES IDX 49 55 68 56 50 57 53 58 67 59 86 60 51 61 52 62 66 64 87 65
REMARK SMILES IDX 54 66 38 67 39 68 47 69 40 70 41 71 45 72 48 73 42 74 43 75
REMARK SMILES IDX 46 76 44 77 70 78 71 79 79 80 72 81 73 82 77 83 80 84 74 85
REMARK SMILES IDX 75 86 78 87 76 88 55 89 56 90 64 91 57 92 58 93 62 94 65 95
REMARK SMILES IDX 59 96 60 97 63 98 61 99
REMARK H PARENT 85 52 53 63
REMARK Flexibility Score: inf
ROOT
ATOM      1  C   UNL A   1      34.121  22.006  24.230  1.00  0.00     0.188 C 
ENDROOT
BRANCH   1   2
ATOM      2  O   UNL A   1      33.046  22.870  24.580  1.00  0.00    -0.376 OA
BRANCH   2   3
ATOM      3  C   UNL A   1      32.469  22.780  25.880  1.00  0.00     0.202 C 
BRANCH   3   4
ATOM      4  C   UNL A   1      32.153  24.101  26.587  1.00  0.00     0.261 C 
BRANCH   4   5
ATOM      5  O   UNL A   1      32.501  25.248  25.791  1.00  0.00    -0.460 OA
BRANCH   5   6
ATOM      6  C   UNL A   1      31.520  26.160  25.629  1.00  0.00     0.338 C 
ATOM      7  O   UNL A   1      30.324  25.931  25.556  1.00  0.00    -0.246 OA
BRANCH   6   8
ATOM      8  C   UNL A   1      32.052  27.532  25.735  1.00  0.00     0.087 C 
ATOM      9  C   UNL A   1      34.714  31.286  27.822  1.00  0.00    -0.026 A 
ATOM     10  C   UNL A   1      33.438  31.172  27.211  1.00  0.00     0.052 A 
ATOM     11  C   UNL A   1      35.514  30.132  27.838  1.00  0.00     0.045 A 
ATOM     12  C   UNL A   1      32.978  29.972  26.659  1.00  0.00     0.128 A 
ATOM     13  C   UNL A   1      35.085  28.957  27.201  1.00  0.00     0.032 A 
ATOM     14  Cl  UNL A   1      36.998  29.954  28.698  1.00  0.00    -0.084 Cl
ATOM     15  C   UNL A   1      33.815  28.868  26.632  1.00  0.00     0.019 A 
ATOM     16  O   UNL A   1      31.675  29.944  26.252  1.00  0.00    -0.475 OA
ATOM     17  C   UNL A   1      33.316  27.586  26.173  1.00  0.00     0.027 C 
ATOM     18  C   UNL A   1      31.156  28.737  25.613  1.00  0.00     0.316 C 
BRANCH   9  19
ATOM     19  C   UNL A   1      34.991  32.647  28.442  1.00  0.00     0.037 C 
BRANCH  19  20
ATOM     20  C   UNL A   1      34.030  33.351  29.407  1.00  0.00     0.008 C 
BRANCH  20  21
ATOM     21  C   UNL A   1      33.422  34.675  28.899  1.00  0.00    -0.017 C 
ATOM     22  C   UNL A   1      32.993  35.596  30.041  1.00  0.00     0.007 C 
ATOM     23  C   UNL A   1      34.440  35.396  28.008  1.00  0.00     0.007 C 
ENDBRANCH  20  21
ENDBRANCH  19  20
ENDBRANCH   9  19
BRANCH  18  24
ATOM     24  C   UNL A   1      30.763  29.119  24.176  1.00  0.00     0.430 C 
ATOM     25  F   UNL A   1      30.259  30.369  24.099  1.00  0.00    -0.167 F 
ATOM     26  F   UNL A   1      31.846  29.091  23.358  1.00  0.00    -0.167 F 
ATOM     27  F   UNL A   1      29.851  28.267  23.654  1.00  0.00    -0.167 F 
ENDBRANCH  18  24
ENDBRANCH   6   8
ENDBRANCH   5   6
ENDBRANCH   4   5
ENDBRANCH   3   4
ENDBRANCH   2   3
ENDBRANCH   1   2
BRANCH   1  28
ATOM     28  C   UNL A   1      34.600  20.932  25.223  1.00  0.00     0.188 C 
BRANCH  28  29
ATOM     29  O   UNL A   1      35.369  19.899  24.636  1.00  0.00    -0.376 OA
BRANCH  29  30
ATOM     30  C   UNL A   1      36.741  19.869  25.001  1.00  0.00     0.202 C 
BRANCH  30  31
ATOM     31  C   UNL A   1      37.448  21.205  24.751  1.00  0.00     0.261 C 
BRANCH  31  32
ATOM     32  O   UNL A   1      37.978  21.830  25.934  1.00  0.00    -0.460 OA
BRANCH  32  33
ATOM     33  C   UNL A   1      39.247  21.519  26.281  1.00  0.00     0.338 C 
ATOM     34  O   UNL A   1      39.821  20.458  26.116  1.00  0.00    -0.246 OA
BRANCH  33  35
ATOM     35  C   UNL A   1      39.898  22.777  26.707  1.00  0.00     0.060 A 
ATOM     36  C   UNL A   1      40.868  22.764  27.712  1.00  0.00     0.016 A 
ATOM     37  C   UNL A   1      39.493  23.987  26.128  1.00  0.00     0.016 A 
ATOM     38  C   UNL A   1      41.448  23.964  28.127  1.00  0.00     0.010 A 
ATOM     39  C   UNL A   1      40.061  25.189  26.558  1.00  0.00     0.010 A 
ATOM     40  C   UNL A   1      41.056  25.183  27.547  1.00  0.00    -0.014 A 
BRANCH  40  41
ATOM     41  C   UNL A   1      41.820  26.418  27.845  1.00  0.00     0.031 A 
ATOM     42  C   UNL A   1      43.192  26.664  27.297  1.00  0.00     0.074 A 
ATOM     43  C   UNL A   1      41.238  27.332  28.644  1.00  0.00     0.049 A 
ATOM     44  N   UNL A   1      43.950  27.724  27.429  1.00  0.00    -0.248 NA
ATOM     45  C   UNL A   1      43.794  25.585  26.503  1.00  0.00     0.031 C 
ATOM     46  C   UNL A   1      39.912  27.190  29.245  1.00  0.00     0.029 A 
ATOM     47  N   UNL A   1      41.679  28.552  29.083  1.00  0.00    -0.354 N 
ATOM     48  C   UNL A   1      45.109  27.456  26.717  1.00  0.00     0.074 A 
ATOM     49  C   UNL A   1      44.973  26.112  26.190  1.00  0.00     0.031 C 
ATOM     50  C   UNL A   1      39.641  28.285  29.968  1.00  0.00     0.029 A 
ATOM     51  C   UNL A   1      40.780  29.196  29.895  1.00  0.00     0.049 A 
ATOM     52  H   UNL A   1      42.556  28.930  28.842  1.00  0.00     0.167 HD
ATOM     53  C   UNL A   1      46.176  28.267  26.514  1.00  0.00     0.037 A 
ATOM     54  C   UNL A   1      40.858  30.390  30.510  1.00  0.00     0.037 A 
ATOM     55  C   UNL A   1      46.313  29.596  27.062  1.00  0.00     0.049 A 
ATOM     56  C   UNL A   1      42.071  31.250  30.303  1.00  0.00     0.074 A 
ATOM     57  C   UNL A   1      47.350  30.499  26.887  1.00  0.00     0.029 A 
ATOM     58  N   UNL A   1      45.395  30.209  27.903  1.00  0.00    -0.354 N 
ATOM     59  N   UNL A   1      43.136  31.012  29.576  1.00  0.00    -0.248 NA
ATOM     60  C   UNL A   1      42.086  32.549  30.987  1.00  0.00     0.031 C 
ATOM     61  C   UNL A   1      47.083  31.634  27.661  1.00  0.00     0.029 A 
ATOM     62  C   UNL A   1      45.851  31.466  28.273  1.00  0.00     0.049 A 
ATOM     63  H   UNL A   1      44.543  29.809  28.195  1.00  0.00     0.167 HD
ATOM     64  C   UNL A   1      43.935  32.141  29.691  1.00  0.00     0.074 A 
ATOM     65  C   UNL A   1      43.225  33.067  30.550  1.00  0.00     0.031 C 
ATOM     66  C   UNL A   1      45.144  32.385  29.129  1.00  0.00     0.037 A 
BRANCH  53  67
ATOM     67  C   UNL A   1      47.294  27.754  25.652  1.00  0.00     0.064 A 
ATOM     68  C   UNL A   1      47.241  27.851  24.254  1.00  0.00     0.173 A 
ATOM     69  C   UNL A   1      48.471  27.249  26.228  1.00  0.00     0.173 A 
ATOM     70  F   UNL A   1      46.138  28.325  23.652  1.00  0.00    -0.203 F 
ATOM     71  C   UNL A   1      48.317  27.452  23.464  1.00  0.00     0.198 A 
ATOM     72  C   UNL A   1      49.555  26.875  25.437  1.00  0.00     0.198 A 
ATOM     73  F   UNL A   1      48.582  27.146  27.561  1.00  0.00    -0.203 F 
ATOM     74  F   UNL A   1      48.232  27.534  22.129  1.00  0.00    -0.200 F 
ATOM     75  C   UNL A   1      49.476  26.974  24.056  1.00  0.00     0.200 A 
ATOM     76  F   UNL A   1      50.682  26.430  26.011  1.00  0.00    -0.200 F 
ATOM     77  F   UNL A   1      50.517  26.609  23.295  1.00  0.00    -0.200 F 
ENDBRANCH  53  67
BRANCH  54  78
ATOM     78  C   UNL A   1      39.717  30.853  31.336  1.00  0.00     0.064 A 
ATOM     79  C   UNL A   1      38.787  31.767  30.827  1.00  0.00     0.173 A 
ATOM     80  C   UNL A   1      39.504  30.351  32.629  1.00  0.00     0.173 A 
ATOM     81  F   UNL A   1      38.959  32.285  29.601  1.00  0.00    -0.203 F 
ATOM     82  C   UNL A   1      37.687  32.168  31.581  1.00  0.00     0.198 A 
ATOM     83  C   UNL A   1      38.389  30.732  33.372  1.00  0.00     0.198 A 
ATOM     84  F   UNL A   1      40.362  29.466  33.155  1.00  0.00    -0.203 F 
ATOM     85  F   UNL A   1      36.824  33.063  31.080  1.00  0.00    -0.200 F 
ATOM     86  C   UNL A   1      37.483  31.643  32.848  1.00  0.00     0.200 A 
ATOM     87  F   UNL A   1      38.188  30.209  34.588  1.00  0.00    -0.200 F 
ATOM     88  F   UNL A   1      36.415  32.015  33.566  1.00  0.00    -0.200 F 
ENDBRANCH  54  78
BRANCH  66  89
ATOM     89  C   UNL A   1      45.773  33.722  29.401  1.00  0.00     0.064 A 
ATOM     90  C   UNL A   1      46.647  33.921  30.479  1.00  0.00     0.173 A 
ATOM     91  C   UNL A   1      45.523  34.810  28.549  1.00  0.00     0.173 A 
ATOM     92  F   UNL A   1      46.908  32.919  31.331  1.00  0.00    -0.203 F 
ATOM     93  C   UNL A   1      47.227  35.167  30.710  1.00  0.00     0.198 A 
ATOM     94  C   UNL A   1      46.128  36.045  28.766  1.00  0.00     0.198 A 
ATOM     95  F   UNL A   1      44.698  34.672  27.500  1.00  0.00    -0.203 F 
ATOM     96  F   UNL A   1      48.021  35.347  31.775  1.00  0.00    -0.200 F 
ATOM     97  C   UNL A   1      46.973  36.224  29.851  1.00  0.00     0.200 A 
ATOM     98  F   UNL A   1      45.891  37.062  27.927  1.00  0.00    -0.200 F 
ATOM     99  F   UNL A   1      47.537  37.420  30.071  1.00  0.00    -0.200 F 
ENDBRANCH  66  89
ENDBRANCH  40  41
ENDBRANCH  33  35
ENDBRANCH  32  33
ENDBRANCH  31  32
ENDBRANCH  30  31
ENDBRANCH  29  30
ENDBRANCH  28  29
ENDBRANCH   1  28
TORSDOF 21
ENDMDL
MODEL 3
REMARK VINA RESULT:     -10.6      2.970      9.255
REMARK SMILES CC(C)CCc1cc2c(cc1Cl)C=C(C(=O)OCCOCCOCCOC(=O)c1ccc(-c3c4nc(c(-c5c(F)c(F)c(F)c(F)c5F)c5ccc([nH]5)c(-c5c(F)c(F)c(F)c(F)c5F)c5nc(c(-c6c(F)c(F)c(F)c(F)c6F)c6ccc3[nH]6)C=C5)C=C4)cc1)[C@H](C(F)(F)F)O2
REMARK SMILES IDX 21 1 20 2 19 3 18 4 17 5 15 6 16 7 14 8 6 9 7 10 11 11 8 12
REMARK SMILES IDX 10 13 12 14 9 15 97 16 13 17 92 18 5 19 4 20 2 21 1 22 3 23
REMARK SMILES IDX 93 24 94 25 95 26 96 27 22 28 23 29 24 30 25 31 26 32 27 33
REMARK SMILES IDX 28 34 29 35 30 36 91 37 31 38 90 39 32 40 33 41 34 42 84 43
REMARK SMILES IDX 35 44 89 45 83 46 85 47 36 48 88 49 82 50 81 51 37 53 69 54
REMARK SMILES IDX 49 55 68 56 50 57 53 58 67 59 86 60 51 61 52 62 66 64 87 65
REMARK SMILES IDX 54 66 38 67 39 68 47 69 40 70 41 71 45 72 48 73 42 74 43 75
REMARK SMILES IDX 46 76 44 77 70 78 71 79 79 80 72 81 73 82 77 83 80 84 74 85
REMARK SMILES IDX 75 86 78 87 76 88 55 89 56 90 64 91 57 92 58 93 62 94 65 95
REMARK SMILES IDX 59 96 60 97 63 98 61 99
REMARK H PARENT 85 52 53 63
REMARK Flexibility Score: inf
ROOT
ATOM      1  C   UNL A   1      32.354  20.621  24.393  1.00  0.00     0.188 C 
ENDROOT
BRANCH   1   2
ATOM      2  O   UNL A   1      32.119  21.185  23.107  1.00  0.00    -0.376 OA
BRANCH   2   3
ATOM      3  C   UNL A   1      32.146  22.600  22.948  1.00  0.00     0.202 C 
BRANCH   3   4
ATOM      4  C   UNL A   1      31.313  23.421  23.937  1.00  0.00     0.261 C 
BRANCH   4   5
ATOM      5  O   UNL A   1      31.936  24.675  24.272  1.00  0.00    -0.460 OA
BRANCH   5   6
ATOM      6  C   UNL A   1      31.320  25.387  25.238  1.00  0.00     0.338 C 
ATOM      7  O   UNL A   1      30.553  24.951  26.081  1.00  0.00    -0.246 OA
BRANCH   6   8
ATOM      8  C   UNL A   1      31.832  26.770  25.282  1.00  0.00     0.087 C 
ATOM      9  C   UNL A   1      34.367  30.679  27.240  1.00  0.00    -0.026 A 
ATOM     10  C   UNL A   1      33.116  30.510  26.589  1.00  0.00     0.052 A 
ATOM     11  C   UNL A   1      35.178  29.539  27.356  1.00  0.00     0.045 A 
ATOM     12  C   UNL A   1      32.692  29.274  26.092  1.00  0.00     0.128 A 
ATOM     13  C   UNL A   1      34.788  28.322  26.775  1.00  0.00     0.032 A 
ATOM     14  Cl  UNL A   1      36.629  29.433  28.281  1.00  0.00    -0.084 Cl
ATOM     15  C   UNL A   1      33.543  28.182  26.164  1.00  0.00     0.019 A 
ATOM     16  O   UNL A   1      31.406  29.203  25.639  1.00  0.00    -0.475 OA
ATOM     17  C   UNL A   1      33.077  26.868  25.764  1.00  0.00     0.027 C 
ATOM     18  C   UNL A   1      30.926  27.953  25.054  1.00  0.00     0.316 C 
BRANCH   9  19
ATOM     19  C   UNL A   1      34.603  32.077  27.788  1.00  0.00     0.037 C 
BRANCH  19  20
ATOM     20  C   UNL A   1      33.649  32.780  28.761  1.00  0.00     0.008 C 
BRANCH  20  21
ATOM     21  C   UNL A   1      33.508  34.305  28.578  1.00  0.00    -0.017 C 
ATOM     22  C   UNL A   1      33.243  35.030  29.897  1.00  0.00     0.007 C 
ATOM     23  C   UNL A   1      34.781  34.861  27.930  1.00  0.00     0.007 C 
ENDBRANCH  20  21
ENDBRANCH  19  20
ENDBRANCH   9  19
BRANCH  18  24
ATOM     24  C   UNL A   1      30.586  28.244  23.582  1.00  0.00     0.430 C 
ATOM     25  F   UNL A   1      30.830  27.185  22.782  1.00  0.00    -0.167 F 
ATOM     26  F   UNL A   1      29.268  28.535  23.442  1.00  0.00    -0.167 F 
ATOM     27  F   UNL A   1      31.279  29.302  23.100  1.00  0.00    -0.167 F 
ENDBRANCH  18  24
ENDBRANCH   6   8
ENDBRANCH   5   6
ENDBRANCH   4   5
ENDBRANCH   3   4
ENDBRANCH   2   3
ENDBRANCH   1   2
BRANCH   1  28
ATOM     28  C   UNL A   1      33.775  20.187  24.796  1.00  0.00     0.188 C 
BRANCH  28  29
ATOM     29  O   UNL A   1      34.759  21.191  24.627  1.00  0.00    -0.376 OA
BRANCH  29  30
ATOM     30  C   UNL A   1      35.752  21.256  25.640  1.00  0.00     0.202 C 
BRANCH  30  31
ATOM     31  C   UNL A   1      37.121  20.766  25.156  1.00  0.00     0.261 C 
BRANCH  31  32
ATOM     32  O   UNL A   1      38.187  21.719  25.317  1.00  0.00    -0.460 OA
BRANCH  32  33
ATOM     33  C   UNL A   1      39.209  21.371  26.132  1.00  0.00     0.338 C 
ATOM     34  O   UNL A   1      39.663  20.257  26.314  1.00  0.00    -0.246 OA
BRANCH  33  35
ATOM     35  C   UNL A   1      39.830  22.627  26.604  1.00  0.00     0.060 A 
ATOM     36  C   UNL A   1      40.829  22.596  27.579  1.00  0.00     0.016 A 
ATOM     37  C   UNL A   1      39.368  23.851  26.101  1.00  0.00     0.016 A 
ATOM     38  C   UNL A   1      41.382  23.793  28.041  1.00  0.00     0.010 A 
ATOM     39  C   UNL A   1      39.909  25.048  26.578  1.00  0.00     0.010 A 
ATOM     40  C   UNL A   1      40.932  25.026  27.537  1.00  0.00    -0.014 A 
BRANCH  40  41
ATOM     41  C   UNL A   1      41.664  26.269  27.877  1.00  0.00     0.031 A 
ATOM     42  C   UNL A   1      43.063  26.530  27.411  1.00  0.00     0.074 A 
ATOM     43  C   UNL A   1      41.025  27.177  28.638  1.00  0.00     0.049 A 
ATOM     44  N   UNL A   1      43.800  27.599  27.586  1.00  0.00    -0.248 NA
ATOM     45  C   UNL A   1      43.723  25.458  26.656  1.00  0.00     0.031 C 
ATOM     46  C   UNL A   1      39.667  27.021  29.160  1.00  0.00     0.029 A 
ATOM     47  N   UNL A   1      41.426  28.403  29.102  1.00  0.00    -0.354 N 
ATOM     48  C   UNL A   1      45.002  27.343  26.945  1.00  0.00     0.074 A 
ATOM     49  C   UNL A   1      44.912  25.997  26.412  1.00  0.00     0.031 C 
ATOM     50  C   UNL A   1      39.342  28.114  29.864  1.00  0.00     0.029 A 
ATOM     51  C   UNL A   1      40.473  29.037  29.857  1.00  0.00     0.049 A 
ATOM     52  H   UNL A   1      42.311  28.791  28.911  1.00  0.00     0.167 HD
ATOM     53  C   UNL A   1      46.070  28.166  26.803  1.00  0.00     0.037 A 
ATOM     54  C   UNL A   1      40.501  30.233  30.474  1.00  0.00     0.037 A 
ATOM     55  C   UNL A   1      46.160  29.497  27.357  1.00  0.00     0.049 A 
ATOM     56  C   UNL A   1      41.715  31.106  30.338  1.00  0.00     0.074 A 
ATOM     57  C   UNL A   1      47.195  30.411  27.242  1.00  0.00     0.029 A 
ATOM     58  N   UNL A   1      45.187  30.100  28.141  1.00  0.00    -0.354 N 
ATOM     59  N   UNL A   1      42.824  30.880  29.675  1.00  0.00    -0.248 NA
ATOM     60  C   UNL A   1      41.675  32.406  31.020  1.00  0.00     0.031 C 
ATOM     61  C   UNL A   1      46.870  31.544  27.996  1.00  0.00     0.029 A 
ATOM     62  C   UNL A   1      45.606  31.363  28.535  1.00  0.00     0.049 A 
ATOM     63  H   UNL A   1      44.324  29.691  28.383  1.00  0.00     0.167 HD
ATOM     64  C   UNL A   1      43.602  32.017  29.836  1.00  0.00     0.074 A 
ATOM     65  C   UNL A   1      42.832  32.937  30.650  1.00  0.00     0.031 C 
ATOM     66  C   UNL A   1      44.839  32.274  29.346  1.00  0.00     0.037 A 
BRANCH  53  67
ATOM     67  C   UNL A   1      47.243  27.664  26.010  1.00  0.00     0.064 A 
ATOM     68  C   UNL A   1      47.267  27.751  24.610  1.00  0.00     0.173 A 
ATOM     69  C   UNL A   1      48.392  27.182  26.655  1.00  0.00     0.173 A 
ATOM     70  F   UNL A   1      46.194  28.204  23.944  1.00  0.00    -0.203 F 
ATOM     71  C   UNL A   1      48.392  27.364  23.886  1.00  0.00     0.198 A 
ATOM     72  C   UNL A   1      49.525  26.820  25.929  1.00  0.00     0.198 A 
ATOM     73  F   UNL A   1      48.429  27.090  27.993  1.00  0.00    -0.203 F 
ATOM     74  F   UNL A   1      48.382  27.435  22.547  1.00  0.00    -0.200 F 
ATOM     75  C   UNL A   1      49.523  26.908  24.546  1.00  0.00     0.200 A 
ATOM     76  F   UNL A   1      50.624  26.396  26.570  1.00  0.00    -0.200 F 
ATOM     77  F   UNL A   1      50.611  26.554  23.848  1.00  0.00    -0.200 F 
ENDBRANCH  53  67
BRANCH  54  78
ATOM     78  C   UNL A   1      39.308  30.684  31.231  1.00  0.00     0.064 A 
ATOM     79  C   UNL A   1      39.161  30.374  32.588  1.00  0.00     0.173 A 
ATOM     80  C   UNL A   1      38.322  31.479  30.628  1.00  0.00     0.173 A 
ATOM     81  F   UNL A   1      40.073  29.605  33.202  1.00  0.00    -0.203 F 
ATOM     82  C   UNL A   1      38.067  30.836  33.316  1.00  0.00     0.198 A 
ATOM     83  C   UNL A   1      37.242  31.962  31.363  1.00  0.00     0.198 A 
ATOM     84  F   UNL A   1      38.425  31.810  29.333  1.00  0.00    -0.203 F 
ATOM     85  F   UNL A   1      37.937  30.505  34.607  1.00  0.00    -0.200 F 
ATOM     86  C   UNL A   1      37.114  31.638  32.706  1.00  0.00     0.200 A 
ATOM     87  F   UNL A   1      36.333  32.750  30.773  1.00  0.00    -0.200 F 
ATOM     88  F   UNL A   1      36.072  32.098  33.411  1.00  0.00    -0.200 F 
ENDBRANCH  54  78
BRANCH  66  89
ATOM     89  C   UNL A   1      45.436  33.619  29.652  1.00  0.00     0.064 A 
ATOM     90  C   UNL A   1      45.195  34.735  28.839  1.00  0.00     0.173 A 
ATOM     91  C   UNL A   1      46.232  33.798  30.795  1.00  0.00     0.173 A 
ATOM     92  F   UNL A   1      44.454  34.615  27.727  1.00  0.00    -0.203 F 
ATOM     93  C   UNL A   1      45.751  35.976  29.143  1.00  0.00     0.198 A 
ATOM     94  C   UNL A   1      46.761  35.047  31.112  1.00  0.00     0.198 A 
ATOM     95  F   UNL A   1      46.489  32.764  31.610  1.00  0.00    -0.203 F 
ATOM     96  F   UNL A   1      45.547  37.018  28.325  1.00  0.00    -0.200 F 
ATOM     97  C   UNL A   1      46.526  36.133  30.282  1.00  0.00     0.200 A 
ATOM     98  F   UNL A   1      47.499  35.199  32.219  1.00  0.00    -0.200 F 
ATOM     99  F   UNL A   1      47.055  37.328  30.576  1.00  0.00    -0.200 F 
ENDBRANCH  66  89
ENDBRANCH  40  41
ENDBRANCH  33  35
ENDBRANCH  32  33
ENDBRANCH  31  32
ENDBRANCH  30  31
ENDBRANCH  29  30
ENDBRANCH  28  29
ENDBRANCH   1  28
TORSDOF 21
ENDMDL
