MODEL 1
REMARK VINA RESULT:     -12.0      0.000      0.000
REMARK SMILES Cc1ccc(C)c(-n2nc(C)c(/C=C(/C#N)C(=O)OCCOCCOCCOC(=O)c3ccc(-c4c5nc(c(-c6c(F)c(F)c(F)c(F)c6F)c6ccc([nH]6)c(-c6c(F)c(F)c(F)c(F)c6F)c6nc(c(-c7c(F)c(F)c(F)c(F)c7F)c7ccc4[nH]7)C=C6)C=C5)cc3)c2Cl)c1
REMARK SMILES IDX 23 1 22 2 21 3 20 4 19 5 17 6 18 7 14 8 13 9 12 10 8 11 9 12
REMARK SMILES IDX 94 13 10 14 95 15 11 16 7 17 1 18 2 19 3 20 96 21 4 22 5 23
REMARK SMILES IDX 6 24 15 25 16 26 24 27 25 28 26 29 27 30 28 31 29 32 30 33
REMARK SMILES IDX 31 34 32 35 93 36 33 37 92 38 34 39 35 40 36 41 86 42 37 43
REMARK SMILES IDX 91 44 85 45 87 46 38 47 90 48 84 49 83 50 39 52 71 53 51 54
REMARK SMILES IDX 70 55 52 56 55 57 69 58 88 59 53 60 54 61 68 63 89 64 56 65
REMARK SMILES IDX 40 66 41 67 49 68 42 69 43 70 47 71 50 72 44 73 45 74 48 75
REMARK SMILES IDX 46 76 72 77 73 78 81 79 74 80 75 81 79 82 82 83 76 84 77 85
REMARK SMILES IDX 80 86 78 87 57 88 58 89 66 90 59 91 60 92 64 93 67 94 61 95
REMARK SMILES IDX 62 96 65 97 63 98
REMARK H PARENT 87 51 55 62
REMARK Flexibility Score: inf
ROOT
ATOM      1  C   UNL A   1      32.833  32.547  27.651  1.00  0.00     0.188 C 
ENDROOT
BRANCH   1   2
ATOM      2  O   UNL A   1      31.698  32.602  26.783  1.00  0.00    -0.376 OA
BRANCH   2   3
ATOM      3  C   UNL A   1      31.209  31.376  26.236  1.00  0.00     0.202 C 
BRANCH   3   4
ATOM      4  C   UNL A   1      32.233  30.312  25.796  1.00  0.00     0.261 C 
BRANCH   4   5
ATOM      5  O   UNL A   1      31.810  29.527  24.656  1.00  0.00    -0.459 OA
BRANCH   5   6
ATOM      6  C   UNL A   1      31.183  28.352  24.920  1.00  0.00     0.348 C 
ATOM      7  O   UNL A   1      31.181  27.773  26.006  1.00  0.00    -0.245 OA
BRANCH   6   8
ATOM      8  C   UNL A   1      30.517  27.792  23.719  1.00  0.00     0.138 C 
ATOM      9  C   UNL A   1      30.814  26.502  23.418  1.00  0.00     0.040 C 
BRANCH   9  10
ATOM     10  C   UNL A   1      31.485  25.410  24.138  1.00  0.00     0.037 A 
ATOM     11  N   UNL A   1      33.087  23.869  24.526  1.00  0.00    -0.221 N 
ATOM     12  N   UNL A   1      32.064  23.512  25.309  1.00  0.00    -0.171 NA
ATOM     13  C   UNL A   1      32.787  25.019  23.831  1.00  0.00     0.140 A 
ATOM     14  C   UNL A   1      31.213  24.543  25.261  1.00  0.00     0.069 A 
ATOM     15  Cl  UNL A   1      33.945  25.678  22.758  1.00  0.00    -0.061 Cl
ATOM     16  C   UNL A   1      30.268  24.509  26.401  1.00  0.00     0.069 C 
BRANCH  11  17
ATOM     17  C   UNL A   1      34.292  23.151  24.684  1.00  0.00     0.069 A 
ATOM     18  C   UNL A   1      37.693  23.805  26.279  1.00  0.00     0.044 C 
ATOM     19  C   UNL A   1      36.538  23.120  25.612  1.00  0.00    -0.049 A 
ATOM     20  C   UNL A   1      36.587  21.739  25.391  1.00  0.00     0.004 A 
ATOM     21  C   UNL A   1      35.394  23.832  25.230  1.00  0.00     0.032 A 
ATOM     22  C   UNL A   1      35.488  21.064  24.857  1.00  0.00     0.006 A 
ATOM     23  C   UNL A   1      34.310  21.751  24.529  1.00  0.00    -0.025 A 
ATOM     24  C   UNL A   1      33.149  20.943  24.013  1.00  0.00     0.047 C 
ENDBRANCH  11  17
ENDBRANCH   9  10
BRANCH   8  25
ATOM     25  C   UNL A   1      30.051  28.810  22.688  1.00  0.00     0.107 C 
ATOM     26  N   UNL A   1      29.665  29.653  21.835  1.00  0.00    -0.192 NA
ENDBRANCH   8  25
ENDBRANCH   6   8
ENDBRANCH   5   6
ENDBRANCH   4   5
ENDBRANCH   3   4
ENDBRANCH   2   3
ENDBRANCH   1   2
BRANCH   1  27
ATOM     27  C   UNL A   1      33.501  33.881  27.996  1.00  0.00     0.188 C 
BRANCH  27  28
ATOM     28  O   UNL A   1      34.914  33.761  28.058  1.00  0.00    -0.376 OA
BRANCH  28  29
ATOM     29  C   UNL A   1      35.466  33.946  29.354  1.00  0.00     0.202 C 
BRANCH  29  30
ATOM     30  C   UNL A   1      36.034  32.674  29.998  1.00  0.00     0.261 C 
BRANCH  30  31
ATOM     31  O   UNL A   1      35.655  31.341  29.555  1.00  0.00    -0.460 OA
BRANCH  31  32
ATOM     32  C   UNL A   1      36.295  30.631  28.611  1.00  0.00     0.338 C 
ATOM     33  O   UNL A   1      35.924  30.573  27.435  1.00  0.00    -0.246 OA
BRANCH  32  34
ATOM     34  C   UNL A   1      37.503  29.939  29.076  1.00  0.00     0.060 A 
ATOM     35  C   UNL A   1      38.654  30.242  28.383  1.00  0.00     0.016 A 
ATOM     36  C   UNL A   1      37.494  28.891  30.013  1.00  0.00     0.016 A 
ATOM     37  C   UNL A   1      39.708  29.363  28.485  1.00  0.00     0.010 A 
ATOM     38  C   UNL A   1      38.577  27.994  30.082  1.00  0.00     0.010 A 
ATOM     39  C   UNL A   1      39.663  28.182  29.239  1.00  0.00    -0.014 A 
BRANCH  39  40
ATOM     40  C   UNL A   1      40.922  27.400  29.183  1.00  0.00     0.031 A 
ATOM     41  C   UNL A   1      41.877  27.827  30.249  1.00  0.00     0.074 A 
ATOM     42  C   UNL A   1      41.314  26.529  28.221  1.00  0.00     0.049 A 
ATOM     43  N   UNL A   1      43.129  28.118  30.085  1.00  0.00    -0.248 NA
ATOM     44  C   UNL A   1      41.340  28.174  31.583  1.00  0.00     0.031 C 
ATOM     45  C   UNL A   1      40.524  26.089  27.073  1.00  0.00     0.029 A 
ATOM     46  N   UNL A   1      42.498  25.821  28.060  1.00  0.00    -0.354 N 
ATOM     47  C   UNL A   1      43.573  28.522  31.339  1.00  0.00     0.074 A 
ATOM     48  C   UNL A   1      42.418  28.670  32.185  1.00  0.00     0.031 C 
ATOM     49  C   UNL A   1      41.142  25.043  26.484  1.00  0.00     0.029 A 
ATOM     50  C   UNL A   1      42.377  24.738  27.190  1.00  0.00     0.049 A 
ATOM     51  H   UNL A   1      43.338  26.060  28.515  1.00  0.00     0.167 HD
ATOM     52  C   UNL A   1      44.832  28.197  31.717  1.00  0.00     0.037 A 
ATOM     53  C   UNL A   1      43.147  23.616  27.098  1.00  0.00     0.037 A 
ATOM     54  C   UNL A   1      45.778  28.293  30.645  1.00  0.00     0.049 A 
ATOM     55  C   UNL A   1      44.498  23.891  27.640  1.00  0.00     0.074 A 
ATOM     56  C   UNL A   1      46.512  29.278  30.023  1.00  0.00     0.029 A 
ATOM     57  N   UNL A   1      45.824  27.200  29.837  1.00  0.00    -0.354 N 
ATOM     58  N   UNL A   1      45.442  24.493  26.975  1.00  0.00    -0.248 NA
ATOM     59  C   UNL A   1      44.763  23.683  29.061  1.00  0.00     0.031 C 
ATOM     60  C   UNL A   1      47.050  28.704  28.832  1.00  0.00     0.029 A 
ATOM     61  C   UNL A   1      46.639  27.379  28.757  1.00  0.00     0.049 A 
ATOM     62  H   UNL A   1      45.325  26.370  30.011  1.00  0.00     0.167 HD
ATOM     63  C   UNL A   1      46.191  25.110  27.952  1.00  0.00     0.074 A 
ATOM     64  C   UNL A   1      45.847  24.448  29.200  1.00  0.00     0.031 C 
ATOM     65  C   UNL A   1      46.693  26.358  27.741  1.00  0.00     0.037 A 
BRANCH  52  66
ATOM     66  C   UNL A   1      44.981  27.148  32.800  1.00  0.00     0.064 A 
ATOM     67  C   UNL A   1      45.857  27.364  33.871  1.00  0.00     0.173 A 
ATOM     68  C   UNL A   1      44.483  25.826  32.672  1.00  0.00     0.173 A 
ATOM     69  F   UNL A   1      46.466  28.549  34.021  1.00  0.00    -0.203 F 
ATOM     70  C   UNL A   1      46.181  26.336  34.764  1.00  0.00     0.198 A 
ATOM     71  C   UNL A   1      44.747  24.829  33.600  1.00  0.00     0.198 A 
ATOM     72  F   UNL A   1      43.827  25.414  31.579  1.00  0.00    -0.203 F 
ATOM     73  F   UNL A   1      47.092  26.550  35.722  1.00  0.00    -0.200 F 
ATOM     74  C   UNL A   1      45.610  25.079  34.641  1.00  0.00     0.200 A 
ATOM     75  F   UNL A   1      44.220  23.609  33.424  1.00  0.00    -0.200 F 
ATOM     76  F   UNL A   1      45.937  24.091  35.484  1.00  0.00    -0.200 F 
ENDBRANCH  52  66
BRANCH  53  77
ATOM     77  C   UNL A   1      42.761  22.221  26.705  1.00  0.00     0.064 A 
ATOM     78  C   UNL A   1      43.457  21.526  25.690  1.00  0.00     0.173 A 
ATOM     79  C   UNL A   1      41.892  21.433  27.484  1.00  0.00     0.173 A 
ATOM     80  F   UNL A   1      44.333  22.162  24.900  1.00  0.00    -0.203 F 
ATOM     81  C   UNL A   1      43.329  20.142  25.512  1.00  0.00     0.198 A 
ATOM     82  C   UNL A   1      41.750  20.057  27.291  1.00  0.00     0.198 A 
ATOM     83  F   UNL A   1      41.218  21.948  28.519  1.00  0.00    -0.203 F 
ATOM     84  F   UNL A   1      44.073  19.513  24.590  1.00  0.00    -0.200 F 
ATOM     85  C   UNL A   1      42.486  19.406  26.324  1.00  0.00     0.200 A 
ATOM     86  F   UNL A   1      40.942  19.359  28.102  1.00  0.00    -0.200 F 
ATOM     87  F   UNL A   1      42.411  18.074  26.203  1.00  0.00    -0.200 F 
ENDBRANCH  53  77
BRANCH  65  88
ATOM     88  C   UNL A   1      47.202  26.686  26.383  1.00  0.00     0.064 A 
ATOM     89  C   UNL A   1      46.497  27.405  25.407  1.00  0.00     0.173 A 
ATOM     90  C   UNL A   1      48.501  26.255  26.067  1.00  0.00     0.173 A 
ATOM     91  F   UNL A   1      45.280  27.912  25.663  1.00  0.00    -0.203 F 
ATOM     92  C   UNL A   1      47.061  27.641  24.155  1.00  0.00     0.198 A 
ATOM     93  C   UNL A   1      49.074  26.527  24.832  1.00  0.00     0.198 A 
ATOM     94  F   UNL A   1      49.226  25.577  26.973  1.00  0.00    -0.203 F 
ATOM     95  F   UNL A   1      46.362  28.304  23.220  1.00  0.00    -0.200 F 
ATOM     96  C   UNL A   1      48.349  27.209  23.871  1.00  0.00     0.200 A 
ATOM     97  F   UNL A   1      50.330  26.135  24.579  1.00  0.00    -0.200 F 
ATOM     98  F   UNL A   1      48.897  27.462  22.675  1.00  0.00    -0.200 F 
ENDBRANCH  65  88
ENDBRANCH  39  40
ENDBRANCH  32  34
ENDBRANCH  31  32
ENDBRANCH  30  31
ENDBRANCH  29  30
ENDBRANCH  28  29
ENDBRANCH  27  28
ENDBRANCH   1  27
TORSDOF 20
ENDMDL
MODEL 2
REMARK VINA RESULT:     -11.8      1.571      4.121
REMARK SMILES Cc1ccc(C)c(-n2nc(C)c(/C=C(/C#N)C(=O)OCCOCCOCCOC(=O)c3ccc(-c4c5nc(c(-c6c(F)c(F)c(F)c(F)c6F)c6ccc([nH]6)c(-c6c(F)c(F)c(F)c(F)c6F)c6nc(c(-c7c(F)c(F)c(F)c(F)c7F)c7ccc4[nH]7)C=C6)C=C5)cc3)c2Cl)c1
REMARK SMILES IDX 23 1 22 2 21 3 20 4 19 5 17 6 18 7 14 8 13 9 12 10 8 11 9 12
REMARK SMILES IDX 94 13 10 14 95 15 11 16 7 17 1 18 2 19 3 20 96 21 4 22 5 23
REMARK SMILES IDX 6 24 15 25 16 26 24 27 25 28 26 29 27 30 28 31 29 32 30 33
REMARK SMILES IDX 31 34 32 35 93 36 33 37 92 38 34 39 35 40 36 41 86 42 37 43
REMARK SMILES IDX 91 44 85 45 87 46 38 47 90 48 84 49 83 50 39 52 71 53 51 54
REMARK SMILES IDX 70 55 52 56 55 57 69 58 88 59 53 60 54 61 68 63 89 64 56 65
REMARK SMILES IDX 40 66 41 67 49 68 42 69 43 70 47 71 50 72 44 73 45 74 48 75
REMARK SMILES IDX 46 76 72 77 73 78 81 79 74 80 75 81 79 82 82 83 76 84 77 85
REMARK SMILES IDX 80 86 78 87 57 88 58 89 66 90 59 91 60 92 64 93 67 94 61 95
REMARK SMILES IDX 62 96 65 97 63 98
REMARK H PARENT 87 51 55 62
REMARK Flexibility Score: inf
ROOT
ATOM      1  C   UNL A   1      31.403  27.074  26.668  1.00  0.00     0.188 C 
ENDROOT
BRANCH   1   2
ATOM      2  O   UNL A   1      31.113  25.727  27.048  1.00  0.00    -0.376 OA
BRANCH   2   3
ATOM      3  C   UNL A   1      31.430  24.683  26.124  1.00  0.00     0.202 C 
BRANCH   3   4
ATOM      4  C   UNL A   1      32.912  24.311  25.925  1.00  0.00     0.261 C 
BRANCH   4   5
ATOM      5  O   UNL A   1      33.115  23.108  25.146  1.00  0.00    -0.459 OA
BRANCH   5   6
ATOM      6  C   UNL A   1      33.347  23.269  23.818  1.00  0.00     0.348 C 
ATOM      7  O   UNL A   1      32.737  22.702  22.913  1.00  0.00    -0.245 OA
BRANCH   6   8
ATOM      8  C   UNL A   1      34.480  24.191  23.557  1.00  0.00     0.138 C 
ATOM      9  C   UNL A   1      34.212  25.255  22.758  1.00  0.00     0.040 C 
BRANCH   9  10
ATOM     10  C   UNL A   1      32.979  25.868  22.246  1.00  0.00     0.037 A 
ATOM     11  N   UNL A   1      31.080  27.083  22.347  1.00  0.00    -0.221 N 
ATOM     12  N   UNL A   1      30.983  26.379  21.214  1.00  0.00    -0.171 NA
ATOM     13  C   UNL A   1      32.276  26.824  22.977  1.00  0.00     0.140 A 
ATOM     14  C   UNL A   1      32.195  25.844  21.032  1.00  0.00     0.069 A 
ATOM     15  Cl  UNL A   1      32.633  27.610  24.454  1.00  0.00    -0.061 Cl
ATOM     16  C   UNL A   1      32.388  25.422  19.626  1.00  0.00     0.069 C 
BRANCH  11  17
ATOM     17  C   UNL A   1      30.079  28.050  22.584  1.00  0.00     0.069 A 
ATOM     18  C   UNL A   1      29.140  31.447  21.128  1.00  0.00     0.044 C 
ATOM     19  C   UNL A   1      29.104  30.175  21.923  1.00  0.00    -0.049 A 
ATOM     20  C   UNL A   1      27.969  29.867  22.683  1.00  0.00     0.004 A 
ATOM     21  C   UNL A   1      30.174  29.273  21.897  1.00  0.00     0.032 A 
ATOM     22  C   UNL A   1      27.874  28.648  23.356  1.00  0.00     0.006 A 
ATOM     23  C   UNL A   1      28.909  27.704  23.288  1.00  0.00    -0.025 A 
ATOM     24  C   UNL A   1      28.705  26.389  23.993  1.00  0.00     0.047 C 
ENDBRANCH  11  17
ENDBRANCH   9  10
BRANCH   8  25
ATOM     25  C   UNL A   1      35.869  23.592  23.724  1.00  0.00     0.107 C 
ATOM     26  N   UNL A   1      37.020  23.096  23.862  1.00  0.00    -0.192 NA
ENDBRANCH   8  25
ENDBRANCH   6   8
ENDBRANCH   5   6
ENDBRANCH   4   5
ENDBRANCH   3   4
ENDBRANCH   2   3
ENDBRANCH   1   2
BRANCH   1  27
ATOM     27  C   UNL A   1      31.916  28.005  27.770  1.00  0.00     0.188 C 
BRANCH  27  28
ATOM     28  O   UNL A   1      31.715  29.370  27.441  1.00  0.00    -0.376 OA
BRANCH  28  29
ATOM     29  C   UNL A   1      32.877  30.043  26.975  1.00  0.00     0.202 C 
BRANCH  29  30
ATOM     30  C   UNL A   1      34.201  29.337  27.297  1.00  0.00     0.261 C 
BRANCH  30  31
ATOM     31  O   UNL A   1      35.061  29.757  28.393  1.00  0.00    -0.460 OA
BRANCH  31  32
ATOM     32  C   UNL A   1      36.170  30.503  28.261  1.00  0.00     0.338 C 
ATOM     33  O   UNL A   1      36.171  31.640  27.782  1.00  0.00    -0.246 OA
BRANCH  32  34
ATOM     34  C   UNL A   1      37.399  29.871  28.757  1.00  0.00     0.060 A 
ATOM     35  C   UNL A   1      38.525  30.108  28.000  1.00  0.00     0.016 A 
ATOM     36  C   UNL A   1      37.429  28.927  29.799  1.00  0.00     0.016 A 
ATOM     37  C   UNL A   1      39.590  29.251  28.160  1.00  0.00     0.010 A 
ATOM     38  C   UNL A   1      38.522  28.049  29.927  1.00  0.00     0.010 A 
ATOM     39  C   UNL A   1      39.580  28.155  29.035  1.00  0.00    -0.014 A 
BRANCH  39  40
ATOM     40  C   UNL A   1      40.844  27.380  29.022  1.00  0.00     0.031 A 
ATOM     41  C   UNL A   1      41.771  27.828  30.105  1.00  0.00     0.074 A 
ATOM     42  C   UNL A   1      41.266  26.498  28.081  1.00  0.00     0.049 A 
ATOM     43  N   UNL A   1      43.024  28.125  29.968  1.00  0.00    -0.248 NA
ATOM     44  C   UNL A   1      41.198  28.191  31.420  1.00  0.00     0.031 C 
ATOM     45  C   UNL A   1      40.508  26.038  26.921  1.00  0.00     0.029 A 
ATOM     46  N   UNL A   1      42.457  25.795  27.961  1.00  0.00    -0.354 N 
ATOM     47  C   UNL A   1      43.434  28.548  31.227  1.00  0.00     0.074 A 
ATOM     48  C   UNL A   1      42.257  28.701  32.042  1.00  0.00     0.031 C 
ATOM     49  C   UNL A   1      41.146  24.988  26.362  1.00  0.00     0.029 A 
ATOM     50  C   UNL A   1      42.365  24.700  27.103  1.00  0.00     0.049 A 
ATOM     51  H   UNL A   1      43.284  26.046  28.433  1.00  0.00     0.167 HD
ATOM     52  C   UNL A   1      44.686  28.236  31.640  1.00  0.00     0.037 A 
ATOM     53  C   UNL A   1      43.143  23.582  27.046  1.00  0.00     0.037 A 
ATOM     54  C   UNL A   1      45.657  28.323  30.591  1.00  0.00     0.049 A 
ATOM     55  C   UNL A   1      44.478  23.872  27.617  1.00  0.00     0.074 A 
ATOM     56  C   UNL A   1      46.401  29.304  29.974  1.00  0.00     0.029 A 
ATOM     57  N   UNL A   1      45.730  27.219  29.800  1.00  0.00    -0.354 N 
ATOM     58  N   UNL A   1      45.435  24.471  26.967  1.00  0.00    -0.248 NA
ATOM     59  C   UNL A   1      44.709  23.685  29.048  1.00  0.00     0.031 C 
ATOM     60  C   UNL A   1      46.972  28.717  28.805  1.00  0.00     0.029 A 
ATOM     61  C   UNL A   1      46.571  27.389  28.738  1.00  0.00     0.049 A 
ATOM     62  H   UNL A   1      45.231  26.389  29.974  1.00  0.00     0.167 HD
ATOM     63  C   UNL A   1      46.156  25.106  27.955  1.00  0.00     0.074 A 
ATOM     64  C   UNL A   1      45.785  24.459  29.202  1.00  0.00     0.031 C 
ATOM     65  C   UNL A   1      46.656  26.354  27.739  1.00  0.00     0.037 A 
BRANCH  52  66
ATOM     66  C   UNL A   1      44.813  27.204  32.742  1.00  0.00     0.064 A 
ATOM     67  C   UNL A   1      44.294  25.915  32.560  1.00  0.00     0.173 A 
ATOM     68  C   UNL A   1      45.198  27.528  34.067  1.00  0.00     0.173 A 
ATOM     69  F   UNL A   1      43.804  25.543  31.369  1.00  0.00    -0.203 F 
ATOM     70  C   UNL A   1      44.199  25.013  33.625  1.00  0.00     0.198 A 
ATOM     71  C   UNL A   1      45.172  26.608  35.106  1.00  0.00     0.198 A 
ATOM     72  F   UNL A   1      45.493  28.781  34.438  1.00  0.00    -0.203 F 
ATOM     73  F   UNL A   1      43.613  23.823  33.439  1.00  0.00    -0.200 F 
ATOM     74  C   UNL A   1      44.658  25.351  34.889  1.00  0.00     0.200 A 
ATOM     75  F   UNL A   1      45.575  26.982  36.328  1.00  0.00    -0.200 F 
ATOM     76  F   UNL A   1      44.548  24.494  35.911  1.00  0.00    -0.200 F 
ENDBRANCH  52  66
BRANCH  53  77
ATOM     77  C   UNL A   1      42.775  22.179  26.663  1.00  0.00     0.064 A 
ATOM     78  C   UNL A   1      43.498  21.475  25.674  1.00  0.00     0.173 A 
ATOM     79  C   UNL A   1      41.893  21.395  27.432  1.00  0.00     0.173 A 
ATOM     80  F   UNL A   1      44.389  22.106  24.896  1.00  0.00    -0.203 F 
ATOM     81  C   UNL A   1      43.383  20.088  25.512  1.00  0.00     0.198 A 
ATOM     82  C   UNL A   1      41.764  20.016  27.255  1.00  0.00     0.198 A 
ATOM     83  F   UNL A   1      41.191  21.920  28.444  1.00  0.00    -0.203 F 
ATOM     84  F   UNL A   1      44.152  19.451  24.616  1.00  0.00    -0.200 F 
ATOM     85  C   UNL A   1      42.526  19.357  26.314  1.00  0.00     0.200 A 
ATOM     86  F   UNL A   1      40.941  19.324  28.056  1.00  0.00    -0.200 F 
ATOM     87  F   UNL A   1      42.463  18.023  26.209  1.00  0.00    -0.200 F 
ENDBRANCH  53  77
BRANCH  65  88
ATOM     88  C   UNL A   1      47.196  26.666  26.389  1.00  0.00     0.064 A 
ATOM     89  C   UNL A   1      46.523  27.391  25.396  1.00  0.00     0.173 A 
ATOM     90  C   UNL A   1      48.495  26.213  26.102  1.00  0.00     0.173 A 
ATOM     91  F   UNL A   1      45.309  27.917  25.624  1.00  0.00    -0.203 F 
ATOM     92  C   UNL A   1      47.115  27.611  24.153  1.00  0.00     0.198 A 
ATOM     93  C   UNL A   1      49.096  26.468  24.877  1.00  0.00     0.198 A 
ATOM     94  F   UNL A   1      49.191  25.529  27.025  1.00  0.00    -0.203 F 
ATOM     95  F   UNL A   1      46.445  28.278  23.202  1.00  0.00    -0.200 F 
ATOM     96  C   UNL A   1      48.401  27.156  23.898  1.00  0.00     0.200 A 
ATOM     97  F   UNL A   1      50.351  26.056  24.651  1.00  0.00    -0.200 F 
ATOM     98  F   UNL A   1      48.977  27.394  22.711  1.00  0.00    -0.200 F 
ENDBRANCH  65  88
ENDBRANCH  39  40
ENDBRANCH  32  34
ENDBRANCH  31  32
ENDBRANCH  30  31
ENDBRANCH  29  30
ENDBRANCH  28  29
ENDBRANCH  27  28
ENDBRANCH   1  27
TORSDOF 20
ENDMDL
MODEL 3
REMARK VINA RESULT:     -11.5      3.533      5.050
REMARK SMILES Cc1ccc(C)c(-n2nc(C)c(/C=C(/C#N)C(=O)OCCOCCOCCOC(=O)c3ccc(-c4c5nc(c(-c6c(F)c(F)c(F)c(F)c6F)c6ccc([nH]6)c(-c6c(F)c(F)c(F)c(F)c6F)c6nc(c(-c7c(F)c(F)c(F)c(F)c7F)c7ccc4[nH]7)C=C6)C=C5)cc3)c2Cl)c1
REMARK SMILES IDX 23 1 22 2 21 3 20 4 19 5 17 6 18 7 14 8 13 9 12 10 8 11 9 12
REMARK SMILES IDX 94 13 10 14 95 15 11 16 7 17 1 18 2 19 3 20 96 21 4 22 5 23
REMARK SMILES IDX 6 24 15 25 16 26 24 27 25 28 26 29 27 30 28 31 29 32 30 33
REMARK SMILES IDX 31 34 32 35 93 36 33 37 92 38 34 39 35 40 36 41 86 42 37 43
REMARK SMILES IDX 91 44 85 45 87 46 38 47 90 48 84 49 83 50 39 52 71 53 51 54
REMARK SMILES IDX 70 55 52 56 55 57 69 58 88 59 53 60 54 61 68 63 89 64 56 65
REMARK SMILES IDX 40 66 41 67 49 68 42 69 43 70 47 71 50 72 44 73 45 74 48 75
REMARK SMILES IDX 46 76 72 77 73 78 81 79 74 80 75 81 79 82 82 83 76 84 77 85
REMARK SMILES IDX 80 86 78 87 57 88 58 89 66 90 59 91 60 92 64 93 67 94 61 95
REMARK SMILES IDX 62 96 65 97 63 98
REMARK H PARENT 87 51 55 62
REMARK Flexibility Score: inf
ROOT
ATOM      1  C   UNL A   1      33.737  31.138  27.528  1.00  0.00     0.188 C 
ENDROOT
BRANCH   1   2
ATOM      2  O   UNL A   1      33.873  29.725  27.360  1.00  0.00    -0.376 OA
BRANCH   2   3
ATOM      3  C   UNL A   1      33.694  29.183  26.050  1.00  0.00     0.202 C 
BRANCH   3   4
ATOM      4  C   UNL A   1      32.294  28.672  25.656  1.00  0.00     0.261 C 
BRANCH   4   5
ATOM      5  O   UNL A   1      31.666  29.439  24.601  1.00  0.00    -0.459 OA
BRANCH   5   6
ATOM      6  C   UNL A   1      31.667  28.889  23.360  1.00  0.00     0.348 C 
ATOM      7  O   UNL A   1      32.579  28.982  22.539  1.00  0.00    -0.245 OA
BRANCH   6   8
ATOM      8  C   UNL A   1      30.398  28.182  23.061  1.00  0.00     0.138 C 
ATOM      9  C   UNL A   1      30.517  26.950  22.502  1.00  0.00     0.040 C 
BRANCH   9  10
ATOM     10  C   UNL A   1      31.634  26.014  22.312  1.00  0.00     0.037 A 
ATOM     11  N   UNL A   1      33.263  24.587  22.946  1.00  0.00    -0.221 N 
ATOM     12  N   UNL A   1      33.541  24.890  21.674  1.00  0.00    -0.171 NA
ATOM     13  C   UNL A   1      32.110  25.220  23.353  1.00  0.00     0.140 A 
ATOM     14  C   UNL A   1      32.461  25.540  21.227  1.00  0.00     0.069 A 
ATOM     15  Cl  UNL A   1      31.546  24.987  24.951  1.00  0.00    -0.061 Cl
ATOM     16  C   UNL A   1      32.414  25.544  19.747  1.00  0.00     0.069 C 
BRANCH  11  17
ATOM     17  C   UNL A   1      34.051  23.582  23.549  1.00  0.00     0.069 A 
ATOM     18  C   UNL A   1      37.135  23.482  25.788  1.00  0.00     0.044 C 
ATOM     19  C   UNL A   1      35.927  23.065  25.003  1.00  0.00    -0.049 A 
ATOM     20  C   UNL A   1      35.469  21.745  25.090  1.00  0.00     0.004 A 
ATOM     21  C   UNL A   1      35.228  23.979  24.206  1.00  0.00     0.032 A 
ATOM     22  C   UNL A   1      34.294  21.356  24.443  1.00  0.00     0.006 A 
ATOM     23  C   UNL A   1      33.546  22.275  23.693  1.00  0.00    -0.025 A 
ATOM     24  C   UNL A   1      32.260  21.793  23.075  1.00  0.00     0.047 C 
ENDBRANCH  11  17
ENDBRANCH   9  10
BRANCH   8  25
ATOM     25  C   UNL A   1      29.173  29.068  22.891  1.00  0.00     0.107 C 
ATOM     26  N   UNL A   1      28.158  29.802  22.749  1.00  0.00    -0.192 NA
ENDBRANCH   8  25
ENDBRANCH   6   8
ENDBRANCH   5   6
ENDBRANCH   4   5
ENDBRANCH   3   4
ENDBRANCH   2   3
ENDBRANCH   1   2
BRANCH   1  27
ATOM     27  C   UNL A   1      34.976  31.896  28.013  1.00  0.00     0.188 C 
BRANCH  27  28
ATOM     28  O   UNL A   1      34.805  33.301  27.914  1.00  0.00    -0.376 OA
BRANCH  28  29
ATOM     29  C   UNL A   1      33.489  33.758  28.195  1.00  0.00     0.202 C 
BRANCH  29  30
ATOM     30  C   UNL A   1      33.406  34.866  29.253  1.00  0.00     0.261 C 
BRANCH  30  31
ATOM     31  O   UNL A   1      33.052  34.596  30.639  1.00  0.00    -0.460 OA
BRANCH  31  32
ATOM     32  C   UNL A   1      33.804  34.918  31.703  1.00  0.00     0.338 C 
ATOM     33  O   UNL A   1      33.578  35.893  32.426  1.00  0.00    -0.246 OA
BRANCH  32  34
ATOM     34  C   UNL A   1      34.918  34.000  31.969  1.00  0.00     0.060 A 
ATOM     35  C   UNL A   1      36.173  34.563  31.885  1.00  0.00     0.016 A 
ATOM     36  C   UNL A   1      34.772  32.607  32.098  1.00  0.00     0.016 A 
ATOM     37  C   UNL A   1      37.241  33.712  31.722  1.00  0.00     0.010 A 
ATOM     38  C   UNL A   1      35.879  31.759  31.906  1.00  0.00     0.010 A 
ATOM     39  C   UNL A   1      37.117  32.319  31.623  1.00  0.00    -0.014 A 
BRANCH  39  40
ATOM     40  C   UNL A   1      38.414  31.623  31.443  1.00  0.00     0.031 A 
ATOM     41  C   UNL A   1      39.288  31.776  32.645  1.00  0.00     0.074 A 
ATOM     42  C   UNL A   1      38.901  31.058  30.310  1.00  0.00     0.049 A 
ATOM     43  N   UNL A   1      40.530  32.142  32.649  1.00  0.00    -0.248 NA
ATOM     44  C   UNL A   1      38.661  31.731  33.985  1.00  0.00     0.031 C 
ATOM     45  C   UNL A   1      38.198  30.920  29.037  1.00  0.00     0.029 A 
ATOM     46  N   UNL A   1      40.125  30.459  30.044  1.00  0.00    -0.354 N 
ATOM     47  C   UNL A   1      40.884  32.205  33.991  1.00  0.00     0.074 A 
ATOM     48  C   UNL A   1      39.679  32.081  34.768  1.00  0.00     0.031 C 
ATOM     49  C   UNL A   1      38.898  30.094  28.231  1.00  0.00     0.029 A 
ATOM     50  C   UNL A   1      40.106  29.649  28.909  1.00  0.00     0.049 A 
ATOM     51  H   UNL A   1      40.926  30.594  30.601  1.00  0.00     0.167 HD
ATOM     52  C   UNL A   1      42.136  31.832  34.350  1.00  0.00     0.037 A 
ATOM     53  C   UNL A   1      40.934  28.620  28.571  1.00  0.00     0.037 A 
ATOM     54  C   UNL A   1      43.133  32.245  33.408  1.00  0.00     0.049 A 
ATOM     55  C   UNL A   1      42.237  28.782  29.254  1.00  0.00     0.074 A 
ATOM     56  C   UNL A   1      43.851  33.385  33.123  1.00  0.00     0.029 A 
ATOM     57  N   UNL A   1      43.278  31.414  32.341  1.00  0.00    -0.354 N 
ATOM     58  N   UNL A   1      43.186  29.573  28.839  1.00  0.00    -0.248 NA
ATOM     59  C   UNL A   1      42.435  28.205  30.582  1.00  0.00     0.031 C 
ATOM     60  C   UNL A   1      44.480  33.173  31.859  1.00  0.00     0.029 A 
ATOM     61  C   UNL A   1      44.140  31.906  31.405  1.00  0.00     0.049 A 
ATOM     62  H   UNL A   1      42.811  30.552  32.253  1.00  0.00     0.167 HD
ATOM     63  C   UNL A   1      43.849  29.926  29.993  1.00  0.00     0.074 A 
ATOM     64  C   UNL A   1      43.471  28.940  30.992  1.00  0.00     0.031 C 
ATOM     65  C   UNL A   1      44.300  31.200  30.159  1.00  0.00     0.037 A 
BRANCH  52  66
ATOM     66  C   UNL A   1      42.277  30.534  35.119  1.00  0.00     0.064 A 
ATOM     67  C   UNL A   1      43.168  30.449  36.197  1.00  0.00     0.173 A 
ATOM     68  C   UNL A   1      41.754  29.299  34.659  1.00  0.00     0.173 A 
ATOM     69  F   UNL A   1      43.800  31.545  36.641  1.00  0.00    -0.203 F 
ATOM     70  C   UNL A   1      43.483  29.219  36.785  1.00  0.00     0.198 A 
ATOM     71  C   UNL A   1      42.009  28.090  35.289  1.00  0.00     0.198 A 
ATOM     72  F   UNL A   1      41.078  29.197  33.506  1.00  0.00    -0.203 F 
ATOM     73  F   UNL A   1      44.408  29.162  37.751  1.00  0.00    -0.200 F 
ATOM     74  C   UNL A   1      42.887  28.046  36.347  1.00  0.00     0.200 A 
ATOM     75  F   UNL A   1      41.458  26.966  34.810  1.00  0.00    -0.200 F 
ATOM     76  F   UNL A   1      43.205  26.868  36.897  1.00  0.00    -0.200 F 
ENDBRANCH  52  66
BRANCH  53  77
ATOM     77  C   UNL A   1      40.640  27.372  27.793  1.00  0.00     0.064 A 
ATOM     78  C   UNL A   1      41.350  27.058  26.613  1.00  0.00     0.173 A 
ATOM     79  C   UNL A   1      39.857  26.325  28.318  1.00  0.00     0.173 A 
ATOM     80  F   UNL A   1      42.150  27.964  26.033  1.00  0.00    -0.203 F 
ATOM     81  C   UNL A   1      41.319  25.779  26.042  1.00  0.00     0.198 A 
ATOM     82  C   UNL A   1      39.811  25.056  27.736  1.00  0.00     0.198 A 
ATOM     83  F   UNL A   1      39.181  26.463  29.465  1.00  0.00    -0.203 F 
ATOM     84  F   UNL A   1      42.076  25.505  24.969  1.00  0.00    -0.200 F 
ATOM     85  C   UNL A   1      40.560  24.775  26.613  1.00  0.00     0.200 A 
ATOM     86  F   UNL A   1      39.084  24.091  28.317  1.00  0.00    -0.200 F 
ATOM     87  F   UNL A   1      40.581  23.532  26.111  1.00  0.00    -0.200 F 
ENDBRANCH  53  77
BRANCH  65  88
ATOM     88  C   UNL A   1      44.865  31.901  28.974  1.00  0.00     0.064 A 
ATOM     89  C   UNL A   1      46.161  31.722  28.472  1.00  0.00     0.173 A 
ATOM     90  C   UNL A   1      44.018  32.796  28.299  1.00  0.00     0.173 A 
ATOM     91  F   UNL A   1      47.001  30.830  29.021  1.00  0.00    -0.203 F 
ATOM     92  C   UNL A   1      46.599  32.446  27.365  1.00  0.00     0.198 A 
ATOM     93  C   UNL A   1      44.446  33.485  27.173  1.00  0.00     0.198 A 
ATOM     94  F   UNL A   1      42.761  32.991  28.729  1.00  0.00    -0.203 F 
ATOM     95  F   UNL A   1      47.853  32.288  26.914  1.00  0.00    -0.200 F 
ATOM     96  C   UNL A   1      45.740  33.321  26.713  1.00  0.00     0.200 A 
ATOM     97  F   UNL A   1      43.599  34.301  26.530  1.00  0.00    -0.200 F 
ATOM     98  F   UNL A   1      46.157  33.994  25.631  1.00  0.00    -0.200 F 
ENDBRANCH  65  88
ENDBRANCH  39  40
ENDBRANCH  32  34
ENDBRANCH  31  32
ENDBRANCH  30  31
ENDBRANCH  29  30
ENDBRANCH  28  29
ENDBRANCH  27  28
ENDBRANCH   1  27
TORSDOF 20
ENDMDL
