MODEL 1
REMARK VINA RESULT:     -11.2      0.000      0.000
REMARK SMILES C[NH2+][C@@]1(C(=O)OCCOCCOCCOC(=O)c2ccc(-c3c4nc(c(-c5c(F)c(F)c(F)c(F)c5F)c5ccc([nH]5)c(-c5c(F)c(F)c(F)c(F)c5F)c5nc(c(-c6c(F)c(F)c(F)c(F)c6F)c6ccc3[nH]6)C=C5)C=C4)cc2)CCC[C@@H]([N@@H+](C)C2CC[NH+](C)CC2)C1
REMARK SMILES IDX 10 1 9 2 8 3 7 4 6 5 4 6 5 7 3 8 81 9 94 10 82 11 84 12
REMARK SMILES IDX 83 13 2 14 1 15 85 18 86 19 87 21 88 22 93 23 89 24 92 25
REMARK SMILES IDX 90 26 91 27 11 29 12 30 13 31 14 32 15 33 16 34 17 35 18 36
REMARK SMILES IDX 19 37 80 38 20 39 79 40 21 41 22 42 23 43 73 44 24 45 78 46
REMARK SMILES IDX 72 47 74 48 25 49 77 50 71 51 70 52 26 54 58 55 38 56 57 57
REMARK SMILES IDX 39 58 42 59 56 60 75 61 40 62 41 63 55 65 76 66 43 67 27 68
REMARK SMILES IDX 28 69 36 70 29 71 30 72 34 73 37 74 31 75 32 76 35 77 33 78
REMARK SMILES IDX 59 79 60 80 68 81 61 82 62 83 66 84 69 85 63 86 64 87 67 88
REMARK SMILES IDX 65 89 44 90 45 91 53 92 46 93 47 94 51 95 54 96 48 97 49 98
REMARK SMILES IDX 52 99 50 100
REMARK H PARENT 2 16 2 17 85 20 90 28 74 53 42 64
REMARK Flexibility Score: inf
ROOT
ATOM      1  C   UNL A   1      39.805  21.819  26.464  1.00  0.00     0.188 C 
ENDROOT
BRANCH   1   2
ATOM      2  O   UNL A   1      38.512  21.649  25.899  1.00  0.00    -0.376 OA
BRANCH   2   3
ATOM      3  C   UNL A   1      37.818  22.833  25.509  1.00  0.00     0.202 C 
BRANCH   3   4
ATOM      4  C   UNL A   1      36.321  22.921  25.846  1.00  0.00     0.261 C 
BRANCH   4   5
ATOM      5  O   UNL A   1      35.438  22.443  24.811  1.00  0.00    -0.459 OA
BRANCH   5   6
ATOM      6  C   UNL A   1      34.785  21.283  25.104  1.00  0.00     0.368 C 
ATOM      7  O   UNL A   1      35.281  20.166  24.963  1.00  0.00    -0.245 OA
BRANCH   6   8
ATOM      8  C   UNL A   1      33.324  21.488  25.625  1.00  0.00     0.199 C 
ATOM      9  C   UNL A   1      32.487  20.527  24.761  1.00  0.00     0.081 C 
ATOM     10  C   UNL A   1      32.738  22.916  25.527  1.00  0.00     0.146 C 
ATOM     11  C   UNL A   1      32.505  20.937  23.293  1.00  0.00     0.013 C 
ATOM     12  C   UNL A   1      32.187  23.387  24.164  1.00  0.00     0.190 C 
ATOM     13  C   UNL A   1      32.040  22.362  23.027  1.00  0.00     0.065 C 
BRANCH   8  14
ATOM     14  N   UNL A   1      33.400  21.180  27.089  1.00  0.00    -0.334 N 
ATOM     15  C   UNL A   1      33.175  22.255  28.031  1.00  0.00     0.331 C 
ATOM     16  H   UNL A   1      32.704  20.459  27.283  1.00  0.00     0.347 HD
ATOM     17  H   UNL A   1      34.373  20.914  27.240  1.00  0.00     0.347 HD
ENDBRANCH   8  14
BRANCH  12  18
ATOM     18  N   UNL A   1      31.084  24.385  24.275  1.00  0.00    -0.332 N 
ATOM     19  C   UNL A   1      30.914  24.818  25.673  1.00  0.00     0.333 C 
ATOM     20  H   UNL A   1      30.346  23.793  23.895  1.00  0.00     0.348 HD
BRANCH  18  21
ATOM     21  C   UNL A   1      30.900  25.549  23.352  1.00  0.00     0.195 C 
ATOM     22  C   UNL A   1      31.760  25.603  22.075  1.00  0.00     0.126 C 
ATOM     23  C   UNL A   1      30.747  26.975  23.921  1.00  0.00     0.126 C 
ATOM     24  C   UNL A   1      33.008  26.472  22.178  1.00  0.00     0.268 C 
ATOM     25  C   UNL A   1      32.041  27.784  23.974  1.00  0.00     0.268 C 
ATOM     26  N   UNL A   1      32.742  27.822  22.686  1.00  0.00    -0.337 N 
ATOM     27  C   UNL A   1      34.000  28.566  22.834  1.00  0.00     0.332 C 
ATOM     28  H   UNL A   1      32.142  28.292  22.008  1.00  0.00     0.347 HD
ENDBRANCH  18  21
ENDBRANCH  12  18
ENDBRANCH   6   8
ENDBRANCH   5   6
ENDBRANCH   4   5
ENDBRANCH   3   4
ENDBRANCH   2   3
ENDBRANCH   1   2
BRANCH   1  29
ATOM     29  C   UNL A   1      40.656  20.561  26.644  1.00  0.00     0.188 C 
BRANCH  29  30
ATOM     30  O   UNL A   1      41.764  20.443  25.757  1.00  0.00    -0.376 OA
BRANCH  30  31
ATOM     31  C   UNL A   1      42.961  21.114  26.171  1.00  0.00     0.202 C 
BRANCH  31  32
ATOM     32  C   UNL A   1      43.683  21.924  25.076  1.00  0.00     0.261 C 
BRANCH  32  33
ATOM     33  O   UNL A   1      43.089  23.217  24.844  1.00  0.00    -0.460 OA
BRANCH  33  34
ATOM     34  C   UNL A   1      43.880  24.293  25.085  1.00  0.00     0.338 C 
ATOM     35  O   UNL A   1      44.884  24.603  24.481  1.00  0.00    -0.246 OA
BRANCH  34  36
ATOM     36  C   UNL A   1      43.175  25.183  26.050  1.00  0.00     0.060 A 
ATOM     37  C   UNL A   1      43.611  26.512  26.155  1.00  0.00     0.016 A 
ATOM     38  C   UNL A   1      42.063  24.755  26.782  1.00  0.00     0.016 A 
ATOM     39  C   UNL A   1      42.979  27.393  27.038  1.00  0.00     0.010 A 
ATOM     40  C   UNL A   1      41.431  25.636  27.665  1.00  0.00     0.010 A 
ATOM     41  C   UNL A   1      41.912  26.946  27.831  1.00  0.00    -0.014 A 
BRANCH  41  42
ATOM     42  C   UNL A   1      41.457  27.759  28.986  1.00  0.00     0.031 A 
ATOM     43  C   UNL A   1      42.219  27.637  30.279  1.00  0.00     0.074 A 
ATOM     44  C   UNL A   1      40.410  28.600  28.908  1.00  0.00     0.049 A 
ATOM     45  N   UNL A   1      41.999  28.209  31.437  1.00  0.00    -0.248 NA
ATOM     46  C   UNL A   1      43.389  26.744  30.261  1.00  0.00     0.031 C 
ATOM     47  C   UNL A   1      39.603  28.846  27.716  1.00  0.00     0.029 A 
ATOM     48  N   UNL A   1      39.844  29.402  29.871  1.00  0.00    -0.354 N 
ATOM     49  C   UNL A   1      43.001  27.745  32.279  1.00  0.00     0.074 A 
ATOM     50  C   UNL A   1      43.806  26.818  31.514  1.00  0.00     0.031 C 
ATOM     51  C   UNL A   1      38.636  29.731  28.022  1.00  0.00     0.029 A 
ATOM     52  C   UNL A   1      38.740  30.093  29.436  1.00  0.00     0.049 A 
ATOM     53  H   UNL A   1      40.197  29.474  30.787  1.00  0.00     0.167 HD
ATOM     54  C   UNL A   1      43.241  28.071  33.570  1.00  0.00     0.037 A 
ATOM     55  C   UNL A   1      37.900  30.905  30.109  1.00  0.00     0.037 A 
ATOM     56  C   UNL A   1      42.447  28.984  34.343  1.00  0.00     0.049 A 
ATOM     57  C   UNL A   1      38.140  31.189  31.573  1.00  0.00     0.074 A 
ATOM     58  C   UNL A   1      42.622  29.382  35.656  1.00  0.00     0.029 A 
ATOM     59  N   UNL A   1      41.317  29.638  33.875  1.00  0.00    -0.354 N 
ATOM     60  N   UNL A   1      39.107  30.772  32.353  1.00  0.00    -0.248 NA
ATOM     61  C   UNL A   1      37.165  32.061  32.248  1.00  0.00     0.031 C 
ATOM     62  C   UNL A   1      41.572  30.239  35.999  1.00  0.00     0.029 A 
ATOM     63  C   UNL A   1      40.771  30.417  34.883  1.00  0.00     0.049 A 
ATOM     64  H   UNL A   1      40.957  29.559  32.962  1.00  0.00     0.167 HD
ATOM     65  C   UNL A   1      38.876  31.353  33.595  1.00  0.00     0.074 A 
ATOM     66  C   UNL A   1      37.683  32.161  33.465  1.00  0.00     0.031 C 
ATOM     67  C   UNL A   1      39.591  31.229  34.741  1.00  0.00     0.037 A 
BRANCH  54  68
ATOM     68  C   UNL A   1      44.409  27.408  34.237  1.00  0.00     0.064 A 
ATOM     69  C   UNL A   1      44.281  26.166  34.876  1.00  0.00     0.173 A 
ATOM     70  C   UNL A   1      45.674  28.013  34.219  1.00  0.00     0.173 A 
ATOM     71  F   UNL A   1      43.088  25.557  34.938  1.00  0.00    -0.203 F 
ATOM     72  C   UNL A   1      45.375  25.566  35.495  1.00  0.00     0.198 A 
ATOM     73  C   UNL A   1      46.770  27.397  34.813  1.00  0.00     0.198 A 
ATOM     74  F   UNL A   1      45.847  29.202  33.620  1.00  0.00    -0.203 F 
ATOM     75  F   UNL A   1      45.221  24.402  36.142  1.00  0.00    -0.200 F 
ATOM     76  C   UNL A   1      46.619  26.178  35.457  1.00  0.00     0.200 A 
ATOM     77  F   UNL A   1      47.973  27.985  34.768  1.00  0.00    -0.200 F 
ATOM     78  F   UNL A   1      47.671  25.596  36.049  1.00  0.00    -0.200 F 
ENDBRANCH  54  68
BRANCH  55  79
ATOM     79  C   UNL A   1      36.732  31.509  29.416  1.00  0.00     0.064 A 
ATOM     80  C   UNL A   1      35.640  30.724  29.019  1.00  0.00     0.173 A 
ATOM     81  C   UNL A   1      36.706  32.874  29.093  1.00  0.00     0.173 A 
ATOM     82  F   UNL A   1      35.635  29.407  29.273  1.00  0.00    -0.203 F 
ATOM     83  C   UNL A   1      34.578  31.276  28.306  1.00  0.00     0.198 A 
ATOM     84  C   UNL A   1      35.630  33.430  28.405  1.00  0.00     0.198 A 
ATOM     85  F   UNL A   1      37.731  33.665  29.439  1.00  0.00    -0.203 F 
ATOM     86  F   UNL A   1      33.573  30.493  27.889  1.00  0.00    -0.200 F 
ATOM     87  C   UNL A   1      34.571  32.630  28.004  1.00  0.00     0.200 A 
ATOM     88  F   UNL A   1      35.626  34.739  28.117  1.00  0.00    -0.200 F 
ATOM     89  F   UNL A   1      33.552  33.160  27.313  1.00  0.00    -0.200 F 
ENDBRANCH  55  79
BRANCH  67  90
ATOM     90  C   UNL A   1      39.136  32.012  35.940  1.00  0.00     0.064 A 
ATOM     91  C   UNL A   1      39.544  33.337  36.154  1.00  0.00     0.173 A 
ATOM     92  C   UNL A   1      38.233  31.447  36.855  1.00  0.00     0.173 A 
ATOM     93  F   UNL A   1      40.415  33.919  35.317  1.00  0.00    -0.203 F 
ATOM     94  C   UNL A   1      39.082  34.059  37.252  1.00  0.00     0.198 A 
ATOM     95  C   UNL A   1      37.751  32.183  37.935  1.00  0.00     0.198 A 
ATOM     96  F   UNL A   1      37.803  30.187  36.691  1.00  0.00    -0.203 F 
ATOM     97  F   UNL A   1      39.517  35.310  37.460  1.00  0.00    -0.200 F 
ATOM     98  C   UNL A   1      38.180  33.485  38.137  1.00  0.00     0.200 A 
ATOM     99  F   UNL A   1      36.868  31.631  38.779  1.00  0.00    -0.200 F 
ATOM    100  F   UNL A   1      37.730  34.186  39.185  1.00  0.00    -0.200 F 
ENDBRANCH  67  90
ENDBRANCH  41  42
ENDBRANCH  34  36
ENDBRANCH  33  34
ENDBRANCH  32  33
ENDBRANCH  31  32
ENDBRANCH  30  31
ENDBRANCH  29  30
ENDBRANCH   1  29
TORSDOF 20
ENDMDL
MODEL 2
REMARK VINA RESULT:     -11.2      0.991      2.292
REMARK SMILES C[NH2+][C@@]1(C(=O)OCCOCCOCCOC(=O)c2ccc(-c3c4nc(c(-c5c(F)c(F)c(F)c(F)c5F)c5ccc([nH]5)c(-c5c(F)c(F)c(F)c(F)c5F)c5nc(c(-c6c(F)c(F)c(F)c(F)c6F)c6ccc3[nH]6)C=C5)C=C4)cc2)CCC[C@@H]([N@@H+](C)C2CC[NH+](C)CC2)C1
REMARK SMILES IDX 10 1 9 2 8 3 7 4 6 5 4 6 5 7 3 8 81 9 94 10 82 11 84 12
REMARK SMILES IDX 83 13 2 14 1 15 85 18 86 19 87 21 88 22 93 23 89 24 92 25
REMARK SMILES IDX 90 26 91 27 11 29 12 30 13 31 14 32 15 33 16 34 17 35 18 36
REMARK SMILES IDX 19 37 80 38 20 39 79 40 21 41 22 42 23 43 73 44 24 45 78 46
REMARK SMILES IDX 72 47 74 48 25 49 77 50 71 51 70 52 26 54 58 55 38 56 57 57
REMARK SMILES IDX 39 58 42 59 56 60 75 61 40 62 41 63 55 65 76 66 43 67 27 68
REMARK SMILES IDX 28 69 36 70 29 71 30 72 34 73 37 74 31 75 32 76 35 77 33 78
REMARK SMILES IDX 59 79 60 80 68 81 61 82 62 83 66 84 69 85 63 86 64 87 67 88
REMARK SMILES IDX 65 89 44 90 45 91 53 92 46 93 47 94 51 95 54 96 48 97 49 98
REMARK SMILES IDX 52 99 50 100
REMARK H PARENT 2 16 2 17 85 20 90 28 74 53 42 64
REMARK Flexibility Score: inf
ROOT
ATOM      1  C   UNL A   1      41.337  20.636  26.872  1.00  0.00     0.188 C 
ENDROOT
BRANCH   1   2
ATOM      2  O   UNL A   1      40.573  21.596  26.154  1.00  0.00    -0.376 OA
BRANCH   2   3
ATOM      3  C   UNL A   1      39.260  21.207  25.755  1.00  0.00     0.202 C 
BRANCH   3   4
ATOM      4  C   UNL A   1      38.139  22.250  25.894  1.00  0.00     0.261 C 
BRANCH   4   5
ATOM      5  O   UNL A   1      36.867  21.849  25.347  1.00  0.00    -0.459 OA
BRANCH   5   6
ATOM      6  C   UNL A   1      35.829  22.683  25.637  1.00  0.00     0.368 C 
ATOM      7  O   UNL A   1      35.968  23.802  26.128  1.00  0.00    -0.245 OA
BRANCH   6   8
ATOM      8  C   UNL A   1      34.420  22.086  25.306  1.00  0.00     0.199 C 
ATOM      9  C   UNL A   1      34.330  22.183  23.772  1.00  0.00     0.081 C 
ATOM     10  C   UNL A   1      33.196  22.784  25.943  1.00  0.00     0.146 C 
ATOM     11  C   UNL A   1      34.327  23.635  23.305  1.00  0.00     0.013 C 
ATOM     12  C   UNL A   1      32.667  24.075  25.283  1.00  0.00     0.190 C 
ATOM     13  C   UNL A   1      33.228  24.495  23.914  1.00  0.00     0.065 C 
BRANCH   8  14
ATOM     14  N   UNL A   1      34.450  20.706  25.890  1.00  0.00    -0.334 N 
ATOM     15  C   UNL A   1      33.283  19.865  25.728  1.00  0.00     0.331 C 
ATOM     16  H   UNL A   1      35.237  20.215  25.464  1.00  0.00     0.347 HD
ATOM     17  H   UNL A   1      34.511  20.860  26.896  1.00  0.00     0.347 HD
ENDBRANCH   8  14
BRANCH  12  18
ATOM     18  N   UNL A   1      31.202  24.288  25.468  1.00  0.00    -0.332 N 
ATOM     19  C   UNL A   1      30.644  23.282  26.391  1.00  0.00     0.333 C 
ATOM     20  H   UNL A   1      30.940  24.192  24.488  1.00  0.00     0.348 HD
BRANCH  18  21
ATOM     21  C   UNL A   1      30.565  25.620  25.717  1.00  0.00     0.195 C 
ATOM     22  C   UNL A   1      29.529  26.129  24.697  1.00  0.00     0.126 C 
ATOM     23  C   UNL A   1      31.417  26.808  26.211  1.00  0.00     0.126 C 
ATOM     24  C   UNL A   1      30.077  27.101  23.658  1.00  0.00     0.268 C 
ATOM     25  C   UNL A   1      31.910  27.742  25.109  1.00  0.00     0.268 C 
ATOM     26  N   UNL A   1      30.829  28.217  24.238  1.00  0.00    -0.337 N 
ATOM     27  C   UNL A   1      31.391  29.059  23.174  1.00  0.00     0.332 C 
ATOM     28  H   UNL A   1      30.180  28.764  24.803  1.00  0.00     0.347 HD
ENDBRANCH  18  21
ENDBRANCH  12  18
ENDBRANCH   6   8
ENDBRANCH   5   6
ENDBRANCH   4   5
ENDBRANCH   3   4
ENDBRANCH   2   3
ENDBRANCH   1   2
BRANCH   1  29
ATOM     29  C   UNL A   1      41.782  19.388  26.108  1.00  0.00     0.188 C 
BRANCH  29  30
ATOM     30  O   UNL A   1      42.675  19.624  25.023  1.00  0.00    -0.376 OA
BRANCH  30  31
ATOM     31  C   UNL A   1      43.994  20.049  25.390  1.00  0.00     0.202 C 
BRANCH  31  32
ATOM     32  C   UNL A   1      44.413  21.439  24.872  1.00  0.00     0.261 C 
BRANCH  32  33
ATOM     33  O   UNL A   1      44.093  22.505  25.790  1.00  0.00    -0.460 OA
BRANCH  33  34
ATOM     34  C   UNL A   1      44.257  23.769  25.323  1.00  0.00     0.338 C 
ATOM     35  O   UNL A   1      44.725  24.088  24.251  1.00  0.00    -0.246 OA
BRANCH  34  36
ATOM     36  C   UNL A   1      43.531  24.699  26.231  1.00  0.00     0.060 A 
ATOM     37  C   UNL A   1      43.947  26.038  26.267  1.00  0.00     0.016 A 
ATOM     38  C   UNL A   1      42.417  24.296  26.975  1.00  0.00     0.016 A 
ATOM     39  C   UNL A   1      43.293  26.957  27.094  1.00  0.00     0.010 A 
ATOM     40  C   UNL A   1      41.764  25.215  27.803  1.00  0.00     0.010 A 
ATOM     41  C   UNL A   1      42.225  26.539  27.900  1.00  0.00    -0.014 A 
BRANCH  41  42
ATOM     42  C   UNL A   1      41.747  27.408  29.005  1.00  0.00     0.031 A 
ATOM     43  C   UNL A   1      42.485  27.352  30.317  1.00  0.00     0.074 A 
ATOM     44  C   UNL A   1      40.700  28.240  28.866  1.00  0.00     0.049 A 
ATOM     45  N   UNL A   1      42.243  27.980  31.440  1.00  0.00    -0.248 NA
ATOM     46  C   UNL A   1      43.657  26.462  30.365  1.00  0.00     0.031 C 
ATOM     47  C   UNL A   1      39.915  28.424  27.649  1.00  0.00     0.029 A 
ATOM     48  N   UNL A   1      40.114  29.088  29.777  1.00  0.00    -0.354 N 
ATOM     49  C   UNL A   1      43.229  27.561  32.323  1.00  0.00     0.074 A 
ATOM     50  C   UNL A   1      44.051  26.600  31.620  1.00  0.00     0.031 C 
ATOM     51  C   UNL A   1      38.941  29.321  27.892  1.00  0.00     0.029 A 
ATOM     52  C   UNL A   1      39.018  29.753  29.288  1.00  0.00     0.049 A 
ATOM     53  H   UNL A   1      40.451  29.206  30.695  1.00  0.00     0.167 HD
ATOM     54  C   UNL A   1      43.445  27.952  33.601  1.00  0.00     0.037 A 
ATOM     55  C   UNL A   1      38.164  30.595  29.904  1.00  0.00     0.037 A 
ATOM     56  C   UNL A   1      42.634  28.901  34.312  1.00  0.00     0.049 A 
ATOM     57  C   UNL A   1      38.376  30.952  31.356  1.00  0.00     0.074 A 
ATOM     58  C   UNL A   1      42.785  29.364  35.607  1.00  0.00     0.029 A 
ATOM     59  N   UNL A   1      41.513  29.527  33.791  1.00  0.00    -0.354 N 
ATOM     60  N   UNL A   1      39.329  30.578  32.174  1.00  0.00    -0.248 NA
ATOM     61  C   UNL A   1      37.387  31.854  31.969  1.00  0.00     0.031 C 
ATOM     62  C   UNL A   1      41.727  30.234  35.887  1.00  0.00     0.029 A 
ATOM     63  C   UNL A   1      40.947  30.353  34.749  1.00  0.00     0.049 A 
ATOM     64  H   UNL A   1      41.170  29.402  32.877  1.00  0.00     0.167 HD
ATOM     65  C   UNL A   1      39.074  31.219  33.381  1.00  0.00     0.074 A 
ATOM     66  C   UNL A   1      37.882  32.016  33.189  1.00  0.00     0.031 C 
ATOM     67  C   UNL A   1      39.768  31.154  34.545  1.00  0.00     0.037 A 
BRANCH  54  68
ATOM     68  C   UNL A   1      44.601  27.326  34.321  1.00  0.00     0.064 A 
ATOM     69  C   UNL A   1      45.873  27.917  34.321  1.00  0.00     0.173 A 
ATOM     70  C   UNL A   1      44.430  26.131  35.036  1.00  0.00     0.173 A 
ATOM     71  F   UNL A   1      46.091  29.049  33.635  1.00  0.00    -0.203 F 
ATOM     72  C   UNL A   1      46.938  27.321  34.991  1.00  0.00     0.198 A 
ATOM     73  C   UNL A   1      45.489  25.554  35.728  1.00  0.00     0.198 A 
ATOM     74  F   UNL A   1      43.232  25.527  35.066  1.00  0.00    -0.203 F 
ATOM     75  F   UNL A   1      48.156  27.878  34.938  1.00  0.00    -0.200 F 
ATOM     76  C   UNL A   1      46.743  26.145  35.699  1.00  0.00     0.200 A 
ATOM     77  F   UNL A   1      45.298  24.422  36.419  1.00  0.00    -0.200 F 
ATOM     78  F   UNL A   1      47.768  25.574  36.348  1.00  0.00    -0.200 F 
ENDBRANCH  54  68
BRANCH  55  79
ATOM     79  C   UNL A   1      37.008  31.161  29.160  1.00  0.00     0.064 A 
ATOM     80  C   UNL A   1      36.980  32.511  28.782  1.00  0.00     0.173 A 
ATOM     81  C   UNL A   1      35.886  30.375  28.857  1.00  0.00     0.173 A 
ATOM     82  F   UNL A   1      38.014  33.311  29.082  1.00  0.00    -0.203 F 
ATOM     83  C   UNL A   1      35.866  33.058  28.149  1.00  0.00     0.198 A 
ATOM     84  C   UNL A   1      34.784  30.917  28.198  1.00  0.00     0.198 A 
ATOM     85  F   UNL A   1      35.858  29.082  29.208  1.00  0.00    -0.203 F 
ATOM     86  F   UNL A   1      35.842  34.364  27.849  1.00  0.00    -0.200 F 
ATOM     87  C   UNL A   1      34.771  32.260  27.853  1.00  0.00     0.200 A 
ATOM     88  F   UNL A   1      33.730  30.142  27.912  1.00  0.00    -0.200 F 
ATOM     89  F   UNL A   1      33.697  32.788  27.249  1.00  0.00    -0.200 F 
ENDBRANCH  55  79
BRANCH  67  90
ATOM     90  C   UNL A   1      39.289  31.995  35.694  1.00  0.00     0.064 A 
ATOM     91  C   UNL A   1      38.381  31.500  36.643  1.00  0.00     0.173 A 
ATOM     92  C   UNL A   1      39.789  33.293  35.879  1.00  0.00     0.173 A 
ATOM     93  F   UNL A   1      37.864  30.270  36.505  1.00  0.00    -0.203 F 
ATOM     94  C   UNL A   1      37.977  32.282  37.722  1.00  0.00     0.198 A 
ATOM     95  C   UNL A   1      39.404  34.061  36.976  1.00  0.00     0.198 A 
ATOM     96  F   UNL A   1      40.666  33.811  35.007  1.00  0.00    -0.203 F 
ATOM     97  F   UNL A   1      37.078  31.804  38.595  1.00  0.00    -0.200 F 
ATOM     98  C   UNL A   1      38.494  33.559  37.893  1.00  0.00     0.200 A 
ATOM     99  F   UNL A   1      39.917  35.288  37.146  1.00  0.00    -0.200 F 
ATOM    100  F   UNL A   1      38.111  34.304  38.937  1.00  0.00    -0.200 F 
ENDBRANCH  67  90
ENDBRANCH  41  42
ENDBRANCH  34  36
ENDBRANCH  33  34
ENDBRANCH  32  33
ENDBRANCH  31  32
ENDBRANCH  30  31
ENDBRANCH  29  30
ENDBRANCH   1  29
TORSDOF 20
ENDMDL
MODEL 3
REMARK VINA RESULT:     -11.0      3.854      9.160
REMARK SMILES C[NH2+][C@@]1(C(=O)OCCOCCOCCOC(=O)c2ccc(-c3c4nc(c(-c5c(F)c(F)c(F)c(F)c5F)c5ccc([nH]5)c(-c5c(F)c(F)c(F)c(F)c5F)c5nc(c(-c6c(F)c(F)c(F)c(F)c6F)c6ccc3[nH]6)C=C5)C=C4)cc2)CCC[C@@H]([N@@H+](C)C2CC[NH+](C)CC2)C1
REMARK SMILES IDX 10 1 9 2 8 3 7 4 6 5 4 6 5 7 3 8 81 9 94 10 82 11 84 12
REMARK SMILES IDX 83 13 2 14 1 15 85 18 86 19 87 21 88 22 93 23 89 24 92 25
REMARK SMILES IDX 90 26 91 27 11 29 12 30 13 31 14 32 15 33 16 34 17 35 18 36
REMARK SMILES IDX 19 37 80 38 20 39 79 40 21 41 22 42 23 43 73 44 24 45 78 46
REMARK SMILES IDX 72 47 74 48 25 49 77 50 71 51 70 52 26 54 58 55 38 56 57 57
REMARK SMILES IDX 39 58 42 59 56 60 75 61 40 62 41 63 55 65 76 66 43 67 27 68
REMARK SMILES IDX 28 69 36 70 29 71 30 72 34 73 37 74 31 75 32 76 35 77 33 78
REMARK SMILES IDX 59 79 60 80 68 81 61 82 62 83 66 84 69 85 63 86 64 87 67 88
REMARK SMILES IDX 65 89 44 90 45 91 53 92 46 93 47 94 51 95 54 96 48 97 49 98
REMARK SMILES IDX 52 99 50 100
REMARK H PARENT 2 16 2 17 85 20 90 28 74 53 42 64
REMARK Flexibility Score: inf
ROOT
ATOM      1  C   UNL A   1      34.839  31.420  27.778  1.00  0.00     0.188 C 
ENDROOT
BRANCH   1   2
ATOM      2  O   UNL A   1      33.834  30.617  27.173  1.00  0.00    -0.376 OA
BRANCH   2   3
ATOM      3  C   UNL A   1      34.212  29.300  26.779  1.00  0.00     0.202 C 
BRANCH   3   4
ATOM      4  C   UNL A   1      33.203  28.492  25.947  1.00  0.00     0.261 C 
BRANCH   4   5
ATOM      5  O   UNL A   1      32.991  28.983  24.607  1.00  0.00    -0.459 OA
BRANCH   5   6
ATOM      6  C   UNL A   1      31.703  29.318  24.316  1.00  0.00     0.368 C 
ATOM      7  O   UNL A   1      31.028  30.093  24.992  1.00  0.00    -0.245 OA
BRANCH   6   8
ATOM      8  C   UNL A   1      31.133  28.610  23.041  1.00  0.00     0.199 C 
ATOM      9  C   UNL A   1      29.813  27.985  23.526  1.00  0.00     0.081 C 
ATOM     10  C   UNL A   1      32.016  27.519  22.391  1.00  0.00     0.146 C 
ATOM     11  C   UNL A   1      30.060  26.903  24.572  1.00  0.00     0.013 C 
ATOM     12  C   UNL A   1      32.017  26.110  23.022  1.00  0.00     0.190 C 
ATOM     13  C   UNL A   1      30.992  25.786  24.121  1.00  0.00     0.065 C 
BRANCH   8  14
ATOM     14  N   UNL A   1      31.023  29.703  22.022  1.00  0.00    -0.334 N 
ATOM     15  C   UNL A   1      29.710  30.229  21.717  1.00  0.00     0.331 C 
ATOM     16  H   UNL A   1      31.590  30.484  22.353  1.00  0.00     0.347 HD
ATOM     17  H   UNL A   1      31.327  29.266  21.151  1.00  0.00     0.347 HD
ENDBRANCH   8  14
BRANCH  12  18
ATOM     18  N   UNL A   1      32.276  25.014  22.043  1.00  0.00    -0.332 N 
ATOM     19  C   UNL A   1      32.535  25.567  20.701  1.00  0.00     0.333 C 
ATOM     20  H   UNL A   1      31.388  24.530  22.166  1.00  0.00     0.348 HD
BRANCH  18  21
ATOM     21  C   UNL A   1      33.178  23.847  22.299  1.00  0.00     0.195 C 
ATOM     22  C   UNL A   1      32.530  22.471  22.540  1.00  0.00     0.126 C 
ATOM     23  C   UNL A   1      34.403  24.000  23.225  1.00  0.00     0.126 C 
ATOM     24  C   UNL A   1      32.375  22.083  24.006  1.00  0.00     0.268 C 
ATOM     25  C   UNL A   1      34.168  23.573  24.671  1.00  0.00     0.268 C 
ATOM     26  N   UNL A   1      33.610  22.221  24.783  1.00  0.00    -0.337 N 
ATOM     27  C   UNL A   1      33.359  21.909  26.197  1.00  0.00     0.332 C 
ATOM     28  H   UNL A   1      34.289  21.562  24.401  1.00  0.00     0.347 HD
ENDBRANCH  18  21
ENDBRANCH  12  18
ENDBRANCH   6   8
ENDBRANCH   5   6
ENDBRANCH   4   5
ENDBRANCH   3   4
ENDBRANCH   2   3
ENDBRANCH   1   2
BRANCH   1  29
ATOM     29  C   UNL A   1      34.427  32.251  28.994  1.00  0.00     0.188 C 
BRANCH  29  30
ATOM     30  O   UNL A   1      34.764  33.633  28.930  1.00  0.00    -0.376 OA
BRANCH  30  31
ATOM     31  C   UNL A   1      33.788  34.480  28.308  1.00  0.00     0.202 C 
BRANCH  31  32
ATOM     32  C   UNL A   1      33.175  35.565  29.213  1.00  0.00     0.261 C 
BRANCH  32  33
ATOM     33  O   UNL A   1      32.504  35.025  30.371  1.00  0.00    -0.460 OA
BRANCH  33  34
ATOM     34  C   UNL A   1      32.793  35.611  31.560  1.00  0.00     0.338 C 
ATOM     35  O   UNL A   1      32.109  36.415  32.155  1.00  0.00    -0.246 OA
BRANCH  34  36
ATOM     36  C   UNL A   1      33.969  34.913  32.150  1.00  0.00     0.060 A 
ATOM     37  C   UNL A   1      35.218  35.544  32.065  1.00  0.00     0.016 A 
ATOM     38  C   UNL A   1      33.847  33.703  32.841  1.00  0.00     0.016 A 
ATOM     39  C   UNL A   1      36.353  34.938  32.612  1.00  0.00     0.010 A 
ATOM     40  C   UNL A   1      34.982  33.095  33.387  1.00  0.00     0.010 A 
ATOM     41  C   UNL A   1      36.248  33.688  33.237  1.00  0.00    -0.014 A 
BRANCH  41  42
ATOM     42  C   UNL A   1      37.472  32.897  33.522  1.00  0.00     0.031 A 
ATOM     43  C   UNL A   1      38.202  33.166  34.811  1.00  0.00     0.074 A 
ATOM     44  C   UNL A   1      37.930  31.951  32.683  1.00  0.00     0.049 A 
ATOM     45  N   UNL A   1      39.308  32.639  35.272  1.00  0.00    -0.248 NA
ATOM     46  C   UNL A   1      37.598  34.172  35.701  1.00  0.00     0.031 C 
ATOM     47  C   UNL A   1      37.310  31.559  31.421  1.00  0.00     0.029 A 
ATOM     48  N   UNL A   1      39.044  31.149  32.775  1.00  0.00    -0.354 N 
ATOM     49  C   UNL A   1      39.530  33.248  36.500  1.00  0.00     0.074 A 
ATOM     50  C   UNL A   1      38.467  34.209  36.697  1.00  0.00     0.031 C 
ATOM     51  C   UNL A   1      38.059  30.598  30.849  1.00  0.00     0.029 A 
ATOM     52  C   UNL A   1      39.224  30.327  31.691  1.00  0.00     0.049 A 
ATOM     53  H   UNL A   1      39.655  31.164  33.547  1.00  0.00     0.167 HD
ATOM     54  C   UNL A   1      40.521  33.019  37.393  1.00  0.00     0.037 A 
ATOM     55  C   UNL A   1      40.225  29.470  31.405  1.00  0.00     0.037 A 
ATOM     56  C   UNL A   1      41.585  32.073  37.207  1.00  0.00     0.049 A 
ATOM     57  C   UNL A   1      41.365  29.293  32.379  1.00  0.00     0.074 A 
ATOM     58  C   UNL A   1      42.627  31.767  38.064  1.00  0.00     0.029 A 
ATOM     59  N   UNL A   1      41.750  31.283  36.080  1.00  0.00    -0.354 N 
ATOM     60  N   UNL A   1      41.551  29.848  33.552  1.00  0.00    -0.248 NA
ATOM     61  C   UNL A   1      42.437  28.364  31.985  1.00  0.00     0.031 C 
ATOM     62  C   UNL A   1      43.450  30.827  37.436  1.00  0.00     0.029 A 
ATOM     63  C   UNL A   1      42.892  30.508  36.209  1.00  0.00     0.049 A 
ATOM     64  H   UNL A   1      41.146  31.274  35.303  1.00  0.00     0.167 HD
ATOM     65  C   UNL A   1      42.736  29.314  34.046  1.00  0.00     0.074 A 
ATOM     66  C   UNL A   1      43.224  28.384  33.053  1.00  0.00     0.031 C 
ATOM     67  C   UNL A   1      43.363  29.574  35.221  1.00  0.00     0.037 A 
BRANCH  54  68
ATOM     68  C   UNL A   1      40.508  33.833  38.652  1.00  0.00     0.064 A 
ATOM     69  C   UNL A   1      39.765  33.438  39.774  1.00  0.00     0.173 A 
ATOM     70  C   UNL A   1      41.264  35.011  38.743  1.00  0.00     0.173 A 
ATOM     71  F   UNL A   1      39.011  32.330  39.728  1.00  0.00    -0.203 F 
ATOM     72  C   UNL A   1      39.760  34.208  40.934  1.00  0.00     0.198 A 
ATOM     73  C   UNL A   1      41.279  35.762  39.913  1.00  0.00     0.198 A 
ATOM     74  F   UNL A   1      41.991  35.432  37.696  1.00  0.00    -0.203 F 
ATOM     75  F   UNL A   1      39.005  33.837  41.978  1.00  0.00    -0.200 F 
ATOM     76  C   UNL A   1      40.522  35.364  41.005  1.00  0.00     0.200 A 
ATOM     77  F   UNL A   1      42.022  36.875  39.984  1.00  0.00    -0.200 F 
ATOM     78  F   UNL A   1      40.520  36.102  42.125  1.00  0.00    -0.200 F 
ENDBRANCH  54  68
BRANCH  55  79
ATOM     79  C   UNL A   1      40.216  28.714  30.125  1.00  0.00     0.064 A 
ATOM     80  C   UNL A   1      40.825  29.231  28.973  1.00  0.00     0.173 A 
ATOM     81  C   UNL A   1      39.555  27.481  30.016  1.00  0.00     0.173 A 
ATOM     82  F   UNL A   1      41.438  30.424  29.018  1.00  0.00    -0.203 F 
ATOM     83  C   UNL A   1      40.755  28.556  27.756  1.00  0.00     0.198 A 
ATOM     84  C   UNL A   1      39.511  26.793  28.805  1.00  0.00     0.198 A 
ATOM     85  F   UNL A   1      38.947  26.949  31.085  1.00  0.00    -0.203 F 
ATOM     86  F   UNL A   1      41.297  29.100  26.657  1.00  0.00    -0.200 F 
ATOM     87  C   UNL A   1      40.102  27.335  27.674  1.00  0.00     0.200 A 
ATOM     88  F   UNL A   1      38.881  25.613  28.731  1.00  0.00    -0.200 F 
ATOM     89  F   UNL A   1      40.029  26.688  26.502  1.00  0.00    -0.200 F 
ENDBRANCH  55  79
BRANCH  67  90
ATOM     90  C   UNL A   1      44.624  28.814  35.524  1.00  0.00     0.064 A 
ATOM     91  C   UNL A   1      44.598  27.571  36.175  1.00  0.00     0.173 A 
ATOM     92  C   UNL A   1      45.869  29.312  35.108  1.00  0.00     0.173 A 
ATOM     93  F   UNL A   1      43.436  27.058  36.604  1.00  0.00    -0.203 F 
ATOM     94  C   UNL A   1      45.775  26.865  36.414  1.00  0.00     0.198 A 
ATOM     95  C   UNL A   1      47.039  28.588  35.324  1.00  0.00     0.198 A 
ATOM     96  F   UNL A   1      45.948  30.491  34.473  1.00  0.00    -0.203 F 
ATOM     97  F   UNL A   1      45.731  25.698  37.074  1.00  0.00    -0.200 F 
ATOM     98  C   UNL A   1      46.993  27.370  35.982  1.00  0.00     0.200 A 
ATOM     99  F   UNL A   1      48.213  29.071  34.891  1.00  0.00    -0.200 F 
ATOM    100  F   UNL A   1      48.121  26.683  36.205  1.00  0.00    -0.200 F 
ENDBRANCH  67  90
ENDBRANCH  41  42
ENDBRANCH  34  36
ENDBRANCH  33  34
ENDBRANCH  32  33
ENDBRANCH  31  32
ENDBRANCH  30  31
ENDBRANCH  29  30
ENDBRANCH   1  29
TORSDOF 20
ENDMDL
