MODEL 1
REMARK VINA RESULT:     -11.5      0.000      0.000
REMARK SMILES CN(C)C(=O)CCc1cccc(NC(=O)[C@H]2CCCC[C@@H]2C(=O)OCCOCCOCCOC(=O)c2ccc(-c3c4nc(c(-c5c(F)c(F)c(F)c(F)c5F)c5ccc([nH]5)c(-c5c(F)c(F)c(F)c(F)c5F)c5nc(c(-c6c(F)c(F)c(F)c(F)c6F)c6ccc3[nH]6)C=C5)C=C4)cc2)c1
REMARK SMILES IDX 27 1 26 2 25 3 24 4 22 5 23 6 21 7 16 8 17 9 18 10 20 11
REMARK SMILES IDX 19 12 14 13 13 14 15 16 12 17 8 18 9 19 99 20 10 21 11 22
REMARK SMILES IDX 7 23 6 24 4 25 1 26 2 27 3 28 5 29 28 30 29 31 30 32 31 33
REMARK SMILES IDX 32 34 33 35 34 36 35 37 36 38 37 39 98 40 38 41 97 42 39 43
REMARK SMILES IDX 40 44 41 45 91 46 42 47 96 48 90 49 92 50 43 51 95 52 89 53
REMARK SMILES IDX 88 54 44 56 76 57 56 58 75 59 57 60 60 61 74 62 93 63 58 64
REMARK SMILES IDX 59 65 73 67 94 68 61 69 45 70 46 71 54 72 47 73 48 74 52 75
REMARK SMILES IDX 55 76 49 77 50 78 53 79 51 80 77 81 78 82 86 83 79 84 80 85
REMARK SMILES IDX 84 86 87 87 81 88 82 89 85 90 83 91 62 92 63 93 71 94 64 95
REMARK SMILES IDX 65 96 69 97 72 98 66 99 67 100 70 101 68 102
REMARK H PARENT 13 15 92 55 60 66
REMARK Flexibility Score: inf
ROOT
ATOM      1  O   UNL A   1      35.924  23.274  25.962  1.00  0.00    -0.376 OA
ENDROOT
BRANCH   1   2
ATOM      2  C   UNL A   1      34.707  23.643  26.578  1.00  0.00     0.202 C 
BRANCH   2   3
ATOM      3  C   UNL A   1      33.834  24.632  25.803  1.00  0.00     0.261 C 
BRANCH   3   4
ATOM      4  O   UNL A   1      33.748  25.958  26.355  1.00  0.00    -0.463 OA
BRANCH   4   5
ATOM      5  C   UNL A   1      33.560  26.944  25.436  1.00  0.00     0.309 C 
ATOM      6  O   UNL A   1      33.950  28.096  25.577  1.00  0.00    -0.252 OA
BRANCH   5   7
ATOM      7  C   UNL A   1      32.771  26.452  24.223  1.00  0.00     0.111 C 
ATOM      8  C   UNL A   1      33.640  26.409  22.941  1.00  0.00     0.093 C 
ATOM      9  C   UNL A   1      34.003  27.831  22.469  1.00  0.00     0.014 C 
ATOM     10  C   UNL A   1      32.822  28.808  22.411  1.00  0.00     0.001 C 
ATOM     11  C   UNL A   1      31.539  27.357  24.087  1.00  0.00     0.016 C 
ATOM     12  C   UNL A   1      31.880  28.769  23.613  1.00  0.00     0.001 C 
BRANCH   8  13
ATOM     13  C   UNL A   1      32.911  25.644  21.819  1.00  0.00     0.228 C 
ATOM     14  N   UNL A   1      32.020  24.630  22.007  1.00  0.00    -0.326 N 
ATOM     15  H   UNL A   1      31.415  24.528  21.236  1.00  0.00     0.169 HD
ATOM     16  O   UNL A   1      33.061  25.991  20.640  1.00  0.00    -0.274 OA
BRANCH  14  17
ATOM     17  C   UNL A   1      31.740  23.694  23.017  1.00  0.00     0.041 A 
ATOM     18  C   UNL A   1      32.423  21.600  24.134  1.00  0.00    -0.045 A 
ATOM     19  C   UNL A   1      31.535  21.892  25.157  1.00  0.00     0.004 A 
ATOM     20  C   UNL A   1      32.558  22.541  23.091  1.00  0.00     0.029 A 
ATOM     21  C   UNL A   1      30.708  22.997  25.074  1.00  0.00     0.002 A 
ATOM     22  C   UNL A   1      30.798  23.894  24.010  1.00  0.00     0.026 A 
BRANCH  18  23
ATOM     23  C   UNL A   1      33.243  20.328  24.190  1.00  0.00     0.045 C 
BRANCH  23  24
ATOM     24  C   UNL A   1      32.489  19.046  23.772  1.00  0.00     0.105 C 
BRANCH  24  25
ATOM     25  C   UNL A   1      32.753  17.906  24.744  1.00  0.00     0.222 C 
ATOM     26  C   UNL A   1      33.796  15.798  25.368  1.00  0.00     0.146 C 
ATOM     27  N   UNL A   1      33.496  16.798  24.355  1.00  0.00    -0.349 N 
ATOM     28  C   UNL A   1      34.163  16.584  23.076  1.00  0.00     0.146 C 
ATOM     29  O   UNL A   1      32.288  18.001  25.885  1.00  0.00    -0.275 OA
ENDBRANCH  24  25
ENDBRANCH  23  24
ENDBRANCH  18  23
ENDBRANCH  14  17
ENDBRANCH   8  13
ENDBRANCH   5   7
ENDBRANCH   4   5
ENDBRANCH   3   4
ENDBRANCH   2   3
ENDBRANCH   1   2
BRANCH   1  30
ATOM     30  C   UNL A   1      36.113  21.941  25.505  1.00  0.00     0.188 C 
BRANCH  30  31
ATOM     31  C   UNL A   1      37.503  21.418  25.091  1.00  0.00     0.188 C 
BRANCH  31  32
ATOM     32  O   UNL A   1      38.491  21.604  26.097  1.00  0.00    -0.376 OA
BRANCH  32  33
ATOM     33  C   UNL A   1      39.788  21.117  25.781  1.00  0.00     0.202 C 
BRANCH  33  34
ATOM     34  C   UNL A   1      39.985  19.650  26.154  1.00  0.00     0.261 C 
BRANCH  34  35
ATOM     35  O   UNL A   1      41.112  19.079  25.462  1.00  0.00    -0.460 OA
BRANCH  35  36
ATOM     36  C   UNL A   1      42.273  18.957  26.131  1.00  0.00     0.338 C 
ATOM     37  O   UNL A   1      42.785  17.928  26.532  1.00  0.00    -0.246 OA
BRANCH  36  38
ATOM     38  C   UNL A   1      42.878  20.297  26.326  1.00  0.00     0.060 A 
ATOM     39  C   UNL A   1      42.821  20.947  27.560  1.00  0.00     0.016 A 
ATOM     40  C   UNL A   1      43.374  20.981  25.219  1.00  0.00     0.016 A 
ATOM     41  C   UNL A   1      43.107  22.312  27.660  1.00  0.00     0.010 A 
ATOM     42  C   UNL A   1      43.758  22.320  25.342  1.00  0.00     0.010 A 
ATOM     43  C   UNL A   1      43.573  23.019  26.549  1.00  0.00    -0.014 A 
BRANCH  43  44
ATOM     44  C   UNL A   1      43.821  24.487  26.599  1.00  0.00     0.031 A 
ATOM     45  C   UNL A   1      45.203  25.016  26.314  1.00  0.00     0.074 A 
ATOM     46  C   UNL A   1      42.838  25.346  26.930  1.00  0.00     0.049 A 
ATOM     47  N   UNL A   1      45.731  26.176  26.613  1.00  0.00    -0.248 NA
ATOM     48  C   UNL A   1      46.117  24.109  25.600  1.00  0.00     0.031 C 
ATOM     49  C   UNL A   1      41.434  24.996  27.138  1.00  0.00     0.029 A 
ATOM     50  N   UNL A   1      42.885  26.697  27.182  1.00  0.00    -0.354 N 
ATOM     51  C   UNL A   1      47.048  26.120  26.174  1.00  0.00     0.074 A 
ATOM     52  C   UNL A   1      47.242  24.812  25.582  1.00  0.00     0.031 C 
ATOM     53  C   UNL A   1      40.756  26.093  27.506  1.00  0.00     0.029 A 
ATOM     54  C   UNL A   1      41.696  27.199  27.652  1.00  0.00     0.049 A 
ATOM     55  H   UNL A   1      43.689  27.248  27.042  1.00  0.00     0.167 HD
ATOM     56  C   UNL A   1      48.008  27.072  26.268  1.00  0.00     0.037 A 
ATOM     57  C   UNL A   1      41.408  28.390  28.213  1.00  0.00     0.037 A 
ATOM     58  C   UNL A   1      47.793  28.380  26.832  1.00  0.00     0.049 A 
ATOM     59  C   UNL A   1      42.506  29.402  28.387  1.00  0.00     0.074 A 
ATOM     60  C   UNL A   1      48.700  29.411  27.004  1.00  0.00     0.029 A 
ATOM     61  N   UNL A   1      46.572  28.842  27.302  1.00  0.00    -0.354 N 
ATOM     62  N   UNL A   1      43.771  29.317  28.058  1.00  0.00    -0.248 NA
ATOM     63  C   UNL A   1      42.136  30.674  29.027  1.00  0.00     0.031 C 
ATOM     64  C   UNL A   1      48.036  30.484  27.609  1.00  0.00     0.029 A 
ATOM     65  C   UNL A   1      46.705  30.139  27.770  1.00  0.00     0.049 A 
ATOM     66  H   UNL A   1      45.734  28.324  27.303  1.00  0.00     0.167 HD
ATOM     67  C   UNL A   1      44.344  30.526  28.427  1.00  0.00     0.074 A 
ATOM     68  C   UNL A   1      43.284  31.335  28.992  1.00  0.00     0.031 C 
ATOM     69  C   UNL A   1      45.633  30.930  28.314  1.00  0.00     0.037 A 
BRANCH  56  70
ATOM     70  C   UNL A   1      49.388  26.732  25.786  1.00  0.00     0.064 A 
ATOM     71  C   UNL A   1      49.828  27.069  24.499  1.00  0.00     0.173 A 
ATOM     72  C   UNL A   1      50.303  26.104  26.647  1.00  0.00     0.173 A 
ATOM     73  F   UNL A   1      48.989  27.656  23.631  1.00  0.00    -0.203 F 
ATOM     74  C   UNL A   1      51.127  26.779  24.085  1.00  0.00     0.198 A 
ATOM     75  C   UNL A   1      51.607  25.838  26.240  1.00  0.00     0.198 A 
ATOM     76  F   UNL A   1      49.935  25.762  27.891  1.00  0.00    -0.203 F 
ATOM     77  F   UNL A   1      51.514  27.077  22.838  1.00  0.00    -0.200 F 
ATOM     78  C   UNL A   1      52.017  26.171  24.959  1.00  0.00     0.200 A 
ATOM     79  F   UNL A   1      52.468  25.260  27.089  1.00  0.00    -0.200 F 
ATOM     80  F   UNL A   1      53.269  25.900  24.562  1.00  0.00    -0.200 F 
ENDBRANCH  56  70
BRANCH  57  81
ATOM     81  C   UNL A   1      40.036  28.657  28.723  1.00  0.00     0.064 A 
ATOM     82  C   UNL A   1      39.685  28.361  30.045  1.00  0.00     0.173 A 
ATOM     83  C   UNL A   1      39.043  29.199  27.891  1.00  0.00     0.173 A 
ATOM     84  F   UNL A   1      40.590  27.814  30.871  1.00  0.00    -0.203 F 
ATOM     85  C   UNL A   1      38.391  28.579  30.513  1.00  0.00     0.198 A 
ATOM     86  C   UNL A   1      37.759  29.449  28.368  1.00  0.00     0.198 A 
ATOM     87  F   UNL A   1      39.326  29.498  26.614  1.00  0.00    -0.203 F 
ATOM     88  F   UNL A   1      38.067  28.237  31.767  1.00  0.00    -0.200 F 
ATOM     89  C   UNL A   1      37.431  29.130  29.676  1.00  0.00     0.200 A 
ATOM     90  F   UNL A   1      36.840  29.992  27.559  1.00  0.00    -0.200 F 
ATOM     91  F   UNL A   1      36.187  29.341  30.127  1.00  0.00    -0.200 F 
ENDBRANCH  57  81
BRANCH  69  92
ATOM     92  C   UNL A   1      45.953  32.324  28.766  1.00  0.00     0.064 A 
ATOM     93  C   UNL A   1      45.837  33.423  27.904  1.00  0.00     0.173 A 
ATOM     94  C   UNL A   1      46.355  32.563  30.089  1.00  0.00     0.173 A 
ATOM     95  F   UNL A   1      45.473  33.241  26.625  1.00  0.00    -0.203 F 
ATOM     96  C   UNL A   1      46.135  34.710  28.342  1.00  0.00     0.198 A 
ATOM     97  C   UNL A   1      46.626  33.854  30.531  1.00  0.00     0.198 A 
ATOM     98  F   UNL A   1      46.477  31.545  30.954  1.00  0.00    -0.203 F 
ATOM     99  F   UNL A   1      46.061  35.740  27.488  1.00  0.00    -0.200 F 
ATOM    100  C   UNL A   1      46.523  34.925  29.657  1.00  0.00     0.200 A 
ATOM    101  F   UNL A   1      46.990  34.063  31.804  1.00  0.00    -0.200 F 
ATOM    102  F   UNL A   1      46.806  36.166  30.078  1.00  0.00    -0.200 F 
ENDBRANCH  69  92
ENDBRANCH  43  44
ENDBRANCH  36  38
ENDBRANCH  35  36
ENDBRANCH  34  35
ENDBRANCH  33  34
ENDBRANCH  32  33
ENDBRANCH  31  32
ENDBRANCH  30  31
ENDBRANCH   1  30
TORSDOF 22
ENDMDL
MODEL 2
REMARK VINA RESULT:     -11.4      1.837      4.744
REMARK SMILES CN(C)C(=O)CCc1cccc(NC(=O)[C@H]2CCCC[C@@H]2C(=O)OCCOCCOCCOC(=O)c2ccc(-c3c4nc(c(-c5c(F)c(F)c(F)c(F)c5F)c5ccc([nH]5)c(-c5c(F)c(F)c(F)c(F)c5F)c5nc(c(-c6c(F)c(F)c(F)c(F)c6F)c6ccc3[nH]6)C=C5)C=C4)cc2)c1
REMARK SMILES IDX 27 1 26 2 25 3 24 4 22 5 23 6 21 7 16 8 17 9 18 10 20 11
REMARK SMILES IDX 19 12 14 13 13 14 15 16 12 17 8 18 9 19 99 20 10 21 11 22
REMARK SMILES IDX 7 23 6 24 4 25 1 26 2 27 3 28 5 29 28 30 29 31 30 32 31 33
REMARK SMILES IDX 32 34 33 35 34 36 35 37 36 38 37 39 98 40 38 41 97 42 39 43
REMARK SMILES IDX 40 44 41 45 91 46 42 47 96 48 90 49 92 50 43 51 95 52 89 53
REMARK SMILES IDX 88 54 44 56 76 57 56 58 75 59 57 60 60 61 74 62 93 63 58 64
REMARK SMILES IDX 59 65 73 67 94 68 61 69 45 70 46 71 54 72 47 73 48 74 52 75
REMARK SMILES IDX 55 76 49 77 50 78 53 79 51 80 77 81 78 82 86 83 79 84 80 85
REMARK SMILES IDX 84 86 87 87 81 88 82 89 85 90 83 91 62 92 63 93 71 94 64 95
REMARK SMILES IDX 65 96 69 97 72 98 66 99 67 100 70 101 68 102
REMARK H PARENT 13 15 92 55 60 66
REMARK Flexibility Score: inf
ROOT
ATOM      1  O   UNL A   1      35.129  21.787  25.855  1.00  0.00    -0.376 OA
ENDROOT
BRANCH   1   2
ATOM      2  C   UNL A   1      33.998  21.581  26.677  1.00  0.00     0.202 C 
BRANCH   2   3
ATOM      3  C   UNL A   1      33.151  22.819  26.976  1.00  0.00     0.261 C 
BRANCH   3   4
ATOM      4  O   UNL A   1      33.480  24.000  26.223  1.00  0.00    -0.463 OA
BRANCH   4   5
ATOM      5  C   UNL A   1      32.575  24.330  25.261  1.00  0.00     0.309 C 
ATOM      6  O   UNL A   1      31.400  23.986  25.279  1.00  0.00    -0.252 OA
BRANCH   5   7
ATOM      7  C   UNL A   1      33.209  25.148  24.136  1.00  0.00     0.111 C 
ATOM      8  C   UNL A   1      32.317  25.187  22.870  1.00  0.00     0.093 C 
ATOM      9  C   UNL A   1      32.251  23.803  22.195  1.00  0.00     0.014 C 
ATOM     10  C   UNL A   1      33.610  23.119  22.000  1.00  0.00     0.001 C 
ATOM     11  C   UNL A   1      34.601  24.556  23.876  1.00  0.00     0.016 C 
ATOM     12  C   UNL A   1      34.554  23.186  23.199  1.00  0.00     0.001 C 
BRANCH   8  13
ATOM     13  C   UNL A   1      32.837  26.243  21.875  1.00  0.00     0.228 C 
ATOM     14  N   UNL A   1      32.988  27.571  22.142  1.00  0.00    -0.326 N 
ATOM     15  H   UNL A   1      33.646  27.992  21.542  1.00  0.00     0.169 HD
ATOM     16  O   UNL A   1      33.230  25.892  20.755  1.00  0.00    -0.274 OA
BRANCH  14  17
ATOM     17  C   UNL A   1      32.447  28.495  23.053  1.00  0.00     0.041 A 
ATOM     18  C   UNL A   1      30.451  29.761  23.766  1.00  0.00    -0.045 A 
ATOM     19  C   UNL A   1      31.107  30.072  24.946  1.00  0.00     0.004 A 
ATOM     20  C   UNL A   1      31.114  28.921  22.846  1.00  0.00     0.029 A 
ATOM     21  C   UNL A   1      32.421  29.690  25.139  1.00  0.00     0.002 A 
ATOM     22  C   UNL A   1      33.099  28.911  24.201  1.00  0.00     0.026 A 
BRANCH  18  23
ATOM     23  C   UNL A   1      29.049  30.281  23.524  1.00  0.00     0.045 C 
BRANCH  23  24
ATOM     24  C   UNL A   1      28.836  31.770  23.873  1.00  0.00     0.105 C 
BRANCH  24  25
ATOM     25  C   UNL A   1      28.484  32.585  22.638  1.00  0.00     0.222 C 
ATOM     26  C   UNL A   1      27.732  32.798  20.334  1.00  0.00     0.146 C 
ATOM     27  N   UNL A   1      28.160  31.957  21.440  1.00  0.00    -0.349 N 
ATOM     28  C   UNL A   1      28.038  30.525  21.197  1.00  0.00     0.146 C 
ATOM     29  O   UNL A   1      28.492  33.816  22.738  1.00  0.00    -0.275 OA
ENDBRANCH  24  25
ENDBRANCH  23  24
ENDBRANCH  18  23
ENDBRANCH  14  17
ENDBRANCH   8  13
ENDBRANCH   5   7
ENDBRANCH   4   5
ENDBRANCH   3   4
ENDBRANCH   2   3
ENDBRANCH   1   2
BRANCH   1  30
ATOM     30  C   UNL A   1      35.893  20.674  25.406  1.00  0.00     0.188 C 
BRANCH  30  31
ATOM     31  C   UNL A   1      37.344  20.836  24.914  1.00  0.00     0.188 C 
BRANCH  31  32
ATOM     32  O   UNL A   1      38.215  21.367  25.906  1.00  0.00    -0.376 OA
BRANCH  32  33
ATOM     33  C   UNL A   1      39.588  21.033  25.760  1.00  0.00     0.202 C 
BRANCH  33  34
ATOM     34  C   UNL A   1      39.890  19.576  26.100  1.00  0.00     0.261 C 
BRANCH  34  35
ATOM     35  O   UNL A   1      41.079  19.116  25.428  1.00  0.00    -0.460 OA
BRANCH  35  36
ATOM     36  C   UNL A   1      42.208  18.992  26.151  1.00  0.00     0.338 C 
ATOM     37  O   UNL A   1      42.697  17.963  26.578  1.00  0.00    -0.246 OA
BRANCH  36  38
ATOM     38  C   UNL A   1      42.809  20.331  26.367  1.00  0.00     0.060 A 
ATOM     39  C   UNL A   1      42.719  20.977  27.601  1.00  0.00     0.016 A 
ATOM     40  C   UNL A   1      43.337  21.018  25.277  1.00  0.00     0.016 A 
ATOM     41  C   UNL A   1      43.004  22.341  27.714  1.00  0.00     0.010 A 
ATOM     42  C   UNL A   1      43.719  22.356  25.415  1.00  0.00     0.010 A 
ATOM     43  C   UNL A   1      43.501  23.051  26.619  1.00  0.00    -0.014 A 
BRANCH  43  44
ATOM     44  C   UNL A   1      43.750  24.519  26.681  1.00  0.00     0.031 A 
ATOM     45  C   UNL A   1      45.132  25.050  26.399  1.00  0.00     0.074 A 
ATOM     46  C   UNL A   1      42.768  25.375  27.019  1.00  0.00     0.049 A 
ATOM     47  N   UNL A   1      45.660  26.207  26.708  1.00  0.00    -0.248 NA
ATOM     48  C   UNL A   1      46.045  24.148  25.678  1.00  0.00     0.031 C 
ATOM     49  C   UNL A   1      41.363  25.024  27.224  1.00  0.00     0.029 A 
ATOM     50  N   UNL A   1      42.815  26.724  27.283  1.00  0.00    -0.354 N 
ATOM     51  C   UNL A   1      46.977  26.154  26.268  1.00  0.00     0.074 A 
ATOM     52  C   UNL A   1      47.170  24.851  25.666  1.00  0.00     0.031 C 
ATOM     53  C   UNL A   1      40.686  26.118  27.602  1.00  0.00     0.029 A 
ATOM     54  C   UNL A   1      41.626  27.223  27.757  1.00  0.00     0.049 A 
ATOM     55  H   UNL A   1      43.618  27.275  27.147  1.00  0.00     0.167 HD
ATOM     56  C   UNL A   1      47.937  27.105  26.370  1.00  0.00     0.037 A 
ATOM     57  C   UNL A   1      41.339  28.409  28.328  1.00  0.00     0.037 A 
ATOM     58  C   UNL A   1      47.723  28.408  26.945  1.00  0.00     0.049 A 
ATOM     59  C   UNL A   1      42.437  29.419  28.510  1.00  0.00     0.074 A 
ATOM     60  C   UNL A   1      48.631  29.437  27.125  1.00  0.00     0.029 A 
ATOM     61  N   UNL A   1      46.502  28.867  27.419  1.00  0.00    -0.354 N 
ATOM     62  N   UNL A   1      43.702  29.336  28.179  1.00  0.00    -0.248 NA
ATOM     63  C   UNL A   1      42.068  30.685  29.160  1.00  0.00     0.031 C 
ATOM     64  C   UNL A   1      47.967  30.505  27.738  1.00  0.00     0.029 A 
ATOM     65  C   UNL A   1      46.636  30.160  27.898  1.00  0.00     0.049 A 
ATOM     66  H   UNL A   1      45.665  28.349  27.416  1.00  0.00     0.167 HD
ATOM     67  C   UNL A   1      44.275  30.542  28.558  1.00  0.00     0.074 A 
ATOM     68  C   UNL A   1      43.216  31.347  29.131  1.00  0.00     0.031 C 
ATOM     69  C   UNL A   1      45.564  30.947  28.449  1.00  0.00     0.037 A 
BRANCH  56  70
ATOM     70  C   UNL A   1      49.317  26.768  25.884  1.00  0.00     0.064 A 
ATOM     71  C   UNL A   1      49.745  27.086  24.588  1.00  0.00     0.173 A 
ATOM     72  C   UNL A   1      50.244  26.165  26.750  1.00  0.00     0.173 A 
ATOM     73  F   UNL A   1      48.895  27.648  23.716  1.00  0.00    -0.203 F 
ATOM     74  C   UNL A   1      51.044  26.800  24.171  1.00  0.00     0.198 A 
ATOM     75  C   UNL A   1      51.548  25.903  26.339  1.00  0.00     0.198 A 
ATOM     76  F   UNL A   1      49.887  25.843  28.003  1.00  0.00    -0.203 F 
ATOM     77  F   UNL A   1      51.420  27.078  22.915  1.00  0.00    -0.200 F 
ATOM     78  C   UNL A   1      51.946  26.216  25.049  1.00  0.00     0.200 A 
ATOM     79  F   UNL A   1      52.420  25.349  27.193  1.00  0.00    -0.200 F 
ATOM     80  F   UNL A   1      53.197  25.949  24.649  1.00  0.00    -0.200 F 
ENDBRANCH  56  70
BRANCH  57  81
ATOM     81  C   UNL A   1      39.967  28.672  28.840  1.00  0.00     0.064 A 
ATOM     82  C   UNL A   1      39.622  28.382  30.166  1.00  0.00     0.173 A 
ATOM     83  C   UNL A   1      38.969  29.205  28.008  1.00  0.00     0.173 A 
ATOM     84  F   UNL A   1      40.532  27.845  30.992  1.00  0.00    -0.203 F 
ATOM     85  C   UNL A   1      38.327  28.596  30.636  1.00  0.00     0.198 A 
ATOM     86  C   UNL A   1      37.685  29.450  28.487  1.00  0.00     0.198 A 
ATOM     87  F   UNL A   1      39.246  29.497  26.729  1.00  0.00    -0.203 F 
ATOM     88  F   UNL A   1      38.010  28.260  31.893  1.00  0.00    -0.200 F 
ATOM     89  C   UNL A   1      37.362  29.138  29.799  1.00  0.00     0.200 A 
ATOM     90  F   UNL A   1      36.760  29.984  27.678  1.00  0.00    -0.200 F 
ATOM     91  F   UNL A   1      36.119  29.345  30.253  1.00  0.00    -0.200 F 
ENDBRANCH  57  81
BRANCH  69  92
ATOM     92  C   UNL A   1      45.886  32.337  28.912  1.00  0.00     0.064 A 
ATOM     93  C   UNL A   1      46.317  32.596  30.220  1.00  0.00     0.173 A 
ATOM     94  C   UNL A   1      45.786  33.418  28.023  1.00  0.00     0.173 A 
ATOM     95  F   UNL A   1      46.412  31.596  31.109  1.00  0.00    -0.203 F 
ATOM     96  C   UNL A   1      46.615  33.892  30.630  1.00  0.00     0.198 A 
ATOM     97  C   UNL A   1      46.110  34.709  28.429  1.00  0.00     0.198 A 
ATOM     98  F   UNL A   1      45.381  33.221  26.760  1.00  0.00    -0.203 F 
ATOM     99  F   UNL A   1      46.982  34.124  31.898  1.00  0.00    -0.200 F 
ATOM    100  C   UNL A   1      46.517  34.947  29.733  1.00  0.00     0.200 A 
ATOM    101  F   UNL A   1      46.026  35.725  27.559  1.00  0.00    -0.200 F 
ATOM    102  F   UNL A   1      46.808  36.193  30.129  1.00  0.00    -0.200 F 
ENDBRANCH  69  92
ENDBRANCH  43  44
ENDBRANCH  36  38
ENDBRANCH  35  36
ENDBRANCH  34  35
ENDBRANCH  33  34
ENDBRANCH  32  33
ENDBRANCH  31  32
ENDBRANCH  30  31
ENDBRANCH   1  30
TORSDOF 22
ENDMDL
MODEL 3
REMARK VINA RESULT:     -11.0      2.166      5.406
REMARK SMILES CN(C)C(=O)CCc1cccc(NC(=O)[C@H]2CCCC[C@@H]2C(=O)OCCOCCOCCOC(=O)c2ccc(-c3c4nc(c(-c5c(F)c(F)c(F)c(F)c5F)c5ccc([nH]5)c(-c5c(F)c(F)c(F)c(F)c5F)c5nc(c(-c6c(F)c(F)c(F)c(F)c6F)c6ccc3[nH]6)C=C5)C=C4)cc2)c1
REMARK SMILES IDX 27 1 26 2 25 3 24 4 22 5 23 6 21 7 16 8 17 9 18 10 20 11
REMARK SMILES IDX 19 12 14 13 13 14 15 16 12 17 8 18 9 19 99 20 10 21 11 22
REMARK SMILES IDX 7 23 6 24 4 25 1 26 2 27 3 28 5 29 28 30 29 31 30 32 31 33
REMARK SMILES IDX 32 34 33 35 34 36 35 37 36 38 37 39 98 40 38 41 97 42 39 43
REMARK SMILES IDX 40 44 41 45 91 46 42 47 96 48 90 49 92 50 43 51 95 52 89 53
REMARK SMILES IDX 88 54 44 56 76 57 56 58 75 59 57 60 60 61 74 62 93 63 58 64
REMARK SMILES IDX 59 65 73 67 94 68 61 69 45 70 46 71 54 72 47 73 48 74 52 75
REMARK SMILES IDX 55 76 49 77 50 78 53 79 51 80 77 81 78 82 86 83 79 84 80 85
REMARK SMILES IDX 84 86 87 87 81 88 82 89 85 90 83 91 62 92 63 93 71 94 64 95
REMARK SMILES IDX 65 96 69 97 72 98 66 99 67 100 70 101 68 102
REMARK H PARENT 13 15 92 55 60 66
REMARK Flexibility Score: inf
ROOT
ATOM      1  O   UNL A   1      34.997  21.545  25.425  1.00  0.00    -0.376 OA
ENDROOT
BRANCH   1   2
ATOM      2  C   UNL A   1      34.429  21.468  26.717  1.00  0.00     0.202 C 
BRANCH   2   3
ATOM      3  C   UNL A   1      33.358  22.510  27.045  1.00  0.00     0.261 C 
BRANCH   3   4
ATOM      4  O   UNL A   1      33.496  23.779  26.380  1.00  0.00    -0.463 OA
BRANCH   4   5
ATOM      5  C   UNL A   1      32.379  24.558  26.408  1.00  0.00     0.309 C 
ATOM      6  O   UNL A   1      31.460  24.408  27.203  1.00  0.00    -0.252 OA
BRANCH   5   7
ATOM      7  C   UNL A   1      32.393  25.617  25.306  1.00  0.00     0.111 C 
ATOM      8  C   UNL A   1      30.999  26.264  25.103  1.00  0.00     0.093 C 
ATOM      9  C   UNL A   1      30.002  25.256  24.499  1.00  0.00     0.014 C 
ATOM     10  C   UNL A   1      30.531  24.479  23.287  1.00  0.00     0.001 C 
ATOM     11  C   UNL A   1      32.936  24.943  24.039  1.00  0.00     0.016 C 
ATOM     12  C   UNL A   1      31.955  23.945  23.422  1.00  0.00     0.001 C 
BRANCH   8  13
ATOM     13  C   UNL A   1      31.109  27.511  24.204  1.00  0.00     0.228 C 
ATOM     14  N   UNL A   1      31.974  28.547  24.396  1.00  0.00    -0.326 N 
ATOM     15  H   UNL A   1      32.145  29.039  23.560  1.00  0.00     0.169 HD
ATOM     16  O   UNL A   1      30.427  27.589  23.174  1.00  0.00    -0.274 OA
BRANCH  14  17
ATOM     17  C   UNL A   1      32.686  29.093  25.477  1.00  0.00     0.041 A 
ATOM     18  C   UNL A   1      32.942  31.000  27.025  1.00  0.00    -0.045 A 
ATOM     19  C   UNL A   1      33.770  30.213  27.810  1.00  0.00     0.004 A 
ATOM     20  C   UNL A   1      32.359  30.408  25.884  1.00  0.00     0.029 A 
ATOM     21  C   UNL A   1      34.123  28.941  27.399  1.00  0.00     0.002 A 
ATOM     22  C   UNL A   1      33.595  28.378  26.238  1.00  0.00     0.026 A 
BRANCH  18  23
ATOM     23  C   UNL A   1      32.654  32.430  27.435  1.00  0.00     0.045 C 
BRANCH  23  24
ATOM     24  C   UNL A   1      33.896  33.259  27.828  1.00  0.00     0.105 C 
BRANCH  24  25
ATOM     25  C   UNL A   1      33.710  33.929  29.181  1.00  0.00     0.222 C 
ATOM     26  C   UNL A   1      34.456  34.516  31.421  1.00  0.00     0.146 C 
ATOM     27  N   UNL A   1      34.648  33.760  30.193  1.00  0.00    -0.349 N 
ATOM     28  C   UNL A   1      35.909  33.033  30.119  1.00  0.00     0.146 C 
ATOM     29  O   UNL A   1      32.703  34.626  29.345  1.00  0.00    -0.275 OA
ENDBRANCH  24  25
ENDBRANCH  23  24
ENDBRANCH  18  23
ENDBRANCH  14  17
ENDBRANCH   8  13
ENDBRANCH   5   7
ENDBRANCH   4   5
ENDBRANCH   3   4
ENDBRANCH   2   3
ENDBRANCH   1   2
BRANCH   1  30
ATOM     30  C   UNL A   1      35.972  20.593  25.020  1.00  0.00     0.188 C 
BRANCH  30  31
ATOM     31  C   UNL A   1      37.421  21.009  24.699  1.00  0.00     0.188 C 
BRANCH  31  32
ATOM     32  O   UNL A   1      38.105  21.560  25.818  1.00  0.00    -0.376 OA
BRANCH  32  33
ATOM     33  C   UNL A   1      39.486  21.239  25.914  1.00  0.00     0.202 C 
BRANCH  33  34
ATOM     34  C   UNL A   1      39.745  19.739  26.036  1.00  0.00     0.261 C 
BRANCH  34  35
ATOM     35  O   UNL A   1      40.945  19.356  25.339  1.00  0.00    -0.460 OA
BRANCH  35  36
ATOM     36  C   UNL A   1      42.072  19.192  26.056  1.00  0.00     0.338 C 
ATOM     37  O   UNL A   1      42.534  18.144  26.469  1.00  0.00    -0.246 OA
BRANCH  36  38
ATOM     38  C   UNL A   1      42.709  20.511  26.289  1.00  0.00     0.060 A 
ATOM     39  C   UNL A   1      42.725  21.095  27.558  1.00  0.00     0.016 A 
ATOM     40  C   UNL A   1      43.160  21.245  25.196  1.00  0.00     0.016 A 
ATOM     41  C   UNL A   1      43.039  22.449  27.714  1.00  0.00     0.010 A 
ATOM     42  C   UNL A   1      43.573  22.570  25.369  1.00  0.00     0.010 A 
ATOM     43  C   UNL A   1      43.461  23.207  26.619  1.00  0.00    -0.014 A 
BRANCH  43  44
ATOM     44  C   UNL A   1      43.736  24.666  26.733  1.00  0.00     0.031 A 
ATOM     45  C   UNL A   1      45.136  25.177  26.509  1.00  0.00     0.074 A 
ATOM     46  C   UNL A   1      42.761  25.532  27.067  1.00  0.00     0.049 A 
ATOM     47  N   UNL A   1      45.678  26.313  26.868  1.00  0.00    -0.248 NA
ATOM     48  C   UNL A   1      46.053  24.278  25.788  1.00  0.00     0.031 C 
ATOM     49  C   UNL A   1      41.344  25.204  27.219  1.00  0.00     0.029 A 
ATOM     50  N   UNL A   1      42.827  26.871  27.372  1.00  0.00    -0.354 N 
ATOM     51  C   UNL A   1      47.006  26.246  26.467  1.00  0.00     0.074 A 
ATOM     52  C   UNL A   1      47.192  24.958  25.831  1.00  0.00     0.031 C 
ATOM     53  C   UNL A   1      40.677  26.301  27.609  1.00  0.00     0.029 A 
ATOM     54  C   UNL A   1      41.634  27.380  27.825  1.00  0.00     0.049 A 
ATOM     55  H   UNL A   1      43.645  27.410  27.277  1.00  0.00     0.167 HD
ATOM     56  C   UNL A   1      47.981  27.174  26.626  1.00  0.00     0.037 A 
ATOM     57  C   UNL A   1      41.352  28.555  28.423  1.00  0.00     0.037 A 
ATOM     58  C   UNL A   1      47.775  28.464  27.233  1.00  0.00     0.049 A 
ATOM     59  C   UNL A   1      42.464  29.537  28.668  1.00  0.00     0.074 A 
ATOM     60  C   UNL A   1      48.697  29.468  27.472  1.00  0.00     0.029 A 
ATOM     61  N   UNL A   1      46.549  28.933  27.684  1.00  0.00    -0.354 N 
ATOM     62  N   UNL A   1      43.737  29.437  28.374  1.00  0.00    -0.248 NA
ATOM     63  C   UNL A   1      42.100  30.790  29.345  1.00  0.00     0.031 C 
ATOM     64  C   UNL A   1      48.036  30.531  28.097  1.00  0.00     0.029 A 
ATOM     65  C   UNL A   1      46.694  30.208  28.205  1.00  0.00     0.049 A 
ATOM     66  H   UNL A   1      45.702  28.433  27.640  1.00  0.00     0.167 HD
ATOM     67  C   UNL A   1      44.322  30.619  28.806  1.00  0.00     0.074 A 
ATOM     68  C   UNL A   1      43.261  31.428  29.370  1.00  0.00     0.031 C 
ATOM     69  C   UNL A   1      45.621  31.001  28.747  1.00  0.00     0.037 A 
BRANCH  56  70
ATOM     70  C   UNL A   1      49.368  26.823  26.172  1.00  0.00     0.064 A 
ATOM     71  C   UNL A   1      50.277  26.162  27.010  1.00  0.00     0.173 A 
ATOM     72  C   UNL A   1      49.776  27.107  24.859  1.00  0.00     0.173 A 
ATOM     73  F   UNL A   1      49.944  25.883  28.279  1.00  0.00    -0.203 F 
ATOM     74  C   UNL A   1      51.547  25.811  26.556  1.00  0.00     0.198 A 
ATOM     75  C   UNL A   1      51.036  26.732  24.400  1.00  0.00     0.198 A 
ATOM     76  F   UNL A   1      48.943  27.735  24.014  1.00  0.00    -0.203 F 
ATOM     77  F   UNL A   1      52.413  25.213  27.386  1.00  0.00    -0.200 F 
ATOM     78  C   UNL A   1      51.922  26.089  25.249  1.00  0.00     0.200 A 
ATOM     79  F   UNL A   1      51.391  26.993  23.134  1.00  0.00    -0.200 F 
ATOM     80  F   UNL A   1      53.141  25.743  24.811  1.00  0.00    -0.200 F 
ENDBRANCH  56  70
BRANCH  57  81
ATOM     81  C   UNL A   1      39.971  28.831  28.901  1.00  0.00     0.064 A 
ATOM     82  C   UNL A   1      39.017  29.414  28.059  1.00  0.00     0.173 A 
ATOM     83  C   UNL A   1      39.583  28.533  30.217  1.00  0.00     0.173 A 
ATOM     84  F   UNL A   1      39.348  29.744  26.801  1.00  0.00    -0.203 F 
ATOM     85  C   UNL A   1      37.733  29.705  28.517  1.00  0.00     0.198 A 
ATOM     86  C   UNL A   1      38.291  28.792  30.665  1.00  0.00     0.198 A 
ATOM     87  F   UNL A   1      40.460  27.977  31.067  1.00  0.00    -0.203 F 
ATOM     88  F   UNL A   1      36.856  30.311  27.706  1.00  0.00    -0.200 F 
ATOM     89  C   UNL A   1      37.368  29.386  29.817  1.00  0.00     0.200 A 
ATOM     90  F   UNL A   1      37.941  28.472  31.918  1.00  0.00    -0.200 F 
ATOM     91  F   UNL A   1      36.134  29.665  30.256  1.00  0.00    -0.200 F 
ENDBRANCH  57  81
BRANCH  69  92
ATOM     92  C   UNL A   1      45.956  32.369  29.262  1.00  0.00     0.064 A 
ATOM     93  C   UNL A   1      46.345  32.582  30.591  1.00  0.00     0.173 A 
ATOM     94  C   UNL A   1      45.912  33.477  28.401  1.00  0.00     0.173 A 
ATOM     95  F   UNL A   1      46.385  31.556  31.455  1.00  0.00    -0.203 F 
ATOM     96  C   UNL A   1      46.655  33.859  31.049  1.00  0.00     0.198 A 
ATOM     97  C   UNL A   1      46.249  34.749  28.856  1.00  0.00     0.198 A 
ATOM     98  F   UNL A   1      45.550  33.325  27.119  1.00  0.00    -0.203 F 
ATOM     99  F   UNL A   1      46.981  34.046  32.336  1.00  0.00    -0.200 F 
ATOM    100  C   UNL A   1      46.613  34.940  30.180  1.00  0.00     0.200 A 
ATOM    101  F   UNL A   1      46.219  35.790  28.013  1.00  0.00    -0.200 F 
ATOM    102  F   UNL A   1      46.917  36.168  30.623  1.00  0.00    -0.200 F 
ENDBRANCH  69  92
ENDBRANCH  43  44
ENDBRANCH  36  38
ENDBRANCH  35  36
ENDBRANCH  34  35
ENDBRANCH  33  34
ENDBRANCH  32  33
ENDBRANCH  31  32
ENDBRANCH  30  31
ENDBRANCH   1  30
TORSDOF 22
ENDMDL
