MODEL 1
REMARK VINA RESULT:     -10.7      0.000      0.000
REMARK SMILES O=C(OCCOCCOCCOC(=O)[C@@H]1CCC[N@@H+](Cc2nccn2C(F)F)C1)c1ccc(-c2c3nc(c(-c4c(F)c(F)c(F)c(F)c4F)c4ccc([nH]4)c(-c4c(F)c(F)c(F)c(F)c4F)c4nc(c(-c5c(F)c(F)c(F)c(F)c5F)c5ccc2[nH]5)C=C4)C=C3)cc1
REMARK SMILES IDX 8 1 7 2 6 3 5 4 4 5 3 6 2 7 1 8 30 9 31 10 92 11 32 12 91 13
REMARK SMILES IDX 33 14 34 15 35 16 85 17 36 18 90 19 84 20 86 21 37 22 89 23
REMARK SMILES IDX 83 24 82 25 38 27 70 28 50 29 69 30 51 31 54 32 68 33 87 34
REMARK SMILES IDX 52 35 53 36 67 38 88 39 55 40 39 41 40 42 48 43 41 44 42 45
REMARK SMILES IDX 46 46 49 47 43 48 44 49 47 50 45 51 71 52 72 53 80 54 73 55
REMARK SMILES IDX 74 56 78 57 81 58 75 59 76 60 79 61 77 62 56 63 57 64 65 65
REMARK SMILES IDX 58 66 59 67 63 68 66 69 60 70 61 71 64 72 62 73 9 74 10 75
REMARK SMILES IDX 11 76 12 77 13 78 14 79 15 80 16 81 29 82 17 83 19 84 18 85
REMARK SMILES IDX 20 87 21 88 22 89 25 90 23 91 24 92 26 93 27 94 28 95
REMARK H PARENT 86 26 54 37 19 86
REMARK Flexibility Score: inf
ROOT
ATOM      1  C   UNL A   1      42.650  19.784  26.067  1.00  0.00     0.188 C 
ENDROOT
BRANCH   1   2
ATOM      2  C   UNL A   1      43.175  18.359  25.911  1.00  0.00     0.188 C 
BRANCH   2   3
ATOM      3  O   UNL A   1      44.465  18.148  25.359  1.00  0.00    -0.376 OA
BRANCH   3   4
ATOM      4  C   UNL A   1      45.019  19.090  24.443  1.00  0.00     0.202 C 
BRANCH   4   5
ATOM      5  C   UNL A   1      46.148  20.094  24.764  1.00  0.00     0.261 C 
BRANCH   5   6
ATOM      6  O   UNL A   1      45.985  21.498  24.542  1.00  0.00    -0.460 OA
BRANCH   6   7
ATOM      7  C   UNL A   1      44.883  22.211  24.238  1.00  0.00     0.338 C 
ATOM      8  O   UNL A   1      44.555  22.355  23.064  1.00  0.00    -0.246 OA
BRANCH   7   9
ATOM      9  C   UNL A   1      44.067  22.884  25.268  1.00  0.00     0.060 A 
ATOM     10  C   UNL A   1      42.924  23.617  24.962  1.00  0.00     0.016 A 
ATOM     11  C   UNL A   1      44.641  22.957  26.554  1.00  0.00     0.016 A 
ATOM     12  C   UNL A   1      42.500  24.583  25.842  1.00  0.00     0.010 A 
ATOM     13  C   UNL A   1      44.216  23.920  27.443  1.00  0.00     0.010 A 
ATOM     14  C   UNL A   1      43.242  24.805  27.000  1.00  0.00    -0.014 A 
BRANCH  14  15
ATOM     15  C   UNL A   1      43.089  26.113  27.603  1.00  0.00     0.031 A 
ATOM     16  C   UNL A   1      44.160  27.077  27.279  1.00  0.00     0.074 A 
ATOM     17  C   UNL A   1      42.047  26.343  28.426  1.00  0.00     0.049 A 
ATOM     18  N   UNL A   1      44.976  27.671  28.088  1.00  0.00    -0.248 NA
ATOM     19  C   UNL A   1      44.445  27.302  25.854  1.00  0.00     0.031 C 
ATOM     20  C   UNL A   1      40.858  25.509  28.650  1.00  0.00     0.029 A 
ATOM     21  N   UNL A   1      41.787  27.441  29.182  1.00  0.00    -0.354 N 
ATOM     22  C   UNL A   1      45.760  28.493  27.286  1.00  0.00     0.074 A 
ATOM     23  C   UNL A   1      45.492  28.123  25.920  1.00  0.00     0.031 C 
ATOM     24  C   UNL A   1      39.910  26.239  29.278  1.00  0.00     0.029 A 
ATOM     25  C   UNL A   1      40.472  27.533  29.612  1.00  0.00     0.049 A 
ATOM     26  H   UNL A   1      42.472  28.112  29.405  1.00  0.00     0.167 HD
ATOM     27  C   UNL A   1      46.387  29.586  27.793  1.00  0.00     0.037 A 
ATOM     28  C   UNL A   1      39.878  28.654  30.087  1.00  0.00     0.037 A 
ATOM     29  C   UNL A   1      46.611  29.470  29.208  1.00  0.00     0.049 A 
ATOM     30  C   UNL A   1      40.963  29.569  30.534  1.00  0.00     0.074 A 
ATOM     31  C   UNL A   1      47.340  28.604  30.000  1.00  0.00     0.029 A 
ATOM     32  N   UNL A   1      45.765  30.129  30.067  1.00  0.00    -0.354 N 
ATOM     33  N   UNL A   1      41.737  29.325  31.557  1.00  0.00    -0.248 NA
ATOM     34  C   UNL A   1      41.496  30.511  29.559  1.00  0.00     0.031 C 
ATOM     35  C   UNL A   1      46.563  28.438  31.185  1.00  0.00     0.029 A 
ATOM     36  C   UNL A   1      45.431  29.244  31.060  1.00  0.00     0.049 A 
ATOM     37  H   UNL A   1      45.457  31.060  29.984  1.00  0.00     0.167 HD
ATOM     38  C   UNL A   1      42.998  29.753  31.162  1.00  0.00     0.074 A 
ATOM     39  C   UNL A   1      42.773  30.538  29.951  1.00  0.00     0.031 C 
ATOM     40  C   UNL A   1      44.130  29.197  31.684  1.00  0.00     0.037 A 
BRANCH  27  41
ATOM     41  C   UNL A   1      46.449  30.898  27.056  1.00  0.00     0.064 A 
ATOM     42  C   UNL A   1      47.672  31.585  26.965  1.00  0.00     0.173 A 
ATOM     43  C   UNL A   1      45.299  31.641  26.704  1.00  0.00     0.173 A 
ATOM     44  F   UNL A   1      48.821  30.982  27.303  1.00  0.00    -0.203 F 
ATOM     45  C   UNL A   1      47.729  32.936  26.613  1.00  0.00     0.198 A 
ATOM     46  C   UNL A   1      45.366  32.971  26.301  1.00  0.00     0.198 A 
ATOM     47  F   UNL A   1      44.061  31.150  26.844  1.00  0.00    -0.203 F 
ATOM     48  F   UNL A   1      48.900  33.586  26.657  1.00  0.00    -0.200 F 
ATOM     49  C   UNL A   1      46.575  33.628  26.287  1.00  0.00     0.200 A 
ATOM     50  F   UNL A   1      44.234  33.627  26.008  1.00  0.00    -0.200 F 
ATOM     51  F   UNL A   1      46.621  34.938  26.010  1.00  0.00    -0.200 F 
ENDBRANCH  27  41
BRANCH  28  52
ATOM     52  C   UNL A   1      38.502  29.106  29.769  1.00  0.00     0.064 A 
ATOM     53  C   UNL A   1      37.630  29.546  30.774  1.00  0.00     0.173 A 
ATOM     54  C   UNL A   1      38.097  29.347  28.438  1.00  0.00     0.173 A 
ATOM     55  F   UNL A   1      37.967  29.408  32.065  1.00  0.00    -0.203 F 
ATOM     56  C   UNL A   1      36.425  30.190  30.467  1.00  0.00     0.198 A 
ATOM     57  C   UNL A   1      36.890  29.976  28.133  1.00  0.00     0.198 A 
ATOM     58  F   UNL A   1      38.902  29.059  27.406  1.00  0.00    -0.203 F 
ATOM     59  F   UNL A   1      35.639  30.643  31.453  1.00  0.00    -0.200 F 
ATOM     60  C   UNL A   1      36.059  30.408  29.148  1.00  0.00     0.200 A 
ATOM     61  F   UNL A   1      36.570  30.214  26.853  1.00  0.00    -0.200 F 
ATOM     62  F   UNL A   1      34.930  31.067  28.855  1.00  0.00    -0.200 F 
ENDBRANCH  28  52
BRANCH  40  63
ATOM     63  C   UNL A   1      43.967  28.251  32.840  1.00  0.00     0.064 A 
ATOM     64  C   UNL A   1      43.807  26.862  32.683  1.00  0.00     0.173 A 
ATOM     65  C   UNL A   1      44.133  28.735  34.143  1.00  0.00     0.173 A 
ATOM     66  F   UNL A   1      43.758  26.313  31.463  1.00  0.00    -0.203 F 
ATOM     67  C   UNL A   1      43.765  26.007  33.782  1.00  0.00     0.198 A 
ATOM     68  C   UNL A   1      44.125  27.875  35.239  1.00  0.00     0.198 A 
ATOM     69  F   UNL A   1      44.359  30.041  34.350  1.00  0.00    -0.203 F 
ATOM     70  F   UNL A   1      43.605  24.687  33.603  1.00  0.00    -0.200 F 
ATOM     71  C   UNL A   1      43.930  26.514  35.059  1.00  0.00     0.200 A 
ATOM     72  F   UNL A   1      44.342  28.361  36.469  1.00  0.00    -0.200 F 
ATOM     73  F   UNL A   1      43.935  25.688  36.116  1.00  0.00    -0.200 F 
ENDBRANCH  40  63
ENDBRANCH  14  15
ENDBRANCH   7   9
ENDBRANCH   6   7
ENDBRANCH   5   6
ENDBRANCH   4   5
ENDBRANCH   3   4
ENDBRANCH   2   3
ENDBRANCH   1   2
BRANCH   1  74
ATOM     74  O   UNL A   1      41.524  19.964  26.917  1.00  0.00    -0.376 OA
BRANCH  74  75
ATOM     75  C   UNL A   1      40.723  21.116  26.697  1.00  0.00     0.202 C 
BRANCH  75  76
ATOM     76  C   UNL A   1      39.522  20.948  25.763  1.00  0.00     0.261 C 
BRANCH  76  77
ATOM     77  O   UNL A   1      38.420  21.818  26.066  1.00  0.00    -0.463 OA
BRANCH  77  78
ATOM     78  C   UNL A   1      37.401  21.803  25.168  1.00  0.00     0.314 C 
ATOM     79  O   UNL A   1      36.797  20.791  24.829  1.00  0.00    -0.252 OA
BRANCH  78  80
ATOM     80  C   UNL A   1      37.002  23.181  24.650  1.00  0.00     0.154 C 
ATOM     81  C   UNL A   1      36.473  23.998  25.827  1.00  0.00     0.027 C 
ATOM     82  C   UNL A   1      36.004  23.244  23.487  1.00  0.00     0.278 C 
ATOM     83  C   UNL A   1      35.097  23.472  26.222  1.00  0.00     0.062 C 
ATOM     84  N   UNL A   1      34.630  22.856  23.848  1.00  0.00    -0.328 N 
ATOM     85  C   UNL A   1      34.129  23.548  25.040  1.00  0.00     0.262 C 
ATOM     86  H   UNL A   1      34.654  21.873  24.120  1.00  0.00     0.348 HD
BRANCH  84  87
ATOM     87  C   UNL A   1      33.726  22.953  22.682  1.00  0.00     0.339 C 
BRANCH  87  88
ATOM     88  C   UNL A   1      33.169  24.330  22.412  1.00  0.00     0.168 A 
ATOM     89  N   UNL A   1      33.844  25.335  21.874  1.00  0.00    -0.236 NA
ATOM     90  N   UNL A   1      31.893  24.743  22.737  1.00  0.00    -0.273 N 
ATOM     91  C   UNL A   1      33.017  26.424  21.918  1.00  0.00     0.131 A 
ATOM     92  C   UNL A   1      31.801  26.083  22.449  1.00  0.00     0.113 A 
BRANCH  90  93
ATOM     93  C   UNL A   1      30.815  23.963  23.310  1.00  0.00     0.450 C 
ATOM     94  F   UNL A   1      30.941  23.884  24.660  1.00  0.00    -0.185 F 
ATOM     95  F   UNL A   1      29.616  24.554  23.064  1.00  0.00    -0.185 F 
ENDBRANCH  90  93
ENDBRANCH  87  88
ENDBRANCH  84  87
ENDBRANCH  78  80
ENDBRANCH  77  78
ENDBRANCH  76  77
ENDBRANCH  75  76
ENDBRANCH  74  75
ENDBRANCH   1  74
TORSDOF 20
ENDMDL
MODEL 2
REMARK VINA RESULT:     -10.6      1.880      3.017
REMARK SMILES O=C(OCCOCCOCCOC(=O)[C@@H]1CCC[N@@H+](Cc2nccn2C(F)F)C1)c1ccc(-c2c3nc(c(-c4c(F)c(F)c(F)c(F)c4F)c4ccc([nH]4)c(-c4c(F)c(F)c(F)c(F)c4F)c4nc(c(-c5c(F)c(F)c(F)c(F)c5F)c5ccc2[nH]5)C=C4)C=C3)cc1
REMARK SMILES IDX 8 1 7 2 6 3 5 4 4 5 3 6 2 7 1 8 30 9 31 10 92 11 32 12 91 13
REMARK SMILES IDX 33 14 34 15 35 16 85 17 36 18 90 19 84 20 86 21 37 22 89 23
REMARK SMILES IDX 83 24 82 25 38 27 70 28 50 29 69 30 51 31 54 32 68 33 87 34
REMARK SMILES IDX 52 35 53 36 67 38 88 39 55 40 39 41 40 42 48 43 41 44 42 45
REMARK SMILES IDX 46 46 49 47 43 48 44 49 47 50 45 51 71 52 72 53 80 54 73 55
REMARK SMILES IDX 74 56 78 57 81 58 75 59 76 60 79 61 77 62 56 63 57 64 65 65
REMARK SMILES IDX 58 66 59 67 63 68 66 69 60 70 61 71 64 72 62 73 9 74 10 75
REMARK SMILES IDX 11 76 12 77 13 78 14 79 15 80 16 81 29 82 17 83 19 84 18 85
REMARK SMILES IDX 20 87 21 88 22 89 25 90 23 91 24 92 26 93 27 94 28 95
REMARK H PARENT 86 26 54 37 19 86
REMARK Flexibility Score: inf
ROOT
ATOM      1  C   UNL A   1      38.024  21.258  25.627  1.00  0.00     0.188 C 
ENDROOT
BRANCH   1   2
ATOM      2  C   UNL A   1      38.995  22.330  26.113  1.00  0.00     0.188 C 
BRANCH   2   3
ATOM      3  O   UNL A   1      40.366  22.007  26.278  1.00  0.00    -0.376 OA
BRANCH   3   4
ATOM      4  C   UNL A   1      40.751  20.866  27.040  1.00  0.00     0.202 C 
BRANCH   4   5
ATOM      5  C   UNL A   1      41.709  19.752  26.565  1.00  0.00     0.261 C 
BRANCH   5   6
ATOM      6  O   UNL A   1      42.518  19.910  25.395  1.00  0.00    -0.460 OA
BRANCH   6   7
ATOM      7  C   UNL A   1      43.813  20.257  25.271  1.00  0.00     0.338 C 
ATOM      8  O   UNL A   1      44.672  19.385  25.182  1.00  0.00    -0.246 OA
BRANCH   7   9
ATOM      9  C   UNL A   1      44.261  21.665  25.292  1.00  0.00     0.060 A 
ATOM     10  C   UNL A   1      45.337  22.100  26.059  1.00  0.00     0.016 A 
ATOM     11  C   UNL A   1      43.388  22.594  24.688  1.00  0.00     0.016 A 
ATOM     12  C   UNL A   1      45.405  23.426  26.414  1.00  0.00     0.010 A 
ATOM     13  C   UNL A   1      43.456  23.925  25.036  1.00  0.00     0.010 A 
ATOM     14  C   UNL A   1      44.382  24.281  26.007  1.00  0.00    -0.014 A 
BRANCH  14  15
ATOM     15  C   UNL A   1      44.212  25.479  26.802  1.00  0.00     0.031 A 
ATOM     16  C   UNL A   1      45.291  26.477  26.661  1.00  0.00     0.074 A 
ATOM     17  C   UNL A   1      43.148  25.582  27.623  1.00  0.00     0.049 A 
ATOM     18  N   UNL A   1      46.084  26.935  27.575  1.00  0.00    -0.248 NA
ATOM     19  C   UNL A   1      45.614  26.922  25.297  1.00  0.00     0.031 C 
ATOM     20  C   UNL A   1      41.954  24.727  27.682  1.00  0.00     0.029 A 
ATOM     21  N   UNL A   1      42.868  26.549  28.534  1.00  0.00    -0.354 N 
ATOM     22  C   UNL A   1      46.890  27.870  26.932  1.00  0.00     0.074 A 
ATOM     23  C   UNL A   1      46.658  27.718  25.518  1.00  0.00     0.031 C 
ATOM     24  C   UNL A   1      40.990  25.353  28.391  1.00  0.00     0.029 A 
ATOM     25  C   UNL A   1      41.542  26.577  28.939  1.00  0.00     0.049 A 
ATOM     26  H   UNL A   1      43.546  27.175  28.877  1.00  0.00     0.167 HD
ATOM     27  C   UNL A   1      47.502  28.868  27.619  1.00  0.00     0.037 A 
ATOM     28  C   UNL A   1      40.935  27.612  29.566  1.00  0.00     0.037 A 
ATOM     29  C   UNL A   1      47.688  28.532  29.005  1.00  0.00     0.049 A 
ATOM     30  C   UNL A   1      42.006  28.443  30.180  1.00  0.00     0.074 A 
ATOM     31  C   UNL A   1      48.396  27.550  29.671  1.00  0.00     0.029 A 
ATOM     32  N   UNL A   1      46.819  29.051  29.932  1.00  0.00    -0.354 N 
ATOM     33  N   UNL A   1      42.753  28.039  31.172  1.00  0.00    -0.248 NA
ATOM     34  C   UNL A   1      42.565  29.524  29.378  1.00  0.00     0.031 C 
ATOM     35  C   UNL A   1      47.588  27.204  30.794  1.00  0.00     0.029 A 
ATOM     36  C   UNL A   1      46.459  28.024  30.766  1.00  0.00     0.049 A 
ATOM     37  H   UNL A   1      46.513  29.985  29.988  1.00  0.00     0.167 HD
ATOM     38  C   UNL A   1      44.024  28.519  30.882  1.00  0.00     0.074 A 
ATOM     39  C   UNL A   1      43.831  29.484  29.803  1.00  0.00     0.031 C 
ATOM     40  C   UNL A   1      45.142  27.884  31.341  1.00  0.00     0.037 A 
BRANCH  27  41
ATOM     41  C   UNL A   1      47.582  30.278  27.098  1.00  0.00     0.064 A 
ATOM     42  C   UNL A   1      48.814  30.956  27.118  1.00  0.00     0.173 A 
ATOM     43  C   UNL A   1      46.444  31.082  26.866  1.00  0.00     0.173 A 
ATOM     44  F   UNL A   1      49.955  30.292  27.358  1.00  0.00    -0.203 F 
ATOM     45  C   UNL A   1      48.889  32.345  26.983  1.00  0.00     0.198 A 
ATOM     46  C   UNL A   1      46.528  32.458  26.677  1.00  0.00     0.198 A 
ATOM     47  F   UNL A   1      45.199  30.591  26.925  1.00  0.00    -0.203 F 
ATOM     48  F   UNL A   1      50.068  32.964  27.131  1.00  0.00    -0.200 F 
ATOM     49  C   UNL A   1      47.746  33.094  26.768  1.00  0.00     0.200 A 
ATOM     50  F   UNL A   1      45.406  33.167  26.490  1.00  0.00    -0.200 F 
ATOM     51  F   UNL A   1      47.809  34.430  26.702  1.00  0.00    -0.200 F 
ENDBRANCH  27  41
BRANCH  28  52
ATOM     52  C   UNL A   1      39.567  28.113  29.286  1.00  0.00     0.064 A 
ATOM     53  C   UNL A   1      38.614  28.236  30.306  1.00  0.00     0.173 A 
ATOM     54  C   UNL A   1      39.243  28.715  28.051  1.00  0.00     0.173 A 
ATOM     55  F   UNL A   1      38.868  27.743  31.528  1.00  0.00    -0.203 F 
ATOM     56  C   UNL A   1      37.409  28.920  30.104  1.00  0.00     0.198 A 
ATOM     57  C   UNL A   1      38.038  29.385  27.847  1.00  0.00     0.198 A 
ATOM     58  F   UNL A   1      40.126  28.745  27.043  1.00  0.00    -0.203 F 
ATOM     59  F   UNL A   1      36.543  29.063  31.117  1.00  0.00    -0.200 F 
ATOM     60  C   UNL A   1      37.125  29.498  28.876  1.00  0.00     0.200 A 
ATOM     61  F   UNL A   1      37.796  29.971  26.665  1.00  0.00    -0.200 F 
ATOM     62  F   UNL A   1      35.995  30.194  28.698  1.00  0.00    -0.200 F 
ENDBRANCH  28  52
BRANCH  40  63
ATOM     63  C   UNL A   1      44.949  26.770  32.331  1.00  0.00     0.064 A 
ATOM     64  C   UNL A   1      44.720  25.435  31.952  1.00  0.00     0.173 A 
ATOM     65  C   UNL A   1      45.155  27.026  33.691  1.00  0.00     0.173 A 
ATOM     66  F   UNL A   1      44.628  25.095  30.660  1.00  0.00    -0.203 F 
ATOM     67  C   UNL A   1      44.651  24.414  32.898  1.00  0.00     0.198 A 
ATOM     68  C   UNL A   1      45.120  25.999  34.631  1.00  0.00     0.198 A 
ATOM     69  F   UNL A   1      45.447  28.269  34.103  1.00  0.00    -0.203 F 
ATOM     70  F   UNL A   1      44.425  23.150  32.509  1.00  0.00    -0.200 F 
ATOM     71  C   UNL A   1      44.857  24.697  34.237  1.00  0.00     0.200 A 
ATOM     72  F   UNL A   1      45.377  26.267  35.920  1.00  0.00    -0.200 F 
ATOM     73  F   UNL A   1      44.836  23.709  35.144  1.00  0.00    -0.200 F 
ENDBRANCH  40  63
ENDBRANCH  14  15
ENDBRANCH   7   9
ENDBRANCH   6   7
ENDBRANCH   5   6
ENDBRANCH   4   5
ENDBRANCH   3   4
ENDBRANCH   2   3
ENDBRANCH   1   2
BRANCH   1  74
ATOM     74  O   UNL A   1      37.427  21.461  24.352  1.00  0.00    -0.376 OA
BRANCH  74  75
ATOM     75  C   UNL A   1      36.154  22.090  24.324  1.00  0.00     0.202 C 
BRANCH  75  76
ATOM     76  C   UNL A   1      35.504  22.381  25.679  1.00  0.00     0.261 C 
BRANCH  76  77
ATOM     77  O   UNL A   1      34.148  22.845  25.588  1.00  0.00    -0.463 OA
BRANCH  77  78
ATOM     78  C   UNL A   1      34.000  24.180  25.386  1.00  0.00     0.314 C 
ATOM     79  O   UNL A   1      34.874  25.012  25.611  1.00  0.00    -0.252 OA
BRANCH  78  80
ATOM     80  C   UNL A   1      32.660  24.577  24.775  1.00  0.00     0.154 C 
ATOM     81  C   UNL A   1      32.400  23.677  23.569  1.00  0.00     0.027 C 
ATOM     82  C   UNL A   1      32.465  26.045  24.377  1.00  0.00     0.278 C 
ATOM     83  C   UNL A   1      33.325  24.090  22.429  1.00  0.00     0.062 C 
ATOM     84  N   UNL A   1      33.251  26.462  23.203  1.00  0.00    -0.328 N 
ATOM     85  C   UNL A   1      33.105  25.557  22.059  1.00  0.00     0.262 C 
ATOM     86  H   UNL A   1      34.236  26.388  23.458  1.00  0.00     0.348 HD
BRANCH  84  87
ATOM     87  C   UNL A   1      33.002  27.882  22.874  1.00  0.00     0.339 C 
BRANCH  87  88
ATOM     88  C   UNL A   1      31.561  28.321  22.972  1.00  0.00     0.168 A 
ATOM     89  N   UNL A   1      30.606  28.005  22.111  1.00  0.00    -0.236 NA
ATOM     90  N   UNL A   1      31.055  29.156  23.948  1.00  0.00    -0.273 N 
ATOM     91  C   UNL A   1      29.491  28.698  22.496  1.00  0.00     0.131 A 
ATOM     92  C   UNL A   1      29.744  29.420  23.632  1.00  0.00     0.113 A 
BRANCH  90  93
ATOM     93  C   UNL A   1      31.739  29.712  25.097  1.00  0.00     0.450 C 
ATOM     94  F   UNL A   1      31.117  30.839  25.531  1.00  0.00    -0.185 F 
ATOM     95  F   UNL A   1      31.719  28.833  26.134  1.00  0.00    -0.185 F 
ENDBRANCH  90  93
ENDBRANCH  87  88
ENDBRANCH  84  87
ENDBRANCH  78  80
ENDBRANCH  77  78
ENDBRANCH  76  77
ENDBRANCH  75  76
ENDBRANCH  74  75
ENDBRANCH   1  74
TORSDOF 20
ENDMDL
MODEL 3
REMARK VINA RESULT:     -10.5      1.969      2.736
REMARK SMILES O=C(OCCOCCOCCOC(=O)[C@@H]1CCC[N@@H+](Cc2nccn2C(F)F)C1)c1ccc(-c2c3nc(c(-c4c(F)c(F)c(F)c(F)c4F)c4ccc([nH]4)c(-c4c(F)c(F)c(F)c(F)c4F)c4nc(c(-c5c(F)c(F)c(F)c(F)c5F)c5ccc2[nH]5)C=C4)C=C3)cc1
REMARK SMILES IDX 8 1 7 2 6 3 5 4 4 5 3 6 2 7 1 8 30 9 31 10 92 11 32 12 91 13
REMARK SMILES IDX 33 14 34 15 35 16 85 17 36 18 90 19 84 20 86 21 37 22 89 23
REMARK SMILES IDX 83 24 82 25 38 27 70 28 50 29 69 30 51 31 54 32 68 33 87 34
REMARK SMILES IDX 52 35 53 36 67 38 88 39 55 40 39 41 40 42 48 43 41 44 42 45
REMARK SMILES IDX 46 46 49 47 43 48 44 49 47 50 45 51 71 52 72 53 80 54 73 55
REMARK SMILES IDX 74 56 78 57 81 58 75 59 76 60 79 61 77 62 56 63 57 64 65 65
REMARK SMILES IDX 58 66 59 67 63 68 66 69 60 70 61 71 64 72 62 73 9 74 10 75
REMARK SMILES IDX 11 76 12 77 13 78 14 79 15 80 16 81 29 82 17 83 19 84 18 85
REMARK SMILES IDX 20 87 21 88 22 89 25 90 23 91 24 92 26 93 27 94 28 95
REMARK H PARENT 86 26 54 37 19 86
REMARK Flexibility Score: inf
ROOT
ATOM      1  C   UNL A   1      39.636  20.971  26.155  1.00  0.00     0.188 C 
ENDROOT
BRANCH   1   2
ATOM      2  C   UNL A   1      40.678  19.898  26.459  1.00  0.00     0.188 C 
BRANCH   2   3
ATOM      3  O   UNL A   1      41.441  19.346  25.398  1.00  0.00    -0.376 OA
BRANCH   3   4
ATOM      4  C   UNL A   1      42.848  19.166  25.540  1.00  0.00     0.202 C 
BRANCH   4   5
ATOM      5  C   UNL A   1      43.908  20.285  25.451  1.00  0.00     0.261 C 
BRANCH   5   6
ATOM      6  O   UNL A   1      43.716  21.551  26.089  1.00  0.00    -0.460 OA
BRANCH   6   7
ATOM      7  C   UNL A   1      43.048  22.644  25.674  1.00  0.00     0.338 C 
ATOM      8  O   UNL A   1      43.092  22.973  24.493  1.00  0.00    -0.246 OA
BRANCH   7   9
ATOM      9  C   UNL A   1      42.295  23.512  26.603  1.00  0.00     0.060 A 
ATOM     10  C   UNL A   1      41.274  24.358  26.180  1.00  0.00     0.016 A 
ATOM     11  C   UNL A   1      42.830  23.627  27.903  1.00  0.00     0.016 A 
ATOM     12  C   UNL A   1      40.954  25.449  26.952  1.00  0.00     0.010 A 
ATOM     13  C   UNL A   1      42.508  24.716  28.683  1.00  0.00     0.010 A 
ATOM     14  C   UNL A   1      41.680  25.677  28.120  1.00  0.00    -0.014 A 
BRANCH  14  15
ATOM     15  C   UNL A   1      41.685  27.044  28.599  1.00  0.00     0.031 A 
ATOM     16  C   UNL A   1      42.853  27.845  28.180  1.00  0.00     0.074 A 
ATOM     17  C   UNL A   1      40.688  27.467  29.401  1.00  0.00     0.049 A 
ATOM     18  N   UNL A   1      43.742  28.415  28.927  1.00  0.00    -0.248 NA
ATOM     19  C   UNL A   1      43.139  27.904  26.739  1.00  0.00     0.031 C 
ATOM     20  C   UNL A   1      39.416  26.798  29.708  1.00  0.00     0.029 A 
ATOM     21  N   UNL A   1      40.566  28.652  30.053  1.00  0.00    -0.354 N 
ATOM     22  C   UNL A   1      44.602  29.065  28.047  1.00  0.00     0.074 A 
ATOM     23  C   UNL A   1      44.273  28.603  26.723  1.00  0.00     0.031 C 
ATOM     24  C   UNL A   1      38.567  27.686  30.270  1.00  0.00     0.029 A 
ATOM     25  C   UNL A   1      39.276  28.932  30.479  1.00  0.00     0.049 A 
ATOM     26  H   UNL A   1      41.326  29.259  30.208  1.00  0.00     0.167 HD
ATOM     27  C   UNL A   1      45.357  30.121  28.446  1.00  0.00     0.037 A 
ATOM     28  C   UNL A   1      38.821  30.153  30.850  1.00  0.00     0.037 A 
ATOM     29  C   UNL A   1      45.588  30.112  29.865  1.00  0.00     0.049 A 
ATOM     30  C   UNL A   1      40.009  30.976  31.204  1.00  0.00     0.074 A 
ATOM     31  C   UNL A   1      46.226  29.245  30.731  1.00  0.00     0.029 A 
ATOM     32  N   UNL A   1      44.836  30.939  30.662  1.00  0.00    -0.354 N 
ATOM     33  N   UNL A   1      40.766  30.741  32.241  1.00  0.00    -0.248 NA
ATOM     34  C   UNL A   1      40.629  31.757  30.143  1.00  0.00     0.031 C 
ATOM     35  C   UNL A   1      45.454  29.279  31.930  1.00  0.00     0.029 A 
ATOM     36  C   UNL A   1      44.419  30.194  31.736  1.00  0.00     0.049 A 
ATOM     37  H   UNL A   1      44.633  31.887  30.494  1.00  0.00     0.167 HD
ATOM     38  C   UNL A   1      42.061  30.984  31.802  1.00  0.00     0.074 A 
ATOM     39  C   UNL A   1      41.907  31.674  30.524  1.00  0.00     0.031 C 
ATOM     40  C   UNL A   1      43.131  30.353  32.368  1.00  0.00     0.037 A 
BRANCH  27  41
ATOM     41  C   UNL A   1      45.554  31.344  27.590  1.00  0.00     0.064 A 
ATOM     42  C   UNL A   1      46.850  31.696  27.174  1.00  0.00     0.173 A 
ATOM     43  C   UNL A   1      44.564  32.337  27.420  1.00  0.00     0.173 A 
ATOM     44  F   UNL A   1      47.870  30.837  27.314  1.00  0.00    -0.203 F 
ATOM     45  C   UNL A   1      47.142  32.974  26.688  1.00  0.00     0.198 A 
ATOM     46  C   UNL A   1      44.848  33.590  26.886  1.00  0.00     0.198 A 
ATOM     47  F   UNL A   1      43.312  32.180  27.869  1.00  0.00    -0.203 F 
ATOM     48  F   UNL A   1      48.411  33.309  26.418  1.00  0.00    -0.200 F 
ATOM     49  C   UNL A   1      46.142  33.920  26.550  1.00  0.00     0.200 A 
ATOM     50  F   UNL A   1      43.868  34.498  26.779  1.00  0.00    -0.200 F 
ATOM     51  F   UNL A   1      46.430  35.163  26.144  1.00  0.00    -0.200 F 
ENDBRANCH  27  41
BRANCH  28  52
ATOM     52  C   UNL A   1      37.500  30.727  30.497  1.00  0.00     0.064 A 
ATOM     53  C   UNL A   1      36.592  31.126  31.488  1.00  0.00     0.173 A 
ATOM     54  C   UNL A   1      37.199  31.124  29.177  1.00  0.00     0.173 A 
ATOM     55  F   UNL A   1      36.833  30.841  32.776  1.00  0.00    -0.203 F 
ATOM     56  C   UNL A   1      35.453  31.879  31.177  1.00  0.00     0.198 A 
ATOM     57  C   UNL A   1      36.057  31.862  28.866  1.00  0.00     0.198 A 
ATOM     58  F   UNL A   1      38.051  30.884  28.170  1.00  0.00    -0.203 F 
ATOM     59  F   UNL A   1      34.634  32.287  32.156  1.00  0.00    -0.200 F 
ATOM     60  C   UNL A   1      35.189  32.249  29.867  1.00  0.00     0.200 A 
ATOM     61  F   UNL A   1      35.838  32.245  27.599  1.00  0.00    -0.200 F 
ATOM     62  F   UNL A   1      34.126  33.010  29.577  1.00  0.00    -0.200 F 
ENDBRANCH  28  52
BRANCH  40  63
ATOM     63  C   UNL A   1      42.880  29.543  33.608  1.00  0.00     0.064 A 
ATOM     64  C   UNL A   1      42.489  28.192  33.580  1.00  0.00     0.173 A 
ATOM     65  C   UNL A   1      43.193  30.095  34.856  1.00  0.00     0.173 A 
ATOM     66  F   UNL A   1      42.285  27.562  32.416  1.00  0.00    -0.203 F 
ATOM     67  C   UNL A   1      42.369  27.446  34.751  1.00  0.00     0.198 A 
ATOM     68  C   UNL A   1      43.105  29.338  36.022  1.00  0.00     0.198 A 
ATOM     69  F   UNL A   1      43.639  31.358  34.938  1.00  0.00    -0.203 F 
ATOM     70  F   UNL A   1      41.988  26.161  34.695  1.00  0.00    -0.200 F 
ATOM     71  C   UNL A   1      42.683  28.019  35.971  1.00  0.00     0.200 A 
ATOM     72  F   UNL A   1      43.465  29.879  37.195  1.00  0.00    -0.200 F 
ATOM     73  F   UNL A   1      42.612  27.291  37.095  1.00  0.00    -0.200 F 
ENDBRANCH  40  63
ENDBRANCH  14  15
ENDBRANCH   7   9
ENDBRANCH   6   7
ENDBRANCH   5   6
ENDBRANCH   4   5
ENDBRANCH   3   4
ENDBRANCH   2   3
ENDBRANCH   1   2
BRANCH   1  74
ATOM     74  O   UNL A   1      38.470  20.555  25.455  1.00  0.00    -0.376 OA
BRANCH  74  75
ATOM     75  C   UNL A   1      37.673  21.570  24.862  1.00  0.00     0.202 C 
BRANCH  75  76
ATOM     76  C   UNL A   1      36.368  21.924  25.580  1.00  0.00     0.261 C 
BRANCH  76  77
ATOM     77  O   UNL A   1      35.354  22.461  24.716  1.00  0.00    -0.463 OA
BRANCH  77  78
ATOM     78  C   UNL A   1      34.631  23.487  25.234  1.00  0.00     0.314 C 
ATOM     79  O   UNL A   1      34.946  24.669  25.141  1.00  0.00    -0.252 OA
BRANCH  78  80
ATOM     80  C   UNL A   1      33.325  23.061  25.898  1.00  0.00     0.154 C 
ATOM     81  C   UNL A   1      32.590  22.120  24.945  1.00  0.00     0.027 C 
ATOM     82  C   UNL A   1      32.372  24.166  26.370  1.00  0.00     0.278 C 
ATOM     83  C   UNL A   1      32.026  22.927  23.781  1.00  0.00     0.062 C 
ATOM     84  N   UNL A   1      31.709  24.900  25.279  1.00  0.00    -0.328 N 
ATOM     85  C   UNL A   1      31.083  24.019  24.288  1.00  0.00     0.262 C 
ATOM     86  H   UNL A   1      32.438  25.387  24.756  1.00  0.00     0.348 HD
BRANCH  84  87
ATOM     87  C   UNL A   1      30.800  25.937  25.811  1.00  0.00     0.339 C 
BRANCH  87  88
ATOM     88  C   UNL A   1      30.998  27.321  25.240  1.00  0.00     0.168 A 
ATOM     89  N   UNL A   1      30.711  27.683  23.999  1.00  0.00    -0.236 NA
ATOM     90  N   UNL A   1      31.554  28.384  25.923  1.00  0.00    -0.273 N 
ATOM     91  C   UNL A   1      31.151  28.971  23.859  1.00  0.00     0.131 A 
ATOM     92  C   UNL A   1      31.678  29.428  25.039  1.00  0.00     0.113 A 
BRANCH  90  93
ATOM     93  C   UNL A   1      31.980  28.439  27.305  1.00  0.00     0.450 C 
ATOM     94  F   UNL A   1      32.555  29.638  27.586  1.00  0.00    -0.185 F 
ATOM     95  F   UNL A   1      30.913  28.315  28.138  1.00  0.00    -0.185 F 
ENDBRANCH  90  93
ENDBRANCH  87  88
ENDBRANCH  84  87
ENDBRANCH  78  80
ENDBRANCH  77  78
ENDBRANCH  76  77
ENDBRANCH  75  76
ENDBRANCH  74  75
ENDBRANCH   1  74
TORSDOF 20
ENDMDL
