MODEL 1
REMARK VINA RESULT:     -11.3      0.000      0.000
REMARK SMILES Cn1nc(C(=O)N2C[C@@H](O)C[C@H]2C(=O)OCCOCCOCCOC(=O)c2ccc(-c3c4nc(c(-c5c(F)c(F)c(F)c(F)c5F)c5ccc([nH]5)c(-c5c(F)c(F)c(F)c(F)c5F)c5nc(c(-c6c(F)c(F)c(F)c(F)c6F)c6ccc3[nH]6)C=C5)C=C4)cc2)ccc1=O
REMARK SMILES IDX 19 1 18 2 17 3 16 4 15 5 13 6 14 7 12 8 7 9 8 10 9 11 11 12
REMARK SMILES IDX 5 13 6 14 4 15 1 16 2 17 3 18 92 19 91 20 93 21 90 22 10 23
REMARK SMILES IDX 20 25 21 26 22 27 23 28 24 29 25 30 26 31 27 32 28 33 89 34
REMARK SMILES IDX 29 35 88 36 30 37 31 38 32 39 82 40 33 41 87 42 81 43 83 44
REMARK SMILES IDX 34 45 86 46 80 47 79 48 35 50 67 51 47 52 66 53 48 54 51 55
REMARK SMILES IDX 65 56 84 57 49 58 50 59 64 61 85 62 52 63 36 64 37 65 45 66
REMARK SMILES IDX 38 67 39 68 43 69 46 70 40 71 41 72 44 73 42 74 68 75 69 76
REMARK SMILES IDX 77 77 70 78 71 79 75 80 78 81 72 82 73 83 76 84 74 85 53 86
REMARK SMILES IDX 54 87 62 88 55 89 56 90 60 91 63 92 57 93 58 94 61 95 59 96
REMARK H PARENT 10 24 83 49 51 60
REMARK Flexibility Score: inf
ROOT
ATOM      1  C   UNL A   1      34.122  31.153  27.997  1.00  0.00     0.188 C 
ENDROOT
BRANCH   1   2
ATOM      2  O   UNL A   1      33.855  30.406  26.817  1.00  0.00    -0.376 OA
BRANCH   2   3
ATOM      3  C   UNL A   1      32.600  29.757  26.665  1.00  0.00     0.202 C 
BRANCH   3   4
ATOM      4  C   UNL A   1      32.607  28.224  26.517  1.00  0.00     0.261 C 
BRANCH   4   5
ATOM      5  O   UNL A   1      33.704  27.633  25.767  1.00  0.00    -0.462 OA
BRANCH   5   6
ATOM      6  C   UNL A   1      33.629  27.719  24.411  1.00  0.00     0.329 C 
ATOM      7  O   UNL A   1      34.212  28.579  23.754  1.00  0.00    -0.250 OA
BRANCH   6   8
ATOM      8  C   UNL A   1      32.680  26.695  23.706  1.00  0.00     0.198 C 
ATOM      9  N   UNL A   1      31.399  26.988  23.018  1.00  0.00    -0.321 N 
ATOM     10  C   UNL A   1      31.456  26.679  21.612  1.00  0.00     0.152 C 
ATOM     11  C   UNL A   1      32.619  25.712  21.467  1.00  0.00     0.136 C 
ATOM     12  C   UNL A   1      33.565  26.109  22.590  1.00  0.00     0.071 C 
BRANCH   9  13
ATOM     13  C   UNL A   1      30.154  27.146  23.606  1.00  0.00     0.275 C 
ATOM     14  O   UNL A   1      29.692  26.299  24.362  1.00  0.00    -0.267 OA
BRANCH  13  15
ATOM     15  C   UNL A   1      29.381  28.480  23.497  1.00  0.00     0.149 A 
ATOM     16  C   UNL A   1      29.714  32.022  24.103  1.00  0.00     0.178 C 
ATOM     17  N   UNL A   1      29.117  30.747  23.757  1.00  0.00    -0.232 N 
ATOM     18  N   UNL A   1      29.941  29.619  23.784  1.00  0.00    -0.165 NA
ATOM     19  C   UNL A   1      27.756  30.733  23.454  1.00  0.00     0.266 A 
ATOM     20  C   UNL A   1      27.197  29.429  23.067  1.00  0.00     0.076 A 
ATOM     21  O   UNL A   1      27.016  31.713  23.474  1.00  0.00    -0.268 OA
ATOM     22  C   UNL A   1      27.962  28.338  23.075  1.00  0.00     0.042 A 
ENDBRANCH  13  15
ENDBRANCH   9  13
BRANCH  11  23
ATOM     23  O   UNL A   1      33.257  25.830  20.206  1.00  0.00    -0.391 OA
ATOM     24  H   UNL A   1      34.214  25.721  20.317  1.00  0.00     0.211 HD
ENDBRANCH  11  23
ENDBRANCH   6   8
ENDBRANCH   5   6
ENDBRANCH   4   5
ENDBRANCH   3   4
ENDBRANCH   2   3
ENDBRANCH   1   2
BRANCH   1  25
ATOM     25  C   UNL A   1      34.164  32.678  27.927  1.00  0.00     0.188 C 
BRANCH  25  26
ATOM     26  O   UNL A   1      33.495  33.321  28.990  1.00  0.00    -0.376 OA
BRANCH  26  27
ATOM     27  C   UNL A   1      34.228  34.334  29.653  1.00  0.00     0.202 C 
BRANCH  27  28
ATOM     28  C   UNL A   1      34.441  33.991  31.129  1.00  0.00     0.261 C 
BRANCH  28  29
ATOM     29  O   UNL A   1      34.720  32.597  31.396  1.00  0.00    -0.460 OA
BRANCH  29  30
ATOM     30  C   UNL A   1      35.635  32.314  32.347  1.00  0.00     0.338 C 
ATOM     31  O   UNL A   1      35.542  32.511  33.552  1.00  0.00    -0.246 OA
BRANCH  30  32
ATOM     32  C   UNL A   1      36.713  31.516  31.723  1.00  0.00     0.060 A 
ATOM     33  C   UNL A   1      37.624  30.821  32.536  1.00  0.00     0.016 A 
ATOM     34  C   UNL A   1      36.831  31.465  30.336  1.00  0.00     0.016 A 
ATOM     35  C   UNL A   1      38.664  30.085  31.963  1.00  0.00     0.010 A 
ATOM     36  C   UNL A   1      37.891  30.757  29.763  1.00  0.00     0.010 A 
ATOM     37  C   UNL A   1      38.828  30.089  30.572  1.00  0.00    -0.014 A 
BRANCH  37  38
ATOM     38  C   UNL A   1      40.080  29.574  29.967  1.00  0.00     0.031 A 
ATOM     39  C   UNL A   1      41.229  30.531  29.804  1.00  0.00     0.074 A 
ATOM     40  C   UNL A   1      40.195  28.299  29.556  1.00  0.00     0.049 A 
ATOM     41  N   UNL A   1      42.374  30.359  29.197  1.00  0.00    -0.248 NA
ATOM     42  C   UNL A   1      41.061  31.865  30.406  1.00  0.00     0.031 C 
ATOM     43  C   UNL A   1      39.178  27.264  29.710  1.00  0.00     0.029 A 
ATOM     44  N   UNL A   1      41.225  27.665  28.902  1.00  0.00    -0.354 N 
ATOM     45  C   UNL A   1      43.058  31.559  29.340  1.00  0.00     0.074 A 
ATOM     46  C   UNL A   1      42.196  32.460  30.072  1.00  0.00     0.031 C 
ATOM     47  C   UNL A   1      39.622  26.128  29.141  1.00  0.00     0.029 A 
ATOM     48  C   UNL A   1      40.939  26.369  28.550  1.00  0.00     0.049 A 
ATOM     49  H   UNL A   1      42.086  28.100  28.705  1.00  0.00     0.167 HD
ATOM     50  C   UNL A   1      44.299  31.875  28.905  1.00  0.00     0.037 A 
ATOM     51  C   UNL A   1      41.647  25.493  27.810  1.00  0.00     0.037 A 
ATOM     52  C   UNL A   1      45.155  30.977  28.179  1.00  0.00     0.049 A 
ATOM     53  C   UNL A   1      42.990  25.905  27.255  1.00  0.00     0.074 A 
ATOM     54  C   UNL A   1      46.435  31.206  27.706  1.00  0.00     0.029 A 
ATOM     55  N   UNL A   1      44.818  29.683  27.818  1.00  0.00    -0.354 N 
ATOM     56  N   UNL A   1      43.641  27.033  27.410  1.00  0.00    -0.248 NA
ATOM     57  C   UNL A   1      43.699  24.923  26.419  1.00  0.00     0.031 C 
ATOM     58  C   UNL A   1      46.852  30.071  27.009  1.00  0.00     0.029 A 
ATOM     59  C   UNL A   1      45.858  29.111  27.103  1.00  0.00     0.049 A 
ATOM     60  H   UNL A   1      43.968  29.236  28.037  1.00  0.00     0.167 HD
ATOM     61  C   UNL A   1      44.841  26.885  26.724  1.00  0.00     0.074 A 
ATOM     62  C   UNL A   1      44.838  25.551  26.163  1.00  0.00     0.031 C 
ATOM     63  C   UNL A   1      45.852  27.774  26.568  1.00  0.00     0.037 A 
BRANCH  50  64
ATOM     64  C   UNL A   1      44.821  33.250  29.190  1.00  0.00     0.064 A 
ATOM     65  C   UNL A   1      45.569  33.523  30.343  1.00  0.00     0.173 A 
ATOM     66  C   UNL A   1      44.674  34.273  28.241  1.00  0.00     0.173 A 
ATOM     67  F   UNL A   1      45.725  32.581  31.286  1.00  0.00    -0.203 F 
ATOM     68  C   UNL A   1      46.161  34.768  30.532  1.00  0.00     0.198 A 
ATOM     69  C   UNL A   1      45.288  35.509  28.420  1.00  0.00     0.198 A 
ATOM     70  F   UNL A   1      43.967  34.060  27.120  1.00  0.00    -0.203 F 
ATOM     71  F   UNL A   1      46.864  35.013  31.646  1.00  0.00    -0.200 F 
ATOM     72  C   UNL A   1      46.032  35.755  29.564  1.00  0.00     0.200 A 
ATOM     73  F   UNL A   1      45.177  36.454  27.477  1.00  0.00    -0.200 F 
ATOM     74  F   UNL A   1      46.632  36.941  29.730  1.00  0.00    -0.200 F 
ENDBRANCH  50  64
BRANCH  51  75
ATOM     75  C   UNL A   1      41.101  24.138  27.519  1.00  0.00     0.064 A 
ATOM     76  C   UNL A   1      41.676  22.990  28.083  1.00  0.00     0.173 A 
ATOM     77  C   UNL A   1      40.023  23.958  26.640  1.00  0.00     0.173 A 
ATOM     78  F   UNL A   1      42.730  23.104  28.904  1.00  0.00    -0.203 F 
ATOM     79  C   UNL A   1      41.212  21.716  27.758  1.00  0.00     0.198 A 
ATOM     80  C   UNL A   1      39.537  22.685  26.343  1.00  0.00     0.198 A 
ATOM     81  F   UNL A   1      39.439  25.019  26.064  1.00  0.00    -0.203 F 
ATOM     82  F   UNL A   1      41.822  20.635  28.264  1.00  0.00    -0.200 F 
ATOM     83  C   UNL A   1      40.139  21.565  26.894  1.00  0.00     0.200 A 
ATOM     84  F   UNL A   1      38.494  22.545  25.513  1.00  0.00    -0.200 F 
ATOM     85  F   UNL A   1      39.694  20.340  26.582  1.00  0.00    -0.200 F 
ENDBRANCH  51  75
BRANCH  63  86
ATOM     86  C   UNL A   1      47.063  27.338  25.795  1.00  0.00     0.064 A 
ATOM     87  C   UNL A   1      47.209  27.631  24.431  1.00  0.00     0.173 A 
ATOM     88  C   UNL A   1      48.134  26.707  26.448  1.00  0.00     0.173 A 
ATOM     89  F   UNL A   1      46.213  28.225  23.758  1.00  0.00    -0.203 F 
ATOM     90  C   UNL A   1      48.374  27.293  23.748  1.00  0.00     0.198 A 
ATOM     91  C   UNL A   1      49.311  26.402  25.770  1.00  0.00     0.198 A 
ATOM     92  F   UNL A   1      48.052  26.418  27.756  1.00  0.00    -0.203 F 
ATOM     93  F   UNL A   1      48.478  27.550  22.436  1.00  0.00    -0.200 F 
ATOM     94  C   UNL A   1      49.428  26.691  24.419  1.00  0.00     0.200 A 
ATOM     95  F   UNL A   1      50.335  25.841  26.427  1.00  0.00    -0.200 F 
ATOM     96  F   UNL A   1      50.557  26.388  23.764  1.00  0.00    -0.200 F 
ENDBRANCH  63  86
ENDBRANCH  37  38
ENDBRANCH  30  32
ENDBRANCH  29  30
ENDBRANCH  28  29
ENDBRANCH  27  28
ENDBRANCH  26  27
ENDBRANCH  25  26
ENDBRANCH   1  25
TORSDOF 20
ENDMDL
MODEL 2
REMARK VINA RESULT:     -11.0      4.642      9.300
REMARK SMILES Cn1nc(C(=O)N2C[C@@H](O)C[C@H]2C(=O)OCCOCCOCCOC(=O)c2ccc(-c3c4nc(c(-c5c(F)c(F)c(F)c(F)c5F)c5ccc([nH]5)c(-c5c(F)c(F)c(F)c(F)c5F)c5nc(c(-c6c(F)c(F)c(F)c(F)c6F)c6ccc3[nH]6)C=C5)C=C4)cc2)ccc1=O
REMARK SMILES IDX 19 1 18 2 17 3 16 4 15 5 13 6 14 7 12 8 7 9 8 10 9 11 11 12
REMARK SMILES IDX 5 13 6 14 4 15 1 16 2 17 3 18 92 19 91 20 93 21 90 22 10 23
REMARK SMILES IDX 20 25 21 26 22 27 23 28 24 29 25 30 26 31 27 32 28 33 89 34
REMARK SMILES IDX 29 35 88 36 30 37 31 38 32 39 82 40 33 41 87 42 81 43 83 44
REMARK SMILES IDX 34 45 86 46 80 47 79 48 35 50 67 51 47 52 66 53 48 54 51 55
REMARK SMILES IDX 65 56 84 57 49 58 50 59 64 61 85 62 52 63 36 64 37 65 45 66
REMARK SMILES IDX 38 67 39 68 43 69 46 70 40 71 41 72 44 73 42 74 68 75 69 76
REMARK SMILES IDX 77 77 70 78 71 79 75 80 78 81 72 82 73 83 76 84 74 85 53 86
REMARK SMILES IDX 54 87 62 88 55 89 56 90 60 91 63 92 57 93 58 94 61 95 59 96
REMARK H PARENT 10 24 83 49 51 60
REMARK Flexibility Score: inf
ROOT
ATOM      1  C   UNL A   1      31.711  26.135  26.288  1.00  0.00     0.188 C 
ENDROOT
BRANCH   1   2
ATOM      2  O   UNL A   1      30.432  26.042  25.675  1.00  0.00    -0.376 OA
BRANCH   2   3
ATOM      3  C   UNL A   1      30.311  25.458  24.385  1.00  0.00     0.202 C 
BRANCH   3   4
ATOM      4  C   UNL A   1      31.599  25.288  23.559  1.00  0.00     0.261 C 
BRANCH   4   5
ATOM      5  O   UNL A   1      31.679  24.130  22.683  1.00  0.00    -0.462 OA
BRANCH   5   6
ATOM      6  C   UNL A   1      32.928  23.699  22.358  1.00  0.00     0.329 C 
ATOM      7  O   UNL A   1      33.475  23.951  21.286  1.00  0.00    -0.250 OA
BRANCH   6   8
ATOM      8  C   UNL A   1      33.633  22.775  23.405  1.00  0.00     0.198 C 
ATOM      9  N   UNL A   1      34.063  23.141  24.776  1.00  0.00    -0.321 N 
ATOM     10  C   UNL A   1      33.359  22.388  25.783  1.00  0.00     0.152 C 
ATOM     11  C   UNL A   1      32.818  21.168  25.059  1.00  0.00     0.136 C 
ATOM     12  C   UNL A   1      32.600  21.656  23.636  1.00  0.00     0.071 C 
BRANCH   9  13
ATOM     13  C   UNL A   1      35.234  23.788  25.138  1.00  0.00     0.275 C 
ATOM     14  O   UNL A   1      35.234  24.968  25.471  1.00  0.00    -0.267 OA
BRANCH  13  15
ATOM     15  C   UNL A   1      36.553  23.007  25.332  1.00  0.00     0.149 A 
ATOM     16  C   UNL A   1      38.035  19.755  24.833  1.00  0.00     0.178 C 
ATOM     17  N   UNL A   1      37.880  21.134  25.252  1.00  0.00    -0.232 N 
ATOM     18  N   UNL A   1      36.684  21.778  24.925  1.00  0.00    -0.165 NA
ATOM     19  C   UNL A   1      38.923  21.709  25.977  1.00  0.00     0.266 A 
ATOM     20  C   UNL A   1      38.747  23.122  26.345  1.00  0.00     0.076 A 
ATOM     21  O   UNL A   1      39.957  21.135  26.308  1.00  0.00    -0.268 OA
ATOM     22  C   UNL A   1      37.620  23.763  26.039  1.00  0.00     0.042 A 
ENDBRANCH  13  15
ENDBRANCH   9  13
BRANCH  11  23
ATOM     23  O   UNL A   1      31.603  20.706  25.625  1.00  0.00    -0.391 OA
ATOM     24  H   UNL A   1      31.478  21.111  26.497  1.00  0.00     0.211 HD
ENDBRANCH  11  23
ENDBRANCH   6   8
ENDBRANCH   5   6
ENDBRANCH   4   5
ENDBRANCH   3   4
ENDBRANCH   2   3
ENDBRANCH   1   2
BRANCH   1  25
ATOM     25  C   UNL A   1      32.332  27.509  26.530  1.00  0.00     0.188 C 
BRANCH  25  26
ATOM     26  O   UNL A   1      31.568  28.582  26.022  1.00  0.00    -0.376 OA
BRANCH  26  27
ATOM     27  C   UNL A   1      32.309  29.696  25.560  1.00  0.00     0.202 C 
BRANCH  27  28
ATOM     28  C   UNL A   1      31.825  30.994  26.211  1.00  0.00     0.261 C 
BRANCH  28  29
ATOM     29  O   UNL A   1      32.467  31.323  27.463  1.00  0.00    -0.460 OA
BRANCH  29  30
ATOM     30  C   UNL A   1      33.298  32.387  27.479  1.00  0.00     0.338 C 
ATOM     31  O   UNL A   1      33.009  33.560  27.278  1.00  0.00    -0.246 OA
BRANCH  30  32
ATOM     32  C   UNL A   1      34.608  31.938  27.997  1.00  0.00     0.060 A 
ATOM     33  C   UNL A   1      34.818  30.577  28.278  1.00  0.00     0.016 A 
ATOM     34  C   UNL A   1      35.626  32.863  28.217  1.00  0.00     0.016 A 
ATOM     35  C   UNL A   1      36.041  30.142  28.793  1.00  0.00     0.010 A 
ATOM     36  C   UNL A   1      36.838  32.434  28.765  1.00  0.00     0.010 A 
ATOM     37  C   UNL A   1      37.041  31.078  29.082  1.00  0.00    -0.014 A 
BRANCH  37  38
ATOM     38  C   UNL A   1      38.216  30.687  29.899  1.00  0.00     0.031 A 
ATOM     39  C   UNL A   1      39.208  29.731  29.294  1.00  0.00     0.074 A 
ATOM     40  C   UNL A   1      38.394  31.151  31.148  1.00  0.00     0.049 A 
ATOM     41  N   UNL A   1      40.240  29.148  29.844  1.00  0.00    -0.248 NA
ATOM     42  C   UNL A   1      39.005  29.386  27.877  1.00  0.00     0.031 C 
ATOM     43  C   UNL A   1      37.538  32.122  31.822  1.00  0.00     0.029 A 
ATOM     44  N   UNL A   1      39.356  30.844  32.081  1.00  0.00    -0.354 N 
ATOM     45  C   UNL A   1      40.805  28.366  28.845  1.00  0.00     0.074 A 
ATOM     46  C   UNL A   1      39.992  28.530  27.661  1.00  0.00     0.031 C 
ATOM     47  C   UNL A   1      37.996  32.312  33.073  1.00  0.00     0.029 A 
ATOM     48  C   UNL A   1      39.155  31.448  33.298  1.00  0.00     0.049 A 
ATOM     49  H   UNL A   1      40.117  30.248  31.895  1.00  0.00     0.167 HD
ATOM     50  C   UNL A   1      41.909  27.587  28.912  1.00  0.00     0.037 A 
ATOM     51  C   UNL A   1      39.813  31.293  34.465  1.00  0.00     0.037 A 
ATOM     52  C   UNL A   1      42.716  27.426  30.090  1.00  0.00     0.049 A 
ATOM     53  C   UNL A   1      40.985  30.343  34.535  1.00  0.00     0.074 A 
ATOM     54  C   UNL A   1      43.860  26.665  30.249  1.00  0.00     0.029 A 
ATOM     55  N   UNL A   1      42.463  28.033  31.310  1.00  0.00    -0.354 N 
ATOM     56  N   UNL A   1      41.526  29.622  33.583  1.00  0.00    -0.248 NA
ATOM     57  C   UNL A   1      41.638  30.182  35.845  1.00  0.00     0.031 C 
ATOM     58  C   UNL A   1      44.269  26.765  31.580  1.00  0.00     0.029 A 
ATOM     59  C   UNL A   1      43.417  27.639  32.235  1.00  0.00     0.049 A 
ATOM     60  H   UNL A   1      41.719  28.650  31.493  1.00  0.00     0.167 HD
ATOM     61  C   UNL A   1      42.596  28.952  34.167  1.00  0.00     0.074 A 
ATOM     62  C   UNL A   1      42.639  29.363  35.553  1.00  0.00     0.031 C 
ATOM     63  C   UNL A   1      43.461  28.073  33.607  1.00  0.00     0.037 A 
BRANCH  50  64
ATOM     64  C   UNL A   1      42.320  26.835  27.683  1.00  0.00     0.064 A 
ATOM     65  C   UNL A   1      43.232  27.377  26.767  1.00  0.00     0.173 A 
ATOM     66  C   UNL A   1      41.892  25.514  27.486  1.00  0.00     0.173 A 
ATOM     67  F   UNL A   1      43.658  28.642  26.906  1.00  0.00    -0.203 F 
ATOM     68  C   UNL A   1      43.708  26.619  25.701  1.00  0.00     0.198 A 
ATOM     69  C   UNL A   1      42.390  24.751  26.434  1.00  0.00     0.198 A 
ATOM     70  F   UNL A   1      41.021  24.950  28.336  1.00  0.00    -0.203 F 
ATOM     71  F   UNL A   1      44.572  27.159  24.829  1.00  0.00    -0.200 F 
ATOM     72  C   UNL A   1      43.299  25.303  25.544  1.00  0.00     0.200 A 
ATOM     73  F   UNL A   1      42.007  23.474  26.295  1.00  0.00    -0.200 F 
ATOM     74  F   UNL A   1      43.786  24.563  24.539  1.00  0.00    -0.200 F 
ENDBRANCH  50  64
BRANCH  51  75
ATOM     75  C   UNL A   1      39.374  32.033  35.681  1.00  0.00     0.064 A 
ATOM     76  C   UNL A   1      39.943  33.268  36.021  1.00  0.00     0.173 A 
ATOM     77  C   UNL A   1      38.410  31.501  36.552  1.00  0.00     0.173 A 
ATOM     78  F   UNL A   1      40.892  33.805  35.240  1.00  0.00    -0.203 F 
ATOM     79  C   UNL A   1      39.585  33.930  37.195  1.00  0.00     0.198 A 
ATOM     80  C   UNL A   1      38.028  32.181  37.707  1.00  0.00     0.198 A 
ATOM     81  F   UNL A   1      37.839  30.319  36.282  1.00  0.00    -0.203 F 
ATOM     82  F   UNL A   1      40.192  35.079  37.525  1.00  0.00    -0.200 F 
ATOM     83  C   UNL A   1      38.624  33.389  38.034  1.00  0.00     0.200 A 
ATOM     84  F   UNL A   1      37.092  31.657  38.511  1.00  0.00    -0.200 F 
ATOM     85  F   UNL A   1      38.281  34.025  39.162  1.00  0.00    -0.200 F 
ENDBRANCH  51  75
BRANCH  63  86
ATOM     86  C   UNL A   1      44.559  27.515  34.468  1.00  0.00     0.064 A 
ATOM     87  C   UNL A   1      44.446  26.258  35.078  1.00  0.00     0.173 A 
ATOM     88  C   UNL A   1      45.775  28.203  34.603  1.00  0.00     0.173 A 
ATOM     89  F   UNL A   1      43.303  25.562  34.987  1.00  0.00    -0.203 F 
ATOM     90  C   UNL A   1      45.504  25.718  35.805  1.00  0.00     0.198 A 
ATOM     91  C   UNL A   1      46.843  27.645  35.301  1.00  0.00     0.198 A 
ATOM     92  F   UNL A   1      45.940  29.403  34.026  1.00  0.00    -0.203 F 
ATOM     93  F   UNL A   1      45.362  24.530  36.410  1.00  0.00    -0.200 F 
ATOM     94  C   UNL A   1      46.704  26.406  35.906  1.00  0.00     0.200 A 
ATOM     95  F   UNL A   1      48.008  28.303  35.378  1.00  0.00    -0.200 F 
ATOM     96  F   UNL A   1      47.729  25.874  36.587  1.00  0.00    -0.200 F 
ENDBRANCH  63  86
ENDBRANCH  37  38
ENDBRANCH  30  32
ENDBRANCH  29  30
ENDBRANCH  28  29
ENDBRANCH  27  28
ENDBRANCH  26  27
ENDBRANCH  25  26
ENDBRANCH   1  25
TORSDOF 20
ENDMDL
MODEL 3
REMARK VINA RESULT:     -10.9      4.700      8.081
REMARK SMILES Cn1nc(C(=O)N2C[C@@H](O)C[C@H]2C(=O)OCCOCCOCCOC(=O)c2ccc(-c3c4nc(c(-c5c(F)c(F)c(F)c(F)c5F)c5ccc([nH]5)c(-c5c(F)c(F)c(F)c(F)c5F)c5nc(c(-c6c(F)c(F)c(F)c(F)c6F)c6ccc3[nH]6)C=C5)C=C4)cc2)ccc1=O
REMARK SMILES IDX 19 1 18 2 17 3 16 4 15 5 13 6 14 7 12 8 7 9 8 10 9 11 11 12
REMARK SMILES IDX 5 13 6 14 4 15 1 16 2 17 3 18 92 19 91 20 93 21 90 22 10 23
REMARK SMILES IDX 20 25 21 26 22 27 23 28 24 29 25 30 26 31 27 32 28 33 89 34
REMARK SMILES IDX 29 35 88 36 30 37 31 38 32 39 82 40 33 41 87 42 81 43 83 44
REMARK SMILES IDX 34 45 86 46 80 47 79 48 35 50 67 51 47 52 66 53 48 54 51 55
REMARK SMILES IDX 65 56 84 57 49 58 50 59 64 61 85 62 52 63 36 64 37 65 45 66
REMARK SMILES IDX 38 67 39 68 43 69 46 70 40 71 41 72 44 73 42 74 68 75 69 76
REMARK SMILES IDX 77 77 70 78 71 79 75 80 78 81 72 82 73 83 76 84 74 85 53 86
REMARK SMILES IDX 54 87 62 88 55 89 56 90 60 91 63 92 57 93 58 94 61 95 59 96
REMARK H PARENT 10 24 83 49 51 60
REMARK Flexibility Score: inf
ROOT
ATOM      1  C   UNL A   1      33.233  37.090  30.361  1.00  0.00     0.188 C 
ENDROOT
BRANCH   1   2
ATOM      2  O   UNL A   1      32.425  36.409  31.312  1.00  0.00    -0.376 OA
BRANCH   2   3
ATOM      3  C   UNL A   1      33.041  35.691  32.372  1.00  0.00     0.202 C 
BRANCH   3   4
ATOM      4  C   UNL A   1      34.404  35.034  32.086  1.00  0.00     0.261 C 
BRANCH   4   5
ATOM      5  O   UNL A   1      34.539  33.620  32.398  1.00  0.00    -0.462 OA
BRANCH   5   6
ATOM      6  C   UNL A   1      35.363  33.302  33.433  1.00  0.00     0.329 C 
ATOM      7  O   UNL A   1      35.114  33.575  34.605  1.00  0.00    -0.250 OA
BRANCH   6   8
ATOM      8  C   UNL A   1      36.719  32.622  33.051  1.00  0.00     0.198 C 
ATOM      9  N   UNL A   1      37.904  32.436  33.923  1.00  0.00    -0.321 N 
ATOM     10  C   UNL A   1      38.195  31.044  34.153  1.00  0.00     0.152 C 
ATOM     11  C   UNL A   1      37.498  30.303  33.025  1.00  0.00     0.136 C 
ATOM     12  C   UNL A   1      36.301  31.182  32.697  1.00  0.00     0.071 C 
BRANCH   9  13
ATOM     13  C   UNL A   1      38.894  33.368  34.194  1.00  0.00     0.275 C 
ATOM     14  O   UNL A   1      39.561  33.871  33.296  1.00  0.00    -0.267 OA
BRANCH  13  15
ATOM     15  C   UNL A   1      39.068  33.963  35.609  1.00  0.00     0.149 A 
ATOM     16  C   UNL A   1      38.292  33.333  39.077  1.00  0.00     0.178 C 
ATOM     17  N   UNL A   1      38.768  34.010  37.886  1.00  0.00    -0.232 N 
ATOM     18  N   UNL A   1      38.661  33.329  36.670  1.00  0.00    -0.165 NA
ATOM     19  C   UNL A   1      39.268  35.302  38.035  1.00  0.00     0.266 A 
ATOM     20  C   UNL A   1      39.780  35.938  36.812  1.00  0.00     0.076 A 
ATOM     21  O   UNL A   1      39.322  35.924  39.093  1.00  0.00    -0.268 OA
ATOM     22  C   UNL A   1      39.699  35.309  35.640  1.00  0.00     0.042 A 
ENDBRANCH  13  15
ENDBRANCH   9  13
BRANCH  11  23
ATOM     23  O   UNL A   1      37.078  29.007  33.418  1.00  0.00    -0.391 OA
ATOM     24  H   UNL A   1      37.127  28.408  32.657  1.00  0.00     0.211 HD
ENDBRANCH  11  23
ENDBRANCH   6   8
ENDBRANCH   5   6
ENDBRANCH   4   5
ENDBRANCH   3   4
ENDBRANCH   2   3
ENDBRANCH   1   2
BRANCH   1  25
ATOM     25  C   UNL A   1      33.250  36.614  28.910  1.00  0.00     0.188 C 
BRANCH  25  26
ATOM     26  O   UNL A   1      34.197  35.601  28.648  1.00  0.00    -0.376 OA
BRANCH  26  27
ATOM     27  C   UNL A   1      33.663  34.319  28.372  1.00  0.00     0.202 C 
BRANCH  27  28
ATOM     28  C   UNL A   1      34.608  33.210  28.839  1.00  0.00     0.261 C 
BRANCH  28  29
ATOM     29  O   UNL A   1      35.066  32.321  27.795  1.00  0.00    -0.460 OA
BRANCH  29  30
ATOM     30  C   UNL A   1      34.782  31.008  27.924  1.00  0.00     0.338 C 
ATOM     31  O   UNL A   1      33.716  30.450  27.693  1.00  0.00    -0.246 OA
BRANCH  30  32
ATOM     32  C   UNL A   1      36.046  30.289  28.195  1.00  0.00     0.060 A 
ATOM     33  C   UNL A   1      36.213  29.606  29.411  1.00  0.00     0.016 A 
ATOM     34  C   UNL A   1      37.071  30.301  27.252  1.00  0.00     0.016 A 
ATOM     35  C   UNL A   1      37.411  28.946  29.693  1.00  0.00     0.010 A 
ATOM     36  C   UNL A   1      38.283  29.670  27.549  1.00  0.00     0.010 A 
ATOM     37  C   UNL A   1      38.469  29.015  28.779  1.00  0.00    -0.014 A 
BRANCH  37  38
ATOM     38  C   UNL A   1      39.831  28.587  29.180  1.00  0.00     0.031 A 
ATOM     39  C   UNL A   1      40.639  29.521  30.039  1.00  0.00     0.074 A 
ATOM     40  C   UNL A   1      40.349  27.411  28.783  1.00  0.00     0.049 A 
ATOM     41  N   UNL A   1      41.887  29.433  30.416  1.00  0.00    -0.248 NA
ATOM     42  C   UNL A   1      39.942  30.720  30.538  1.00  0.00     0.031 C 
ATOM     43  C   UNL A   1      39.648  26.398  28.000  1.00  0.00     0.029 A 
ATOM     44  N   UNL A   1      41.603  26.883  28.974  1.00  0.00    -0.354 N 
ATOM     45  C   UNL A   1      42.126  30.561  31.190  1.00  0.00     0.074 A 
ATOM     46  C   UNL A   1      40.903  31.332  31.213  1.00  0.00     0.031 C 
ATOM     47  C   UNL A   1      40.492  25.379  27.752  1.00  0.00     0.029 A 
ATOM     48  C   UNL A   1      41.801  25.687  28.328  1.00  0.00     0.049 A 
ATOM     49  H   UNL A   1      42.294  27.320  29.522  1.00  0.00     0.167 HD
ATOM     50  C   UNL A   1      43.264  30.916  31.828  1.00  0.00     0.037 A 
ATOM     51  C   UNL A   1      42.920  24.947  28.192  1.00  0.00     0.037 A 
ATOM     52  C   UNL A   1      44.478  30.147  31.804  1.00  0.00     0.049 A 
ATOM     53  C   UNL A   1      44.203  25.417  28.837  1.00  0.00     0.074 A 
ATOM     54  C   UNL A   1      45.680  30.423  32.431  1.00  0.00     0.029 A 
ATOM     55  N   UNL A   1      44.647  28.957  31.116  1.00  0.00    -0.354 N 
ATOM     56  N   UNL A   1      44.418  26.473  29.583  1.00  0.00    -0.248 NA
ATOM     57  C   UNL A   1      45.402  24.591  28.619  1.00  0.00     0.031 C 
ATOM     58  C   UNL A   1      46.595  29.430  32.077  1.00  0.00     0.029 A 
ATOM     59  C   UNL A   1      45.945  28.501  31.281  1.00  0.00     0.049 A 
ATOM     60  H   UNL A   1      43.950  28.503  30.588  1.00  0.00     0.167 HD
ATOM     61  C   UNL A   1      45.758  26.422  29.949  1.00  0.00     0.074 A 
ATOM     62  C   UNL A   1      46.307  25.221  29.356  1.00  0.00     0.031 C 
ATOM     63  C   UNL A   1      46.472  27.292  30.703  1.00  0.00     0.037 A 
BRANCH  50  64
ATOM     64  C   UNL A   1      43.269  32.194  32.610  1.00  0.00     0.064 A 
ATOM     65  C   UNL A   1      43.493  33.429  31.986  1.00  0.00     0.173 A 
ATOM     66  C   UNL A   1      42.927  32.193  33.970  1.00  0.00     0.173 A 
ATOM     67  F   UNL A   1      43.837  33.480  30.691  1.00  0.00    -0.203 F 
ATOM     68  C   UNL A   1      43.364  34.620  32.696  1.00  0.00     0.198 A 
ATOM     69  C   UNL A   1      42.775  33.386  34.670  1.00  0.00     0.198 A 
ATOM     70  F   UNL A   1      42.703  31.035  34.611  1.00  0.00    -0.203 F 
ATOM     71  F   UNL A   1      43.592  35.791  32.085  1.00  0.00    -0.200 F 
ATOM     72  C   UNL A   1      42.991  34.598  34.033  1.00  0.00     0.200 A 
ATOM     73  F   UNL A   1      42.397  33.363  35.956  1.00  0.00    -0.200 F 
ATOM     74  F   UNL A   1      42.833  35.746  34.705  1.00  0.00    -0.200 F 
ENDBRANCH  50  64
BRANCH  51  75
ATOM     75  C   UNL A   1      42.900  23.691  27.392  1.00  0.00     0.064 A 
ATOM     76  C   UNL A   1      42.495  22.476  27.963  1.00  0.00     0.173 A 
ATOM     77  C   UNL A   1      43.326  23.669  26.055  1.00  0.00     0.173 A 
ATOM     78  F   UNL A   1      42.111  22.437  29.247  1.00  0.00    -0.203 F 
ATOM     79  C   UNL A   1      42.541  21.286  27.238  1.00  0.00     0.198 A 
ATOM     80  C   UNL A   1      43.338  22.483  25.321  1.00  0.00     0.198 A 
ATOM     81  F   UNL A   1      43.732  24.799  25.459  1.00  0.00    -0.203 F 
ATOM     82  F   UNL A   1      42.208  20.131  27.831  1.00  0.00    -0.200 F 
ATOM     83  C   UNL A   1      42.957  21.292  25.917  1.00  0.00     0.200 A 
ATOM     84  F   UNL A   1      43.733  22.496  24.040  1.00  0.00    -0.200 F 
ATOM     85  F   UNL A   1      43.002  20.148  25.221  1.00  0.00    -0.200 F 
ENDBRANCH  51  75
BRANCH  63  86
ATOM     86  C   UNL A   1      47.915  26.975  30.973  1.00  0.00     0.064 A 
ATOM     87  C   UNL A   1      48.945  27.510  30.186  1.00  0.00     0.173 A 
ATOM     88  C   UNL A   1      48.277  26.206  32.091  1.00  0.00     0.173 A 
ATOM     89  F   UNL A   1      48.654  28.245  29.102  1.00  0.00    -0.203 F 
ATOM     90  C   UNL A   1      50.281  27.274  30.499  1.00  0.00     0.198 A 
ATOM     91  C   UNL A   1      49.614  26.001  32.421  1.00  0.00     0.198 A 
ATOM     92  F   UNL A   1      47.331  25.683  32.886  1.00  0.00    -0.203 F 
ATOM     93  F   UNL A   1      51.248  27.766  29.712  1.00  0.00    -0.200 F 
ATOM     94  C   UNL A   1      50.614  26.531  31.621  1.00  0.00     0.200 A 
ATOM     95  F   UNL A   1      49.932  25.301  33.518  1.00  0.00    -0.200 F 
ATOM     96  F   UNL A   1      51.901  26.325  31.933  1.00  0.00    -0.200 F 
ENDBRANCH  63  86
ENDBRANCH  37  38
ENDBRANCH  30  32
ENDBRANCH  29  30
ENDBRANCH  28  29
ENDBRANCH  27  28
ENDBRANCH  26  27
ENDBRANCH  25  26
ENDBRANCH   1  25
TORSDOF 20
ENDMDL
