MODEL 1
REMARK VINA RESULT:      -9.3      0.000      0.000
REMARK SMILES O=C(COCC[NH+]1CCCC1)OCCOCCOCCOC(=O)c1ccc(-c2c3nc(c(-c4c(F)c(F)c(F)c(F)c4F)c4ccc([nH]4)c(-c4c(F)c(F)c(F)c(F)c4F)c4nc(c(-c5c(F)c(F)c(F)c(F)c5F)c5ccc2[nH]5)C=C4)C=C3)cc1
REMARK SMILES IDX 16 1 15 2 14 3 13 4 12 5 2 6 1 7 3 8 4 9 5 10 6 11 7 12 8 13
REMARK SMILES IDX 11 14 9 16 10 17 17 18 18 19 19 20 20 21 21 22 22 23 23 24
REMARK SMILES IDX 24 25 25 26 86 27 26 28 85 29 27 30 28 31 29 32 79 33 30 34
REMARK SMILES IDX 84 35 78 36 80 37 31 38 83 39 77 40 76 41 32 43 64 44 44 45
REMARK SMILES IDX 63 46 45 47 48 48 62 49 81 50 46 51 47 52 61 54 82 55 49 56
REMARK SMILES IDX 33 57 34 58 42 59 35 60 36 61 40 62 43 63 37 64 38 65 41 66
REMARK SMILES IDX 39 67 65 68 66 69 74 70 67 71 68 72 72 73 75 74 69 75 70 76
REMARK SMILES IDX 73 77 71 78 50 79 51 80 59 81 52 82 53 83 57 84 60 85 54 86
REMARK SMILES IDX 55 87 58 88 56 89
REMARK H PARENT 7 15 80 42 48 53
REMARK Flexibility Score: inf
ROOT
ATOM      1  C   UNL A   1      37.485  23.861  26.132  1.00  0.00     0.188 C 
ENDROOT
BRANCH   1   2
ATOM      2  O   UNL A   1      37.026  23.743  24.797  1.00  0.00    -0.376 OA
BRANCH   2   3
ATOM      3  C   UNL A   1      35.680  23.355  24.607  1.00  0.00     0.202 C 
BRANCH   3   4
ATOM      4  C   UNL A   1      35.429  21.852  24.777  1.00  0.00     0.261 C 
BRANCH   4   5
ATOM      5  O   UNL A   1      34.908  21.465  26.068  1.00  0.00    -0.462 OA
BRANCH   5   6
ATOM      6  C   UNL A   1      33.747  21.930  26.601  1.00  0.00     0.332 C 
ATOM      7  O   UNL A   1      33.679  22.137  27.809  1.00  0.00    -0.250 OA
BRANCH   6   8
ATOM      8  C   UNL A   1      32.540  22.041  25.653  1.00  0.00     0.282 C 
BRANCH   8   9
ATOM      9  O   UNL A   1      31.740  20.907  25.373  1.00  0.00    -0.364 OA
BRANCH   9  10
ATOM     10  C   UNL A   1      32.315  19.917  24.523  1.00  0.00     0.222 C 
BRANCH  10  11
ATOM     11  C   UNL A   1      32.692  18.609  25.244  1.00  0.00     0.291 C 
BRANCH  11  12
ATOM     12  N   UNL A   1      32.350  17.400  24.461  1.00  0.00    -0.333 N 
ATOM     13  C   UNL A   1      32.954  16.191  25.038  1.00  0.00     0.262 C 
ATOM     14  C   UNL A   1      32.914  17.470  23.097  1.00  0.00     0.262 C 
ATOM     15  H   UNL A   1      31.331  17.358  24.464  1.00  0.00     0.348 HD
ATOM     16  C   UNL A   1      34.382  16.182  24.534  1.00  0.00     0.067 C 
ATOM     17  C   UNL A   1      34.273  16.770  23.139  1.00  0.00     0.067 C 
ENDBRANCH  11  12
ENDBRANCH  10  11
ENDBRANCH   9  10
ENDBRANCH   8   9
ENDBRANCH   6   8
ENDBRANCH   5   6
ENDBRANCH   4   5
ENDBRANCH   3   4
ENDBRANCH   2   3
ENDBRANCH   1   2
BRANCH   1  18
ATOM     18  C   UNL A   1      38.931  23.362  26.320  1.00  0.00     0.188 C 
BRANCH  18  19
ATOM     19  O   UNL A   1      39.195  21.976  26.501  1.00  0.00    -0.376 OA
BRANCH  19  20
ATOM     20  C   UNL A   1      38.932  21.058  25.447  1.00  0.00     0.202 C 
BRANCH  20  21
ATOM     21  C   UNL A   1      39.499  19.636  25.545  1.00  0.00     0.261 C 
BRANCH  21  22
ATOM     22  O   UNL A   1      40.483  19.440  26.579  1.00  0.00    -0.460 OA
BRANCH  22  23
ATOM     23  C   UNL A   1      41.767  19.421  26.150  1.00  0.00     0.338 C 
ATOM     24  O   UNL A   1      42.294  18.596  25.423  1.00  0.00    -0.246 OA
BRANCH  23  25
ATOM     25  C   UNL A   1      42.496  20.626  26.593  1.00  0.00     0.060 A 
ATOM     26  C   UNL A   1      42.361  21.017  27.931  1.00  0.00     0.016 A 
ATOM     27  C   UNL A   1      43.154  21.453  25.680  1.00  0.00     0.016 A 
ATOM     28  C   UNL A   1      42.838  22.260  28.348  1.00  0.00     0.010 A 
ATOM     29  C   UNL A   1      43.621  22.709  26.099  1.00  0.00     0.010 A 
ATOM     30  C   UNL A   1      43.427  23.136  27.425  1.00  0.00    -0.014 A 
BRANCH  30  31
ATOM     31  C   UNL A   1      43.689  24.543  27.827  1.00  0.00     0.031 A 
ATOM     32  C   UNL A   1      45.107  25.049  27.859  1.00  0.00     0.074 A 
ATOM     33  C   UNL A   1      42.679  25.384  28.109  1.00  0.00     0.049 A 
ATOM     34  N   UNL A   1      45.555  26.248  28.141  1.00  0.00    -0.248 NA
ATOM     35  C   UNL A   1      46.159  24.073  27.540  1.00  0.00     0.031 C 
ATOM     36  C   UNL A   1      41.266  25.022  28.120  1.00  0.00     0.029 A 
ATOM     37  N   UNL A   1      42.688  26.720  28.433  1.00  0.00    -0.354 N 
ATOM     38  C   UNL A   1      46.938  26.168  28.039  1.00  0.00     0.074 A 
ATOM     39  C   UNL A   1      47.258  24.800  27.691  1.00  0.00     0.031 C 
ATOM     40  C   UNL A   1      40.540  26.113  28.415  1.00  0.00     0.029 A 
ATOM     41  C   UNL A   1      41.436  27.248  28.628  1.00  0.00     0.049 A 
ATOM     42  H   UNL A   1      43.514  27.247  28.517  1.00  0.00     0.167 HD
ATOM     43  C   UNL A   1      47.859  27.146  28.219  1.00  0.00     0.037 A 
ATOM     44  C   UNL A   1      41.056  28.503  28.942  1.00  0.00     0.037 A 
ATOM     45  C   UNL A   1      47.551  28.508  28.570  1.00  0.00     0.049 A 
ATOM     46  C   UNL A   1      42.104  29.571  29.136  1.00  0.00     0.074 A 
ATOM     47  C   UNL A   1      48.423  29.563  28.781  1.00  0.00     0.029 A 
ATOM     48  N   UNL A   1      46.271  29.004  28.762  1.00  0.00    -0.354 N 
ATOM     49  N   UNL A   1      43.406  29.486  29.018  1.00  0.00    -0.248 NA
ATOM     50  C   UNL A   1      41.622  30.909  29.513  1.00  0.00     0.031 C 
ATOM     51  C   UNL A   1      47.672  30.689  29.136  1.00  0.00     0.029 A 
ATOM     52  C   UNL A   1      46.331  30.346  29.103  1.00  0.00     0.049 A 
ATOM     53  H   UNL A   1      45.442  28.481  28.670  1.00  0.00     0.167 HD
ATOM     54  C   UNL A   1      43.897  30.755  29.299  1.00  0.00     0.074 A 
ATOM     55  C   UNL A   1      42.752  31.601  29.555  1.00  0.00     0.031 C 
ATOM     56  C   UNL A   1      45.184  31.178  29.358  1.00  0.00     0.037 A 
BRANCH  43  57
ATOM     57  C   UNL A   1      49.302  26.773  28.056  1.00  0.00     0.064 A 
ATOM     58  C   UNL A   1      49.920  26.766  26.797  1.00  0.00     0.173 A 
ATOM     59  C   UNL A   1      50.089  26.470  29.178  1.00  0.00     0.173 A 
ATOM     60  F   UNL A   1      49.205  27.036  25.695  1.00  0.00    -0.203 F 
ATOM     61  C   UNL A   1      51.270  26.455  26.665  1.00  0.00     0.198 A 
ATOM     62  C   UNL A   1      51.444  26.183  29.045  1.00  0.00     0.198 A 
ATOM     63  F   UNL A   1      49.544  26.468  30.404  1.00  0.00    -0.203 F 
ATOM     64  F   UNL A   1      51.833  26.422  25.450  1.00  0.00    -0.200 F 
ATOM     65  C   UNL A   1      52.033  26.171  27.789  1.00  0.00     0.200 A 
ATOM     66  F   UNL A   1      52.182  25.921  30.132  1.00  0.00    -0.200 F 
ATOM     67  F   UNL A   1      53.336  25.883  27.662  1.00  0.00    -0.200 F 
ENDBRANCH  43  57
BRANCH  44  68
ATOM     68  C   UNL A   1      39.615  28.835  29.093  1.00  0.00     0.064 A 
ATOM     69  C   UNL A   1      38.867  29.312  28.007  1.00  0.00     0.173 A 
ATOM     70  C   UNL A   1      38.966  28.725  30.331  1.00  0.00     0.173 A 
ATOM     71  F   UNL A   1      39.449  29.461  26.808  1.00  0.00    -0.203 F 
ATOM     72  C   UNL A   1      37.534  29.691  28.159  1.00  0.00     0.198 A 
ATOM     73  C   UNL A   1      37.625  29.074  30.476  1.00  0.00     0.198 A 
ATOM     74  F   UNL A   1      39.636  28.274  31.402  1.00  0.00    -0.203 F 
ATOM     75  F   UNL A   1      36.860  30.198  27.118  1.00  0.00    -0.200 F 
ATOM     76  C   UNL A   1      36.913  29.567  29.393  1.00  0.00     0.200 A 
ATOM     77  F   UNL A   1      37.025  28.939  31.666  1.00  0.00    -0.200 F 
ATOM     78  F   UNL A   1      35.633  29.932  29.540  1.00  0.00    -0.200 F 
ENDBRANCH  44  68
BRANCH  56  79
ATOM     79  C   UNL A   1      45.418  32.620  29.708  1.00  0.00     0.064 A 
ATOM     80  C   UNL A   1      45.585  33.033  31.039  1.00  0.00     0.173 A 
ATOM     81  C   UNL A   1      45.497  33.597  28.703  1.00  0.00     0.173 A 
ATOM     82  F   UNL A   1      45.504  32.141  32.037  1.00  0.00    -0.203 F 
ATOM     83  C   UNL A   1      45.789  34.374  31.353  1.00  0.00     0.198 A 
ATOM     84  C   UNL A   1      45.729  34.932  29.018  1.00  0.00     0.198 A 
ATOM     85  F   UNL A   1      45.351  33.254  27.414  1.00  0.00    -0.203 F 
ATOM     86  F   UNL A   1      45.892  34.752  32.635  1.00  0.00    -0.200 F 
ATOM     87  C   UNL A   1      45.865  35.322  30.343  1.00  0.00     0.200 A 
ATOM     88  F   UNL A   1      45.814  35.846  28.041  1.00  0.00    -0.200 F 
ATOM     89  F   UNL A   1      46.060  36.612  30.646  1.00  0.00    -0.200 F 
ENDBRANCH  56  79
ENDBRANCH  30  31
ENDBRANCH  23  25
ENDBRANCH  22  23
ENDBRANCH  21  22
ENDBRANCH  20  21
ENDBRANCH  19  20
ENDBRANCH  18  19
ENDBRANCH   1  18
TORSDOF 21
ENDMDL
MODEL 2
REMARK VINA RESULT:      -9.3      1.329      7.416
REMARK SMILES O=C(COCC[NH+]1CCCC1)OCCOCCOCCOC(=O)c1ccc(-c2c3nc(c(-c4c(F)c(F)c(F)c(F)c4F)c4ccc([nH]4)c(-c4c(F)c(F)c(F)c(F)c4F)c4nc(c(-c5c(F)c(F)c(F)c(F)c5F)c5ccc2[nH]5)C=C4)C=C3)cc1
REMARK SMILES IDX 16 1 15 2 14 3 13 4 12 5 2 6 1 7 3 8 4 9 5 10 6 11 7 12 8 13
REMARK SMILES IDX 11 14 9 16 10 17 17 18 18 19 19 20 20 21 21 22 22 23 23 24
REMARK SMILES IDX 24 25 25 26 86 27 26 28 85 29 27 30 28 31 29 32 79 33 30 34
REMARK SMILES IDX 84 35 78 36 80 37 31 38 83 39 77 40 76 41 32 43 64 44 44 45
REMARK SMILES IDX 63 46 45 47 48 48 62 49 81 50 46 51 47 52 61 54 82 55 49 56
REMARK SMILES IDX 33 57 34 58 42 59 35 60 36 61 40 62 43 63 37 64 38 65 41 66
REMARK SMILES IDX 39 67 65 68 66 69 74 70 67 71 68 72 72 73 75 74 69 75 70 76
REMARK SMILES IDX 73 77 71 78 50 79 51 80 59 81 52 82 53 83 57 84 60 85 54 86
REMARK SMILES IDX 55 87 58 88 56 89
REMARK H PARENT 7 15 80 42 48 53
REMARK Flexibility Score: inf
ROOT
ATOM      1  C   UNL A   1      36.772  23.709  25.365  1.00  0.00     0.188 C 
ENDROOT
BRANCH   1   2
ATOM      2  O   UNL A   1      35.512  23.757  26.011  1.00  0.00    -0.376 OA
BRANCH   2   3
ATOM      3  C   UNL A   1      34.881  22.523  26.292  1.00  0.00     0.202 C 
BRANCH   3   4
ATOM      4  C   UNL A   1      34.098  22.504  27.610  1.00  0.00     0.261 C 
BRANCH   4   5
ATOM      5  O   UNL A   1      32.709  22.126  27.487  1.00  0.00    -0.462 OA
BRANCH   5   6
ATOM      6  C   UNL A   1      31.785  22.813  26.763  1.00  0.00     0.332 C 
ATOM      7  O   UNL A   1      31.260  23.810  27.250  1.00  0.00    -0.250 OA
BRANCH   6   8
ATOM      8  C   UNL A   1      31.363  22.205  25.414  1.00  0.00     0.282 C 
BRANCH   8   9
ATOM      9  O   UNL A   1      32.338  21.842  24.454  1.00  0.00    -0.364 OA
BRANCH   9  10
ATOM     10  C   UNL A   1      32.218  20.538  23.888  1.00  0.00     0.222 C 
BRANCH  10  11
ATOM     11  C   UNL A   1      32.785  19.412  24.771  1.00  0.00     0.291 C 
BRANCH  11  12
ATOM     12  N   UNL A   1      32.292  18.071  24.384  1.00  0.00    -0.333 N 
ATOM     13  C   UNL A   1      32.877  17.014  25.220  1.00  0.00     0.262 C 
ATOM     14  C   UNL A   1      32.716  17.723  23.012  1.00  0.00     0.262 C 
ATOM     15  H   UNL A   1      31.277  18.119  24.481  1.00  0.00     0.348 HD
ATOM     16  C   UNL A   1      34.243  16.746  24.623  1.00  0.00     0.067 C 
ATOM     17  C   UNL A   1      34.028  16.945  23.133  1.00  0.00     0.067 C 
ENDBRANCH  11  12
ENDBRANCH  10  11
ENDBRANCH   9  10
ENDBRANCH   8   9
ENDBRANCH   6   8
ENDBRANCH   5   6
ENDBRANCH   4   5
ENDBRANCH   3   4
ENDBRANCH   2   3
ENDBRANCH   1   2
BRANCH   1  18
ATOM     18  C   UNL A   1      37.071  22.341  24.724  1.00  0.00     0.188 C 
BRANCH  18  19
ATOM     19  O   UNL A   1      38.017  21.460  25.318  1.00  0.00    -0.376 OA
BRANCH  19  20
ATOM     20  C   UNL A   1      37.999  20.074  24.996  1.00  0.00     0.202 C 
BRANCH  20  21
ATOM     21  C   UNL A   1      39.201  19.207  25.391  1.00  0.00     0.261 C 
BRANCH  21  22
ATOM     22  O   UNL A   1      40.115  19.816  26.324  1.00  0.00    -0.460 OA
BRANCH  22  23
ATOM     23  C   UNL A   1      41.418  19.497  26.141  1.00  0.00     0.338 C 
ATOM     24  O   UNL A   1      41.873  18.435  25.752  1.00  0.00    -0.246 OA
BRANCH  23  25
ATOM     25  C   UNL A   1      42.291  20.664  26.374  1.00  0.00     0.060 A 
ATOM     26  C   UNL A   1      42.258  21.263  27.639  1.00  0.00     0.016 A 
ATOM     27  C   UNL A   1      42.995  21.265  25.328  1.00  0.00     0.016 A 
ATOM     28  C   UNL A   1      42.884  22.493  27.848  1.00  0.00     0.010 A 
ATOM     29  C   UNL A   1      43.613  22.508  25.536  1.00  0.00     0.010 A 
ATOM     30  C   UNL A   1      43.524  23.148  26.786  1.00  0.00    -0.014 A 
BRANCH  30  31
ATOM     31  C   UNL A   1      43.955  24.560  26.960  1.00  0.00     0.031 A 
ATOM     32  C   UNL A   1      42.979  25.568  27.507  1.00  0.00     0.074 A 
ATOM     33  C   UNL A   1      45.216  24.940  26.689  1.00  0.00     0.049 A 
ATOM     34  N   UNL A   1      43.158  26.838  27.775  1.00  0.00    -0.248 NA
ATOM     35  C   UNL A   1      41.618  25.081  27.779  1.00  0.00     0.031 C 
ATOM     36  C   UNL A   1      46.255  24.068  26.152  1.00  0.00     0.029 A 
ATOM     37  N   UNL A   1      45.837  26.156  26.837  1.00  0.00    -0.354 N 
ATOM     38  C   UNL A   1      41.934  27.302  28.240  1.00  0.00     0.074 A 
ATOM     39  C   UNL A   1      41.014  26.185  28.198  1.00  0.00     0.031 C 
ATOM     40  C   UNL A   1      47.394  24.772  26.033  1.00  0.00     0.029 A 
ATOM     41  C   UNL A   1      47.161  26.147  26.472  1.00  0.00     0.049 A 
ATOM     42  H   UNL A   1      45.377  26.958  27.173  1.00  0.00     0.167 HD
ATOM     43  C   UNL A   1      41.606  28.546  28.665  1.00  0.00     0.037 A 
ATOM     44  C   UNL A   1      48.080  27.133  26.490  1.00  0.00     0.037 A 
ATOM     45  C   UNL A   1      42.511  29.665  28.705  1.00  0.00     0.049 A 
ATOM     46  C   UNL A   1      47.685  28.508  26.968  1.00  0.00     0.074 A 
ATOM     47  C   UNL A   1      42.261  30.965  29.112  1.00  0.00     0.029 A 
ATOM     48  N   UNL A   1      43.843  29.617  28.324  1.00  0.00    -0.354 N 
ATOM     49  N   UNL A   1      46.531  28.928  27.422  1.00  0.00    -0.248 NA
ATOM     50  C   UNL A   1      48.727  29.547  26.926  1.00  0.00     0.031 C 
ATOM     51  C   UNL A   1      43.432  31.712  28.943  1.00  0.00     0.029 A 
ATOM     52  C   UNL A   1      44.423  30.867  28.474  1.00  0.00     0.049 A 
ATOM     53  H   UNL A   1      44.309  28.814  27.996  1.00  0.00     0.167 HD
ATOM     54  C   UNL A   1      46.707  30.273  27.726  1.00  0.00     0.074 A 
ATOM     55  C   UNL A   1      48.090  30.589  27.442  1.00  0.00     0.031 C 
ATOM     56  C   UNL A   1      45.800  31.171  28.184  1.00  0.00     0.037 A 
BRANCH  43  57
ATOM     57  C   UNL A   1      40.192  28.774  29.106  1.00  0.00     0.064 A 
ATOM     58  C   UNL A   1      39.188  29.132  28.194  1.00  0.00     0.173 A 
ATOM     59  C   UNL A   1      39.825  28.581  30.447  1.00  0.00     0.173 A 
ATOM     60  F   UNL A   1      39.492  29.340  26.905  1.00  0.00    -0.203 F 
ATOM     61  C   UNL A   1      37.871  29.303  28.611  1.00  0.00     0.198 A 
ATOM     62  C   UNL A   1      38.503  28.730  30.856  1.00  0.00     0.198 A 
ATOM     63  F   UNL A   1      40.748  28.235  31.356  1.00  0.00    -0.203 F 
ATOM     64  F   UNL A   1      36.933  29.677  27.730  1.00  0.00    -0.200 F 
ATOM     65  C   UNL A   1      37.528  29.095  29.940  1.00  0.00     0.200 A 
ATOM     66  F   UNL A   1      38.171  28.517  32.137  1.00  0.00    -0.200 F 
ATOM     67  F   UNL A   1      36.257  29.249  30.338  1.00  0.00    -0.200 F 
ENDBRANCH  43  57
BRANCH  44  68
ATOM     68  C   UNL A   1      49.474  26.869  26.046  1.00  0.00     0.064 A 
ATOM     69  C   UNL A   1      49.846  27.030  24.703  1.00  0.00     0.173 A 
ATOM     70  C   UNL A   1      50.451  26.410  26.941  1.00  0.00     0.173 A 
ATOM     71  F   UNL A   1      48.940  27.441  23.803  1.00  0.00    -0.203 F 
ATOM     72  C   UNL A   1      51.132  26.717  24.268  1.00  0.00     0.198 A 
ATOM     73  C   UNL A   1      51.746  26.128  26.511  1.00  0.00     0.198 A 
ATOM     74  F   UNL A   1      50.147  26.239  28.236  1.00  0.00    -0.203 F 
ATOM     75  F   UNL A   1      51.443  26.825  22.969  1.00  0.00    -0.200 F 
ATOM     76  C   UNL A   1      52.082  26.270  25.174  1.00  0.00     0.200 A 
ATOM     77  F   UNL A   1      52.665  25.710  27.392  1.00  0.00    -0.200 F 
ATOM     78  F   UNL A   1      53.319  25.969  24.756  1.00  0.00    -0.200 F 
ENDBRANCH  44  68
BRANCH  56  79
ATOM     79  C   UNL A   1      46.278  32.577  28.408  1.00  0.00     0.064 A 
ATOM     80  C   UNL A   1      46.815  32.980  29.641  1.00  0.00     0.173 A 
ATOM     81  C   UNL A   1      46.218  33.527  27.377  1.00  0.00     0.173 A 
ATOM     82  F   UNL A   1      46.881  32.114  30.663  1.00  0.00    -0.203 F 
ATOM     83  C   UNL A   1      47.243  34.290  29.842  1.00  0.00     0.198 A 
ATOM     84  C   UNL A   1      46.673  34.827  27.573  1.00  0.00     0.198 A 
ATOM     85  F   UNL A   1      45.720  33.192  26.177  1.00  0.00    -0.203 F 
ATOM     86  F   UNL A   1      47.703  34.665  31.044  1.00  0.00    -0.200 F 
ATOM     87  C   UNL A   1      47.177  35.211  28.807  1.00  0.00     0.200 A 
ATOM     88  F   UNL A   1      46.618  35.714  26.569  1.00  0.00    -0.200 F 
ATOM     89  F   UNL A   1      47.588  36.471  29.003  1.00  0.00    -0.200 F 
ENDBRANCH  56  79
ENDBRANCH  30  31
ENDBRANCH  23  25
ENDBRANCH  22  23
ENDBRANCH  21  22
ENDBRANCH  20  21
ENDBRANCH  19  20
ENDBRANCH  18  19
ENDBRANCH   1  18
TORSDOF 21
ENDMDL
MODEL 3
REMARK VINA RESULT:      -9.2      5.276     11.192
REMARK SMILES O=C(COCC[NH+]1CCCC1)OCCOCCOCCOC(=O)c1ccc(-c2c3nc(c(-c4c(F)c(F)c(F)c(F)c4F)c4ccc([nH]4)c(-c4c(F)c(F)c(F)c(F)c4F)c4nc(c(-c5c(F)c(F)c(F)c(F)c5F)c5ccc2[nH]5)C=C4)C=C3)cc1
REMARK SMILES IDX 16 1 15 2 14 3 13 4 12 5 2 6 1 7 3 8 4 9 5 10 6 11 7 12 8 13
REMARK SMILES IDX 11 14 9 16 10 17 17 18 18 19 19 20 20 21 21 22 22 23 23 24
REMARK SMILES IDX 24 25 25 26 86 27 26 28 85 29 27 30 28 31 29 32 79 33 30 34
REMARK SMILES IDX 84 35 78 36 80 37 31 38 83 39 77 40 76 41 32 43 64 44 44 45
REMARK SMILES IDX 63 46 45 47 48 48 62 49 81 50 46 51 47 52 61 54 82 55 49 56
REMARK SMILES IDX 33 57 34 58 42 59 35 60 36 61 40 62 43 63 37 64 38 65 41 66
REMARK SMILES IDX 39 67 65 68 66 69 74 70 67 71 68 72 72 73 75 74 69 75 70 76
REMARK SMILES IDX 73 77 71 78 50 79 51 80 59 81 52 82 53 83 57 84 60 85 54 86
REMARK SMILES IDX 55 87 58 88 56 89
REMARK H PARENT 7 15 80 42 48 53
REMARK Flexibility Score: inf
ROOT
ATOM      1  C   UNL A   1      33.522  36.255  30.260  1.00  0.00     0.188 C 
ENDROOT
BRANCH   1   2
ATOM      2  O   UNL A   1      32.933  37.337  30.960  1.00  0.00    -0.376 OA
BRANCH   2   3
ATOM      3  C   UNL A   1      33.552  37.742  32.165  1.00  0.00     0.202 C 
BRANCH   3   4
ATOM      4  C   UNL A   1      33.748  36.613  33.183  1.00  0.00     0.261 C 
BRANCH   4   5
ATOM      5  O   UNL A   1      35.106  36.139  33.313  1.00  0.00    -0.462 OA
BRANCH   5   6
ATOM      6  C   UNL A   1      35.485  34.840  33.177  1.00  0.00     0.332 C 
ATOM      7  O   UNL A   1      36.027  34.477  32.137  1.00  0.00    -0.250 OA
BRANCH   6   8
ATOM      8  C   UNL A   1      35.080  33.874  34.304  1.00  0.00     0.282 C 
BRANCH   8   9
ATOM      9  O   UNL A   1      35.838  33.806  35.498  1.00  0.00    -0.364 OA
BRANCH   9  10
ATOM     10  C   UNL A   1      37.202  33.411  35.363  1.00  0.00     0.222 C 
BRANCH  10  11
ATOM     11  C   UNL A   1      37.398  32.051  34.668  1.00  0.00     0.291 C 
BRANCH  11  12
ATOM     12  N   UNL A   1      38.066  32.167  33.353  1.00  0.00    -0.333 N 
ATOM     13  C   UNL A   1      38.907  30.997  33.065  1.00  0.00     0.262 C 
ATOM     14  C   UNL A   1      39.011  33.303  33.333  1.00  0.00     0.262 C 
ATOM     15  H   UNL A   1      37.311  32.272  32.675  1.00  0.00     0.348 HD
ATOM     16  C   UNL A   1      40.203  31.246  33.808  1.00  0.00     0.067 C 
ATOM     17  C   UNL A   1      40.384  32.751  33.716  1.00  0.00     0.067 C 
ENDBRANCH  11  12
ENDBRANCH  10  11
ENDBRANCH   9  10
ENDBRANCH   8   9
ENDBRANCH   6   8
ENDBRANCH   5   6
ENDBRANCH   4   5
ENDBRANCH   3   4
ENDBRANCH   2   3
ENDBRANCH   1   2
BRANCH   1  18
ATOM     18  C   UNL A   1      32.899  36.025  28.870  1.00  0.00     0.188 C 
BRANCH  18  19
ATOM     19  O   UNL A   1      32.554  34.711  28.446  1.00  0.00    -0.376 OA
BRANCH  19  20
ATOM     20  C   UNL A   1      33.571  33.810  28.024  1.00  0.00     0.202 C 
BRANCH  20  21
ATOM     21  C   UNL A   1      34.178  32.845  29.051  1.00  0.00     0.261 C 
BRANCH  21  22
ATOM     22  O   UNL A   1      35.344  32.128  28.602  1.00  0.00    -0.460 OA
BRANCH  22  23
ATOM     23  C   UNL A   1      35.119  30.845  28.233  1.00  0.00     0.338 C 
ATOM     24  O   UNL A   1      34.069  30.355  27.855  1.00  0.00    -0.246 OA
BRANCH  23  25
ATOM     25  C   UNL A   1      36.371  30.062  28.233  1.00  0.00     0.060 A 
ATOM     26  C   UNL A   1      36.785  29.491  29.443  1.00  0.00     0.016 A 
ATOM     27  C   UNL A   1      37.211  30.035  27.117  1.00  0.00     0.016 A 
ATOM     28  C   UNL A   1      38.061  28.937  29.555  1.00  0.00     0.010 A 
ATOM     29  C   UNL A   1      38.499  29.490  27.236  1.00  0.00     0.010 A 
ATOM     30  C   UNL A   1      38.945  28.977  28.467  1.00  0.00    -0.014 A 
BRANCH  30  31
ATOM     31  C   UNL A   1      40.373  28.622  28.681  1.00  0.00     0.031 A 
ATOM     32  C   UNL A   1      41.262  29.567  29.447  1.00  0.00     0.074 A 
ATOM     33  C   UNL A   1      40.869  27.449  28.251  1.00  0.00     0.049 A 
ATOM     34  N   UNL A   1      42.522  29.435  29.781  1.00  0.00    -0.248 NA
ATOM     35  C   UNL A   1      40.652  30.830  29.886  1.00  0.00     0.031 C 
ATOM     36  C   UNL A   1      40.120  26.451  27.496  1.00  0.00     0.029 A 
ATOM     37  N   UNL A   1      42.119  26.897  28.395  1.00  0.00    -0.354 N 
ATOM     38  C   UNL A   1      42.856  30.599  30.462  1.00  0.00     0.074 A 
ATOM     39  C   UNL A   1      41.674  31.434  30.476  1.00  0.00     0.031 C 
ATOM     40  C   UNL A   1      40.919  25.396  27.258  1.00  0.00     0.029 A 
ATOM     41  C   UNL A   1      42.239  25.651  27.831  1.00  0.00     0.049 A 
ATOM     42  H   UNL A   1      42.858  27.352  28.857  1.00  0.00     0.167 HD
ATOM     43  C   UNL A   1      44.040  30.941  31.026  1.00  0.00     0.037 A 
ATOM     44  C   UNL A   1      43.293  24.811  27.785  1.00  0.00     0.037 A 
ATOM     45  C   UNL A   1      45.222  30.119  31.013  1.00  0.00     0.049 A 
ATOM     46  C   UNL A   1      44.598  25.218  28.421  1.00  0.00     0.074 A 
ATOM     47  C   UNL A   1      46.468  30.391  31.552  1.00  0.00     0.029 A 
ATOM     48  N   UNL A   1      45.305  28.864  30.430  1.00  0.00    -0.354 N 
ATOM     49  N   UNL A   1      44.894  26.312  29.078  1.00  0.00    -0.248 NA
ATOM     50  C   UNL A   1      45.716  24.270  28.301  1.00  0.00     0.031 C 
ATOM     51  C   UNL A   1      47.316  29.315  31.264  1.00  0.00     0.029 A 
ATOM     52  C   UNL A   1      46.585  28.355  30.585  1.00  0.00     0.049 A 
ATOM     53  H   UNL A   1      44.565  28.402  29.974  1.00  0.00     0.167 HD
ATOM     54  C   UNL A   1      46.226  26.183  29.454  1.00  0.00     0.074 A 
ATOM     55  C   UNL A   1      46.669  24.887  28.986  1.00  0.00     0.031 C 
ATOM     56  C   UNL A   1      47.017  27.066  30.112  1.00  0.00     0.037 A 
BRANCH  43  57
ATOM     57  C   UNL A   1      44.124  32.279  31.695  1.00  0.00     0.064 A 
ATOM     58  C   UNL A   1      43.918  32.424  33.075  1.00  0.00     0.173 A 
ATOM     59  C   UNL A   1      44.467  33.423  30.957  1.00  0.00     0.173 A 
ATOM     60  F   UNL A   1      43.576  31.362  33.819  1.00  0.00    -0.203 F 
ATOM     61  C   UNL A   1      44.038  33.667  33.689  1.00  0.00     0.198 A 
ATOM     62  C   UNL A   1      44.609  34.660  31.579  1.00  0.00     0.198 A 
ATOM     63  F   UNL A   1      44.678  33.335  29.635  1.00  0.00    -0.203 F 
ATOM     64  F   UNL A   1      43.804  33.788  35.003  1.00  0.00    -0.200 F 
ATOM     65  C   UNL A   1      44.390  34.782  32.943  1.00  0.00     0.200 A 
ATOM     66  F   UNL A   1      44.961  35.733  30.859  1.00  0.00    -0.200 F 
ATOM     67  F   UNL A   1      44.516  35.977  33.538  1.00  0.00    -0.200 F 
ENDBRANCH  43  57
BRANCH  44  68
ATOM     68  C   UNL A   1      43.170  23.490  27.113  1.00  0.00     0.064 A 
ATOM     69  C   UNL A   1      42.506  22.423  27.736  1.00  0.00     0.173 A 
ATOM     70  C   UNL A   1      43.748  23.252  25.858  1.00  0.00     0.173 A 
ATOM     71  F   UNL A   1      41.959  22.592  28.949  1.00  0.00    -0.203 F 
ATOM     72  C   UNL A   1      42.449  21.163  27.142  1.00  0.00     0.198 A 
ATOM     73  C   UNL A   1      43.663  22.001  25.250  1.00  0.00     0.198 A 
ATOM     74  F   UNL A   1      44.395  24.239  25.219  1.00  0.00    -0.203 F 
ATOM     75  F   UNL A   1      41.858  20.147  27.786  1.00  0.00    -0.200 F 
ATOM     76  C   UNL A   1      43.023  20.955  25.898  1.00  0.00     0.200 A 
ATOM     77  F   UNL A   1      44.207  21.808  24.042  1.00  0.00    -0.200 F 
ATOM     78  F   UNL A   1      42.969  19.744  25.326  1.00  0.00    -0.200 F 
ENDBRANCH  44  68
BRANCH  56  79
ATOM     79  C   UNL A   1      48.439  26.656  30.368  1.00  0.00     0.064 A 
ATOM     80  C   UNL A   1      49.472  27.006  29.485  1.00  0.00     0.173 A 
ATOM     81  C   UNL A   1      48.777  25.924  31.517  1.00  0.00     0.173 A 
ATOM     82  F   UNL A   1      49.198  27.693  28.366  1.00  0.00    -0.203 F 
ATOM     83  C   UNL A   1      50.785  26.611  29.726  1.00  0.00     0.198 A 
ATOM     84  C   UNL A   1      50.095  25.554  31.768  1.00  0.00     0.198 A 
ATOM     85  F   UNL A   1      47.828  25.569  32.397  1.00  0.00    -0.203 F 
ATOM     86  F   UNL A   1      51.746  26.911  28.841  1.00  0.00    -0.200 F 
ATOM     87  C   UNL A   1      51.097  25.890  30.868  1.00  0.00     0.200 A 
ATOM     88  F   UNL A   1      50.397  24.867  32.878  1.00  0.00    -0.200 F 
ATOM     89  F   UNL A   1      52.361  25.508  31.098  1.00  0.00    -0.200 F 
ENDBRANCH  56  79
ENDBRANCH  30  31
ENDBRANCH  23  25
ENDBRANCH  22  23
ENDBRANCH  21  22
ENDBRANCH  20  21
ENDBRANCH  19  20
ENDBRANCH  18  19
ENDBRANCH   1  18
TORSDOF 21
ENDMDL
