MODEL 1
REMARK VINA RESULT:     -10.6      0.000      0.000
REMARK SMILES CC[C@H](C)c1ccccc1Oc1cccc(F)c1C(=O)OCCOCCOCCOC(=O)c1ccc(-c2c3nc(c(-c4c(F)c(F)c(F)c(F)c4F)c4ccc([nH]4)c(-c4c(F)c(F)c(F)c(F)c4F)c4nc(c(-c5c(F)c(F)c(F)c(F)c5F)c5ccc2[nH]5)C=C4)C=C3)cc1
REMARK SMILES IDX 25 1 24 2 23 3 22 4 21 5 19 6 20 7 18 8 12 9 13 10 14 11
REMARK SMILES IDX 16 12 15 13 17 14 11 15 10 16 5 17 6 18 7 19 9 20 8 21 3 22
REMARK SMILES IDX 4 23 2 24 1 25 26 26 27 27 28 28 29 29 30 30 31 31 32 32
REMARK SMILES IDX 33 33 34 34 95 35 35 36 94 37 36 38 37 39 38 40 88 41 39 42
REMARK SMILES IDX 93 43 87 44 89 45 40 46 92 47 86 48 85 49 41 51 73 52 53 53
REMARK SMILES IDX 72 54 54 55 57 56 71 57 90 58 55 59 56 60 70 62 91 63 58 64
REMARK SMILES IDX 42 65 43 66 51 67 44 68 45 69 49 70 52 71 46 72 47 73 50 74
REMARK SMILES IDX 48 75 74 76 75 77 83 78 76 79 77 80 81 81 84 82 78 83 79 84
REMARK SMILES IDX 82 85 80 86 59 87 60 88 68 89 61 90 62 91 66 92 69 93 63 94
REMARK SMILES IDX 64 95 67 96 65 97
REMARK H PARENT 89 50 57 61
REMARK Flexibility Score: inf
ROOT
ATOM      1  C   UNL A   1      36.003  32.909  28.382  1.00  0.00     0.188 C 
ENDROOT
BRANCH   1   2
ATOM      2  O   UNL A   1      35.221  32.146  27.481  1.00  0.00    -0.376 OA
BRANCH   2   3
ATOM      3  C   UNL A   1      34.826  30.872  27.951  1.00  0.00     0.202 C 
BRANCH   3   4
ATOM      4  C   UNL A   1      33.631  30.220  27.275  1.00  0.00     0.261 C 
BRANCH   4   5
ATOM      5  O   UNL A   1      33.503  28.768  27.447  1.00  0.00    -0.459 OA
BRANCH   5   6
ATOM      6  C   UNL A   1      32.290  28.202  27.154  1.00  0.00     0.345 C 
ATOM      7  O   UNL A   1      31.403  28.049  27.987  1.00  0.00    -0.246 OA
BRANCH   6   8
ATOM      8  C   UNL A   1      32.081  27.724  25.744  1.00  0.00     0.138 A 
ATOM      9  C   UNL A   1      32.338  26.412  25.232  1.00  0.00     0.144 A 
ATOM     10  C   UNL A   1      31.886  26.090  23.942  1.00  0.00     0.048 A 
ATOM     11  C   UNL A   1      31.135  27.021  23.194  1.00  0.00     0.007 A 
ATOM     12  C   UNL A   1      31.347  28.629  24.961  1.00  0.00     0.141 A 
ATOM     13  C   UNL A   1      30.861  28.287  23.708  1.00  0.00     0.040 A 
ATOM     14  F   UNL A   1      31.089  29.871  25.404  1.00  0.00    -0.206 F 
BRANCH   9  15
ATOM     15  O   UNL A   1      33.138  25.581  25.981  1.00  0.00    -0.456 OA
BRANCH  15  16
ATOM     16  C   UNL A   1      33.052  24.190  26.251  1.00  0.00     0.130 A 
ATOM     17  C   UNL A   1      33.849  23.126  25.665  1.00  0.00    -0.002 A 
ATOM     18  C   UNL A   1      33.163  21.945  25.279  1.00  0.00     0.008 A 
ATOM     19  C   UNL A   1      31.780  21.812  25.376  1.00  0.00     0.001 A 
ATOM     20  C   UNL A   1      31.678  23.934  26.501  1.00  0.00     0.047 A 
ATOM     21  C   UNL A   1      31.042  22.789  26.019  1.00  0.00     0.004 A 
BRANCH  17  22
ATOM     22  C   UNL A   1      35.339  23.165  25.205  1.00  0.00     0.019 C 
ATOM     23  C   UNL A   1      36.207  21.855  25.085  1.00  0.00     0.013 C 
BRANCH  22  24
ATOM     24  C   UNL A   1      35.378  23.635  23.781  1.00  0.00     0.005 C 
ATOM     25  C   UNL A   1      36.589  22.952  23.174  1.00  0.00     0.004 C 
ENDBRANCH  22  24
ENDBRANCH  17  22
ENDBRANCH  15  16
ENDBRANCH   9  15
ENDBRANCH   6   8
ENDBRANCH   5   6
ENDBRANCH   4   5
ENDBRANCH   3   4
ENDBRANCH   2   3
ENDBRANCH   1   2
BRANCH   1  26
ATOM     26  C   UNL A   1      35.285  34.033  29.178  1.00  0.00     0.188 C 
BRANCH  26  27
ATOM     27  O   UNL A   1      33.946  33.851  29.581  1.00  0.00    -0.376 OA
BRANCH  27  28
ATOM     28  C   UNL A   1      33.013  34.864  29.242  1.00  0.00     0.202 C 
BRANCH  28  29
ATOM     29  C   UNL A   1      33.218  36.352  29.621  1.00  0.00     0.261 C 
BRANCH  29  30
ATOM     30  O   UNL A   1      33.189  36.701  31.023  1.00  0.00    -0.460 OA
BRANCH  30  31
ATOM     31  C   UNL A   1      32.694  35.757  31.887  1.00  0.00     0.338 C 
ATOM     32  O   UNL A   1      31.549  35.403  31.990  1.00  0.00    -0.246 OA
BRANCH  31  33
ATOM     33  C   UNL A   1      33.846  34.986  32.469  1.00  0.00     0.060 A 
ATOM     34  C   UNL A   1      35.118  35.596  32.521  1.00  0.00     0.016 A 
ATOM     35  C   UNL A   1      33.660  33.742  33.068  1.00  0.00     0.016 A 
ATOM     36  C   UNL A   1      36.200  34.957  33.143  1.00  0.00     0.010 A 
ATOM     37  C   UNL A   1      34.753  33.081  33.648  1.00  0.00     0.010 A 
ATOM     38  C   UNL A   1      36.037  33.665  33.653  1.00  0.00    -0.014 A 
BRANCH  38  39
ATOM     39  C   UNL A   1      37.228  32.795  33.868  1.00  0.00     0.031 A 
ATOM     40  C   UNL A   1      38.013  33.025  35.136  1.00  0.00     0.074 A 
ATOM     41  C   UNL A   1      37.630  31.840  33.008  1.00  0.00     0.049 A 
ATOM     42  N   UNL A   1      39.157  32.521  35.524  1.00  0.00    -0.248 NA
ATOM     43  C   UNL A   1      37.422  33.975  36.095  1.00  0.00     0.031 C 
ATOM     44  C   UNL A   1      36.943  31.450  31.781  1.00  0.00     0.029 A 
ATOM     45  N   UNL A   1      38.747  31.034  33.040  1.00  0.00    -0.354 N 
ATOM     46  C   UNL A   1      39.428  33.110  36.752  1.00  0.00     0.074 A 
ATOM     47  C   UNL A   1      38.349  34.028  37.035  1.00  0.00     0.031 C 
ATOM     48  C   UNL A   1      37.668  30.500  31.160  1.00  0.00     0.029 A 
ATOM     49  C   UNL A   1      38.887  30.239  31.927  1.00  0.00     0.049 A 
ATOM     50  H   UNL A   1      39.384  31.027  33.791  1.00  0.00     0.167 HD
ATOM     51  C   UNL A   1      40.479  32.904  37.579  1.00  0.00     0.037 A 
ATOM     52  C   UNL A   1      39.899  29.423  31.560  1.00  0.00     0.037 A 
ATOM     53  C   UNL A   1      41.555  31.990  37.309  1.00  0.00     0.049 A 
ATOM     54  C   UNL A   1      41.107  29.271  32.458  1.00  0.00     0.074 A 
ATOM     55  C   UNL A   1      42.655  31.700  38.097  1.00  0.00     0.029 A 
ATOM     56  N   UNL A   1      41.671  31.225  36.159  1.00  0.00    -0.354 N 
ATOM     57  N   UNL A   1      41.352  29.816  33.626  1.00  0.00    -0.248 NA
ATOM     58  C   UNL A   1      42.183  28.383  31.985  1.00  0.00     0.031 C 
ATOM     59  C   UNL A   1      43.470  30.807  37.395  1.00  0.00     0.029 A 
ATOM     60  C   UNL A   1      42.842  30.485  36.203  1.00  0.00     0.049 A 
ATOM     61  H   UNL A   1      41.019  31.210  35.422  1.00  0.00     0.167 HD
ATOM     62  C   UNL A   1      42.582  29.311  34.039  1.00  0.00     0.074 A 
ATOM     63  C   UNL A   1      43.031  28.408  33.003  1.00  0.00     0.031 C 
ATOM     64  C   UNL A   1      43.274  29.573  35.175  1.00  0.00     0.037 A 
BRANCH  51  65
ATOM     65  C   UNL A   1      40.535  33.715  38.839  1.00  0.00     0.064 A 
ATOM     66  C   UNL A   1      39.842  33.333  39.998  1.00  0.00     0.173 A 
ATOM     67  C   UNL A   1      41.313  34.881  38.894  1.00  0.00     0.173 A 
ATOM     68  F   UNL A   1      39.067  32.238  39.993  1.00  0.00    -0.203 F 
ATOM     69  C   UNL A   1      39.906  34.103  41.157  1.00  0.00     0.198 A 
ATOM     70  C   UNL A   1      41.403  35.629  40.064  1.00  0.00     0.198 A 
ATOM     71  F   UNL A   1      41.996  35.291  37.814  1.00  0.00    -0.203 F 
ATOM     72  F   UNL A   1      39.193  33.749  42.235  1.00  0.00    -0.200 F 
ATOM     73  C   UNL A   1      40.694  35.245  41.192  1.00  0.00     0.200 A 
ATOM     74  F   UNL A   1      42.176  36.723  40.100  1.00  0.00    -0.200 F 
ATOM     75  F   UNL A   1      40.763  35.979  42.310  1.00  0.00    -0.200 F 
ENDBRANCH  51  65
BRANCH  52  76
ATOM     76  C   UNL A   1      39.843  28.694  30.261  1.00  0.00     0.064 A 
ATOM     77  C   UNL A   1      39.286  27.409  30.172  1.00  0.00     0.173 A 
ATOM     78  C   UNL A   1      40.397  29.240  29.094  1.00  0.00     0.173 A 
ATOM     79  F   UNL A   1      38.779  26.822  31.267  1.00  0.00    -0.203 F 
ATOM     80  C   UNL A   1      39.303  26.695  28.975  1.00  0.00     0.198 A 
ATOM     81  C   UNL A   1      40.384  28.539  27.890  1.00  0.00     0.198 A 
ATOM     82  F   UNL A   1      40.961  30.457  29.125  1.00  0.00    -0.203 F 
ATOM     83  F   UNL A   1      38.820  25.445  28.936  1.00  0.00    -0.200 F 
ATOM     84  C   UNL A   1      39.846  27.263  27.833  1.00  0.00     0.200 A 
ATOM     85  F   UNL A   1      40.907  29.093  26.787  1.00  0.00    -0.200 F 
ATOM     86  F   UNL A   1      39.865  26.574  26.684  1.00  0.00    -0.200 F 
ENDBRANCH  52  76
BRANCH  64  87
ATOM     87  C   UNL A   1      44.566  28.835  35.399  1.00  0.00     0.064 A 
ATOM     88  C   UNL A   1      44.613  27.608  36.079  1.00  0.00     0.173 A 
ATOM     89  C   UNL A   1      45.767  29.337  34.872  1.00  0.00     0.173 A 
ATOM     90  F   UNL A   1      43.498  27.086  36.610  1.00  0.00    -0.203 F 
ATOM     91  C   UNL A   1      45.818  26.928  36.247  1.00  0.00     0.198 A 
ATOM     92  C   UNL A   1      46.962  28.637  35.012  1.00  0.00     0.198 A 
ATOM     93  F   UNL A   1      45.778  30.499  34.202  1.00  0.00    -0.203 F 
ATOM     94  F   UNL A   1      45.848  25.783  36.943  1.00  0.00    -0.200 F 
ATOM     95  C   UNL A   1      46.989  27.438  35.707  1.00  0.00     0.200 A 
ATOM     96  F   UNL A   1      48.088  29.123  34.470  1.00  0.00    -0.200 F 
ATOM     97  F   UNL A   1      48.144  26.777  35.860  1.00  0.00    -0.200 F 
ENDBRANCH  64  87
ENDBRANCH  38  39
ENDBRANCH  31  33
ENDBRANCH  30  31
ENDBRANCH  29  30
ENDBRANCH  28  29
ENDBRANCH  27  28
ENDBRANCH  26  27
ENDBRANCH   1  26
TORSDOF 21
ENDMDL
MODEL 2
REMARK VINA RESULT:     -10.6      0.899      2.058
REMARK SMILES CC[C@H](C)c1ccccc1Oc1cccc(F)c1C(=O)OCCOCCOCCOC(=O)c1ccc(-c2c3nc(c(-c4c(F)c(F)c(F)c(F)c4F)c4ccc([nH]4)c(-c4c(F)c(F)c(F)c(F)c4F)c4nc(c(-c5c(F)c(F)c(F)c(F)c5F)c5ccc2[nH]5)C=C4)C=C3)cc1
REMARK SMILES IDX 25 1 24 2 23 3 22 4 21 5 19 6 20 7 18 8 12 9 13 10 14 11
REMARK SMILES IDX 16 12 15 13 17 14 11 15 10 16 5 17 6 18 7 19 9 20 8 21 3 22
REMARK SMILES IDX 4 23 2 24 1 25 26 26 27 27 28 28 29 29 30 30 31 31 32 32
REMARK SMILES IDX 33 33 34 34 95 35 35 36 94 37 36 38 37 39 38 40 88 41 39 42
REMARK SMILES IDX 93 43 87 44 89 45 40 46 92 47 86 48 85 49 41 51 73 52 53 53
REMARK SMILES IDX 72 54 54 55 57 56 71 57 90 58 55 59 56 60 70 62 91 63 58 64
REMARK SMILES IDX 42 65 43 66 51 67 44 68 45 69 49 70 52 71 46 72 47 73 50 74
REMARK SMILES IDX 48 75 74 76 75 77 83 78 76 79 77 80 81 81 84 82 78 83 79 84
REMARK SMILES IDX 82 85 80 86 59 87 60 88 68 89 61 90 62 91 66 92 69 93 63 94
REMARK SMILES IDX 64 95 67 96 65 97
REMARK H PARENT 89 50 57 61
REMARK Flexibility Score: inf
ROOT
ATOM      1  C   UNL A   1      34.344  31.458  27.895  1.00  0.00     0.188 C 
ENDROOT
BRANCH   1   2
ATOM      2  O   UNL A   1      35.121  30.368  28.357  1.00  0.00    -0.376 OA
BRANCH   2   3
ATOM      3  C   UNL A   1      35.305  29.318  27.427  1.00  0.00     0.202 C 
BRANCH   3   4
ATOM      4  C   UNL A   1      34.057  28.644  26.882  1.00  0.00     0.261 C 
BRANCH   4   5
ATOM      5  O   UNL A   1      34.244  27.797  25.698  1.00  0.00    -0.459 OA
BRANCH   5   6
ATOM      6  C   UNL A   1      33.328  26.800  25.483  1.00  0.00     0.345 C 
ATOM      7  O   UNL A   1      32.828  26.143  26.390  1.00  0.00    -0.246 OA
BRANCH   6   8
ATOM      8  C   UNL A   1      32.967  26.499  24.055  1.00  0.00     0.138 A 
ATOM      9  C   UNL A   1      33.421  25.394  23.267  1.00  0.00     0.144 A 
ATOM     10  C   UNL A   1      32.815  25.159  22.021  1.00  0.00     0.048 A 
ATOM     11  C   UNL A   1      31.736  25.958  21.589  1.00  0.00     0.007 A 
ATOM     12  C   UNL A   1      31.903  27.283  23.582  1.00  0.00     0.141 A 
ATOM     13  C   UNL A   1      31.277  27.014  22.373  1.00  0.00     0.040 A 
ATOM     14  F   UNL A   1      31.452  28.332  24.290  1.00  0.00    -0.206 F 
BRANCH   9  15
ATOM     15  O   UNL A   1      34.524  24.704  23.711  1.00  0.00    -0.456 OA
BRANCH  15  16
ATOM     16  C   UNL A   1      34.842  23.321  23.676  1.00  0.00     0.130 A 
ATOM     17  C   UNL A   1      34.201  22.247  24.417  1.00  0.00    -0.002 A 
ATOM     18  C   UNL A   1      35.050  21.273  25.004  1.00  0.00     0.008 A 
ATOM     19  C   UNL A   1      36.439  21.355  24.951  1.00  0.00     0.001 A 
ATOM     20  C   UNL A   1      36.249  23.258  23.493  1.00  0.00     0.047 A 
ATOM     21  C   UNL A   1      37.039  22.325  24.168  1.00  0.00     0.004 A 
BRANCH  17  22
ATOM     22  C   UNL A   1      32.706  22.114  24.841  1.00  0.00     0.019 C 
ATOM     23  C   UNL A   1      32.012  20.709  25.009  1.00  0.00     0.013 C 
BRANCH  22  24
ATOM     24  C   UNL A   1      32.565  22.644  26.237  1.00  0.00     0.005 C 
ATOM     25  C   UNL A   1      31.077  22.872  26.424  1.00  0.00     0.004 C 
ENDBRANCH  22  24
ENDBRANCH  17  22
ENDBRANCH  15  16
ENDBRANCH   9  15
ENDBRANCH   6   8
ENDBRANCH   5   6
ENDBRANCH   4   5
ENDBRANCH   3   4
ENDBRANCH   2   3
ENDBRANCH   1   2
BRANCH   1  26
ATOM     26  C   UNL A   1      34.638  32.856  28.504  1.00  0.00     0.188 C 
BRANCH  26  27
ATOM     27  O   UNL A   1      34.429  34.011  27.723  1.00  0.00    -0.376 OA
BRANCH  27  28
ATOM     28  C   UNL A   1      34.402  35.261  28.393  1.00  0.00     0.202 C 
BRANCH  28  29
ATOM     29  C   UNL A   1      33.092  35.903  28.917  1.00  0.00     0.261 C 
BRANCH  29  30
ATOM     30  O   UNL A   1      32.506  35.352  30.117  1.00  0.00    -0.460 OA
BRANCH  30  31
ATOM     31  C   UNL A   1      32.889  35.913  31.309  1.00  0.00     0.338 C 
ATOM     32  O   UNL A   1      32.324  36.791  31.907  1.00  0.00    -0.246 OA
BRANCH  31  33
ATOM     33  C   UNL A   1      33.948  35.046  31.931  1.00  0.00     0.060 A 
ATOM     34  C   UNL A   1      35.100  35.658  32.472  1.00  0.00     0.016 A 
ATOM     35  C   UNL A   1      33.760  33.675  32.096  1.00  0.00     0.016 A 
ATOM     36  C   UNL A   1      36.067  34.902  33.149  1.00  0.00     0.010 A 
ATOM     37  C   UNL A   1      34.751  32.912  32.731  1.00  0.00     0.010 A 
ATOM     38  C   UNL A   1      35.929  33.513  33.224  1.00  0.00    -0.014 A 
BRANCH  38  39
ATOM     39  C   UNL A   1      37.122  32.659  33.489  1.00  0.00     0.031 A 
ATOM     40  C   UNL A   1      37.866  32.918  34.775  1.00  0.00     0.074 A 
ATOM     41  C   UNL A   1      37.559  31.696  32.656  1.00  0.00     0.049 A 
ATOM     42  N   UNL A   1      39.003  32.433  35.204  1.00  0.00    -0.248 NA
ATOM     43  C   UNL A   1      37.237  33.877  35.701  1.00  0.00     0.031 C 
ATOM     44  C   UNL A   1      36.912  31.278  31.417  1.00  0.00     0.029 A 
ATOM     45  N   UNL A   1      38.682  30.902  32.735  1.00  0.00    -0.354 N 
ATOM     46  C   UNL A   1      39.232  33.044  36.431  1.00  0.00     0.074 A 
ATOM     47  C   UNL A   1      38.135  33.955  36.667  1.00  0.00     0.031 C 
ATOM     48  C   UNL A   1      37.666  30.326  30.832  1.00  0.00     0.029 A 
ATOM     49  C   UNL A   1      38.864  30.091  31.640  1.00  0.00     0.049 A 
ATOM     50  H   UNL A   1      39.297  30.914  33.503  1.00  0.00     0.167 HD
ATOM     51  C   UNL A   1      40.260  32.864  37.291  1.00  0.00     0.037 A 
ATOM     52  C   UNL A   1      39.894  29.280  31.315  1.00  0.00     0.037 A 
ATOM     53  C   UNL A   1      41.353  31.957  37.068  1.00  0.00     0.049 A 
ATOM     54  C   UNL A   1      41.077  29.156  32.251  1.00  0.00     0.074 A 
ATOM     55  C   UNL A   1      42.432  31.692  37.892  1.00  0.00     0.029 A 
ATOM     56  N   UNL A   1      41.511  31.175  35.935  1.00  0.00    -0.354 N 
ATOM     57  N   UNL A   1      41.282  29.723  33.417  1.00  0.00    -0.248 NA
ATOM     58  C   UNL A   1      42.176  28.273  31.824  1.00  0.00     0.031 C 
ATOM     59  C   UNL A   1      43.277  30.797  37.229  1.00  0.00     0.029 A 
ATOM     60  C   UNL A   1      42.688  30.449  36.025  1.00  0.00     0.049 A 
ATOM     61  H   UNL A   1      40.881  31.141  35.179  1.00  0.00     0.167 HD
ATOM     62  C   UNL A   1      42.504  29.238  33.873  1.00  0.00     0.074 A 
ATOM     63  C   UNL A   1      42.993  28.323  32.866  1.00  0.00     0.031 C 
ATOM     64  C   UNL A   1      43.160  29.525  35.025  1.00  0.00     0.037 A 
BRANCH  51  65
ATOM     65  C   UNL A   1      40.270  33.695  38.539  1.00  0.00     0.064 A 
ATOM     66  C   UNL A   1      39.523  33.340  39.673  1.00  0.00     0.173 A 
ATOM     67  C   UNL A   1      41.059  34.853  38.609  1.00  0.00     0.173 A 
ATOM     68  F   UNL A   1      38.737  32.254  39.651  1.00  0.00    -0.203 F 
ATOM     69  C   UNL A   1      39.545  34.129  40.820  1.00  0.00     0.198 A 
ATOM     70  C   UNL A   1      41.107  35.620  39.769  1.00  0.00     0.198 A 
ATOM     71  F   UNL A   1      41.793  35.237  37.553  1.00  0.00    -0.203 F 
ATOM     72  F   UNL A   1      38.782  33.801  41.871  1.00  0.00    -0.200 F 
ATOM     73  C   UNL A   1      40.344  35.263  40.871  1.00  0.00     0.200 A 
ATOM     74  F   UNL A   1      41.890  36.706  39.821  1.00  0.00    -0.200 F 
ATOM     75  F   UNL A   1      40.373  36.014  41.979  1.00  0.00    -0.200 F 
ENDBRANCH  51  65
BRANCH  52  76
ATOM     76  C   UNL A   1      39.884  28.530  30.027  1.00  0.00     0.064 A 
ATOM     77  C   UNL A   1      39.319  27.249  29.937  1.00  0.00     0.173 A 
ATOM     78  C   UNL A   1      40.491  29.052  28.876  1.00  0.00     0.173 A 
ATOM     79  F   UNL A   1      38.762  26.685  31.020  1.00  0.00    -0.203 F 
ATOM     80  C   UNL A   1      39.378  26.515  28.753  1.00  0.00     0.198 A 
ATOM     81  C   UNL A   1      40.520  28.330  27.683  1.00  0.00     0.198 A 
ATOM     82  F   UNL A   1      41.065  30.263  28.909  1.00  0.00    -0.203 F 
ATOM     83  F   UNL A   1      38.884  25.269  28.715  1.00  0.00    -0.200 F 
ATOM     84  C   UNL A   1      39.972  27.058  27.626  1.00  0.00     0.200 A 
ATOM     85  F   UNL A   1      41.094  28.861  26.594  1.00  0.00    -0.200 F 
ATOM     86  F   UNL A   1      40.032  26.350  26.489  1.00  0.00    -0.200 F 
ENDBRANCH  52  76
BRANCH  64  87
ATOM     87  C   UNL A   1      44.452  28.805  35.299  1.00  0.00     0.064 A 
ATOM     88  C   UNL A   1      45.695  29.340  34.930  1.00  0.00     0.173 A 
ATOM     89  C   UNL A   1      44.447  27.585  35.996  1.00  0.00     0.173 A 
ATOM     90  F   UNL A   1      45.758  30.498  34.255  1.00  0.00    -0.203 F 
ATOM     91  C   UNL A   1      46.880  28.669  35.222  1.00  0.00     0.198 A 
ATOM     92  C   UNL A   1      45.635  26.935  36.317  1.00  0.00     0.198 A 
ATOM     93  F   UNL A   1      43.288  27.033  36.386  1.00  0.00    -0.203 F 
ATOM     94  F   UNL A   1      48.053  29.175  34.816  1.00  0.00    -0.200 F 
ATOM     95  C   UNL A   1      46.850  27.472  35.922  1.00  0.00     0.200 A 
ATOM     96  F   UNL A   1      45.604  25.789  37.013  1.00  0.00    -0.200 F 
ATOM     97  F   UNL A   1      47.992  26.834  36.212  1.00  0.00    -0.200 F 
ENDBRANCH  64  87
ENDBRANCH  38  39
ENDBRANCH  31  33
ENDBRANCH  30  31
ENDBRANCH  29  30
ENDBRANCH  28  29
ENDBRANCH  27  28
ENDBRANCH  26  27
ENDBRANCH   1  26
TORSDOF 21
ENDMDL
MODEL 3
REMARK VINA RESULT:     -10.5      6.181     10.764
REMARK SMILES CC[C@H](C)c1ccccc1Oc1cccc(F)c1C(=O)OCCOCCOCCOC(=O)c1ccc(-c2c3nc(c(-c4c(F)c(F)c(F)c(F)c4F)c4ccc([nH]4)c(-c4c(F)c(F)c(F)c(F)c4F)c4nc(c(-c5c(F)c(F)c(F)c(F)c5F)c5ccc2[nH]5)C=C4)C=C3)cc1
REMARK SMILES IDX 25 1 24 2 23 3 22 4 21 5 19 6 20 7 18 8 12 9 13 10 14 11
REMARK SMILES IDX 16 12 15 13 17 14 11 15 10 16 5 17 6 18 7 19 9 20 8 21 3 22
REMARK SMILES IDX 4 23 2 24 1 25 26 26 27 27 28 28 29 29 30 30 31 31 32 32
REMARK SMILES IDX 33 33 34 34 95 35 35 36 94 37 36 38 37 39 38 40 88 41 39 42
REMARK SMILES IDX 93 43 87 44 89 45 40 46 92 47 86 48 85 49 41 51 73 52 53 53
REMARK SMILES IDX 72 54 54 55 57 56 71 57 90 58 55 59 56 60 70 62 91 63 58 64
REMARK SMILES IDX 42 65 43 66 51 67 44 68 45 69 49 70 52 71 46 72 47 73 50 74
REMARK SMILES IDX 48 75 74 76 75 77 83 78 76 79 77 80 81 81 84 82 78 83 79 84
REMARK SMILES IDX 82 85 80 86 59 87 60 88 68 89 61 90 62 91 66 92 69 93 63 94
REMARK SMILES IDX 64 95 67 96 65 97
REMARK H PARENT 89 50 57 61
REMARK Flexibility Score: inf
ROOT
ATOM      1  C   UNL A   1      37.016  22.815  25.788  1.00  0.00     0.188 C 
ENDROOT
BRANCH   1   2
ATOM      2  O   UNL A   1      36.486  23.649  24.774  1.00  0.00    -0.376 OA
BRANCH   2   3
ATOM      3  C   UNL A   1      36.240  23.014  23.534  1.00  0.00     0.202 C 
BRANCH   3   4
ATOM      4  C   UNL A   1      34.822  23.072  22.991  1.00  0.00     0.261 C 
BRANCH   4   5
ATOM      5  O   UNL A   1      33.886  23.937  23.719  1.00  0.00    -0.459 OA
BRANCH   5   6
ATOM      6  C   UNL A   1      32.549  23.652  23.613  1.00  0.00     0.345 C 
ATOM      7  O   UNL A   1      32.090  22.907  22.754  1.00  0.00    -0.246 OA
BRANCH   6   8
ATOM      8  C   UNL A   1      31.626  24.328  24.588  1.00  0.00     0.138 A 
ATOM      9  C   UNL A   1      30.949  25.576  24.409  1.00  0.00     0.144 A 
ATOM     10  C   UNL A   1      29.964  25.949  25.339  1.00  0.00     0.048 A 
ATOM     11  C   UNL A   1      29.605  25.077  26.389  1.00  0.00     0.007 A 
ATOM     12  C   UNL A   1      31.253  23.496  25.657  1.00  0.00     0.141 A 
ATOM     13  C   UNL A   1      30.245  23.850  26.542  1.00  0.00     0.040 A 
ATOM     14  F   UNL A   1      31.869  22.320  25.861  1.00  0.00    -0.206 F 
BRANCH   9  15
ATOM     15  O   UNL A   1      31.399  26.409  23.412  1.00  0.00    -0.456 OA
BRANCH  15  16
ATOM     16  C   UNL A   1      31.324  27.819  23.263  1.00  0.00     0.130 A 
ATOM     17  C   UNL A   1      31.556  28.829  24.282  1.00  0.00    -0.002 A 
ATOM     18  C   UNL A   1      30.648  29.918  24.328  1.00  0.00     0.008 A 
ATOM     19  C   UNL A   1      29.533  30.004  23.496  1.00  0.00     0.001 A 
ATOM     20  C   UNL A   1      30.287  28.047  22.320  1.00  0.00     0.047 A 
ATOM     21  C   UNL A   1      29.371  29.091  22.471  1.00  0.00     0.004 A 
BRANCH  17  22
ATOM     22  C   UNL A   1      32.553  28.791  25.482  1.00  0.00     0.019 C 
ATOM     23  C   UNL A   1      32.202  28.054  26.830  1.00  0.00     0.013 C 
BRANCH  22  24
ATOM     24  C   UNL A   1      33.761  28.009  25.062  1.00  0.00     0.005 C 
ATOM     25  C   UNL A   1      33.911  26.923  26.112  1.00  0.00     0.004 C 
ENDBRANCH  22  24
ENDBRANCH  17  22
ENDBRANCH  15  16
ENDBRANCH   9  15
ENDBRANCH   6   8
ENDBRANCH   5   6
ENDBRANCH   4   5
ENDBRANCH   3   4
ENDBRANCH   2   3
ENDBRANCH   1   2
BRANCH   1  26
ATOM     26  C   UNL A   1      38.493  23.046  26.204  1.00  0.00     0.188 C 
BRANCH  26  27
ATOM     27  O   UNL A   1      39.326  21.936  26.454  1.00  0.00    -0.376 OA
BRANCH  27  28
ATOM     28  C   UNL A   1      39.074  20.747  25.724  1.00  0.00     0.202 C 
BRANCH  28  29
ATOM     29  C   UNL A   1      39.754  19.396  26.061  1.00  0.00     0.261 C 
BRANCH  29  30
ATOM     30  O   UNL A   1      40.985  19.073  25.379  1.00  0.00    -0.460 OA
BRANCH  30  31
ATOM     31  C   UNL A   1      42.138  19.123  26.121  1.00  0.00     0.338 C 
ATOM     32  O   UNL A   1      42.970  18.259  26.220  1.00  0.00    -0.246 OA
BRANCH  31  33
ATOM     33  C   UNL A   1      42.379  20.545  26.542  1.00  0.00     0.060 A 
ATOM     34  C   UNL A   1      42.609  21.521  25.548  1.00  0.00     0.016 A 
ATOM     35  C   UNL A   1      42.256  20.940  27.873  1.00  0.00     0.016 A 
ATOM     36  C   UNL A   1      42.740  22.876  25.884  1.00  0.00     0.010 A 
ATOM     37  C   UNL A   1      42.434  22.289  28.215  1.00  0.00     0.010 A 
ATOM     38  C   UNL A   1      42.719  23.258  27.229  1.00  0.00    -0.014 A 
BRANCH  38  39
ATOM     39  C   UNL A   1      43.320  24.558  27.643  1.00  0.00     0.031 A 
ATOM     40  C   UNL A   1      42.360  25.649  28.045  1.00  0.00     0.074 A 
ATOM     41  C   UNL A   1      44.644  24.801  27.671  1.00  0.00     0.049 A 
ATOM     42  N   UNL A   1      42.582  26.910  28.318  1.00  0.00    -0.248 NA
ATOM     43  C   UNL A   1      40.942  25.257  28.138  1.00  0.00     0.031 C 
ATOM     44  C   UNL A   1      45.698  23.834  27.381  1.00  0.00     0.029 A 
ATOM     45  N   UNL A   1      45.323  25.968  27.945  1.00  0.00    -0.354 N 
ATOM     46  C   UNL A   1      41.334  27.460  28.588  1.00  0.00     0.074 A 
ATOM     47  C   UNL A   1      40.358  26.408  28.421  1.00  0.00     0.031 C 
ATOM     48  C   UNL A   1      46.891  24.454  27.461  1.00  0.00     0.029 A 
ATOM     49  C   UNL A   1      46.684  25.869  27.776  1.00  0.00     0.049 A 
ATOM     50  H   UNL A   1      44.876  26.795  28.236  1.00  0.00     0.167 HD
ATOM     51  C   UNL A   1      41.024  28.726  28.949  1.00  0.00     0.037 A 
ATOM     52  C   UNL A   1      47.643  26.818  27.836  1.00  0.00     0.037 A 
ATOM     53  C   UNL A   1      41.989  29.777  29.122  1.00  0.00     0.049 A 
ATOM     54  C   UNL A   1      47.266  28.248  28.158  1.00  0.00     0.074 A 
ATOM     55  C   UNL A   1      41.771  31.089  29.505  1.00  0.00     0.029 A 
ATOM     56  N   UNL A   1      43.352  29.641  28.916  1.00  0.00    -0.354 N 
ATOM     57  N   UNL A   1      46.089  28.760  28.428  1.00  0.00    -0.248 NA
ATOM     58  C   UNL A   1      48.359  29.236  28.183  1.00  0.00     0.031 C 
ATOM     59  C   UNL A   1      42.995  31.763  29.467  1.00  0.00     0.029 A 
ATOM     60  C   UNL A   1      43.985  30.853  29.133  1.00  0.00     0.049 A 
ATOM     61  H   UNL A   1      43.803  28.806  28.653  1.00  0.00     0.167 HD
ATOM     62  C   UNL A   1      46.305  30.109  28.692  1.00  0.00     0.074 A 
ATOM     63  C   UNL A   1      47.726  30.338  28.559  1.00  0.00     0.031 C 
ATOM     64  C   UNL A   1      45.405  31.070  29.017  1.00  0.00     0.037 A 
BRANCH  51  65
ATOM     65  C   UNL A   1      39.573  29.053  29.142  1.00  0.00     0.064 A 
ATOM     66  C   UNL A   1      38.971  29.033  30.410  1.00  0.00     0.173 A 
ATOM     67  C   UNL A   1      38.779  29.414  28.044  1.00  0.00     0.173 A 
ATOM     68  F   UNL A   1      39.681  28.675  31.490  1.00  0.00    -0.203 F 
ATOM     69  C   UNL A   1      37.621  29.338  30.565  1.00  0.00     0.198 A 
ATOM     70  C   UNL A   1      37.440  29.753  28.207  1.00  0.00     0.198 A 
ATOM     71  F   UNL A   1      39.306  29.449  26.810  1.00  0.00    -0.203 F 
ATOM     72  F   UNL A   1      37.054  29.260  31.777  1.00  0.00    -0.200 F 
ATOM     73  C   UNL A   1      36.859  29.706  29.466  1.00  0.00     0.200 A 
ATOM     74  F   UNL A   1      36.709  30.122  27.146  1.00  0.00    -0.200 F 
ATOM     75  F   UNL A   1      35.564  30.009  29.619  1.00  0.00    -0.200 F 
ENDBRANCH  51  65
BRANCH  52  76
ATOM     76  C   UNL A   1      49.065  26.469  27.560  1.00  0.00     0.064 A 
ATOM     77  C   UNL A   1      49.988  26.301  28.603  1.00  0.00     0.173 A 
ATOM     78  C   UNL A   1      49.545  26.353  26.247  1.00  0.00     0.173 A 
ATOM     79  F   UNL A   1      49.591  26.442  29.877  1.00  0.00    -0.203 F 
ATOM     80  C   UNL A   1      51.336  26.052  28.343  1.00  0.00     0.198 A 
ATOM     81  C   UNL A   1      50.886  26.071  25.988  1.00  0.00     0.198 A 
ATOM     82  F   UNL A   1      48.712  26.523  25.210  1.00  0.00    -0.203 F 
ATOM     83  F   UNL A   1      52.205  25.959  29.359  1.00  0.00    -0.200 F 
ATOM     84  C   UNL A   1      51.782  25.930  27.037  1.00  0.00     0.200 A 
ATOM     85  F   UNL A   1      51.312  25.951  24.724  1.00  0.00    -0.200 F 
ATOM     86  F   UNL A   1      53.077  25.694  26.788  1.00  0.00    -0.200 F 
ENDBRANCH  52  76
BRANCH  64  87
ATOM     87  C   UNL A   1      45.923  32.451  29.311  1.00  0.00     0.064 A 
ATOM     88  C   UNL A   1      45.989  33.447  28.325  1.00  0.00     0.173 A 
ATOM     89  C   UNL A   1      46.306  32.798  30.618  1.00  0.00     0.173 A 
ATOM     90  F   UNL A   1      45.645  33.168  27.059  1.00  0.00    -0.203 F 
ATOM     91  C   UNL A   1      46.445  34.728  28.629  1.00  0.00     0.198 A 
ATOM     92  C   UNL A   1      46.727  34.090  30.925  1.00  0.00     0.198 A 
ATOM     93  F   UNL A   1      46.250  31.890  31.603  1.00  0.00    -0.203 F 
ATOM     94  F   UNL A   1      46.546  35.650  27.661  1.00  0.00    -0.200 F 
ATOM     95  C   UNL A   1      46.805  35.051  29.930  1.00  0.00     0.200 A 
ATOM     96  F   UNL A   1      47.053  34.404  32.186  1.00  0.00    -0.200 F 
ATOM     97  F   UNL A   1      47.231  36.287  30.222  1.00  0.00    -0.200 F 
ENDBRANCH  64  87
ENDBRANCH  38  39
ENDBRANCH  31  33
ENDBRANCH  30  31
ENDBRANCH  29  30
ENDBRANCH  28  29
ENDBRANCH  27  28
ENDBRANCH  26  27
ENDBRANCH   1  26
TORSDOF 21
ENDMDL
