MODEL 1
REMARK VINA RESULT:      -9.9      0.000      0.000
REMARK SMILES CCN(CC(=O)NC(C)C)C(=O)N[C@H]1C=C[C@H](C(=O)OCCOCCOCCOC(=O)c2ccc(-c3c4nc(c(-c5c(F)c(F)c(F)c(F)c5F)c5ccc([nH]5)c(-c5c(F)c(F)c(F)c(F)c5F)c5nc(c(-c6c(F)c(F)c(F)c(F)c6F)c6ccc3[nH]6)C=C5)C=C4)cc2)C1
REMARK SMILES IDX 23 1 22 2 21 3 20 4 18 5 19 6 17 7 14 8 15 9 95 10 16 11
REMARK SMILES IDX 13 12 11 13 12 14 3 16 2 17 1 18 4 19 5 20 6 21 7 22 8 24
REMARK SMILES IDX 9 25 10 26 24 27 25 28 26 29 27 30 28 31 29 32 30 33 31 34
REMARK SMILES IDX 32 35 33 36 94 37 34 38 93 39 35 40 36 41 37 42 87 43 38 44
REMARK SMILES IDX 92 45 86 46 88 47 39 48 91 49 85 50 84 51 40 53 72 54 52 55
REMARK SMILES IDX 71 56 53 57 56 58 70 59 89 60 54 61 55 62 69 64 90 65 57 66
REMARK SMILES IDX 41 67 42 68 50 69 43 70 44 71 48 72 51 73 45 74 46 75 49 76
REMARK SMILES IDX 47 77 73 78 74 79 82 80 75 81 76 82 80 83 83 84 77 85 78 86
REMARK SMILES IDX 81 87 79 88 58 89 59 90 67 91 60 92 61 93 65 94 68 95 62 96
REMARK SMILES IDX 63 97 66 98 64 99
REMARK H PARENT 13 15 7 23 88 52 56 63
REMARK Flexibility Score: inf
ROOT
ATOM      1  O   UNL A   1      34.415  33.742  27.744  1.00  0.00    -0.376 OA
ENDROOT
BRANCH   1   2
ATOM      2  C   UNL A   1      33.495  32.690  27.982  1.00  0.00     0.202 C 
BRANCH   2   3
ATOM      3  C   UNL A   1      33.826  31.220  27.694  1.00  0.00     0.261 C 
BRANCH   3   4
ATOM      4  O   UNL A   1      32.862  30.548  26.881  1.00  0.00    -0.463 OA
BRANCH   4   5
ATOM      5  C   UNL A   1      32.876  29.191  26.949  1.00  0.00     0.312 C 
ATOM      6  O   UNL A   1      32.027  28.510  27.515  1.00  0.00    -0.252 OA
BRANCH   5   7
ATOM      7  C   UNL A   1      34.023  28.581  26.115  1.00  0.00     0.124 C 
ATOM      8  C   UNL A   1      32.745  27.340  24.595  1.00  0.00     0.107 C 
ATOM      9  C   UNL A   1      33.532  26.391  25.431  1.00  0.00    -0.006 C 
ATOM     10  C   UNL A   1      33.623  28.580  24.631  1.00  0.00     0.048 C 
ATOM     11  C   UNL A   1      34.224  27.097  26.336  1.00  0.00    -0.014 C 
BRANCH   8  12
ATOM     12  N   UNL A   1      32.415  26.817  23.319  1.00  0.00    -0.332 N 
ATOM     13  C   UNL A   1      31.278  26.796  22.600  1.00  0.00     0.318 C 
ATOM     14  O   UNL A   1      31.393  26.294  21.475  1.00  0.00    -0.249 OA
ATOM     15  H   UNL A   1      33.173  26.380  22.868  1.00  0.00     0.165 HD
BRANCH  13  16
ATOM     16  N   UNL A   1      30.069  27.286  23.043  1.00  0.00    -0.316 N 
BRANCH  16  17
ATOM     17  C   UNL A   1      29.319  26.385  23.925  1.00  0.00     0.118 C 
ATOM     18  C   UNL A   1      27.819  26.647  23.877  1.00  0.00     0.027 C 
ENDBRANCH  16  17
BRANCH  16  19
ATOM     19  C   UNL A   1      29.325  28.486  22.604  1.00  0.00     0.221 C 
BRANCH  19  20
ATOM     20  C   UNL A   1      30.142  29.776  22.357  1.00  0.00     0.239 C 
ATOM     21  O   UNL A   1      31.319  29.722  21.983  1.00  0.00    -0.273 OA
ATOM     22  N   UNL A   1      29.568  31.007  22.440  1.00  0.00    -0.352 N 
ATOM     23  H   UNL A   1      30.163  31.752  22.684  1.00  0.00     0.163 HD
BRANCH  22  24
ATOM     24  C   UNL A   1      28.176  31.341  22.207  1.00  0.00     0.075 C 
ATOM     25  C   UNL A   1      27.436  31.577  23.515  1.00  0.00     0.030 C 
ATOM     26  C   UNL A   1      28.121  32.569  21.302  1.00  0.00     0.030 C 
ENDBRANCH  22  24
ENDBRANCH  19  20
ENDBRANCH  16  19
ENDBRANCH  13  16
ENDBRANCH   8  12
ENDBRANCH   5   7
ENDBRANCH   4   5
ENDBRANCH   3   4
ENDBRANCH   2   3
ENDBRANCH   1   2
BRANCH   1  27
ATOM     27  C   UNL A   1      34.682  34.727  28.721  1.00  0.00     0.188 C 
BRANCH  27  28
ATOM     28  C   UNL A   1      33.539  35.461  29.458  1.00  0.00     0.188 C 
BRANCH  28  29
ATOM     29  O   UNL A   1      33.684  35.898  30.792  1.00  0.00    -0.376 OA
BRANCH  29  30
ATOM     30  C   UNL A   1      33.938  34.947  31.810  1.00  0.00     0.202 C 
BRANCH  30  31
ATOM     31  C   UNL A   1      35.362  34.738  32.336  1.00  0.00     0.261 C 
BRANCH  31  32
ATOM     32  O   UNL A   1      35.627  33.422  32.848  1.00  0.00    -0.460 OA
BRANCH  32  33
ATOM     33  C   UNL A   1      35.604  32.426  31.938  1.00  0.00     0.338 C 
ATOM     34  O   UNL A   1      34.608  31.891  31.442  1.00  0.00    -0.246 OA
BRANCH  33  35
ATOM     35  C   UNL A   1      36.961  32.156  31.443  1.00  0.00     0.060 A 
ATOM     36  C   UNL A   1      37.245  32.399  30.090  1.00  0.00     0.016 A 
ATOM     37  C   UNL A   1      37.934  31.611  32.282  1.00  0.00     0.016 A 
ATOM     38  C   UNL A   1      38.494  32.065  29.564  1.00  0.00     0.010 A 
ATOM     39  C   UNL A   1      39.176  31.254  31.748  1.00  0.00     0.010 A 
ATOM     40  C   UNL A   1      39.450  31.450  30.381  1.00  0.00    -0.014 A 
BRANCH  40  41
ATOM     41  C   UNL A   1      40.655  30.834  29.775  1.00  0.00     0.031 A 
ATOM     42  C   UNL A   1      41.868  31.696  29.560  1.00  0.00     0.074 A 
ATOM     43  C   UNL A   1      40.679  29.537  29.423  1.00  0.00     0.049 A 
ATOM     44  N   UNL A   1      43.006  31.405  28.981  1.00  0.00    -0.248 NA
ATOM     45  C   UNL A   1      41.783  33.076  30.062  1.00  0.00     0.031 C 
ATOM     46  C   UNL A   1      39.588  28.586  29.623  1.00  0.00     0.029 A 
ATOM     47  N   UNL A   1      41.661  28.801  28.807  1.00  0.00    -0.354 N 
ATOM     48  C   UNL A   1      43.765  32.567  29.041  1.00  0.00     0.074 A 
ATOM     49  C   UNL A   1      42.952  33.573  29.689  1.00  0.00     0.031 C 
ATOM     50  C   UNL A   1      39.955  27.393  29.124  1.00  0.00     0.029 A 
ATOM     51  C   UNL A   1      41.292  27.507  28.538  1.00  0.00     0.049 A 
ATOM     52  H   UNL A   1      42.546  29.168  28.580  1.00  0.00     0.167 HD
ATOM     53  C   UNL A   1      45.027  32.774  28.598  1.00  0.00     0.037 A 
ATOM     54  C   UNL A   1      41.949  26.538  27.873  1.00  0.00     0.037 A 
ATOM     55  C   UNL A   1      45.835  31.774  27.951  1.00  0.00     0.049 A 
ATOM     56  C   UNL A   1      43.322  26.820  27.315  1.00  0.00     0.074 A 
ATOM     57  C   UNL A   1      47.135  31.881  27.489  1.00  0.00     0.029 A 
ATOM     58  N   UNL A   1      45.414  30.484  27.666  1.00  0.00    -0.354 N 
ATOM     59  N   UNL A   1      44.046  27.909  27.399  1.00  0.00    -0.248 NA
ATOM     60  C   UNL A   1      43.969  25.731  26.567  1.00  0.00     0.031 C 
ATOM     61  C   UNL A   1      47.481  30.673  26.874  1.00  0.00     0.029 A 
ATOM     62  C   UNL A   1      46.419  29.794  27.006  1.00  0.00     0.049 A 
ATOM     63  H   UNL A   1      44.532  30.113  27.899  1.00  0.00     0.167 HD
ATOM     64  C   UNL A   1      45.242  27.628  26.749  1.00  0.00     0.074 A 
ATOM     65  C   UNL A   1      45.151  26.260  26.282  1.00  0.00     0.031 C 
ATOM     66  C   UNL A   1      46.320  28.428  26.558  1.00  0.00     0.037 A 
BRANCH  53  67
ATOM     67  C   UNL A   1      45.601  34.150  28.767  1.00  0.00     0.064 A 
ATOM     68  C   UNL A   1      46.331  34.512  29.910  1.00  0.00     0.173 A 
ATOM     69  C   UNL A   1      45.439  35.113  27.761  1.00  0.00     0.173 A 
ATOM     70  F   UNL A   1      46.502  33.632  30.909  1.00  0.00    -0.203 F 
ATOM     71  C   UNL A   1      46.853  35.795  30.050  1.00  0.00     0.198 A 
ATOM     72  C   UNL A   1      45.987  36.386  27.891  1.00  0.00     0.198 A 
ATOM     73  F   UNL A   1      44.752  34.819  26.647  1.00  0.00    -0.203 F 
ATOM     74  F   UNL A   1      47.504  36.133  31.172  1.00  0.00    -0.200 F 
ATOM     75  C   UNL A   1      46.687  36.728  29.038  1.00  0.00     0.200 A 
ATOM     76  F   UNL A   1      45.836  37.284  26.907  1.00  0.00    -0.200 F 
ATOM     77  F   UNL A   1      47.194  37.962  29.172  1.00  0.00    -0.200 F 
ENDBRANCH  53  67
BRANCH  54  78
ATOM     78  C   UNL A   1      41.318  25.205  27.681  1.00  0.00     0.064 A 
ATOM     79  C   UNL A   1      41.804  24.074  28.354  1.00  0.00     0.173 A 
ATOM     80  C   UNL A   1      40.244  25.027  26.797  1.00  0.00     0.173 A 
ATOM     81  F   UNL A   1      42.850  24.188  29.185  1.00  0.00    -0.203 F 
ATOM     82  C   UNL A   1      41.250  22.814  28.135  1.00  0.00     0.198 A 
ATOM     83  C   UNL A   1      39.673  23.772  26.602  1.00  0.00     0.198 A 
ATOM     84  F   UNL A   1      39.748  26.075  26.123  1.00  0.00    -0.203 F 
ATOM     85  F   UNL A   1      41.766  21.743  28.752  1.00  0.00    -0.200 F 
ATOM     86  C   UNL A   1      40.181  22.665  27.265  1.00  0.00     0.200 A 
ATOM     87  F   UNL A   1      38.635  23.633  25.765  1.00  0.00    -0.200 F 
ATOM     88  F   UNL A   1      39.650  21.453  27.054  1.00  0.00    -0.200 F 
ENDBRANCH  54  78
BRANCH  66  89
ATOM     89  C   UNL A   1      47.509  27.837  25.856  1.00  0.00     0.064 A 
ATOM     90  C   UNL A   1      47.592  27.783  24.457  1.00  0.00     0.173 A 
ATOM     91  C   UNL A   1      48.603  27.359  26.596  1.00  0.00     0.173 A 
ATOM     92  F   UNL A   1      46.569  28.214  23.704  1.00  0.00    -0.203 F 
ATOM     93  C   UNL A   1      48.714  27.250  23.827  1.00  0.00     0.198 A 
ATOM     94  C   UNL A   1      49.735  26.856  25.962  1.00  0.00     0.198 A 
ATOM     95  F   UNL A   1      48.579  27.395  27.938  1.00  0.00    -0.203 F 
ATOM     96  F   UNL A   1      48.751  27.165  22.489  1.00  0.00    -0.200 F 
ATOM     97  C   UNL A   1      49.787  26.795  24.577  1.00  0.00     0.200 A 
ATOM     98  F   UNL A   1      50.777  26.432  26.690  1.00  0.00    -0.200 F 
ATOM     99  F   UNL A   1      50.868  26.291  23.968  1.00  0.00    -0.200 F 
ENDBRANCH  66  89
ENDBRANCH  40  41
ENDBRANCH  33  35
ENDBRANCH  32  33
ENDBRANCH  31  32
ENDBRANCH  30  31
ENDBRANCH  29  30
ENDBRANCH  28  29
ENDBRANCH  27  28
ENDBRANCH   1  27
TORSDOF 23
ENDMDL
MODEL 2
REMARK VINA RESULT:      -9.9      3.466      9.124
REMARK SMILES CCN(CC(=O)NC(C)C)C(=O)N[C@H]1C=C[C@H](C(=O)OCCOCCOCCOC(=O)c2ccc(-c3c4nc(c(-c5c(F)c(F)c(F)c(F)c5F)c5ccc([nH]5)c(-c5c(F)c(F)c(F)c(F)c5F)c5nc(c(-c6c(F)c(F)c(F)c(F)c6F)c6ccc3[nH]6)C=C5)C=C4)cc2)C1
REMARK SMILES IDX 23 1 22 2 21 3 20 4 18 5 19 6 17 7 14 8 15 9 95 10 16 11
REMARK SMILES IDX 13 12 11 13 12 14 3 16 2 17 1 18 4 19 5 20 6 21 7 22 8 24
REMARK SMILES IDX 9 25 10 26 24 27 25 28 26 29 27 30 28 31 29 32 30 33 31 34
REMARK SMILES IDX 32 35 33 36 94 37 34 38 93 39 35 40 36 41 37 42 87 43 38 44
REMARK SMILES IDX 92 45 86 46 88 47 39 48 91 49 85 50 84 51 40 53 72 54 52 55
REMARK SMILES IDX 71 56 53 57 56 58 70 59 89 60 54 61 55 62 69 64 90 65 57 66
REMARK SMILES IDX 41 67 42 68 50 69 43 70 44 71 48 72 51 73 45 74 46 75 49 76
REMARK SMILES IDX 47 77 73 78 74 79 82 80 75 81 76 82 80 83 83 84 77 85 78 86
REMARK SMILES IDX 81 87 79 88 58 89 59 90 67 91 60 92 61 93 65 94 68 95 62 96
REMARK SMILES IDX 63 97 66 98 64 99
REMARK H PARENT 13 15 7 23 88 52 56 63
REMARK Flexibility Score: inf
ROOT
ATOM      1  O   UNL A   1      33.498  20.152  24.661  1.00  0.00    -0.376 OA
ENDROOT
BRANCH   1   2
ATOM      2  C   UNL A   1      32.712  20.394  23.505  1.00  0.00     0.202 C 
BRANCH   2   3
ATOM      3  C   UNL A   1      31.977  21.719  23.268  1.00  0.00     0.261 C 
BRANCH   3   4
ATOM      4  O   UNL A   1      31.736  22.480  24.453  1.00  0.00    -0.463 OA
BRANCH   4   5
ATOM      5  C   UNL A   1      30.990  23.605  24.292  1.00  0.00     0.312 C 
ATOM      6  O   UNL A   1      30.493  23.967  23.231  1.00  0.00    -0.252 OA
BRANCH   5   7
ATOM      7  C   UNL A   1      30.723  24.320  25.632  1.00  0.00     0.124 C 
ATOM      8  C   UNL A   1      32.465  25.882  25.563  1.00  0.00     0.107 C 
ATOM      9  C   UNL A   1      32.717  24.949  26.696  1.00  0.00    -0.006 C 
ATOM     10  C   UNL A   1      30.951  25.830  25.454  1.00  0.00     0.048 C 
ATOM     11  C   UNL A   1      31.748  24.023  26.705  1.00  0.00    -0.014 C 
BRANCH   8  12
ATOM     12  N   UNL A   1      33.057  27.157  25.750  1.00  0.00    -0.332 N 
ATOM     13  C   UNL A   1      32.880  28.349  25.152  1.00  0.00     0.318 C 
ATOM     14  O   UNL A   1      33.546  29.270  25.639  1.00  0.00    -0.249 OA
ATOM     15  H   UNL A   1      33.737  27.173  26.462  1.00  0.00     0.165 HD
BRANCH  13  16
ATOM     16  N   UNL A   1      32.032  28.566  24.088  1.00  0.00    -0.316 N 
BRANCH  16  17
ATOM     17  C   UNL A   1      32.532  28.098  22.790  1.00  0.00     0.118 C 
ATOM     18  C   UNL A   1      33.945  28.593  22.504  1.00  0.00     0.027 C 
ENDBRANCH  16  17
BRANCH  16  19
ATOM     19  C   UNL A   1      30.797  29.377  24.021  1.00  0.00     0.221 C 
BRANCH  19  20
ATOM     20  C   UNL A   1      29.668  28.872  23.092  1.00  0.00     0.239 C 
ATOM     21  O   UNL A   1      29.316  27.687  23.103  1.00  0.00    -0.273 OA
ATOM     22  N   UNL A   1      28.955  29.728  22.310  1.00  0.00    -0.352 N 
ATOM     23  H   UNL A   1      28.575  29.353  21.483  1.00  0.00     0.163 HD
BRANCH  22  24
ATOM     24  C   UNL A   1      28.695  31.133  22.562  1.00  0.00     0.075 C 
ATOM     25  C   UNL A   1      28.407  31.884  21.271  1.00  0.00     0.030 C 
ATOM     26  C   UNL A   1      27.530  31.236  23.544  1.00  0.00     0.030 C 
ENDBRANCH  22  24
ENDBRANCH  19  20
ENDBRANCH  16  19
ENDBRANCH  13  16
ENDBRANCH   8  12
ENDBRANCH   5   7
ENDBRANCH   4   5
ENDBRANCH   3   4
ENDBRANCH   2   3
ENDBRANCH   1   2
BRANCH   1  27
ATOM     27  C   UNL A   1      34.805  20.671  24.789  1.00  0.00     0.188 C 
BRANCH  27  28
ATOM     28  C   UNL A   1      36.020  19.746  25.024  1.00  0.00     0.188 C 
BRANCH  28  29
ATOM     29  O   UNL A   1      37.335  20.254  25.072  1.00  0.00    -0.376 OA
BRANCH  29  30
ATOM     30  C   UNL A   1      38.427  19.352  25.095  1.00  0.00     0.202 C 
BRANCH  30  31
ATOM     31  C   UNL A   1      39.655  19.645  25.962  1.00  0.00     0.261 C 
BRANCH  31  32
ATOM     32  O   UNL A   1      40.879  19.059  25.489  1.00  0.00    -0.460 OA
BRANCH  32  33
ATOM     33  C   UNL A   1      41.953  19.226  26.289  1.00  0.00     0.338 C 
ATOM     34  O   UNL A   1      42.791  18.374  26.601  1.00  0.00    -0.246 OA
BRANCH  33  35
ATOM     35  C   UNL A   1      42.126  20.647  26.621  1.00  0.00     0.060 A 
ATOM     36  C   UNL A   1      42.236  21.575  25.573  1.00  0.00     0.016 A 
ATOM     37  C   UNL A   1      42.241  21.063  27.948  1.00  0.00     0.016 A 
ATOM     38  C   UNL A   1      42.495  22.917  25.849  1.00  0.00     0.010 A 
ATOM     39  C   UNL A   1      42.526  22.405  28.222  1.00  0.00     0.010 A 
ATOM     40  C   UNL A   1      42.686  23.330  27.173  1.00  0.00    -0.014 A 
BRANCH  40  41
ATOM     41  C   UNL A   1      43.242  24.676  27.456  1.00  0.00     0.031 A 
ATOM     42  C   UNL A   1      42.323  25.728  28.014  1.00  0.00     0.074 A 
ATOM     43  C   UNL A   1      44.534  24.964  27.226  1.00  0.00     0.049 A 
ATOM     44  N   UNL A   1      42.557  26.990  28.270  1.00  0.00    -0.248 NA
ATOM     45  C   UNL A   1      40.951  25.295  28.322  1.00  0.00     0.031 C 
ATOM     46  C   UNL A   1      45.536  24.022  26.734  1.00  0.00     0.029 A 
ATOM     47  N   UNL A   1      45.220  26.145  27.367  1.00  0.00    -0.354 N 
ATOM     48  C   UNL A   1      41.362  27.502  28.756  1.00  0.00     0.074 A 
ATOM     49  C   UNL A   1      40.397  26.424  28.739  1.00  0.00     0.031 C 
ATOM     50  C   UNL A   1      46.708  24.666  26.597  1.00  0.00     0.029 A 
ATOM     51  C   UNL A   1      46.529  26.073  26.959  1.00  0.00     0.049 A 
ATOM     52  H   UNL A   1      44.811  26.966  27.726  1.00  0.00     0.167 HD
ATOM     53  C   UNL A   1      41.093  28.759  29.182  1.00  0.00     0.037 A 
ATOM     54  C   UNL A   1      47.463  27.039  26.866  1.00  0.00     0.037 A 
ATOM     55  C   UNL A   1      42.051  29.833  29.197  1.00  0.00     0.049 A 
ATOM     56  C   UNL A   1      47.114  28.451  27.268  1.00  0.00     0.074 A 
ATOM     57  C   UNL A   1      41.881  31.135  29.634  1.00  0.00     0.029 A 
ATOM     58  N   UNL A   1      43.358  29.730  28.745  1.00  0.00    -0.354 N 
ATOM     59  N   UNL A   1      45.993  28.924  27.754  1.00  0.00    -0.248 NA
ATOM     60  C   UNL A   1      48.168  29.464  27.107  1.00  0.00     0.031 C 
ATOM     61  C   UNL A   1      43.069  31.835  29.393  1.00  0.00     0.029 A 
ATOM     62  C   UNL A   1      43.997  30.954  28.863  1.00  0.00     0.049 A 
ATOM     63  H   UNL A   1      43.771  28.909  28.392  1.00  0.00     0.167 HD
ATOM     64  C   UNL A   1      46.214  30.276  27.988  1.00  0.00     0.074 A 
ATOM     65  C   UNL A   1      47.582  30.547  27.598  1.00  0.00     0.031 C 
ATOM     66  C   UNL A   1      45.363  31.208  28.484  1.00  0.00     0.037 A 
BRANCH  53  67
ATOM     67  C   UNL A   1      39.693  29.050  29.635  1.00  0.00     0.064 A 
ATOM     68  C   UNL A   1      38.709  29.514  28.748  1.00  0.00     0.173 A 
ATOM     69  C   UNL A   1      39.324  28.840  30.972  1.00  0.00     0.173 A 
ATOM     70  F   UNL A   1      39.015  29.746  27.462  1.00  0.00    -0.203 F 
ATOM     71  C   UNL A   1      37.416  29.782  29.189  1.00  0.00     0.198 A 
ATOM     72  C   UNL A   1      38.022  29.081  31.403  1.00  0.00     0.198 A 
ATOM     73  F   UNL A   1      40.224  28.395  31.861  1.00  0.00    -0.203 F 
ATOM     74  F   UNL A   1      36.507  30.271  28.335  1.00  0.00    -0.200 F 
ATOM     75  C   UNL A   1      37.072  29.558  30.514  1.00  0.00     0.200 A 
ATOM     76  F   UNL A   1      37.688  28.853  32.681  1.00  0.00    -0.200 F 
ATOM     77  F   UNL A   1      35.825  29.812  30.935  1.00  0.00    -0.200 F 
ENDBRANCH  53  67
BRANCH  54  78
ATOM     78  C   UNL A   1      48.822  26.716  26.358  1.00  0.00     0.064 A 
ATOM     79  C   UNL A   1      49.815  26.224  27.219  1.00  0.00     0.173 A 
ATOM     80  C   UNL A   1      49.168  26.922  25.015  1.00  0.00     0.173 A 
ATOM     81  F   UNL A   1      49.542  26.040  28.519  1.00  0.00    -0.203 F 
ATOM     82  C   UNL A   1      51.106  25.971  26.758  1.00  0.00     0.198 A 
ATOM     83  C   UNL A   1      50.451  26.641  24.550  1.00  0.00     0.198 A 
ATOM     84  F   UNL A   1      48.258  27.399  24.153  1.00  0.00    -0.203 F 
ATOM     85  F   UNL A   1      52.048  25.552  27.613  1.00  0.00    -0.200 F 
ATOM     86  C   UNL A   1      51.421  26.174  25.424  1.00  0.00     0.200 A 
ATOM     87  F   UNL A   1      50.749  26.831  23.258  1.00  0.00    -0.200 F 
ATOM     88  F   UNL A   1      52.662  25.931  24.982  1.00  0.00    -0.200 F 
ENDBRANCH  54  78
BRANCH  66  89
ATOM     89  C   UNL A   1      45.895  32.599  28.680  1.00  0.00     0.064 A 
ATOM     90  C   UNL A   1      45.770  33.587  27.692  1.00  0.00     0.173 A 
ATOM     91  C   UNL A   1      46.498  32.961  29.896  1.00  0.00     0.173 A 
ATOM     92  F   UNL A   1      45.214  33.289  26.508  1.00  0.00    -0.203 F 
ATOM     93  C   UNL A   1      46.251  34.877  27.904  1.00  0.00     0.198 A 
ATOM     94  C   UNL A   1      46.949  34.260  30.116  1.00  0.00     0.198 A 
ATOM     95  F   UNL A   1      46.635  32.058  30.879  1.00  0.00    -0.203 F 
ATOM     96  F   UNL A   1      46.163  35.791  26.928  1.00  0.00    -0.200 F 
ATOM     97  C   UNL A   1      46.832  35.215  29.117  1.00  0.00     0.200 A 
ATOM     98  F   UNL A   1      47.495  34.587  31.294  1.00  0.00    -0.200 F 
ATOM     99  F   UNL A   1      47.286  36.459  29.322  1.00  0.00    -0.200 F 
ENDBRANCH  66  89
ENDBRANCH  40  41
ENDBRANCH  33  35
ENDBRANCH  32  33
ENDBRANCH  31  32
ENDBRANCH  30  31
ENDBRANCH  29  30
ENDBRANCH  28  29
ENDBRANCH  27  28
ENDBRANCH   1  27
TORSDOF 23
ENDMDL
MODEL 3
REMARK VINA RESULT:      -9.4      4.668      7.652
REMARK SMILES CCN(CC(=O)NC(C)C)C(=O)N[C@H]1C=C[C@H](C(=O)OCCOCCOCCOC(=O)c2ccc(-c3c4nc(c(-c5c(F)c(F)c(F)c(F)c5F)c5ccc([nH]5)c(-c5c(F)c(F)c(F)c(F)c5F)c5nc(c(-c6c(F)c(F)c(F)c(F)c6F)c6ccc3[nH]6)C=C5)C=C4)cc2)C1
REMARK SMILES IDX 23 1 22 2 21 3 20 4 18 5 19 6 17 7 14 8 15 9 95 10 16 11
REMARK SMILES IDX 13 12 11 13 12 14 3 16 2 17 1 18 4 19 5 20 6 21 7 22 8 24
REMARK SMILES IDX 9 25 10 26 24 27 25 28 26 29 27 30 28 31 29 32 30 33 31 34
REMARK SMILES IDX 32 35 33 36 94 37 34 38 93 39 35 40 36 41 37 42 87 43 38 44
REMARK SMILES IDX 92 45 86 46 88 47 39 48 91 49 85 50 84 51 40 53 72 54 52 55
REMARK SMILES IDX 71 56 53 57 56 58 70 59 89 60 54 61 55 62 69 64 90 65 57 66
REMARK SMILES IDX 41 67 42 68 50 69 43 70 44 71 48 72 51 73 45 74 46 75 49 76
REMARK SMILES IDX 47 77 73 78 74 79 82 80 75 81 76 82 80 83 83 84 77 85 78 86
REMARK SMILES IDX 81 87 79 88 58 89 59 90 67 91 60 92 61 93 65 94 68 95 62 96
REMARK SMILES IDX 63 97 66 98 64 99
REMARK H PARENT 13 15 7 23 88 52 56 63
REMARK Flexibility Score: inf
ROOT
ATOM      1  O   UNL A   1      38.533  32.602  35.991  1.00  0.00    -0.376 OA
ENDROOT
BRANCH   1   2
ATOM      2  C   UNL A   1      38.170  31.313  35.524  1.00  0.00     0.202 C 
BRANCH   2   3
ATOM      3  C   UNL A   1      39.172  30.361  34.859  1.00  0.00     0.261 C 
BRANCH   3   4
ATOM      4  O   UNL A   1      39.172  30.409  33.431  1.00  0.00    -0.463 OA
BRANCH   4   5
ATOM      5  C   UNL A   1      38.595  29.349  32.805  1.00  0.00     0.312 C 
ATOM      6  O   UNL A   1      37.666  28.690  33.259  1.00  0.00    -0.252 OA
BRANCH   5   7
ATOM      7  C   UNL A   1      39.159  29.140  31.384  1.00  0.00     0.124 C 
ATOM      8  C   UNL A   1      37.891  30.751  30.252  1.00  0.00     0.107 C 
ATOM      9  C   UNL A   1      37.502  29.406  29.744  1.00  0.00    -0.006 C 
ATOM     10  C   UNL A   1      39.323  30.507  30.699  1.00  0.00     0.048 C 
ATOM     11  C   UNL A   1      38.189  28.480  30.427  1.00  0.00    -0.014 C 
BRANCH   8  12
ATOM     12  N   UNL A   1      37.676  31.787  29.307  1.00  0.00    -0.332 N 
ATOM     13  C   UNL A   1      36.586  32.484  28.939  1.00  0.00     0.318 C 
ATOM     14  O   UNL A   1      36.804  33.374  28.109  1.00  0.00    -0.249 OA
ATOM     15  H   UNL A   1      38.492  32.049  28.822  1.00  0.00     0.165 HD
BRANCH  13  16
ATOM     16  N   UNL A   1      35.318  32.258  29.428  1.00  0.00    -0.316 N 
BRANCH  16  17
ATOM     17  C   UNL A   1      34.375  31.679  28.465  1.00  0.00     0.118 C 
ATOM     18  C   UNL A   1      35.017  30.594  27.609  1.00  0.00     0.027 C 
ENDBRANCH  16  17
BRANCH  16  19
ATOM     19  C   UNL A   1      34.710  32.697  30.703  1.00  0.00     0.221 C 
BRANCH  19  20
ATOM     20  C   UNL A   1      34.822  34.198  31.060  1.00  0.00     0.239 C 
ATOM     21  O   UNL A   1      33.927  34.994  30.752  1.00  0.00    -0.273 OA
ATOM     22  N   UNL A   1      35.852  34.675  31.811  1.00  0.00    -0.352 N 
ATOM     23  H   UNL A   1      36.103  35.615  31.664  1.00  0.00     0.163 HD
BRANCH  22  24
ATOM     24  C   UNL A   1      36.619  33.949  32.806  1.00  0.00     0.075 C 
ATOM     25  C   UNL A   1      37.996  34.563  33.001  1.00  0.00     0.030 C 
ATOM     26  C   UNL A   1      35.822  33.931  34.108  1.00  0.00     0.030 C 
ENDBRANCH  22  24
ENDBRANCH  19  20
ENDBRANCH  16  19
ENDBRANCH  13  16
ENDBRANCH   8  12
ENDBRANCH   5   7
ENDBRANCH   4   5
ENDBRANCH   3   4
ENDBRANCH   2   3
ENDBRANCH   1   2
BRANCH   1  27
ATOM     27  C   UNL A   1      37.897  33.191  37.106  1.00  0.00     0.188 C 
BRANCH  27  28
ATOM     28  C   UNL A   1      38.346  32.876  38.551  1.00  0.00     0.188 C 
BRANCH  28  29
ATOM     29  O   UNL A   1      39.319  33.657  39.207  1.00  0.00    -0.376 OA
BRANCH  29  30
ATOM     30  C   UNL A   1      38.905  34.712  40.056  1.00  0.00     0.202 C 
BRANCH  30  31
ATOM     31  C   UNL A   1      39.910  35.768  40.527  1.00  0.00     0.261 C 
BRANCH  31  32
ATOM     32  O   UNL A   1      41.164  35.760  39.826  1.00  0.00    -0.460 OA
BRANCH  32  33
ATOM     33  C   UNL A   1      41.305  36.703  38.871  1.00  0.00     0.338 C 
ATOM     34  O   UNL A   1      41.266  37.928  39.022  1.00  0.00    -0.246 OA
BRANCH  33  35
ATOM     35  C   UNL A   1      41.707  36.087  37.599  1.00  0.00     0.060 A 
ATOM     36  C   UNL A   1      40.707  35.687  36.699  1.00  0.00     0.016 A 
ATOM     37  C   UNL A   1      43.052  35.845  37.315  1.00  0.00     0.016 A 
ATOM     38  C   UNL A   1      41.048  35.014  35.526  1.00  0.00     0.010 A 
ATOM     39  C   UNL A   1      43.390  35.147  36.151  1.00  0.00     0.010 A 
ATOM     40  C   UNL A   1      42.388  34.701  35.268  1.00  0.00    -0.014 A 
BRANCH  40  41
ATOM     41  C   UNL A   1      42.731  33.745  34.187  1.00  0.00     0.031 A 
ATOM     42  C   UNL A   1      42.974  34.285  32.805  1.00  0.00     0.074 A 
ATOM     43  C   UNL A   1      42.826  32.425  34.421  1.00  0.00     0.049 A 
ATOM     44  N   UNL A   1      43.212  33.644  31.689  1.00  0.00    -0.248 NA
ATOM     45  C   UNL A   1      42.941  35.749  32.663  1.00  0.00     0.031 C 
ATOM     46  C   UNL A   1      42.661  31.784  35.723  1.00  0.00     0.029 A 
ATOM     47  N   UNL A   1      43.074  31.386  33.560  1.00  0.00    -0.354 N 
ATOM     48  C   UNL A   1      43.344  34.623  30.714  1.00  0.00     0.074 A 
ATOM     49  C   UNL A   1      43.138  35.900  31.362  1.00  0.00     0.031 C 
ATOM     50  C   UNL A   1      42.796  30.454  35.572  1.00  0.00     0.029 A 
ATOM     51  C   UNL A   1      43.022  30.151  34.158  1.00  0.00     0.049 A 
ATOM     52  H   UNL A   1      43.270  31.514  32.603  1.00  0.00     0.167 HD
ATOM     53  C   UNL A   1      43.617  34.472  29.396  1.00  0.00     0.037 A 
ATOM     54  C   UNL A   1      43.120  28.921  33.619  1.00  0.00     0.037 A 
ATOM     55  C   UNL A   1      43.820  33.202  28.750  1.00  0.00     0.049 A 
ATOM     56  C   UNL A   1      43.341  28.777  32.133  1.00  0.00     0.074 A 
ATOM     57  C   UNL A   1      44.126  32.948  27.424  1.00  0.00     0.029 A 
ATOM     58  N   UNL A   1      43.726  31.972  29.383  1.00  0.00    -0.354 N 
ATOM     59  N   UNL A   1      43.494  29.705  31.221  1.00  0.00    -0.248 NA
ATOM     60  C   UNL A   1      43.401  27.406  31.603  1.00  0.00     0.031 C 
ATOM     61  C   UNL A   1      44.161  31.561  27.243  1.00  0.00     0.029 A 
ATOM     62  C   UNL A   1      43.938  30.953  28.468  1.00  0.00     0.049 A 
ATOM     63  H   UNL A   1      43.538  31.842  30.340  1.00  0.00     0.167 HD
ATOM     64  C   UNL A   1      43.703  29.036  30.021  1.00  0.00     0.074 A 
ATOM     65  C   UNL A   1      43.665  27.620  30.321  1.00  0.00     0.031 C 
ATOM     66  C   UNL A   1      43.911  29.547  28.782  1.00  0.00     0.037 A 
BRANCH  53  67
ATOM     67  C   UNL A   1      43.677  35.714  28.556  1.00  0.00     0.064 A 
ATOM     68  C   UNL A   1      44.891  36.360  28.276  1.00  0.00     0.173 A 
ATOM     69  C   UNL A   1      42.506  36.253  28.005  1.00  0.00     0.173 A 
ATOM     70  F   UNL A   1      46.039  35.893  28.792  1.00  0.00    -0.203 F 
ATOM     71  C   UNL A   1      44.926  37.513  27.497  1.00  0.00     0.198 A 
ATOM     72  C   UNL A   1      42.547  37.389  27.202  1.00  0.00     0.198 A 
ATOM     73  F   UNL A   1      41.318  35.674  28.240  1.00  0.00    -0.203 F 
ATOM     74  F   UNL A   1      46.091  38.140  27.283  1.00  0.00    -0.200 F 
ATOM     75  C   UNL A   1      43.755  38.023  26.955  1.00  0.00     0.200 A 
ATOM     76  F   UNL A   1      41.416  37.874  26.670  1.00  0.00    -0.200 F 
ATOM     77  F   UNL A   1      43.791  39.130  26.202  1.00  0.00    -0.200 F 
ENDBRANCH  53  67
BRANCH  54  78
ATOM     78  C   UNL A   1      42.999  27.716  34.481  1.00  0.00     0.064 A 
ATOM     79  C   UNL A   1      41.786  27.018  34.578  1.00  0.00     0.173 A 
ATOM     80  C   UNL A   1      44.078  27.258  35.252  1.00  0.00     0.173 A 
ATOM     81  F   UNL A   1      40.717  27.436  33.886  1.00  0.00    -0.203 F 
ATOM     82  C   UNL A   1      41.653  25.921  35.427  1.00  0.00     0.198 A 
ATOM     83  C   UNL A   1      43.951  26.144  36.078  1.00  0.00     0.198 A 
ATOM     84  F   UNL A   1      45.257  27.896  35.202  1.00  0.00    -0.203 F 
ATOM     85  F   UNL A   1      40.469  25.305  35.540  1.00  0.00    -0.200 F 
ATOM     86  C   UNL A   1      42.737  25.481  36.171  1.00  0.00     0.200 A 
ATOM     87  F   UNL A   1      45.004  25.717  36.790  1.00  0.00    -0.200 F 
ATOM     88  F   UNL A   1      42.608  24.427  36.988  1.00  0.00    -0.200 F 
ENDBRANCH  54  78
BRANCH  66  89
ATOM     89  C   UNL A   1      44.161  28.577  27.663  1.00  0.00     0.064 A 
ATOM     90  C   UNL A   1      45.426  28.012  27.441  1.00  0.00     0.173 A 
ATOM     91  C   UNL A   1      43.106  28.170  26.831  1.00  0.00     0.173 A 
ATOM     92  F   UNL A   1      46.471  28.378  28.200  1.00  0.00    -0.203 F 
ATOM     93  C   UNL A   1      45.630  27.097  26.411  1.00  0.00     0.198 A 
ATOM     94  C   UNL A   1      43.308  27.231  25.823  1.00  0.00     0.198 A 
ATOM     95  F   UNL A   1      41.874  28.671  27.005  1.00  0.00    -0.203 F 
ATOM     96  F   UNL A   1      46.858  26.607  26.187  1.00  0.00    -0.200 F 
ATOM     97  C   UNL A   1      44.572  26.701  25.609  1.00  0.00     0.200 A 
ATOM     98  F   UNL A   1      42.280  26.838  25.059  1.00  0.00    -0.200 F 
ATOM     99  F   UNL A   1      44.769  25.814  24.624  1.00  0.00    -0.200 F 
ENDBRANCH  66  89
ENDBRANCH  40  41
ENDBRANCH  33  35
ENDBRANCH  32  33
ENDBRANCH  31  32
ENDBRANCH  30  31
ENDBRANCH  29  30
ENDBRANCH  28  29
ENDBRANCH  27  28
ENDBRANCH   1  27
TORSDOF 23
ENDMDL
