MODEL 1
REMARK VINA RESULT:     -11.5      0.000      0.000
REMARK SMILES COc1ccc(-c2ccc(CCC(=O)OCCOCCOCCOC(=O)c3ccc(-c4c5nc(c(-c6c(F)c(F)c(F)c(F)c6F)c6ccc([nH]6)c(-c6c(F)c(F)c(F)c(F)c6F)c6nc(c(-c7c(F)c(F)c(F)c(F)c7F)c7ccc4[nH]7)C=C6)C=C5)cc3)n2-c2ccc(C(C)=O)cc2)cc1
REMARK SMILES IDX 19 1 18 2 17 3 16 4 15 5 13 6 14 7 12 8 11 9 10 10 7 11 8 12
REMARK SMILES IDX 90 13 9 14 6 15 3 16 4 17 101 18 5 19 100 20 2 21 1 22 91 23
REMARK SMILES IDX 92 24 99 25 93 26 98 27 94 28 95 29 96 30 97 31 20 32 21 33
REMARK SMILES IDX 22 34 23 35 24 36 25 37 26 38 27 39 28 40 89 41 29 42 88 43
REMARK SMILES IDX 30 44 31 45 32 46 82 47 33 48 87 49 81 50 83 51 34 52 86 53
REMARK SMILES IDX 80 54 79 55 35 57 67 58 47 59 66 60 48 61 51 62 65 63 84 64
REMARK SMILES IDX 49 65 50 66 64 68 85 69 52 70 36 71 37 72 45 73 38 74 39 75
REMARK SMILES IDX 43 76 46 77 40 78 41 79 44 80 42 81 68 82 69 83 77 84 70 85
REMARK SMILES IDX 71 86 75 87 78 88 72 89 73 90 76 91 74 92 53 93 54 94 62 95
REMARK SMILES IDX 55 96 56 97 60 98 63 99 57 100 58 101 61 102 59 103
REMARK H PARENT 83 56 51 67
REMARK Flexibility Score: inf
ROOT
ATOM      1  C   UNL A   1      34.997  23.040  23.793  1.00  0.00     0.188 C 
ENDROOT
BRANCH   1   2
ATOM      2  O   UNL A   1      34.582  21.685  23.952  1.00  0.00    -0.376 OA
BRANCH   2   3
ATOM      3  C   UNL A   1      33.187  21.434  23.809  1.00  0.00     0.202 C 
BRANCH   3   4
ATOM      4  C   UNL A   1      32.539  20.719  24.996  1.00  0.00     0.261 C 
BRANCH   4   5
ATOM      5  O   UNL A   1      33.391  20.736  26.154  1.00  0.00    -0.463 OA
BRANCH   5   6
ATOM      6  C   UNL A   1      33.361  21.823  26.957  1.00  0.00     0.306 C 
ATOM      7  O   UNL A   1      34.246  22.119  27.751  1.00  0.00    -0.252 OA
BRANCH   6   8
ATOM      8  C   UNL A   1      32.111  22.673  26.797  1.00  0.00     0.129 C 
BRANCH   8   9
ATOM      9  C   UNL A   1      32.229  24.189  26.591  1.00  0.00     0.066 C 
BRANCH   9  10
ATOM     10  C   UNL A   1      31.536  24.714  25.363  1.00  0.00     0.024 A 
ATOM     11  C   UNL A   1      30.514  26.148  23.956  1.00  0.00     0.053 A 
ATOM     12  C   UNL A   1      30.249  24.869  23.511  1.00  0.00     0.029 A 
ATOM     13  N   UNL A   1      31.426  26.055  25.004  1.00  0.00    -0.314 N 
ATOM     14  C   UNL A   1      30.861  23.989  24.400  1.00  0.00     0.024 A 
BRANCH  11  15
ATOM     15  C   UNL A   1      29.920  27.355  23.409  1.00  0.00    -0.001 A 
ATOM     16  C   UNL A   1      28.636  29.577  22.325  1.00  0.00     0.118 A 
ATOM     17  C   UNL A   1      30.018  29.426  22.181  1.00  0.00     0.047 A 
ATOM     18  C   UNL A   1      27.888  28.590  22.961  1.00  0.00     0.047 A 
ATOM     19  C   UNL A   1      30.666  28.317  22.728  1.00  0.00     0.014 A 
ATOM     20  C   UNL A   1      28.529  27.486  23.505  1.00  0.00     0.014 A 
BRANCH  16  21
ATOM     21  O   UNL A   1      28.082  30.701  21.775  1.00  0.00    -0.497 OA
ATOM     22  C   UNL A   1      28.756  31.899  22.155  1.00  0.00     0.278 C 
ENDBRANCH  16  21
ENDBRANCH  11  15
BRANCH  13  23
ATOM     23  C   UNL A   1      32.090  27.135  25.638  1.00  0.00     0.046 A 
ATOM     24  C   UNL A   1      31.416  27.879  26.612  1.00  0.00     0.027 A 
ATOM     25  C   UNL A   1      33.400  27.450  25.285  1.00  0.00     0.027 A 
ATOM     26  C   UNL A   1      32.056  28.962  27.230  1.00  0.00     0.014 A 
ATOM     27  C   UNL A   1      34.022  28.545  25.885  1.00  0.00     0.014 A 
ATOM     28  C   UNL A   1      33.359  29.314  26.859  1.00  0.00     0.017 A 
BRANCH  28  29
ATOM     29  C   UNL A   1      34.099  30.485  27.429  1.00  0.00     0.159 C 
ATOM     30  C   UNL A   1      35.588  30.436  27.660  1.00  0.00     0.093 C 
ATOM     31  O   UNL A   1      33.476  31.512  27.703  1.00  0.00    -0.295 OA
ENDBRANCH  28  29
ENDBRANCH  13  23
ENDBRANCH   9  10
ENDBRANCH   8   9
ENDBRANCH   6   8
ENDBRANCH   5   6
ENDBRANCH   4   5
ENDBRANCH   3   4
ENDBRANCH   2   3
ENDBRANCH   1   2
BRANCH   1  32
ATOM     32  C   UNL A   1      35.881  23.562  24.922  1.00  0.00     0.188 C 
BRANCH  32  33
ATOM     33  O   UNL A   1      37.243  23.171  24.824  1.00  0.00    -0.376 OA
BRANCH  33  34
ATOM     34  C   UNL A   1      37.832  22.127  25.610  1.00  0.00     0.202 C 
BRANCH  34  35
ATOM     35  C   UNL A   1      39.247  22.179  26.181  1.00  0.00     0.261 C 
BRANCH  35  36
ATOM     36  O   UNL A   1      39.614  21.029  26.893  1.00  0.00    -0.460 OA
BRANCH  36  37
ATOM     37  C   UNL A   1      40.562  20.304  26.284  1.00  0.00     0.338 C 
ATOM     38  O   UNL A   1      40.448  19.233  25.698  1.00  0.00    -0.246 OA
BRANCH  37  39
ATOM     39  C   UNL A   1      41.817  21.015  26.465  1.00  0.00     0.060 A 
ATOM     40  C   UNL A   1      42.223  21.198  27.786  1.00  0.00     0.016 A 
ATOM     41  C   UNL A   1      42.263  21.797  25.393  1.00  0.00     0.016 A 
ATOM     42  C   UNL A   1      42.827  22.384  28.086  1.00  0.00     0.010 A 
ATOM     43  C   UNL A   1      42.787  23.015  25.697  1.00  0.00     0.010 A 
ATOM     44  C   UNL A   1      42.997  23.307  27.048  1.00  0.00    -0.014 A 
BRANCH  44  45
ATOM     45  C   UNL A   1      43.569  24.593  27.382  1.00  0.00     0.031 A 
ATOM     46  C   UNL A   1      42.424  25.550  27.751  1.00  0.00     0.074 A 
ATOM     47  C   UNL A   1      44.934  24.627  27.270  1.00  0.00     0.049 A 
ATOM     48  N   UNL A   1      42.420  26.839  27.832  1.00  0.00    -0.248 NA
ATOM     49  C   UNL A   1      41.058  25.004  28.048  1.00  0.00     0.031 C 
ATOM     50  C   UNL A   1      45.814  23.478  26.909  1.00  0.00     0.029 A 
ATOM     51  N   UNL A   1      45.867  25.622  27.419  1.00  0.00    -0.354 N 
ATOM     52  C   UNL A   1      41.186  27.225  28.396  1.00  0.00     0.074 A 
ATOM     53  C   UNL A   1      40.350  26.072  28.412  1.00  0.00     0.031 C 
ATOM     54  C   UNL A   1      47.101  23.872  26.766  1.00  0.00     0.029 A 
ATOM     55  C   UNL A   1      47.201  25.289  27.048  1.00  0.00     0.049 A 
ATOM     56  H   UNL A   1      45.628  26.514  27.760  1.00  0.00     0.167 HD
ATOM     57  C   UNL A   1      40.992  28.459  28.937  1.00  0.00     0.037 A 
ATOM     58  C   UNL A   1      48.275  26.132  26.934  1.00  0.00     0.037 A 
ATOM     59  C   UNL A   1      42.132  29.274  28.687  1.00  0.00     0.049 A 
ATOM     60  C   UNL A   1      47.774  27.398  27.485  1.00  0.00     0.074 A 
ATOM     61  C   UNL A   1      42.581  29.827  27.515  1.00  0.00     0.029 A 
ATOM     62  N   UNL A   1      43.173  29.189  29.580  1.00  0.00    -0.354 N 
ATOM     63  N   UNL A   1      47.545  27.608  28.747  1.00  0.00    -0.248 NA
ATOM     64  C   UNL A   1      47.353  28.448  26.551  1.00  0.00     0.031 C 
ATOM     65  C   UNL A   1      43.967  29.578  27.563  1.00  0.00     0.029 A 
ATOM     66  C   UNL A   1      44.337  29.173  28.851  1.00  0.00     0.049 A 
ATOM     67  H   UNL A   1      43.097  29.147  30.562  1.00  0.00     0.167 HD
ATOM     68  C   UNL A   1      46.658  28.655  28.707  1.00  0.00     0.074 A 
ATOM     69  C   UNL A   1      46.841  29.306  27.427  1.00  0.00     0.031 C 
ATOM     70  C   UNL A   1      45.521  28.606  29.447  1.00  0.00     0.037 A 
BRANCH  57  71
ATOM     71  C   UNL A   1      39.943  28.981  29.862  1.00  0.00     0.064 A 
ATOM     72  C   UNL A   1      39.041  29.946  29.358  1.00  0.00     0.173 A 
ATOM     73  C   UNL A   1      40.023  28.862  31.255  1.00  0.00     0.173 A 
ATOM     74  F   UNL A   1      38.860  30.093  28.036  1.00  0.00    -0.203 F 
ATOM     75  C   UNL A   1      38.380  30.838  30.194  1.00  0.00     0.198 A 
ATOM     76  C   UNL A   1      39.318  29.729  32.093  1.00  0.00     0.198 A 
ATOM     77  F   UNL A   1      40.857  27.985  31.830  1.00  0.00    -0.203 F 
ATOM     78  F   UNL A   1      37.653  31.834  29.666  1.00  0.00    -0.200 F 
ATOM     79  C   UNL A   1      38.536  30.742  31.563  1.00  0.00     0.200 A 
ATOM     80  F   UNL A   1      39.465  29.631  33.422  1.00  0.00    -0.200 F 
ATOM     81  F   UNL A   1      37.962  31.646  32.369  1.00  0.00    -0.200 F 
ENDBRANCH  57  71
BRANCH  58  82
ATOM     82  C   UNL A   1      49.678  26.165  26.362  1.00  0.00     0.064 A 
ATOM     83  C   UNL A   1      50.030  26.324  25.018  1.00  0.00     0.173 A 
ATOM     84  C   UNL A   1      50.796  26.137  27.252  1.00  0.00     0.173 A 
ATOM     85  F   UNL A   1      49.107  26.243  24.052  1.00  0.00    -0.203 F 
ATOM     86  C   UNL A   1      51.364  26.562  24.619  1.00  0.00     0.198 A 
ATOM     87  C   UNL A   1      52.102  26.436  26.870  1.00  0.00     0.198 A 
ATOM     88  F   UNL A   1      50.661  25.824  28.547  1.00  0.00    -0.203 F 
ATOM     89  F   UNL A   1      51.655  26.713  23.320  1.00  0.00    -0.200 F 
ATOM     90  C   UNL A   1      52.387  26.669  25.550  1.00  0.00     0.200 A 
ATOM     91  F   UNL A   1      53.063  26.519  27.802  1.00  0.00    -0.200 F 
ATOM     92  F   UNL A   1      53.636  26.979  25.176  1.00  0.00    -0.200 F 
ENDBRANCH  58  82
BRANCH  70  93
ATOM     93  C   UNL A   1      45.581  27.656  30.632  1.00  0.00     0.064 A 
ATOM     94  C   UNL A   1      46.509  27.892  31.659  1.00  0.00     0.173 A 
ATOM     95  C   UNL A   1      44.844  26.463  30.741  1.00  0.00     0.173 A 
ATOM     96  F   UNL A   1      47.236  29.019  31.654  1.00  0.00    -0.203 F 
ATOM     97  C   UNL A   1      46.702  26.984  32.705  1.00  0.00     0.198 A 
ATOM     98  C   UNL A   1      45.035  25.550  31.784  1.00  0.00     0.198 A 
ATOM     99  F   UNL A   1      43.907  26.155  29.847  1.00  0.00    -0.203 F 
ATOM    100  F   UNL A   1      47.598  27.254  33.665  1.00  0.00    -0.200 F 
ATOM    101  C   UNL A   1      45.970  25.810  32.765  1.00  0.00     0.200 A 
ATOM    102  F   UNL A   1      44.303  24.426  31.835  1.00  0.00    -0.200 F 
ATOM    103  F   UNL A   1      46.148  24.946  33.774  1.00  0.00    -0.200 F 
ENDBRANCH  70  93
ENDBRANCH  44  45
ENDBRANCH  37  39
ENDBRANCH  36  37
ENDBRANCH  35  36
ENDBRANCH  34  35
ENDBRANCH  33  34
ENDBRANCH  32  33
ENDBRANCH   1  32
TORSDOF 23
ENDMDL
MODEL 2
REMARK VINA RESULT:     -11.1      1.122      2.060
REMARK SMILES COc1ccc(-c2ccc(CCC(=O)OCCOCCOCCOC(=O)c3ccc(-c4c5nc(c(-c6c(F)c(F)c(F)c(F)c6F)c6ccc([nH]6)c(-c6c(F)c(F)c(F)c(F)c6F)c6nc(c(-c7c(F)c(F)c(F)c(F)c7F)c7ccc4[nH]7)C=C6)C=C5)cc3)n2-c2ccc(C(C)=O)cc2)cc1
REMARK SMILES IDX 19 1 18 2 17 3 16 4 15 5 13 6 14 7 12 8 11 9 10 10 7 11 8 12
REMARK SMILES IDX 90 13 9 14 6 15 3 16 4 17 101 18 5 19 100 20 2 21 1 22 91 23
REMARK SMILES IDX 92 24 99 25 93 26 98 27 94 28 95 29 96 30 97 31 20 32 21 33
REMARK SMILES IDX 22 34 23 35 24 36 25 37 26 38 27 39 28 40 89 41 29 42 88 43
REMARK SMILES IDX 30 44 31 45 32 46 82 47 33 48 87 49 81 50 83 51 34 52 86 53
REMARK SMILES IDX 80 54 79 55 35 57 67 58 47 59 66 60 48 61 51 62 65 63 84 64
REMARK SMILES IDX 49 65 50 66 64 68 85 69 52 70 36 71 37 72 45 73 38 74 39 75
REMARK SMILES IDX 43 76 46 77 40 78 41 79 44 80 42 81 68 82 69 83 77 84 70 85
REMARK SMILES IDX 71 86 75 87 78 88 72 89 73 90 76 91 74 92 53 93 54 94 62 95
REMARK SMILES IDX 55 96 56 97 60 98 63 99 57 100 58 101 61 102 59 103
REMARK H PARENT 83 56 51 67
REMARK Flexibility Score: inf
ROOT
ATOM      1  C   UNL A   1      35.672  22.259  24.208  1.00  0.00     0.188 C 
ENDROOT
BRANCH   1   2
ATOM      2  O   UNL A   1      35.063  21.024  24.580  1.00  0.00    -0.376 OA
BRANCH   2   3
ATOM      3  C   UNL A   1      33.684  20.880  24.249  1.00  0.00     0.202 C 
BRANCH   3   4
ATOM      4  C   UNL A   1      32.793  20.417  25.403  1.00  0.00     0.261 C 
BRANCH   4   5
ATOM      5  O   UNL A   1      33.418  20.642  26.678  1.00  0.00    -0.463 OA
BRANCH   5   6
ATOM      6  C   UNL A   1      33.382  21.889  27.198  1.00  0.00     0.306 C 
ATOM      7  O   UNL A   1      34.202  22.327  27.996  1.00  0.00    -0.252 OA
BRANCH   6   8
ATOM      8  C   UNL A   1      32.215  22.729  26.706  1.00  0.00     0.129 C 
BRANCH   8   9
ATOM      9  C   UNL A   1      32.408  24.222  26.409  1.00  0.00     0.066 C 
BRANCH   9  10
ATOM     10  C   UNL A   1      31.630  24.736  25.228  1.00  0.00     0.024 A 
ATOM     11  C   UNL A   1      30.479  26.147  23.900  1.00  0.00     0.053 A 
ATOM     12  C   UNL A   1      30.240  24.865  23.451  1.00  0.00     0.029 A 
ATOM     13  N   UNL A   1      31.449  26.077  24.897  1.00  0.00    -0.314 N 
ATOM     14  C   UNL A   1      30.933  23.998  24.291  1.00  0.00     0.024 A 
BRANCH  11  15
ATOM     15  C   UNL A   1      29.810  27.337  23.406  1.00  0.00    -0.001 A 
ATOM     16  C   UNL A   1      28.669  29.712  22.500  1.00  0.00     0.118 A 
ATOM     17  C   UNL A   1      27.868  28.727  23.084  1.00  0.00     0.047 A 
ATOM     18  C   UNL A   1      30.048  29.535  22.421  1.00  0.00     0.047 A 
ATOM     19  C   UNL A   1      28.435  27.533  23.533  1.00  0.00     0.014 A 
ATOM     20  C   UNL A   1      30.614  28.349  22.868  1.00  0.00     0.014 A 
BRANCH  16  21
ATOM     21  O   UNL A   1      28.032  30.845  22.071  1.00  0.00    -0.497 OA
ATOM     22  C   UNL A   1      27.993  30.957  20.649  1.00  0.00     0.278 C 
ENDBRANCH  16  21
ENDBRANCH  11  15
BRANCH  13  23
ATOM     23  C   UNL A   1      32.104  27.173  25.511  1.00  0.00     0.046 A 
ATOM     24  C   UNL A   1      33.344  27.595  25.021  1.00  0.00     0.027 A 
ATOM     25  C   UNL A   1      31.514  27.815  26.597  1.00  0.00     0.027 A 
ATOM     26  C   UNL A   1      34.009  28.665  25.635  1.00  0.00     0.014 A 
ATOM     27  C   UNL A   1      32.194  28.863  27.220  1.00  0.00     0.014 A 
ATOM     28  C   UNL A   1      33.447  29.297  26.750  1.00  0.00     0.017 A 
BRANCH  28  29
ATOM     29  C   UNL A   1      34.110  30.412  27.498  1.00  0.00     0.159 C 
ATOM     30  C   UNL A   1      33.467  31.770  27.617  1.00  0.00     0.093 C 
ATOM     31  O   UNL A   1      35.200  30.208  28.036  1.00  0.00    -0.295 OA
ENDBRANCH  28  29
ENDBRANCH  13  23
ENDBRANCH   9  10
ENDBRANCH   8   9
ENDBRANCH   6   8
ENDBRANCH   5   6
ENDBRANCH   4   5
ENDBRANCH   3   4
ENDBRANCH   2   3
ENDBRANCH   1   2
BRANCH   1  32
ATOM     32  C   UNL A   1      36.447  22.939  25.334  1.00  0.00     0.188 C 
BRANCH  32  33
ATOM     33  O   UNL A   1      37.857  22.813  25.230  1.00  0.00    -0.376 OA
BRANCH  33  34
ATOM     34  C   UNL A   1      38.603  21.718  25.778  1.00  0.00     0.202 C 
BRANCH  34  35
ATOM     35  C   UNL A   1      39.778  21.878  26.739  1.00  0.00     0.261 C 
BRANCH  35  36
ATOM     36  O   UNL A   1      40.287  20.663  27.220  1.00  0.00    -0.460 OA
BRANCH  36  37
ATOM     37  C   UNL A   1      41.198  20.109  26.408  1.00  0.00     0.338 C 
ATOM     38  O   UNL A   1      41.116  19.072  25.759  1.00  0.00    -0.246 OA
BRANCH  37  39
ATOM     39  C   UNL A   1      42.373  20.965  26.449  1.00  0.00     0.060 A 
ATOM     40  C   UNL A   1      42.834  21.298  27.721  1.00  0.00     0.016 A 
ATOM     41  C   UNL A   1      42.662  21.699  25.293  1.00  0.00     0.016 A 
ATOM     42  C   UNL A   1      43.316  22.564  27.889  1.00  0.00     0.010 A 
ATOM     43  C   UNL A   1      43.061  22.988  25.468  1.00  0.00     0.010 A 
ATOM     44  C   UNL A   1      43.317  23.411  26.775  1.00  0.00    -0.014 A 
BRANCH  44  45
ATOM     45  C   UNL A   1      43.758  24.775  26.972  1.00  0.00     0.031 A 
ATOM     46  C   UNL A   1      42.577  25.590  27.525  1.00  0.00     0.074 A 
ATOM     47  C   UNL A   1      45.063  24.982  26.611  1.00  0.00     0.049 A 
ATOM     48  N   UNL A   1      42.411  26.870  27.578  1.00  0.00    -0.248 NA
ATOM     49  C   UNL A   1      41.374  24.884  28.078  1.00  0.00     0.031 C 
ATOM     50  C   UNL A   1      46.014  23.944  26.120  1.00  0.00     0.029 A 
ATOM     51  N   UNL A   1      45.863  26.096  26.566  1.00  0.00    -0.354 N 
ATOM     52  C   UNL A   1      41.257  27.116  28.349  1.00  0.00     0.074 A 
ATOM     53  C   UNL A   1      40.603  25.865  28.543  1.00  0.00     0.031 C 
ATOM     54  C   UNL A   1      47.188  24.495  25.735  1.00  0.00     0.029 A 
ATOM     55  C   UNL A   1      47.142  25.924  25.964  1.00  0.00     0.049 A 
ATOM     56  H   UNL A   1      45.569  26.964  26.927  1.00  0.00     0.167 HD
ATOM     57  C   UNL A   1      40.996  28.337  28.891  1.00  0.00     0.037 A 
ATOM     58  C   UNL A   1      48.053  26.895  25.637  1.00  0.00     0.037 A 
ATOM     59  C   UNL A   1      41.949  29.282  28.419  1.00  0.00     0.049 A 
ATOM     60  C   UNL A   1      47.490  28.108  26.245  1.00  0.00     0.074 A 
ATOM     61  C   UNL A   1      42.102  29.835  27.173  1.00  0.00     0.029 A 
ATOM     62  N   UNL A   1      43.135  29.375  29.109  1.00  0.00    -0.354 N 
ATOM     63  N   UNL A   1      47.463  28.344  27.522  1.00  0.00    -0.248 NA
ATOM     64  C   UNL A   1      46.768  29.050  25.382  1.00  0.00     0.031 C 
ATOM     65  C   UNL A   1      43.495  29.772  26.972  1.00  0.00     0.029 A 
ATOM     66  C   UNL A   1      44.141  29.478  28.179  1.00  0.00     0.049 A 
ATOM     67  H   UNL A   1      43.242  29.369  30.088  1.00  0.00     0.167 HD
ATOM     68  C   UNL A   1      46.448  29.263  27.623  1.00  0.00     0.074 A 
ATOM     69  C   UNL A   1      46.308  29.873  26.318  1.00  0.00     0.031 C 
ATOM     70  C   UNL A   1      45.479  29.099  28.560  1.00  0.00     0.037 A 
BRANCH  57  71
ATOM     71  C   UNL A   1      40.067  28.759  29.981  1.00  0.00     0.064 A 
ATOM     72  C   UNL A   1      40.463  28.517  31.316  1.00  0.00     0.173 A 
ATOM     73  C   UNL A   1      38.709  29.030  29.767  1.00  0.00     0.173 A 
ATOM     74  F   UNL A   1      41.753  28.301  31.620  1.00  0.00    -0.203 F 
ATOM     75  C   UNL A   1      39.537  28.399  32.346  1.00  0.00     0.198 A 
ATOM     76  C   UNL A   1      37.788  28.960  30.815  1.00  0.00     0.198 A 
ATOM     77  F   UNL A   1      38.232  29.261  28.537  1.00  0.00    -0.203 F 
ATOM     78  F   UNL A   1      39.941  28.019  33.566  1.00  0.00    -0.200 F 
ATOM     79  C   UNL A   1      38.194  28.600  32.090  1.00  0.00     0.200 A 
ATOM     80  F   UNL A   1      36.486  29.161  30.567  1.00  0.00    -0.200 F 
ATOM     81  F   UNL A   1      37.290  28.413  33.061  1.00  0.00    -0.200 F 
ENDBRANCH  57  71
BRANCH  58  82
ATOM     82  C   UNL A   1      49.313  27.085  24.818  1.00  0.00     0.064 A 
ATOM     83  C   UNL A   1      50.630  27.028  25.286  1.00  0.00     0.173 A 
ATOM     84  C   UNL A   1      49.209  27.238  23.401  1.00  0.00     0.173 A 
ATOM     85  F   UNL A   1      50.893  27.012  26.598  1.00  0.00    -0.203 F 
ATOM     86  C   UNL A   1      51.734  26.998  24.404  1.00  0.00     0.198 A 
ATOM     87  C   UNL A   1      50.290  27.143  22.527  1.00  0.00     0.198 A 
ATOM     88  F   UNL A   1      48.037  27.480  22.801  1.00  0.00    -0.203 F 
ATOM     89  F   UNL A   1      52.979  26.939  24.895  1.00  0.00    -0.200 F 
ATOM     90  C   UNL A   1      51.558  27.003  23.028  1.00  0.00     0.200 A 
ATOM     91  F   UNL A   1      50.076  27.163  21.203  1.00  0.00    -0.200 F 
ATOM     92  F   UNL A   1      52.602  26.889  22.194  1.00  0.00    -0.200 F 
ENDBRANCH  58  82
BRANCH  70  93
ATOM     93  C   UNL A   1      45.879  28.220  29.733  1.00  0.00     0.064 A 
ATOM     94  C   UNL A   1      46.895  28.649  30.602  1.00  0.00     0.173 A 
ATOM     95  C   UNL A   1      45.385  26.924  29.970  1.00  0.00     0.173 A 
ATOM     96  F   UNL A   1      47.406  29.882  30.471  1.00  0.00    -0.203 F 
ATOM     97  C   UNL A   1      47.397  27.830  31.618  1.00  0.00     0.198 A 
ATOM     98  C   UNL A   1      45.885  26.099  30.982  1.00  0.00     0.198 A 
ATOM     99  F   UNL A   1      44.392  26.428  29.235  1.00  0.00    -0.203 F 
ATOM    100  F   UNL A   1      48.366  28.285  32.424  1.00  0.00    -0.200 F 
ATOM    101  C   UNL A   1      46.896  26.552  31.805  1.00  0.00     0.200 A 
ATOM    102  F   UNL A   1      45.375  24.870  31.161  1.00  0.00    -0.200 F 
ATOM    103  F   UNL A   1      47.370  25.771  32.785  1.00  0.00    -0.200 F 
ENDBRANCH  70  93
ENDBRANCH  44  45
ENDBRANCH  37  39
ENDBRANCH  36  37
ENDBRANCH  35  36
ENDBRANCH  34  35
ENDBRANCH  33  34
ENDBRANCH  32  33
ENDBRANCH   1  32
TORSDOF 23
ENDMDL
MODEL 3
REMARK VINA RESULT:     -10.5      1.330      3.098
REMARK SMILES COc1ccc(-c2ccc(CCC(=O)OCCOCCOCCOC(=O)c3ccc(-c4c5nc(c(-c6c(F)c(F)c(F)c(F)c6F)c6ccc([nH]6)c(-c6c(F)c(F)c(F)c(F)c6F)c6nc(c(-c7c(F)c(F)c(F)c(F)c7F)c7ccc4[nH]7)C=C6)C=C5)cc3)n2-c2ccc(C(C)=O)cc2)cc1
REMARK SMILES IDX 19 1 18 2 17 3 16 4 15 5 13 6 14 7 12 8 11 9 10 10 7 11 8 12
REMARK SMILES IDX 90 13 9 14 6 15 3 16 4 17 101 18 5 19 100 20 2 21 1 22 91 23
REMARK SMILES IDX 92 24 99 25 93 26 98 27 94 28 95 29 96 30 97 31 20 32 21 33
REMARK SMILES IDX 22 34 23 35 24 36 25 37 26 38 27 39 28 40 89 41 29 42 88 43
REMARK SMILES IDX 30 44 31 45 32 46 82 47 33 48 87 49 81 50 83 51 34 52 86 53
REMARK SMILES IDX 80 54 79 55 35 57 67 58 47 59 66 60 48 61 51 62 65 63 84 64
REMARK SMILES IDX 49 65 50 66 64 68 85 69 52 70 36 71 37 72 45 73 38 74 39 75
REMARK SMILES IDX 43 76 46 77 40 78 41 79 44 80 42 81 68 82 69 83 77 84 70 85
REMARK SMILES IDX 71 86 75 87 78 88 72 89 73 90 76 91 74 92 53 93 54 94 62 95
REMARK SMILES IDX 55 96 56 97 60 98 63 99 57 100 58 101 61 102 59 103
REMARK H PARENT 83 56 51 67
REMARK Flexibility Score: inf
ROOT
ATOM      1  C   UNL A   1      36.605  23.170  24.142  1.00  0.00     0.188 C 
ENDROOT
BRANCH   1   2
ATOM      2  O   UNL A   1      35.312  22.776  23.689  1.00  0.00    -0.376 OA
BRANCH   2   3
ATOM      3  C   UNL A   1      34.864  23.367  22.473  1.00  0.00     0.202 C 
BRANCH   3   4
ATOM      4  C   UNL A   1      33.385  23.138  22.153  1.00  0.00     0.261 C 
BRANCH   4   5
ATOM      5  O   UNL A   1      32.867  21.989  22.845  1.00  0.00    -0.463 OA
BRANCH   5   6
ATOM      6  C   UNL A   1      31.958  22.187  23.825  1.00  0.00     0.306 C 
ATOM      7  O   UNL A   1      31.931  21.559  24.877  1.00  0.00    -0.252 OA
BRANCH   6   8
ATOM      8  C   UNL A   1      30.942  23.274  23.514  1.00  0.00     0.129 C 
BRANCH   8   9
ATOM      9  C   UNL A   1      31.404  24.719  23.281  1.00  0.00     0.066 C 
BRANCH   9  10
ATOM     10  C   UNL A   1      31.834  25.452  24.523  1.00  0.00     0.024 A 
ATOM     11  C   UNL A   1      32.422  27.146  25.888  1.00  0.00     0.053 A 
ATOM     12  C   UNL A   1      32.818  25.970  26.491  1.00  0.00     0.029 A 
ATOM     13  N   UNL A   1      31.686  26.817  24.752  1.00  0.00    -0.314 N 
ATOM     14  C   UNL A   1      32.475  24.931  25.631  1.00  0.00     0.024 A 
BRANCH  11  15
ATOM     15  C   UNL A   1      32.743  28.476  26.375  1.00  0.00    -0.001 A 
ATOM     16  C   UNL A   1      33.497  30.958  27.391  1.00  0.00     0.118 A 
ATOM     17  C   UNL A   1      32.145  30.651  27.225  1.00  0.00     0.047 A 
ATOM     18  C   UNL A   1      34.472  30.005  27.103  1.00  0.00     0.047 A 
ATOM     19  C   UNL A   1      31.763  29.410  26.710  1.00  0.00     0.014 A 
ATOM     20  C   UNL A   1      34.094  28.771  26.592  1.00  0.00     0.014 A 
BRANCH  16  21
ATOM     21  O   UNL A   1      33.787  32.201  27.884  1.00  0.00    -0.497 OA
ATOM     22  C   UNL A   1      35.156  32.566  27.709  1.00  0.00     0.278 C 
ENDBRANCH  16  21
ENDBRANCH  11  15
BRANCH  13  23
ATOM     23  C   UNL A   1      30.956  27.715  23.935  1.00  0.00     0.046 A 
ATOM     24  C   UNL A   1      31.645  28.666  23.173  1.00  0.00     0.027 A 
ATOM     25  C   UNL A   1      29.565  27.651  23.899  1.00  0.00     0.027 A 
ATOM     26  C   UNL A   1      30.932  29.573  22.378  1.00  0.00     0.014 A 
ATOM     27  C   UNL A   1      28.861  28.574  23.126  1.00  0.00     0.014 A 
ATOM     28  C   UNL A   1      29.532  29.544  22.360  1.00  0.00     0.017 A 
BRANCH  28  29
ATOM     29  C   UNL A   1      28.690  30.507  21.581  1.00  0.00     0.159 C 
ATOM     30  C   UNL A   1      28.740  31.989  21.848  1.00  0.00     0.093 C 
ATOM     31  O   UNL A   1      27.950  30.074  20.696  1.00  0.00    -0.295 OA
ENDBRANCH  28  29
ENDBRANCH  13  23
ENDBRANCH   9  10
ENDBRANCH   8   9
ENDBRANCH   6   8
ENDBRANCH   5   6
ENDBRANCH   4   5
ENDBRANCH   3   4
ENDBRANCH   2   3
ENDBRANCH   1   2
BRANCH   1  32
ATOM     32  C   UNL A   1      36.860  22.903  25.622  1.00  0.00     0.188 C 
BRANCH  32  33
ATOM     33  O   UNL A   1      37.187  21.554  25.924  1.00  0.00    -0.376 OA
BRANCH  33  34
ATOM     34  C   UNL A   1      37.870  20.677  25.018  1.00  0.00     0.202 C 
BRANCH  34  35
ATOM     35  C   UNL A   1      38.957  19.691  25.437  1.00  0.00     0.261 C 
BRANCH  35  36
ATOM     36  O   UNL A   1      39.998  20.273  26.174  1.00  0.00    -0.460 OA
BRANCH  36  37
ATOM     37  C   UNL A   1      41.146  19.585  26.110  1.00  0.00     0.338 C 
ATOM     38  O   UNL A   1      41.319  18.409  25.811  1.00  0.00    -0.246 OA
BRANCH  37  39
ATOM     39  C   UNL A   1      42.206  20.501  26.501  1.00  0.00     0.060 A 
ATOM     40  C   UNL A   1      42.165  20.944  27.822  1.00  0.00     0.016 A 
ATOM     41  C   UNL A   1      42.880  21.167  25.471  1.00  0.00     0.016 A 
ATOM     42  C   UNL A   1      42.525  22.241  28.047  1.00  0.00     0.010 A 
ATOM     43  C   UNL A   1      43.159  22.484  25.671  1.00  0.00     0.010 A 
ATOM     44  C   UNL A   1      42.913  23.009  26.943  1.00  0.00    -0.014 A 
BRANCH  44  45
ATOM     45  C   UNL A   1      43.221  24.403  27.172  1.00  0.00     0.031 A 
ATOM     46  C   UNL A   1      41.905  25.153  27.433  1.00  0.00     0.074 A 
ATOM     47  C   UNL A   1      44.559  24.686  27.083  1.00  0.00     0.049 A 
ATOM     48  N   UNL A   1      41.656  26.420  27.399  1.00  0.00    -0.248 NA
ATOM     49  C   UNL A   1      40.656  24.385  27.752  1.00  0.00     0.031 C 
ATOM     50  C   UNL A   1      45.650  23.699  26.843  1.00  0.00     0.029 A 
ATOM     51  N   UNL A   1      45.283  25.849  27.161  1.00  0.00    -0.354 N 
ATOM     52  C   UNL A   1      40.353  26.610  27.903  1.00  0.00     0.074 A 
ATOM     53  C   UNL A   1      39.747  25.325  28.007  1.00  0.00     0.031 C 
ATOM     54  C   UNL A   1      46.845  24.317  26.689  1.00  0.00     0.029 A 
ATOM     55  C   UNL A   1      46.667  25.745  26.846  1.00  0.00     0.049 A 
ATOM     56  H   UNL A   1      44.869  26.705  27.417  1.00  0.00     0.167 HD
ATOM     57  C   UNL A   1      39.913  27.826  28.329  1.00  0.00     0.037 A 
ATOM     58  C   UNL A   1      47.568  26.765  26.677  1.00  0.00     0.037 A 
ATOM     59  C   UNL A   1      40.887  28.819  28.029  1.00  0.00     0.049 A 
ATOM     60  C   UNL A   1      46.820  27.954  27.104  1.00  0.00     0.074 A 
ATOM     61  C   UNL A   1      41.266  29.347  26.821  1.00  0.00     0.029 A 
ATOM     62  N   UNL A   1      41.893  29.008  28.946  1.00  0.00    -0.354 N 
ATOM     63  N   UNL A   1      46.511  28.222  28.338  1.00  0.00    -0.248 NA
ATOM     64  C   UNL A   1      46.242  28.823  26.073  1.00  0.00     0.031 C 
ATOM     65  C   UNL A   1      42.671  29.370  26.917  1.00  0.00     0.029 A 
ATOM     66  C   UNL A   1      43.065  29.152  28.242  1.00  0.00     0.049 A 
ATOM     67  H   UNL A   1      41.793  29.035  29.925  1.00  0.00     0.167 HD
ATOM     68  C   UNL A   1      45.445  29.074  28.188  1.00  0.00     0.074 A 
ATOM     69  C   UNL A   1      45.548  29.638  26.859  1.00  0.00     0.031 C 
ATOM     70  C   UNL A   1      44.312  28.872  28.909  1.00  0.00     0.037 A 
BRANCH  57  71
ATOM     71  C   UNL A   1      38.752  28.215  29.184  1.00  0.00     0.064 A 
ATOM     72  C   UNL A   1      38.024  29.372  28.821  1.00  0.00     0.173 A 
ATOM     73  C   UNL A   1      38.571  27.743  30.490  1.00  0.00     0.173 A 
ATOM     74  F   UNL A   1      38.095  29.865  27.574  1.00  0.00    -0.203 F 
ATOM     75  C   UNL A   1      37.285  30.095  29.751  1.00  0.00     0.198 A 
ATOM     76  C   UNL A   1      37.787  28.446  31.408  1.00  0.00     0.198 A 
ATOM     77  F   UNL A   1      39.225  26.661  30.934  1.00  0.00    -0.203 F 
ATOM     78  F   UNL A   1      36.736  31.267  29.401  1.00  0.00    -0.200 F 
ATOM     79  C   UNL A   1      37.185  29.641  31.052  1.00  0.00     0.200 A 
ATOM     80  F   UNL A   1      37.685  28.001  32.669  1.00  0.00    -0.200 F 
ATOM     81  F   UNL A   1      36.539  30.373  31.970  1.00  0.00    -0.200 F 
ENDBRANCH  57  71
BRANCH  58  82
ATOM     82  C   UNL A   1      48.959  27.015  26.132  1.00  0.00     0.064 A 
ATOM     83  C   UNL A   1      49.285  27.473  24.850  1.00  0.00     0.173 A 
ATOM     84  C   UNL A   1      50.085  26.885  27.002  1.00  0.00     0.173 A 
ATOM     85  F   UNL A   1      48.360  27.527  23.885  1.00  0.00    -0.203 F 
ATOM     86  C   UNL A   1      50.595  27.883  24.516  1.00  0.00     0.198 A 
ATOM     87  C   UNL A   1      51.363  27.349  26.696  1.00  0.00     0.198 A 
ATOM     88  F   UNL A   1      49.986  26.302  28.203  1.00  0.00    -0.203 F 
ATOM     89  F   UNL A   1      50.862  28.319  23.278  1.00  0.00    -0.200 F 
ATOM     90  C   UNL A   1      51.617  27.869  25.453  1.00  0.00     0.200 A 
ATOM     91  F   UNL A   1      52.325  27.307  27.629  1.00  0.00    -0.200 F 
ATOM     92  F   UNL A   1      52.837  28.338  25.158  1.00  0.00    -0.200 F 
ENDBRANCH  58  82
BRANCH  70  93
ATOM     93  C   UNL A   1      44.508  28.054  30.174  1.00  0.00     0.064 A 
ATOM     94  C   UNL A   1      45.310  28.562  31.208  1.00  0.00     0.173 A 
ATOM     95  C   UNL A   1      44.032  26.743  30.363  1.00  0.00     0.173 A 
ATOM     96  F   UNL A   1      45.784  29.814  31.128  1.00  0.00    -0.203 F 
ATOM     97  C   UNL A   1      45.635  27.802  32.336  1.00  0.00     0.198 A 
ATOM     98  C   UNL A   1      44.355  25.978  31.488  1.00  0.00     0.198 A 
ATOM     99  F   UNL A   1      43.228  26.173  29.467  1.00  0.00    -0.203 F 
ATOM    100  F   UNL A   1      46.402  28.332  33.298  1.00  0.00    -0.200 F 
ATOM    101  C   UNL A   1      45.162  26.508  32.474  1.00  0.00     0.200 A 
ATOM    102  F   UNL A   1      43.873  24.731  31.613  1.00  0.00    -0.200 F 
ATOM    103  F   UNL A   1      45.464  25.784  33.561  1.00  0.00    -0.200 F 
ENDBRANCH  70  93
ENDBRANCH  44  45
ENDBRANCH  37  39
ENDBRANCH  36  37
ENDBRANCH  35  36
ENDBRANCH  34  35
ENDBRANCH  33  34
ENDBRANCH  32  33
ENDBRANCH   1  32
TORSDOF 23
ENDMDL
