MODEL 1
REMARK VINA RESULT:     -11.6      0.000      0.000
REMARK SMILES Cc1cccc(C[N@@H+](C)C[C@]2(C(=O)OCCOCCOCCOC(=O)c3ccc(-c4c5nc(c(-c6c(F)c(F)c(F)c(F)c6F)c6ccc([nH]6)c(-c6c(F)c(F)c(F)c(F)c6F)c6nc(c(-c7c(F)c(F)c(F)c(F)c7F)c7ccc4[nH]7)C=C6)C=C5)cc3)CCC[C@H](C)C2)n1
REMARK SMILES IDX 18 1 17 2 16 3 15 4 14 5 12 6 13 7 11 8 89 9 94 10 90 11
REMARK SMILES IDX 92 12 91 13 93 14 10 15 8 16 9 17 7 19 6 20 1 21 2 22 3 23
REMARK SMILES IDX 95 24 4 25 5 26 19 27 20 28 21 29 22 30 23 31 24 32 25 33
REMARK SMILES IDX 26 34 27 35 88 36 28 37 87 38 29 39 30 40 31 41 81 42 32 43
REMARK SMILES IDX 86 44 80 45 82 46 33 47 85 48 79 49 78 50 34 52 66 53 46 54
REMARK SMILES IDX 65 55 47 56 50 57 64 58 83 59 48 60 49 61 63 63 84 64 51 65
REMARK SMILES IDX 35 66 36 67 44 68 37 69 38 70 42 71 45 72 39 73 40 74 43 75
REMARK SMILES IDX 41 76 67 77 68 78 76 79 69 80 70 81 74 82 77 83 71 84 72 85
REMARK SMILES IDX 75 86 73 87 52 88 53 89 61 90 54 91 55 92 59 93 62 94 56 95
REMARK SMILES IDX 57 96 60 97 58 98
REMARK H PARENT 8 18 82 51 50 62
REMARK Flexibility Score: inf
ROOT
ATOM      1  C   UNL A   1      40.712  21.435  26.278  1.00  0.00     0.188 C 
ENDROOT
BRANCH   1   2
ATOM      2  O   UNL A   1      39.969  22.239  27.187  1.00  0.00    -0.376 OA
BRANCH   2   3
ATOM      3  C   UNL A   1      39.064  23.206  26.670  1.00  0.00     0.202 C 
BRANCH   3   4
ATOM      4  C   UNL A   1      38.049  22.706  25.646  1.00  0.00     0.261 C 
BRANCH   4   5
ATOM      5  O   UNL A   1      36.890  23.533  25.434  1.00  0.00    -0.463 OA
BRANCH   5   6
ATOM      6  C   UNL A   1      36.263  23.372  24.237  1.00  0.00     0.317 C 
ATOM      7  O   UNL A   1      36.858  23.289  23.164  1.00  0.00    -0.251 OA
BRANCH   6   8
ATOM      8  C   UNL A   1      34.721  23.367  24.334  1.00  0.00     0.117 C 
ATOM      9  C   UNL A   1      34.323  24.398  25.434  1.00  0.00     0.025 C 
ATOM     10  C   UNL A   1      33.930  23.672  23.031  1.00  0.00     0.028 C 
ATOM     11  C   UNL A   1      34.374  25.842  24.943  1.00  0.00     0.002 C 
ATOM     12  C   UNL A   1      33.693  25.148  22.644  1.00  0.00    -0.013 C 
ATOM     13  C   UNL A   1      33.350  26.032  23.840  1.00  0.00     0.003 C 
ATOM     14  C   UNL A   1      32.592  25.259  21.584  1.00  0.00     0.007 C 
BRANCH   8  15
ATOM     15  C   UNL A   1      34.353  21.939  24.875  1.00  0.00     0.281 C 
BRANCH  15  16
ATOM     16  N   UNL A   1      33.232  21.891  25.835  1.00  0.00    -0.331 N 
ATOM     17  C   UNL A   1      33.629  21.332  27.132  1.00  0.00     0.333 C 
ATOM     18  H   UNL A   1      32.965  22.869  25.945  1.00  0.00     0.348 HD
BRANCH  16  19
ATOM     19  C   UNL A   1      32.049  21.141  25.344  1.00  0.00     0.319 C 
BRANCH  19  20
ATOM     20  C   UNL A   1      32.322  19.807  24.655  1.00  0.00     0.095 A 
ATOM     21  C   UNL A   1      32.925  16.299  25.653  1.00  0.00     0.067 C 
ATOM     22  C   UNL A   1      32.751  17.520  24.796  1.00  0.00     0.038 A 
ATOM     23  C   UNL A   1      32.730  17.388  23.414  1.00  0.00     0.023 A 
ATOM     24  N   UNL A   1      32.556  18.710  25.421  1.00  0.00    -0.252 NA
ATOM     25  C   UNL A   1      32.525  18.521  22.638  1.00  0.00     0.004 A 
ATOM     26  C   UNL A   1      32.321  19.746  23.262  1.00  0.00     0.030 A 
ENDBRANCH  19  20
ENDBRANCH  16  19
ENDBRANCH  15  16
ENDBRANCH   8  15
ENDBRANCH   6   8
ENDBRANCH   5   6
ENDBRANCH   4   5
ENDBRANCH   3   4
ENDBRANCH   2   3
ENDBRANCH   1   2
BRANCH   1  27
ATOM     27  C   UNL A   1      42.209  21.240  26.522  1.00  0.00     0.188 C 
BRANCH  27  28
ATOM     28  O   UNL A   1      42.915  20.890  25.344  1.00  0.00    -0.376 OA
BRANCH  28  29
ATOM     29  C   UNL A   1      44.263  21.324  25.298  1.00  0.00     0.202 C 
BRANCH  29  30
ATOM     30  C   UNL A   1      44.410  22.453  24.274  1.00  0.00     0.261 C 
BRANCH  30  31
ATOM     31  O   UNL A   1      43.613  23.615  24.584  1.00  0.00    -0.460 OA
BRANCH  31  32
ATOM     32  C   UNL A   1      44.304  24.693  25.019  1.00  0.00     0.338 C 
ATOM     33  O   UNL A   1      45.394  25.070  24.633  1.00  0.00    -0.246 OA
BRANCH  32  34
ATOM     34  C   UNL A   1      43.426  25.497  25.896  1.00  0.00     0.060 A 
ATOM     35  C   UNL A   1      43.667  26.874  25.976  1.00  0.00     0.016 A 
ATOM     36  C   UNL A   1      42.417  24.910  26.660  1.00  0.00     0.016 A 
ATOM     37  C   UNL A   1      42.933  27.663  26.858  1.00  0.00     0.010 A 
ATOM     38  C   UNL A   1      41.699  25.699  27.567  1.00  0.00     0.010 A 
ATOM     39  C   UNL A   1      41.984  27.070  27.699  1.00  0.00    -0.014 A 
BRANCH  39  40
ATOM     40  C   UNL A   1      41.494  27.838  28.871  1.00  0.00     0.031 A 
ATOM     41  C   UNL A   1      42.270  27.737  30.157  1.00  0.00     0.074 A 
ATOM     42  C   UNL A   1      40.442  28.669  28.791  1.00  0.00     0.049 A 
ATOM     43  N   UNL A   1      42.038  28.289  31.320  1.00  0.00    -0.248 NA
ATOM     44  C   UNL A   1      43.479  26.899  30.116  1.00  0.00     0.031 C 
ATOM     45  C   UNL A   1      39.647  28.917  27.592  1.00  0.00     0.029 A 
ATOM     46  N   UNL A   1      39.865  29.463  29.752  1.00  0.00    -0.354 N 
ATOM     47  C   UNL A   1      43.064  27.857  32.151  1.00  0.00     0.074 A 
ATOM     48  C   UNL A   1      43.904  26.978  31.367  1.00  0.00     0.031 C 
ATOM     49  C   UNL A   1      38.674  29.795  27.892  1.00  0.00     0.029 A 
ATOM     50  C   UNL A   1      38.758  30.144  29.311  1.00  0.00     0.049 A 
ATOM     51  H   UNL A   1      40.212  29.536  30.671  1.00  0.00     0.167 HD
ATOM     52  C   UNL A   1      43.292  28.168  33.449  1.00  0.00     0.037 A 
ATOM     53  C   UNL A   1      37.901  30.938  29.982  1.00  0.00     0.037 A 
ATOM     54  C   UNL A   1      42.461  29.038  34.235  1.00  0.00     0.049 A 
ATOM     55  C   UNL A   1      38.133  31.218  31.447  1.00  0.00     0.074 A 
ATOM     56  C   UNL A   1      42.599  29.400  35.563  1.00  0.00     0.029 A 
ATOM     57  N   UNL A   1      41.326  29.681  33.761  1.00  0.00    -0.354 N 
ATOM     58  N   UNL A   1      39.095  30.797  32.231  1.00  0.00    -0.248 NA
ATOM     59  C   UNL A   1      37.159  32.093  32.116  1.00  0.00     0.031 C 
ATOM     60  C   UNL A   1      41.523  30.228  35.906  1.00  0.00     0.029 A 
ATOM     61  C   UNL A   1      40.744  30.424  34.776  1.00  0.00     0.049 A 
ATOM     62  H   UNL A   1      40.984  29.619  32.840  1.00  0.00     0.167 HD
ATOM     63  C   UNL A   1      38.856  31.367  33.476  1.00  0.00     0.074 A 
ATOM     64  C   UNL A   1      37.666  32.181  33.338  1.00  0.00     0.031 C 
ATOM     65  C   UNL A   1      39.560  31.231  34.628  1.00  0.00     0.037 A 
BRANCH  52  66
ATOM     66  C   UNL A   1      44.471  27.509  34.105  1.00  0.00     0.064 A 
ATOM     67  C   UNL A   1      45.761  28.056  34.027  1.00  0.00     0.173 A 
ATOM     68  C   UNL A   1      44.309  26.300  34.795  1.00  0.00     0.173 A 
ATOM     69  F   UNL A   1      45.972  29.199  33.359  1.00  0.00    -0.203 F 
ATOM     70  C   UNL A   1      46.853  27.392  34.584  1.00  0.00     0.198 A 
ATOM     71  C   UNL A   1      45.397  25.655  35.377  1.00  0.00     0.198 A 
ATOM     72  F   UNL A   1      43.096  25.736  34.897  1.00  0.00    -0.203 F 
ATOM     73  F   UNL A   1      48.086  27.896  34.439  1.00  0.00    -0.200 F 
ATOM     74  C   UNL A   1      46.669  26.196  35.260  1.00  0.00     0.200 A 
ATOM     75  F   UNL A   1      45.216  24.504  36.037  1.00  0.00    -0.200 F 
ATOM     76  F   UNL A   1      47.721  25.554  35.787  1.00  0.00    -0.200 F 
ENDBRANCH  52  66
BRANCH  53  77
ATOM     77  C   UNL A   1      36.720  31.505  29.281  1.00  0.00     0.064 A 
ATOM     78  C   UNL A   1      35.627  30.704  28.926  1.00  0.00     0.173 A 
ATOM     79  C   UNL A   1      36.672  32.865  28.939  1.00  0.00     0.173 A 
ATOM     80  F   UNL A   1      35.639  29.392  29.203  1.00  0.00    -0.203 F 
ATOM     81  C   UNL A   1      34.534  31.239  28.244  1.00  0.00     0.198 A 
ATOM     82  C   UNL A   1      35.569  33.403  28.282  1.00  0.00     0.198 A 
ATOM     83  F   UNL A   1      37.698  33.671  29.248  1.00  0.00    -0.203 F 
ATOM     84  F   UNL A   1      33.522  30.444  27.875  1.00  0.00    -0.200 F 
ATOM     85  C   UNL A   1      34.504  32.590  27.928  1.00  0.00     0.200 A 
ATOM     86  F   UNL A   1      35.541  34.711  27.986  1.00  0.00    -0.200 F 
ATOM     87  F   UNL A   1      33.453  33.104  27.276  1.00  0.00    -0.200 F 
ENDBRANCH  53  77
BRANCH  65  88
ATOM     88  C   UNL A   1      39.083  32.004  35.826  1.00  0.00     0.064 A 
ATOM     89  C   UNL A   1      38.237  31.431  36.787  1.00  0.00     0.173 A 
ATOM     90  C   UNL A   1      39.506  33.327  36.031  1.00  0.00     0.173 A 
ATOM     91  F   UNL A   1      37.794  30.174  36.633  1.00  0.00    -0.203 F 
ATOM     92  C   UNL A   1      37.809  32.163  37.893  1.00  0.00     0.198 A 
ATOM     93  C   UNL A   1      39.101  34.045  37.153  1.00  0.00     0.198 A 
ATOM     94  F   UNL A   1      40.323  33.921  35.148  1.00  0.00    -0.203 F 
ATOM     95  F   UNL A   1      36.960  31.612  38.771  1.00  0.00    -0.200 F 
ATOM     96  C   UNL A   1      38.245  33.466  38.078  1.00  0.00     0.200 A 
ATOM     97  F   UNL A   1      39.536  35.300  37.337  1.00  0.00    -0.200 F 
ATOM     98  F   UNL A   1      37.835  34.168  39.144  1.00  0.00    -0.200 F 
ENDBRANCH  65  88
ENDBRANCH  39  40
ENDBRANCH  32  34
ENDBRANCH  31  32
ENDBRANCH  30  31
ENDBRANCH  29  30
ENDBRANCH  28  29
ENDBRANCH  27  28
ENDBRANCH   1  27
TORSDOF 21
ENDMDL
MODEL 2
REMARK VINA RESULT:     -11.3      3.283      8.822
REMARK SMILES Cc1cccc(C[N@@H+](C)C[C@]2(C(=O)OCCOCCOCCOC(=O)c3ccc(-c4c5nc(c(-c6c(F)c(F)c(F)c(F)c6F)c6ccc([nH]6)c(-c6c(F)c(F)c(F)c(F)c6F)c6nc(c(-c7c(F)c(F)c(F)c(F)c7F)c7ccc4[nH]7)C=C6)C=C5)cc3)CCC[C@H](C)C2)n1
REMARK SMILES IDX 18 1 17 2 16 3 15 4 14 5 12 6 13 7 11 8 89 9 94 10 90 11
REMARK SMILES IDX 92 12 91 13 93 14 10 15 8 16 9 17 7 19 6 20 1 21 2 22 3 23
REMARK SMILES IDX 95 24 4 25 5 26 19 27 20 28 21 29 22 30 23 31 24 32 25 33
REMARK SMILES IDX 26 34 27 35 88 36 28 37 87 38 29 39 30 40 31 41 81 42 32 43
REMARK SMILES IDX 86 44 80 45 82 46 33 47 85 48 79 49 78 50 34 52 66 53 46 54
REMARK SMILES IDX 65 55 47 56 50 57 64 58 83 59 48 60 49 61 63 63 84 64 51 65
REMARK SMILES IDX 35 66 36 67 44 68 37 69 38 70 42 71 45 72 39 73 40 74 43 75
REMARK SMILES IDX 41 76 67 77 68 78 76 79 69 80 70 81 74 82 77 83 71 84 72 85
REMARK SMILES IDX 75 86 73 87 52 88 53 89 61 90 54 91 55 92 59 93 62 94 56 95
REMARK SMILES IDX 57 96 60 97 58 98
REMARK H PARENT 8 18 82 51 50 62
REMARK Flexibility Score: inf
ROOT
ATOM      1  C   UNL A   1      33.636  28.423  26.862  1.00  0.00     0.188 C 
ENDROOT
BRANCH   1   2
ATOM      2  O   UNL A   1      33.568  27.105  26.331  1.00  0.00    -0.376 OA
BRANCH   2   3
ATOM      3  C   UNL A   1      32.292  26.511  26.126  1.00  0.00     0.202 C 
BRANCH   3   4
ATOM      4  C   UNL A   1      32.177  25.024  26.445  1.00  0.00     0.261 C 
BRANCH   4   5
ATOM      5  O   UNL A   1      33.004  24.135  25.673  1.00  0.00    -0.463 OA
BRANCH   5   6
ATOM      6  C   UNL A   1      32.442  22.937  25.352  1.00  0.00     0.317 C 
ATOM      7  O   UNL A   1      31.512  22.434  25.980  1.00  0.00    -0.251 OA
BRANCH   6   8
ATOM      8  C   UNL A   1      33.120  22.227  24.159  1.00  0.00     0.117 C 
ATOM      9  C   UNL A   1      34.607  22.693  24.128  1.00  0.00     0.025 C 
ATOM     10  C   UNL A   1      33.064  20.674  24.137  1.00  0.00     0.028 C 
ATOM     11  C   UNL A   1      35.476  21.978  25.159  1.00  0.00     0.002 C 
ATOM     12  C   UNL A   1      34.126  19.890  24.938  1.00  0.00    -0.013 C 
ATOM     13  C   UNL A   1      35.522  20.497  24.834  1.00  0.00     0.003 C 
ATOM     14  C   UNL A   1      34.163  18.423  24.496  1.00  0.00     0.007 C 
BRANCH   8  15
ATOM     15  C   UNL A   1      32.417  22.818  22.884  1.00  0.00     0.281 C 
BRANCH  15  16
ATOM     16  N   UNL A   1      31.841  24.168  23.043  1.00  0.00    -0.331 N 
ATOM     17  C   UNL A   1      30.377  24.146  23.131  1.00  0.00     0.333 C 
ATOM     18  H   UNL A   1      32.236  24.499  23.923  1.00  0.00     0.348 HD
BRANCH  16  19
ATOM     19  C   UNL A   1      32.232  25.120  21.973  1.00  0.00     0.319 C 
BRANCH  19  20
ATOM     20  C   UNL A   1      32.456  26.570  22.396  1.00  0.00     0.095 A 
ATOM     21  C   UNL A   1      30.402  29.418  23.552  1.00  0.00     0.067 C 
ATOM     22  C   UNL A   1      31.595  28.608  23.128  1.00  0.00     0.038 A 
ATOM     23  C   UNL A   1      32.867  29.154  23.238  1.00  0.00     0.023 A 
ATOM     24  N   UNL A   1      31.378  27.335  22.709  1.00  0.00    -0.252 NA
ATOM     25  C   UNL A   1      33.961  28.376  22.882  1.00  0.00     0.004 A 
ATOM     26  C   UNL A   1      33.756  27.070  22.454  1.00  0.00     0.030 A 
ENDBRANCH  19  20
ENDBRANCH  16  19
ENDBRANCH  15  16
ENDBRANCH   8  15
ENDBRANCH   6   8
ENDBRANCH   5   6
ENDBRANCH   4   5
ENDBRANCH   3   4
ENDBRANCH   2   3
ENDBRANCH   1   2
BRANCH   1  27
ATOM     27  C   UNL A   1      32.359  29.262  26.920  1.00  0.00     0.188 C 
BRANCH  27  28
ATOM     28  O   UNL A   1      32.546  30.581  26.436  1.00  0.00    -0.376 OA
BRANCH  28  29
ATOM     29  C   UNL A   1      31.396  31.407  26.475  1.00  0.00     0.202 C 
BRANCH  29  30
ATOM     30  C   UNL A   1      31.754  32.766  27.083  1.00  0.00     0.261 C 
BRANCH  30  31
ATOM     31  O   UNL A   1      33.159  33.084  26.990  1.00  0.00    -0.460 OA
BRANCH  31  32
ATOM     32  C   UNL A   1      33.718  33.573  28.120  1.00  0.00     0.338 C 
ATOM     33  O   UNL A   1      33.216  34.350  28.910  1.00  0.00    -0.246 OA
BRANCH  32  34
ATOM     34  C   UNL A   1      34.973  32.839  28.384  1.00  0.00     0.060 A 
ATOM     35  C   UNL A   1      34.882  31.478  28.697  1.00  0.00     0.016 A 
ATOM     36  C   UNL A   1      36.213  33.480  28.373  1.00  0.00     0.016 A 
ATOM     37  C   UNL A   1      36.023  30.761  29.047  1.00  0.00     0.010 A 
ATOM     38  C   UNL A   1      37.356  32.766  28.752  1.00  0.00     0.010 A 
ATOM     39  C   UNL A   1      37.258  31.415  29.132  1.00  0.00    -0.014 A 
BRANCH  39  40
ATOM     40  C   UNL A   1      38.367  30.747  29.858  1.00  0.00     0.031 A 
ATOM     41  C   UNL A   1      38.566  31.087  31.311  1.00  0.00     0.074 A 
ATOM     42  C   UNL A   1      39.131  29.805  29.283  1.00  0.00     0.049 A 
ATOM     43  N   UNL A   1      39.471  30.660  32.154  1.00  0.00    -0.248 NA
ATOM     44  C   UNL A   1      37.604  32.040  31.889  1.00  0.00     0.031 C 
ATOM     45  C   UNL A   1      39.000  29.328  27.910  1.00  0.00     0.029 A 
ATOM     46  N   UNL A   1      40.177  29.077  29.797  1.00  0.00    -0.354 N 
ATOM     47  C   UNL A   1      39.193  31.297  33.356  1.00  0.00     0.074 A 
ATOM     48  C   UNL A   1      38.055  32.159  33.128  1.00  0.00     0.031 C 
ATOM     49  C   UNL A   1      39.940  28.394  27.683  1.00  0.00     0.029 A 
ATOM     50  C   UNL A   1      40.759  28.232  28.886  1.00  0.00     0.049 A 
ATOM     51  H   UNL A   1      40.480  29.154  30.731  1.00  0.00     0.167 HD
ATOM     52  C   UNL A   1      39.825  31.173  34.548  1.00  0.00     0.037 A 
ATOM     53  C   UNL A   1      41.842  27.438  29.003  1.00  0.00     0.037 A 
ATOM     54  C   UNL A   1      40.959  30.321  34.782  1.00  0.00     0.049 A 
ATOM     55  C   UNL A   1      42.574  27.365  30.321  1.00  0.00     0.074 A 
ATOM     56  C   UNL A   1      41.679  30.140  35.950  1.00  0.00     0.029 A 
ATOM     57  N   UNL A   1      41.543  29.507  33.823  1.00  0.00    -0.354 N 
ATOM     58  N   UNL A   1      42.318  27.980  31.449  1.00  0.00    -0.248 NA
ATOM     59  C   UNL A   1      43.747  26.479  30.378  1.00  0.00     0.031 C 
ATOM     60  C   UNL A   1      42.727  29.250  35.685  1.00  0.00     0.029 A 
ATOM     61  C   UNL A   1      42.626  28.835  34.367  1.00  0.00     0.049 A 
ATOM     62  H   UNL A   1      41.234  29.420  32.892  1.00  0.00     0.167 HD
ATOM     63  C   UNL A   1      43.278  27.543  32.354  1.00  0.00     0.074 A 
ATOM     64  C   UNL A   1      44.114  26.596  31.646  1.00  0.00     0.031 C 
ATOM     65  C   UNL A   1      43.451  27.893  33.653  1.00  0.00     0.037 A 
BRANCH  52  66
ATOM     66  C   UNL A   1      39.321  32.030  35.673  1.00  0.00     0.064 A 
ATOM     67  C   UNL A   1      39.770  33.346  35.859  1.00  0.00     0.173 A 
ATOM     68  C   UNL A   1      38.397  31.514  36.593  1.00  0.00     0.173 A 
ATOM     69  F   UNL A   1      40.671  33.877  35.020  1.00  0.00    -0.203 F 
ATOM     70  C   UNL A   1      39.343  34.100  36.950  1.00  0.00     0.198 A 
ATOM     71  C   UNL A   1      37.947  32.280  37.663  1.00  0.00     0.198 A 
ATOM     72  F   UNL A   1      37.936  30.260  36.458  1.00  0.00    -0.203 F 
ATOM     73  F   UNL A   1      39.836  35.329  37.148  1.00  0.00    -0.200 F 
ATOM     74  C   UNL A   1      38.430  33.567  37.848  1.00  0.00     0.200 A 
ATOM     75  F   UNL A   1      37.059  31.768  38.526  1.00  0.00    -0.200 F 
ATOM     76  F   UNL A   1      38.026  34.290  38.902  1.00  0.00    -0.200 F 
ENDBRANCH  52  66
BRANCH  53  77
ATOM     77  C   UNL A   1      42.320  26.666  27.827  1.00  0.00     0.064 A 
ATOM     78  C   UNL A   1      43.263  27.199  26.938  1.00  0.00     0.173 A 
ATOM     79  C   UNL A   1      41.827  25.380  27.563  1.00  0.00     0.173 A 
ATOM     80  F   UNL A   1      43.740  28.437  27.130  1.00  0.00    -0.203 F 
ATOM     81  C   UNL A   1      43.686  26.478  25.822  1.00  0.00     0.198 A 
ATOM     82  C   UNL A   1      42.270  24.650  26.464  1.00  0.00     0.198 A 
ATOM     83  F   UNL A   1      40.916  24.829  28.379  1.00  0.00    -0.203 F 
ATOM     84  F   UNL A   1      44.553  27.026  24.961  1.00  0.00    -0.200 F 
ATOM     85  C   UNL A   1      43.193  25.202  25.589  1.00  0.00     0.200 A 
ATOM     86  F   UNL A   1      41.797  23.415  26.247  1.00  0.00    -0.200 F 
ATOM     87  F   UNL A   1      43.603  24.508  24.519  1.00  0.00    -0.200 F 
ENDBRANCH  53  77
BRANCH  65  88
ATOM     88  C   UNL A   1      44.567  27.225  34.408  1.00  0.00     0.064 A 
ATOM     89  C   UNL A   1      44.385  25.999  35.065  1.00  0.00     0.173 A 
ATOM     90  C   UNL A   1      45.844  27.806  34.446  1.00  0.00     0.173 A 
ATOM     91  F   UNL A   1      43.181  25.407  35.069  1.00  0.00    -0.203 F 
ATOM     92  C   UNL A   1      45.433  25.394  35.756  1.00  0.00     0.198 A 
ATOM     93  C   UNL A   1      46.896  27.184  35.113  1.00  0.00     0.198 A 
ATOM     94  F   UNL A   1      46.076  28.973  33.828  1.00  0.00    -0.203 F 
ATOM     95  F   UNL A   1      45.222  24.249  36.419  1.00  0.00    -0.200 F 
ATOM     96  C   UNL A   1      46.688  25.983  35.775  1.00  0.00     0.200 A 
ATOM     97  F   UNL A   1      48.113  27.747  35.117  1.00  0.00    -0.200 F 
ATOM     98  F   UNL A   1      47.695  25.398  36.438  1.00  0.00    -0.200 F 
ENDBRANCH  65  88
ENDBRANCH  39  40
ENDBRANCH  32  34
ENDBRANCH  31  32
ENDBRANCH  30  31
ENDBRANCH  29  30
ENDBRANCH  28  29
ENDBRANCH  27  28
ENDBRANCH   1  27
TORSDOF 21
ENDMDL
MODEL 3
REMARK VINA RESULT:     -11.1      2.901      8.081
REMARK SMILES Cc1cccc(C[N@@H+](C)C[C@]2(C(=O)OCCOCCOCCOC(=O)c3ccc(-c4c5nc(c(-c6c(F)c(F)c(F)c(F)c6F)c6ccc([nH]6)c(-c6c(F)c(F)c(F)c(F)c6F)c6nc(c(-c7c(F)c(F)c(F)c(F)c7F)c7ccc4[nH]7)C=C6)C=C5)cc3)CCC[C@H](C)C2)n1
REMARK SMILES IDX 18 1 17 2 16 3 15 4 14 5 12 6 13 7 11 8 89 9 94 10 90 11
REMARK SMILES IDX 92 12 91 13 93 14 10 15 8 16 9 17 7 19 6 20 1 21 2 22 3 23
REMARK SMILES IDX 95 24 4 25 5 26 19 27 20 28 21 29 22 30 23 31 24 32 25 33
REMARK SMILES IDX 26 34 27 35 88 36 28 37 87 38 29 39 30 40 31 41 81 42 32 43
REMARK SMILES IDX 86 44 80 45 82 46 33 47 85 48 79 49 78 50 34 52 66 53 46 54
REMARK SMILES IDX 65 55 47 56 50 57 64 58 83 59 48 60 49 61 63 63 84 64 51 65
REMARK SMILES IDX 35 66 36 67 44 68 37 69 38 70 42 71 45 72 39 73 40 74 43 75
REMARK SMILES IDX 41 76 67 77 68 78 76 79 69 80 70 81 74 82 77 83 71 84 72 85
REMARK SMILES IDX 75 86 73 87 52 88 53 89 61 90 54 91 55 92 59 93 62 94 56 95
REMARK SMILES IDX 57 96 60 97 58 98
REMARK H PARENT 8 18 82 51 50 62
REMARK Flexibility Score: inf
ROOT
ATOM      1  C   UNL A   1      33.205  26.817  22.208  1.00  0.00     0.188 C 
ENDROOT
BRANCH   1   2
ATOM      2  O   UNL A   1      33.703  25.781  23.045  1.00  0.00    -0.376 OA
BRANCH   2   3
ATOM      3  C   UNL A   1      33.709  24.445  22.558  1.00  0.00     0.202 C 
BRANCH   3   4
ATOM      4  C   UNL A   1      34.414  23.409  23.427  1.00  0.00     0.261 C 
BRANCH   4   5
ATOM      5  O   UNL A   1      33.806  22.106  23.494  1.00  0.00    -0.463 OA
BRANCH   5   6
ATOM      6  C   UNL A   1      34.438  21.202  24.292  1.00  0.00     0.317 C 
ATOM      7  O   UNL A   1      35.648  21.217  24.511  1.00  0.00    -0.251 OA
BRANCH   6   8
ATOM      8  C   UNL A   1      33.506  20.104  24.854  1.00  0.00     0.117 C 
ATOM      9  C   UNL A   1      32.160  20.197  24.074  1.00  0.00     0.025 C 
ATOM     10  C   UNL A   1      34.030  18.641  24.809  1.00  0.00     0.028 C 
ATOM     11  C   UNL A   1      32.228  19.553  22.691  1.00  0.00     0.002 C 
ATOM     12  C   UNL A   1      33.848  17.836  23.504  1.00  0.00    -0.013 C 
ATOM     13  C   UNL A   1      32.491  18.066  22.844  1.00  0.00     0.003 C 
ATOM     14  C   UNL A   1      34.054  16.339  23.760  1.00  0.00     0.007 C 
BRANCH   8  15
ATOM     15  C   UNL A   1      33.220  20.537  26.337  1.00  0.00     0.281 C 
BRANCH  15  16
ATOM     16  N   UNL A   1      33.130  21.993  26.569  1.00  0.00    -0.331 N 
ATOM     17  C   UNL A   1      34.023  22.446  27.641  1.00  0.00     0.333 C 
ATOM     18  H   UNL A   1      33.422  22.399  25.680  1.00  0.00     0.348 HD
BRANCH  16  19
ATOM     19  C   UNL A   1      31.757  22.472  26.867  1.00  0.00     0.319 C 
BRANCH  19  20
ATOM     20  C   UNL A   1      31.300  23.735  26.142  1.00  0.00     0.095 A 
ATOM     21  C   UNL A   1      31.029  27.349  26.872  1.00  0.00     0.067 C 
ATOM     22  C   UNL A   1      30.940  26.038  26.144  1.00  0.00     0.038 A 
ATOM     23  C   UNL A   1      30.557  26.021  24.809  1.00  0.00     0.023 A 
ATOM     24  N   UNL A   1      31.305  24.915  26.815  1.00  0.00    -0.252 NA
ATOM     25  C   UNL A   1      30.521  24.805  24.140  1.00  0.00     0.004 A 
ATOM     26  C   UNL A   1      30.894  23.647  24.811  1.00  0.00     0.030 A 
ENDBRANCH  19  20
ENDBRANCH  16  19
ENDBRANCH  15  16
ENDBRANCH   8  15
ENDBRANCH   6   8
ENDBRANCH   5   6
ENDBRANCH   4   5
ENDBRANCH   3   4
ENDBRANCH   2   3
ENDBRANCH   1   2
BRANCH   1  27
ATOM     27  C   UNL A   1      33.639  28.258  22.481  1.00  0.00     0.188 C 
BRANCH  27  28
ATOM     28  O   UNL A   1      32.767  28.933  23.372  1.00  0.00    -0.376 OA
BRANCH  28  29
ATOM     29  C   UNL A   1      33.270  29.119  24.683  1.00  0.00     0.202 C 
BRANCH  29  30
ATOM     30  C   UNL A   1      32.371  30.091  25.451  1.00  0.00     0.261 C 
BRANCH  30  31
ATOM     31  O   UNL A   1      32.702  30.194  26.852  1.00  0.00    -0.460 OA
BRANCH  31  32
ATOM     32  C   UNL A   1      33.304  31.346  27.223  1.00  0.00     0.338 C 
ATOM     33  O   UNL A   1      32.791  32.445  27.318  1.00  0.00    -0.246 OA
BRANCH  32  34
ATOM     34  C   UNL A   1      34.660  31.033  27.723  1.00  0.00     0.060 A 
ATOM     35  C   UNL A   1      34.970  29.692  27.975  1.00  0.00     0.016 A 
ATOM     36  C   UNL A   1      35.594  32.036  27.986  1.00  0.00     0.016 A 
ATOM     37  C   UNL A   1      36.197  29.350  28.537  1.00  0.00     0.010 A 
ATOM     38  C   UNL A   1      36.817  31.695  28.577  1.00  0.00     0.010 A 
ATOM     39  C   UNL A   1      37.105  30.355  28.893  1.00  0.00    -0.014 A 
BRANCH  39  40
ATOM     40  C   UNL A   1      38.215  30.014  29.817  1.00  0.00     0.031 A 
ATOM     41  C   UNL A   1      39.282  29.074  29.325  1.00  0.00     0.074 A 
ATOM     42  C   UNL A   1      38.332  30.578  31.031  1.00  0.00     0.049 A 
ATOM     43  N   UNL A   1      40.337  28.607  29.943  1.00  0.00    -0.248 NA
ATOM     44  C   UNL A   1      39.136  28.601  27.939  1.00  0.00     0.031 C 
ATOM     45  C   UNL A   1      37.413  31.558  31.602  1.00  0.00     0.029 A 
ATOM     46  N   UNL A   1      39.288  30.402  32.001  1.00  0.00    -0.354 N 
ATOM     47  C   UNL A   1      40.972  27.780  29.026  1.00  0.00     0.074 A 
ATOM     48  C   UNL A   1      40.173  27.787  27.821  1.00  0.00     0.031 C 
ATOM     49  C   UNL A   1      37.841  31.887  32.833  1.00  0.00     0.029 A 
ATOM     50  C   UNL A   1      39.046  31.118  33.147  1.00  0.00     0.049 A 
ATOM     51  H   UNL A   1      40.072  29.817  31.887  1.00  0.00     0.167 HD
ATOM     52  C   UNL A   1      42.123  27.080  29.170  1.00  0.00     0.037 A 
ATOM     53  C   UNL A   1      39.709  31.130  34.321  1.00  0.00     0.037 A 
ATOM     54  C   UNL A   1      42.921  27.065  30.366  1.00  0.00     0.049 A 
ATOM     55  C   UNL A   1      40.952  30.290  34.486  1.00  0.00     0.074 A 
ATOM     56  C   UNL A   1      44.093  26.373  30.616  1.00  0.00     0.029 A 
ATOM     57  N   UNL A   1      42.623  27.775  31.520  1.00  0.00    -0.354 N 
ATOM     58  N   UNL A   1      41.540  29.499  33.622  1.00  0.00    -0.248 NA
ATOM     59  C   UNL A   1      41.624  30.352  35.792  1.00  0.00     0.031 C 
ATOM     60  C   UNL A   1      44.481  26.630  31.936  1.00  0.00     0.029 A 
ATOM     61  C   UNL A   1      43.580  27.525  32.491  1.00  0.00     0.049 A 
ATOM     62  H   UNL A   1      41.846  28.370  31.632  1.00  0.00     0.167 HD
ATOM     63  C   UNL A   1      42.659  28.987  34.269  1.00  0.00     0.074 A 
ATOM     64  C   UNL A   1      42.676  29.571  35.594  1.00  0.00     0.031 C 
ATOM     65  C   UNL A   1      43.588  28.113  33.806  1.00  0.00     0.037 A 
BRANCH  52  66
ATOM     66  C   UNL A   1      42.548  26.231  28.008  1.00  0.00     0.064 A 
ATOM     67  C   UNL A   1      43.455  26.697  27.044  1.00  0.00     0.173 A 
ATOM     68  C   UNL A   1      42.016  24.943  27.843  1.00  0.00     0.173 A 
ATOM     69  F   UNL A   1      43.973  27.929  27.144  1.00  0.00    -0.203 F 
ATOM     70  C   UNL A   1      43.782  25.919  25.935  1.00  0.00     0.198 A 
ATOM     71  C   UNL A   1      42.369  24.156  26.751  1.00  0.00     0.198 A 
ATOM     72  F   UNL A   1      41.145  24.452  28.738  1.00  0.00    -0.203 F 
ATOM     73  F   UNL A   1      44.596  26.409  24.991  1.00  0.00    -0.200 F 
ATOM     74  C   UNL A   1      43.242  24.649  25.792  1.00  0.00     0.200 A 
ATOM     75  F   UNL A   1      41.853  22.927  26.618  1.00  0.00    -0.200 F 
ATOM     76  F   UNL A   1      43.551  23.906  24.721  1.00  0.00    -0.200 F 
ENDBRANCH  52  66
BRANCH  53  77
ATOM     77  C   UNL A   1      39.193  31.948  35.449  1.00  0.00     0.064 A 
ATOM     78  C   UNL A   1      39.531  33.300  35.586  1.00  0.00     0.173 A 
ATOM     79  C   UNL A   1      38.359  31.381  36.425  1.00  0.00     0.173 A 
ATOM     80  F   UNL A   1      40.351  33.879  34.697  1.00  0.00    -0.203 F 
ATOM     81  C   UNL A   1      39.064  34.053  36.663  1.00  0.00     0.198 A 
ATOM     82  C   UNL A   1      37.872  32.140  37.485  1.00  0.00     0.198 A 
ATOM     83  F   UNL A   1      38.014  30.087  36.344  1.00  0.00    -0.203 F 
ATOM     84  F   UNL A   1      39.439  35.332  36.797  1.00  0.00    -0.200 F 
ATOM     85  C   UNL A   1      38.230  33.474  37.608  1.00  0.00     0.200 A 
ATOM     86  F   UNL A   1      37.060  31.578  38.391  1.00  0.00    -0.200 F 
ATOM     87  F   UNL A   1      37.779  34.198  38.641  1.00  0.00    -0.200 F 
ENDBRANCH  53  77
BRANCH  65  88
ATOM     88  C   UNL A   1      44.724  27.758  34.726  1.00  0.00     0.064 A 
ATOM     89  C   UNL A   1      45.848  28.585  34.865  1.00  0.00     0.173 A 
ATOM     90  C   UNL A   1      44.669  26.591  35.503  1.00  0.00     0.173 A 
ATOM     91  F   UNL A   1      45.956  29.707  34.137  1.00  0.00    -0.203 F 
ATOM     92  C   UNL A   1      46.889  28.241  35.725  1.00  0.00     0.198 A 
ATOM     93  C   UNL A   1      45.697  26.265  36.384  1.00  0.00     0.198 A 
ATOM     94  F   UNL A   1      43.612  25.769  35.416  1.00  0.00    -0.203 F 
ATOM     95  F   UNL A   1      47.977  29.020  35.803  1.00  0.00    -0.200 F 
ATOM     96  C   UNL A   1      46.810  27.086  36.488  1.00  0.00     0.200 A 
ATOM     97  F   UNL A   1      45.612  25.155  37.131  1.00  0.00    -0.200 F 
ATOM     98  F   UNL A   1      47.811  26.757  37.317  1.00  0.00    -0.200 F 
ENDBRANCH  65  88
ENDBRANCH  39  40
ENDBRANCH  32  34
ENDBRANCH  31  32
ENDBRANCH  30  31
ENDBRANCH  29  30
ENDBRANCH  28  29
ENDBRANCH  27  28
ENDBRANCH   1  27
TORSDOF 21
ENDMDL
