MODEL 1
REMARK VINA RESULT:     -12.0      0.000      0.000
REMARK SMILES C[C@H]1c2ccc(O)cc2OC(=O)[C@@H]1CC(=O)N[C@@H](CC1=c2ccccc2=NC1)C(=O)OCCOCCOCCOC(=O)c1ccc(-c2c3nc(c(-c4c(F)c(F)c(F)c(F)c4F)c4ccc([nH]4)c(-c4c(F)c(F)c(F)c(F)c4F)c4nc(c(-c5c(F)c(F)c(F)c(F)c5F)c5ccc2[nH]5)C=C4)C=C3)cc1
REMARK SMILES IDX 35 1 34 2 33 3 32 4 31 5 29 6 30 7 18 8 17 9 15 10 16 11
REMARK SMILES IDX 14 13 13 14 1 15 2 16 3 17 4 18 9 19 11 20 5 21 8 22 10 23
REMARK SMILES IDX 12 24 6 25 7 26 19 28 20 29 21 30 28 31 22 32 26 33 27 34
REMARK SMILES IDX 23 35 25 36 24 37 36 38 37 39 38 40 39 41 40 42 41 43 42 44
REMARK SMILES IDX 43 45 44 46 105 47 45 48 104 49 46 50 47 51 48 52 98 53
REMARK SMILES IDX 49 54 103 55 97 56 99 57 50 58 102 59 96 60 95 61 51 63
REMARK SMILES IDX 83 64 63 65 82 66 64 67 67 68 81 69 100 70 65 71 66 72 80 74
REMARK SMILES IDX 101 75 68 76 52 77 53 78 61 79 54 80 55 81 59 82 62 83 56 84
REMARK SMILES IDX 57 85 60 86 58 87 84 88 85 89 93 90 86 91 87 92 91 93 94 94
REMARK SMILES IDX 88 95 89 96 92 97 90 98 69 99 70 100 78 101 71 102 72 103
REMARK SMILES IDX 76 104 79 105 73 106 74 107 77 108 75 109
REMARK H PARENT 17 12 7 27 99 62 67 73
REMARK Flexibility Score: inf
ROOT
ATOM      1  C   UNL A   1      34.382  31.755  28.292  1.00  0.00     0.188 C 
ENDROOT
BRANCH   1   2
ATOM      2  O   UNL A   1      33.172  31.819  27.564  1.00  0.00    -0.376 OA
BRANCH   2   3
ATOM      3  C   UNL A   1      32.674  30.659  26.909  1.00  0.00     0.202 C 
BRANCH   3   4
ATOM      4  C   UNL A   1      33.480  29.353  26.855  1.00  0.00     0.261 C 
BRANCH   4   5
ATOM      5  O   UNL A   1      32.741  28.170  27.213  1.00  0.00    -0.462 OA
BRANCH   5   6
ATOM      6  C   UNL A   1      33.025  27.079  26.470  1.00  0.00     0.329 C 
ATOM      7  O   UNL A   1      34.142  26.825  26.017  1.00  0.00    -0.250 OA
BRANCH   6   8
ATOM      8  C   UNL A   1      31.843  26.147  26.173  1.00  0.00     0.196 C 
BRANCH   8   9
ATOM      9  N   UNL A   1      31.307  25.044  26.994  1.00  0.00    -0.342 N 
ATOM     10  C   UNL A   1      30.693  23.878  26.605  1.00  0.00     0.221 C 
ATOM     11  O   UNL A   1      30.010  23.269  27.429  1.00  0.00    -0.275 OA
ATOM     12  H   UNL A   1      31.405  25.161  27.966  1.00  0.00     0.164 HD
BRANCH  10  13
ATOM     13  C   UNL A   1      30.964  23.255  25.232  1.00  0.00     0.116 C 
BRANCH  13  14
ATOM     14  C   UNL A   1      32.389  23.391  24.657  1.00  0.00     0.116 C 
ATOM     15  C   UNL A   1      33.986  22.924  22.707  1.00  0.00     0.014 C 
ATOM     16  C   UNL A   1      32.607  22.631  23.322  1.00  0.00     0.034 C 
ATOM     17  C   UNL A   1      32.511  21.144  23.567  1.00  0.00    -0.001 A 
ATOM     18  C   UNL A   1      32.253  20.226  22.552  1.00  0.00     0.011 A 
ATOM     19  C   UNL A   1      32.781  20.654  24.849  1.00  0.00     0.138 A 
ATOM     20  C   UNL A   1      33.431  22.853  25.594  1.00  0.00     0.315 C 
ATOM     21  C   UNL A   1      32.236  18.860  22.844  1.00  0.00     0.047 A 
ATOM     22  C   UNL A   1      32.641  19.314  25.182  1.00  0.00     0.093 A 
ATOM     23  O   UNL A   1      33.347  21.489  25.829  1.00  0.00    -0.426 OA
ATOM     24  O   UNL A   1      34.274  23.552  26.138  1.00  0.00    -0.251 OA
ATOM     25  C   UNL A   1      32.386  18.417  24.160  1.00  0.00     0.119 A 
BRANCH  25  26
ATOM     26  O   UNL A   1      32.322  17.080  24.418  1.00  0.00    -0.508 OA
ATOM     27  H   UNL A   1      31.959  16.497  23.780  1.00  0.00     0.293 HD
ENDBRANCH  25  26
ENDBRANCH  13  14
ENDBRANCH  10  13
ENDBRANCH   8   9
BRANCH   8  28
ATOM     28  C   UNL A   1      30.706  27.083  25.727  1.00  0.00     0.070 C 
BRANCH  28  29
ATOM     29  C   UNL A   1      30.485  27.349  24.224  1.00  0.00    -0.037 C 
ATOM     30  C   UNL A   1      31.332  26.823  23.331  1.00  0.00     0.001 A 
ATOM     31  C   UNL A   1      30.526  28.855  24.012  1.00  0.00     0.174 C 
ATOM     32  C   UNL A   1      31.165  25.956  22.197  1.00  0.00     0.010 A 
ATOM     33  C   UNL A   1      32.275  27.949  23.133  1.00  0.00     0.065 A 
ATOM     34  N   UNL A   1      31.899  29.124  23.526  1.00  0.00    -0.280 NA
ATOM     35  C   UNL A   1      32.217  25.831  21.363  1.00  0.00     0.001 A 
ATOM     36  C   UNL A   1      33.542  27.557  22.491  1.00  0.00     0.028 A 
ATOM     37  C   UNL A   1      33.479  26.505  21.655  1.00  0.00     0.002 A 
ENDBRANCH  28  29
ENDBRANCH   8  28
ENDBRANCH   6   8
ENDBRANCH   5   6
ENDBRANCH   4   5
ENDBRANCH   3   4
ENDBRANCH   2   3
ENDBRANCH   1   2
BRANCH   1  38
ATOM     38  C   UNL A   1      34.603  32.685  29.495  1.00  0.00     0.188 C 
BRANCH  38  39
ATOM     39  O   UNL A   1      35.045  33.994  29.263  1.00  0.00    -0.376 OA
BRANCH  39  40
ATOM     40  C   UNL A   1      34.120  34.995  28.875  1.00  0.00     0.202 C 
BRANCH  40  41
ATOM     41  C   UNL A   1      32.864  35.417  29.671  1.00  0.00     0.261 C 
BRANCH  41  42
ATOM     42  O   UNL A   1      33.037  36.124  30.906  1.00  0.00    -0.460 OA
BRANCH  42  43
ATOM     43  C   UNL A   1      32.695  35.444  32.037  1.00  0.00     0.338 C 
ATOM     44  O   UNL A   1      31.580  35.183  32.428  1.00  0.00    -0.246 OA
BRANCH  43  45
ATOM     45  C   UNL A   1      33.932  34.846  32.602  1.00  0.00     0.060 A 
ATOM     46  C   UNL A   1      33.952  33.511  32.996  1.00  0.00     0.016 A 
ATOM     47  C   UNL A   1      35.081  35.643  32.745  1.00  0.00     0.016 A 
ATOM     48  C   UNL A   1      35.135  32.962  33.498  1.00  0.00     0.010 A 
ATOM     49  C   UNL A   1      36.253  35.102  33.283  1.00  0.00     0.010 A 
ATOM     50  C   UNL A   1      36.298  33.745  33.631  1.00  0.00    -0.014 A 
BRANCH  50  51
ATOM     51  C   UNL A   1      37.590  33.083  33.946  1.00  0.00     0.031 A 
ATOM     52  C   UNL A   1      38.262  33.208  35.277  1.00  0.00     0.074 A 
ATOM     53  C   UNL A   1      38.121  32.270  33.017  1.00  0.00     0.049 A 
ATOM     54  N   UNL A   1      39.400  32.700  35.686  1.00  0.00    -0.248 NA
ATOM     55  C   UNL A   1      37.552  33.997  36.284  1.00  0.00     0.031 C 
ATOM     56  C   UNL A   1      37.528  32.001  31.709  1.00  0.00     0.029 A 
ATOM     57  N   UNL A   1      39.238  31.477  33.055  1.00  0.00    -0.354 N 
ATOM     58  C   UNL A   1      39.587  33.176  36.979  1.00  0.00     0.074 A 
ATOM     59  C   UNL A   1      38.396  33.926  37.306  1.00  0.00     0.031 C 
ATOM     60  C   UNL A   1      38.243  31.044  31.100  1.00  0.00     0.029 A 
ATOM     61  C   UNL A   1      39.370  30.672  31.953  1.00  0.00     0.049 A 
ATOM     62  H   UNL A   1      39.882  31.484  33.800  1.00  0.00     0.167 HD
ATOM     63  C   UNL A   1      40.671  33.036  37.787  1.00  0.00     0.037 A 
ATOM     64  C   UNL A   1      40.283  29.725  31.670  1.00  0.00     0.037 A 
ATOM     65  C   UNL A   1      41.770  32.142  37.509  1.00  0.00     0.049 A 
ATOM     66  C   UNL A   1      41.378  29.425  32.656  1.00  0.00     0.074 A 
ATOM     67  C   UNL A   1      42.871  31.851  38.299  1.00  0.00     0.029 A 
ATOM     68  N   UNL A   1      41.875  31.345  36.379  1.00  0.00    -0.354 N 
ATOM     69  N   UNL A   1      41.608  29.967  33.827  1.00  0.00    -0.248 NA
ATOM     70  C   UNL A   1      42.337  28.375  32.284  1.00  0.00     0.031 C 
ATOM     71  C   UNL A   1      43.643  30.887  37.645  1.00  0.00     0.029 A 
ATOM     72  C   UNL A   1      43.000  30.541  36.469  1.00  0.00     0.049 A 
ATOM     73  H   UNL A   1      41.243  31.350  35.624  1.00  0.00     0.167 HD
ATOM     74  C   UNL A   1      42.724  29.315  34.337  1.00  0.00     0.074 A 
ATOM     75  C   UNL A   1      43.109  28.320  33.360  1.00  0.00     0.031 C 
ATOM     76  C   UNL A   1      43.372  29.535  35.506  1.00  0.00     0.037 A 
BRANCH  63  77
ATOM     77  C   UNL A   1      40.765  33.882  39.035  1.00  0.00     0.064 A 
ATOM     78  C   UNL A   1      41.376  35.142  39.055  1.00  0.00     0.173 A 
ATOM     79  C   UNL A   1      40.148  33.447  40.224  1.00  0.00     0.173 A 
ATOM     80  F   UNL A   1      41.963  35.627  37.951  1.00  0.00    -0.203 F 
ATOM     81  C   UNL A   1      41.406  35.911  40.218  1.00  0.00     0.198 A 
ATOM     82  C   UNL A   1      40.131  34.241  41.369  1.00  0.00     0.198 A 
ATOM     83  F   UNL A   1      39.521  32.259  40.269  1.00  0.00    -0.203 F 
ATOM     84  F   UNL A   1      42.048  37.087  40.221  1.00  0.00    -0.200 F 
ATOM     85  C   UNL A   1      40.772  35.468  41.369  1.00  0.00     0.200 A 
ATOM     86  F   UNL A   1      39.476  33.828  42.464  1.00  0.00    -0.200 F 
ATOM     87  F   UNL A   1      40.772  36.229  42.472  1.00  0.00    -0.200 F 
ENDBRANCH  63  77
BRANCH  64  88
ATOM     88  C   UNL A   1      40.142  28.946  30.414  1.00  0.00     0.064 A 
ATOM     89  C   UNL A   1      40.716  29.406  29.222  1.00  0.00     0.173 A 
ATOM     90  C   UNL A   1      39.488  27.706  30.393  1.00  0.00     0.173 A 
ATOM     91  F   UNL A   1      41.342  30.592  29.193  1.00  0.00    -0.203 F 
ATOM     92  C   UNL A   1      40.635  28.658  28.051  1.00  0.00     0.198 A 
ATOM     93  C   UNL A   1      39.437  26.943  29.229  1.00  0.00     0.198 A 
ATOM     94  F   UNL A   1      38.937  27.218  31.513  1.00  0.00    -0.203 F 
ATOM     95  F   UNL A   1      41.165  29.133  26.916  1.00  0.00    -0.200 F 
ATOM     96  C   UNL A   1      40.005  27.421  28.058  1.00  0.00     0.200 A 
ATOM     97  F   UNL A   1      38.850  25.739  29.248  1.00  0.00    -0.200 F 
ATOM     98  F   UNL A   1      39.947  26.691  26.937  1.00  0.00    -0.200 F 
ENDBRANCH  64  88
BRANCH  76  99
ATOM     99  C   UNL A   1      44.558  28.674  35.831  1.00  0.00     0.064 A 
ATOM    100  C   UNL A   1      44.418  27.451  36.502  1.00  0.00     0.173 A 
ATOM    101  C   UNL A   1      45.840  29.033  35.381  1.00  0.00     0.173 A 
ATOM    102  F   UNL A   1      43.217  27.066  36.958  1.00  0.00    -0.203 F 
ATOM    103  C   UNL A   1      45.517  26.624  36.724  1.00  0.00     0.198 A 
ATOM    104  C   UNL A   1      46.931  28.191  35.580  1.00  0.00     0.198 A 
ATOM    105  F   UNL A   1      46.029  30.187  34.725  1.00  0.00    -0.203 F 
ATOM    106  F   UNL A   1      45.364  25.474  37.393  1.00  0.00    -0.200 F 
ATOM    107  C   UNL A   1      46.770  26.989  36.252  1.00  0.00     0.200 A 
ATOM    108  F   UNL A   1      48.137  28.536  35.108  1.00  0.00    -0.200 F 
ATOM    109  F   UNL A   1      47.822  26.183  36.448  1.00  0.00    -0.200 F 
ENDBRANCH  76  99
ENDBRANCH  50  51
ENDBRANCH  43  45
ENDBRANCH  42  43
ENDBRANCH  41  42
ENDBRANCH  40  41
ENDBRANCH  39  40
ENDBRANCH  38  39
ENDBRANCH   1  38
TORSDOF 23
ENDMDL
MODEL 2
REMARK VINA RESULT:     -12.0      0.418      6.645
REMARK SMILES C[C@H]1c2ccc(O)cc2OC(=O)[C@@H]1CC(=O)N[C@@H](CC1=c2ccccc2=NC1)C(=O)OCCOCCOCCOC(=O)c1ccc(-c2c3nc(c(-c4c(F)c(F)c(F)c(F)c4F)c4ccc([nH]4)c(-c4c(F)c(F)c(F)c(F)c4F)c4nc(c(-c5c(F)c(F)c(F)c(F)c5F)c5ccc2[nH]5)C=C4)C=C3)cc1
REMARK SMILES IDX 35 1 34 2 33 3 32 4 31 5 29 6 30 7 18 8 17 9 15 10 16 11
REMARK SMILES IDX 14 13 13 14 1 15 2 16 3 17 4 18 9 19 11 20 5 21 8 22 10 23
REMARK SMILES IDX 12 24 6 25 7 26 19 28 20 29 21 30 28 31 22 32 26 33 27 34
REMARK SMILES IDX 23 35 25 36 24 37 36 38 37 39 38 40 39 41 40 42 41 43 42 44
REMARK SMILES IDX 43 45 44 46 105 47 45 48 104 49 46 50 47 51 48 52 98 53
REMARK SMILES IDX 49 54 103 55 97 56 99 57 50 58 102 59 96 60 95 61 51 63
REMARK SMILES IDX 83 64 63 65 82 66 64 67 67 68 81 69 100 70 65 71 66 72 80 74
REMARK SMILES IDX 101 75 68 76 52 77 53 78 61 79 54 80 55 81 59 82 62 83 56 84
REMARK SMILES IDX 57 85 60 86 58 87 84 88 85 89 93 90 86 91 87 92 91 93 94 94
REMARK SMILES IDX 88 95 89 96 92 97 90 98 69 99 70 100 78 101 71 102 72 103
REMARK SMILES IDX 76 104 79 105 73 106 74 107 77 108 75 109
REMARK H PARENT 17 12 7 27 99 62 67 73
REMARK Flexibility Score: inf
ROOT
ATOM      1  C   UNL A   1      34.864  32.138  28.303  1.00  0.00     0.188 C 
ENDROOT
BRANCH   1   2
ATOM      2  O   UNL A   1      33.582  31.620  28.007  1.00  0.00    -0.376 OA
BRANCH   2   3
ATOM      3  C   UNL A   1      33.435  30.602  27.026  1.00  0.00     0.202 C 
BRANCH   3   4
ATOM      4  C   UNL A   1      33.899  29.160  27.281  1.00  0.00     0.261 C 
BRANCH   4   5
ATOM      5  O   UNL A   1      32.852  28.173  27.253  1.00  0.00    -0.462 OA
BRANCH   5   6
ATOM      6  C   UNL A   1      33.106  27.100  26.475  1.00  0.00     0.329 C 
ATOM      7  O   UNL A   1      34.210  26.846  25.990  1.00  0.00    -0.250 OA
BRANCH   6   8
ATOM      8  C   UNL A   1      31.907  26.190  26.179  1.00  0.00     0.196 C 
BRANCH   8   9
ATOM      9  N   UNL A   1      31.369  25.079  26.989  1.00  0.00    -0.342 N 
ATOM     10  C   UNL A   1      30.748  23.921  26.587  1.00  0.00     0.221 C 
ATOM     11  O   UNL A   1      30.065  23.305  27.407  1.00  0.00    -0.275 OA
ATOM     12  H   UNL A   1      31.472  25.182  27.962  1.00  0.00     0.164 HD
BRANCH  10  13
ATOM     13  C   UNL A   1      31.009  23.315  25.205  1.00  0.00     0.116 C 
BRANCH  13  14
ATOM     14  C   UNL A   1      32.441  23.420  24.640  1.00  0.00     0.116 C 
ATOM     15  C   UNL A   1      34.044  22.908  22.708  1.00  0.00     0.014 C 
ATOM     16  C   UNL A   1      32.656  22.644  23.314  1.00  0.00     0.034 C 
ATOM     17  C   UNL A   1      32.531  21.162  23.572  1.00  0.00    -0.001 A 
ATOM     18  C   UNL A   1      32.265  20.239  22.562  1.00  0.00     0.011 A 
ATOM     19  C   UNL A   1      32.783  20.679  24.860  1.00  0.00     0.138 A 
ATOM     20  C   UNL A   1      33.466  22.872  25.590  1.00  0.00     0.315 C 
ATOM     21  C   UNL A   1      32.221  18.876  22.867  1.00  0.00     0.047 A 
ATOM     22  C   UNL A   1      32.617  19.344  25.204  1.00  0.00     0.093 A 
ATOM     23  O   UNL A   1      33.355  21.512  25.837  1.00  0.00    -0.426 OA
ATOM     24  O   UNL A   1      34.316  23.561  26.135  1.00  0.00    -0.251 OA
ATOM     25  C   UNL A   1      32.353  18.443  24.187  1.00  0.00     0.119 A 
BRANCH  25  26
ATOM     26  O   UNL A   1      32.263  17.110  24.457  1.00  0.00    -0.508 OA
ATOM     27  H   UNL A   1      32.488  16.787  25.308  1.00  0.00     0.293 HD
ENDBRANCH  25  26
ENDBRANCH  13  14
ENDBRANCH  10  13
ENDBRANCH   8   9
BRANCH   8  28
ATOM     28  C   UNL A   1      30.776  27.149  25.770  1.00  0.00     0.070 C 
BRANCH  28  29
ATOM     29  C   UNL A   1      30.526  27.436  24.275  1.00  0.00    -0.037 C 
ATOM     30  C   UNL A   1      31.299  26.847  23.354  1.00  0.00     0.001 A 
ATOM     31  C   UNL A   1      30.679  28.934  24.063  1.00  0.00     0.174 C 
ATOM     32  C   UNL A   1      31.026  25.999  22.226  1.00  0.00     0.010 A 
ATOM     33  C   UNL A   1      32.320  27.896  23.125  1.00  0.00     0.065 A 
ATOM     34  N   UNL A   1      32.052  29.096  23.531  1.00  0.00    -0.280 NA
ATOM     35  C   UNL A   1      32.037  25.794  21.357  1.00  0.00     0.001 A 
ATOM     36  C   UNL A   1      33.531  27.407  22.440  1.00  0.00     0.028 A 
ATOM     37  C   UNL A   1      33.357  26.365  21.606  1.00  0.00     0.002 A 
ENDBRANCH  28  29
ENDBRANCH   8  28
ENDBRANCH   6   8
ENDBRANCH   5   6
ENDBRANCH   4   5
ENDBRANCH   3   4
ENDBRANCH   2   3
ENDBRANCH   1   2
BRANCH   1  38
ATOM     38  C   UNL A   1      35.029  33.191  29.409  1.00  0.00     0.188 C 
BRANCH  38  39
ATOM     39  O   UNL A   1      35.227  34.529  29.042  1.00  0.00    -0.376 OA
BRANCH  39  40
ATOM     40  C   UNL A   1      34.118  35.338  28.690  1.00  0.00     0.202 C 
BRANCH  40  41
ATOM     41  C   UNL A   1      32.909  35.653  29.600  1.00  0.00     0.261 C 
BRANCH  41  42
ATOM     42  O   UNL A   1      33.146  36.268  30.873  1.00  0.00    -0.460 OA
BRANCH  42  43
ATOM     43  C   UNL A   1      32.748  35.555  31.965  1.00  0.00     0.338 C 
ATOM     44  O   UNL A   1      31.614  35.312  32.308  1.00  0.00    -0.246 OA
BRANCH  43  45
ATOM     45  C   UNL A   1      33.948  34.902  32.546  1.00  0.00     0.060 A 
ATOM     46  C   UNL A   1      33.853  33.636  33.119  1.00  0.00     0.016 A 
ATOM     47  C   UNL A   1      35.181  35.577  32.523  1.00  0.00     0.016 A 
ATOM     48  C   UNL A   1      35.001  33.029  33.634  1.00  0.00     0.010 A 
ATOM     49  C   UNL A   1      36.322  34.984  33.074  1.00  0.00     0.010 A 
ATOM     50  C   UNL A   1      36.246  33.687  33.603  1.00  0.00    -0.014 A 
BRANCH  50  51
ATOM     51  C   UNL A   1      37.479  32.932  33.944  1.00  0.00     0.031 A 
ATOM     52  C   UNL A   1      38.198  32.066  32.958  1.00  0.00     0.074 A 
ATOM     53  C   UNL A   1      38.007  33.114  35.166  1.00  0.00     0.049 A 
ATOM     54  N   UNL A   1      39.274  31.334  33.122  1.00  0.00    -0.248 NA
ATOM     55  C   UNL A   1      37.640  32.029  31.607  1.00  0.00     0.031 C 
ATOM     56  C   UNL A   1      37.448  33.988  36.194  1.00  0.00     0.029 A 
ATOM     57  N   UNL A   1      39.159  32.623  35.725  1.00  0.00    -0.354 N 
ATOM     58  C   UNL A   1      39.480  30.681  31.912  1.00  0.00     0.074 A 
ATOM     59  C   UNL A   1      38.472  31.186  31.008  1.00  0.00     0.031 C 
ATOM     60  C   UNL A   1      38.299  34.038  37.228  1.00  0.00     0.029 A 
ATOM     61  C   UNL A   1      39.435  33.159  36.956  1.00  0.00     0.049 A 
ATOM     62  H   UNL A   1      39.731  31.954  35.285  1.00  0.00     0.167 HD
ATOM     63  C   UNL A   1      40.392  29.720  31.611  1.00  0.00     0.037 A 
ATOM     64  C   UNL A   1      40.494  32.980  37.766  1.00  0.00     0.037 A 
ATOM     65  C   UNL A   1      41.494  29.359  32.472  1.00  0.00     0.049 A 
ATOM     66  C   UNL A   1      41.610  32.064  37.346  1.00  0.00     0.074 A 
ATOM     67  C   UNL A   1      42.528  28.470  32.227  1.00  0.00     0.029 A 
ATOM     68  N   UNL A   1      41.740  29.918  33.716  1.00  0.00    -0.354 N 
ATOM     69  N   UNL A   1      41.734  31.362  36.246  1.00  0.00    -0.248 NA
ATOM     70  C   UNL A   1      42.738  31.919  38.277  1.00  0.00     0.031 C 
ATOM     71  C   UNL A   1      43.393  28.484  33.325  1.00  0.00     0.029 A 
ATOM     72  C   UNL A   1      42.925  29.418  34.234  1.00  0.00     0.049 A 
ATOM     73  H   UNL A   1      41.159  30.573  34.166  1.00  0.00     0.167 HD
ATOM     74  C   UNL A   1      42.955  30.709  36.345  1.00  0.00     0.074 A 
ATOM     75  C   UNL A   1      43.548  31.117  37.600  1.00  0.00     0.031 C 
ATOM     76  C   UNL A   1      43.524  29.841  35.474  1.00  0.00     0.037 A 
BRANCH  63  77
ATOM     77  C   UNL A   1      40.240  28.951  30.320  1.00  0.00     0.064 A 
ATOM     78  C   UNL A   1      40.828  29.362  29.116  1.00  0.00     0.173 A 
ATOM     79  C   UNL A   1      39.554  27.720  30.314  1.00  0.00     0.173 A 
ATOM     80  F   UNL A   1      41.515  30.512  29.057  1.00  0.00    -0.203 F 
ATOM     81  C   UNL A   1      40.699  28.602  27.954  1.00  0.00     0.198 A 
ATOM     82  C   UNL A   1      39.476  26.935  29.164  1.00  0.00     0.198 A 
ATOM     83  F   UNL A   1      38.989  27.253  31.439  1.00  0.00    -0.203 F 
ATOM     84  F   UNL A   1      41.224  29.050  26.805  1.00  0.00    -0.200 F 
ATOM     85  C   UNL A   1      40.037  27.384  27.981  1.00  0.00     0.200 A 
ATOM     86  F   UNL A   1      38.875  25.737  29.209  1.00  0.00    -0.200 F 
ATOM     87  F   UNL A   1      39.951  26.640  26.870  1.00  0.00    -0.200 F 
ENDBRANCH  63  77
BRANCH  64  88
ATOM     88  C   UNL A   1      40.568  33.754  39.031  1.00  0.00     0.064 A 
ATOM     89  C   UNL A   1      41.225  34.991  39.072  1.00  0.00     0.173 A 
ATOM     90  C   UNL A   1      39.938  33.306  40.200  1.00  0.00     0.173 A 
ATOM     91  F   UNL A   1      41.851  35.454  37.980  1.00  0.00    -0.203 F 
ATOM     92  C   UNL A   1      41.254  35.749  40.239  1.00  0.00     0.198 A 
ATOM     93  C   UNL A   1      39.939  34.081  41.357  1.00  0.00     0.198 A 
ATOM     94  F   UNL A   1      39.284  32.135  40.204  1.00  0.00    -0.203 F 
ATOM     95  F   UNL A   1      41.915  36.915  40.262  1.00  0.00    -0.200 F 
ATOM     96  C   UNL A   1      40.602  35.299  41.377  1.00  0.00     0.200 A 
ATOM     97  F   UNL A   1      39.287  33.653  42.446  1.00  0.00    -0.200 F 
ATOM     98  F   UNL A   1      40.612  36.039  42.494  1.00  0.00    -0.200 F 
ENDBRANCH  64  88
BRANCH  76  99
ATOM     99  C   UNL A   1      44.874  29.278  35.815  1.00  0.00     0.064 A 
ATOM    100  C   UNL A   1      45.012  28.063  36.501  1.00  0.00     0.173 A 
ATOM    101  C   UNL A   1      46.043  29.917  35.369  1.00  0.00     0.173 A 
ATOM    102  F   UNL A   1      43.928  27.417  36.956  1.00  0.00    -0.203 F 
ATOM    103  C   UNL A   1      46.270  27.513  36.740  1.00  0.00     0.198 A 
ATOM    104  C   UNL A   1      47.296  29.350  35.584  1.00  0.00     0.198 A 
ATOM    105  F   UNL A   1      45.967  31.076  34.700  1.00  0.00    -0.203 F 
ATOM    106  F   UNL A   1      46.379  26.366  37.423  1.00  0.00    -0.200 F 
ATOM    107  C   UNL A   1      47.410  28.151  36.271  1.00  0.00     0.200 A 
ATOM    108  F   UNL A   1      48.395  29.958  35.115  1.00  0.00    -0.200 F 
ATOM    109  F   UNL A   1      48.617  27.610  36.483  1.00  0.00    -0.200 F 
ENDBRANCH  76  99
ENDBRANCH  50  51
ENDBRANCH  43  45
ENDBRANCH  42  43
ENDBRANCH  41  42
ENDBRANCH  40  41
ENDBRANCH  39  40
ENDBRANCH  38  39
ENDBRANCH   1  38
TORSDOF 23
ENDMDL
MODEL 3
REMARK VINA RESULT:     -11.8      1.040      2.202
REMARK SMILES C[C@H]1c2ccc(O)cc2OC(=O)[C@@H]1CC(=O)N[C@@H](CC1=c2ccccc2=NC1)C(=O)OCCOCCOCCOC(=O)c1ccc(-c2c3nc(c(-c4c(F)c(F)c(F)c(F)c4F)c4ccc([nH]4)c(-c4c(F)c(F)c(F)c(F)c4F)c4nc(c(-c5c(F)c(F)c(F)c(F)c5F)c5ccc2[nH]5)C=C4)C=C3)cc1
REMARK SMILES IDX 35 1 34 2 33 3 32 4 31 5 29 6 30 7 18 8 17 9 15 10 16 11
REMARK SMILES IDX 14 13 13 14 1 15 2 16 3 17 4 18 9 19 11 20 5 21 8 22 10 23
REMARK SMILES IDX 12 24 6 25 7 26 19 28 20 29 21 30 28 31 22 32 26 33 27 34
REMARK SMILES IDX 23 35 25 36 24 37 36 38 37 39 38 40 39 41 40 42 41 43 42 44
REMARK SMILES IDX 43 45 44 46 105 47 45 48 104 49 46 50 47 51 48 52 98 53
REMARK SMILES IDX 49 54 103 55 97 56 99 57 50 58 102 59 96 60 95 61 51 63
REMARK SMILES IDX 83 64 63 65 82 66 64 67 67 68 81 69 100 70 65 71 66 72 80 74
REMARK SMILES IDX 101 75 68 76 52 77 53 78 61 79 54 80 55 81 59 82 62 83 56 84
REMARK SMILES IDX 57 85 60 86 58 87 84 88 85 89 93 90 86 91 87 92 91 93 94 94
REMARK SMILES IDX 88 95 89 96 92 97 90 98 69 99 70 100 78 101 71 102 72 103
REMARK SMILES IDX 76 104 79 105 73 106 74 107 77 108 75 109
REMARK H PARENT 17 12 7 27 99 62 67 73
REMARK Flexibility Score: inf
ROOT
ATOM      1  C   UNL A   1      34.240  31.517  27.847  1.00  0.00     0.188 C 
ENDROOT
BRANCH   1   2
ATOM      2  O   UNL A   1      32.925  31.382  27.347  1.00  0.00    -0.376 OA
BRANCH   2   3
ATOM      3  C   UNL A   1      32.556  30.217  26.620  1.00  0.00     0.202 C 
BRANCH   3   4
ATOM      4  C   UNL A   1      32.384  28.855  27.309  1.00  0.00     0.261 C 
BRANCH   4   5
ATOM      5  O   UNL A   1      31.467  27.957  26.656  1.00  0.00    -0.462 OA
BRANCH   5   6
ATOM      6  C   UNL A   1      31.995  26.765  26.309  1.00  0.00     0.329 C 
ATOM      7  O   UNL A   1      33.204  26.536  26.248  1.00  0.00    -0.250 OA
BRANCH   6   8
ATOM      8  C   UNL A   1      30.985  25.668  25.943  1.00  0.00     0.196 C 
BRANCH   8   9
ATOM      9  N   UNL A   1      30.316  24.697  26.830  1.00  0.00    -0.342 N 
ATOM     10  C   UNL A   1      30.430  23.329  26.878  1.00  0.00     0.221 C 
ATOM     11  O   UNL A   1      29.539  22.682  27.432  1.00  0.00    -0.275 OA
ATOM     12  H   UNL A   1      29.695  25.088  27.486  1.00  0.00     0.164 HD
BRANCH  10  13
ATOM     13  C   UNL A   1      31.698  22.617  26.396  1.00  0.00     0.116 C 
BRANCH  13  14
ATOM     14  C   UNL A   1      31.642  21.914  25.024  1.00  0.00     0.116 C 
ATOM     15  C   UNL A   1      32.525  20.034  23.522  1.00  0.00     0.014 C 
ATOM     16  C   UNL A   1      32.719  20.814  24.833  1.00  0.00     0.034 C 
ATOM     17  C   UNL A   1      34.088  21.450  24.801  1.00  0.00    -0.001 A 
ATOM     18  C   UNL A   1      35.259  20.736  25.052  1.00  0.00     0.011 A 
ATOM     19  C   UNL A   1      34.200  22.789  24.414  1.00  0.00     0.138 A 
ATOM     20  C   UNL A   1      31.849  22.872  23.887  1.00  0.00     0.315 C 
ATOM     21  C   UNL A   1      36.495  21.380  24.947  1.00  0.00     0.047 A 
ATOM     22  C   UNL A   1      35.407  23.474  24.431  1.00  0.00     0.093 A 
ATOM     23  O   UNL A   1      33.102  23.465  23.853  1.00  0.00    -0.426 OA
ATOM     24  O   UNL A   1      30.983  23.143  23.067  1.00  0.00    -0.251 OA
ATOM     25  C   UNL A   1      36.558  22.749  24.682  1.00  0.00     0.119 A 
BRANCH  25  26
ATOM     26  O   UNL A   1      37.778  23.355  24.628  1.00  0.00    -0.508 OA
ATOM     27  H   UNL A   1      38.105  23.678  23.811  1.00  0.00     0.293 HD
ENDBRANCH  25  26
ENDBRANCH  13  14
ENDBRANCH  10  13
ENDBRANCH   8   9
BRANCH   8  28
ATOM     28  C   UNL A   1      29.954  26.368  25.041  1.00  0.00     0.070 C 
BRANCH  28  29
ATOM     29  C   UNL A   1      30.294  26.632  23.560  1.00  0.00    -0.037 C 
ATOM     30  C   UNL A   1      31.563  26.878  23.210  1.00  0.00     0.001 A 
ATOM     31  C   UNL A   1      29.488  27.842  23.112  1.00  0.00     0.174 C 
ATOM     32  C   UNL A   1      32.474  26.257  22.288  1.00  0.00     0.010 A 
ATOM     33  C   UNL A   1      31.579  28.359  23.216  1.00  0.00     0.065 A 
ATOM     34  N   UNL A   1      30.440  28.974  23.196  1.00  0.00    -0.280 NA
ATOM     35  C   UNL A   1      33.606  26.931  22.002  1.00  0.00     0.001 A 
ATOM     36  C   UNL A   1      32.935  28.938  23.238  1.00  0.00     0.028 A 
ATOM     37  C   UNL A   1      33.901  28.201  22.659  1.00  0.00     0.002 A 
ENDBRANCH  28  29
ENDBRANCH   8  28
ENDBRANCH   6   8
ENDBRANCH   5   6
ENDBRANCH   4   5
ENDBRANCH   3   4
ENDBRANCH   2   3
ENDBRANCH   1   2
BRANCH   1  38
ATOM     38  C   UNL A   1      34.492  32.313  29.137  1.00  0.00     0.188 C 
BRANCH  38  39
ATOM     39  O   UNL A   1      34.942  33.636  29.035  1.00  0.00    -0.376 OA
BRANCH  39  40
ATOM     40  C   UNL A   1      34.082  34.638  28.521  1.00  0.00     0.202 C 
BRANCH  40  41
ATOM     41  C   UNL A   1      33.158  35.550  29.361  1.00  0.00     0.261 C 
BRANCH  41  42
ATOM     42  O   UNL A   1      32.476  34.987  30.489  1.00  0.00    -0.460 OA
BRANCH  42  43
ATOM     43  C   UNL A   1      32.707  35.589  31.690  1.00  0.00     0.338 C 
ATOM     44  O   UNL A   1      31.977  36.352  32.281  1.00  0.00    -0.246 OA
BRANCH  43  45
ATOM     45  C   UNL A   1      33.911  34.961  32.291  1.00  0.00     0.060 A 
ATOM     46  C   UNL A   1      33.873  33.637  32.722  1.00  0.00     0.016 A 
ATOM     47  C   UNL A   1      35.087  35.717  32.432  1.00  0.00     0.016 A 
ATOM     48  C   UNL A   1      35.027  33.058  33.258  1.00  0.00     0.010 A 
ATOM     49  C   UNL A   1      36.229  35.148  33.004  1.00  0.00     0.010 A 
ATOM     50  C   UNL A   1      36.217  33.800  33.390  1.00  0.00    -0.014 A 
BRANCH  50  51
ATOM     51  C   UNL A   1      37.477  33.099  33.745  1.00  0.00     0.031 A 
ATOM     52  C   UNL A   1      38.123  33.222  35.088  1.00  0.00     0.074 A 
ATOM     53  C   UNL A   1      37.999  32.252  32.841  1.00  0.00     0.049 A 
ATOM     54  N   UNL A   1      39.234  32.682  35.531  1.00  0.00    -0.248 NA
ATOM     55  C   UNL A   1      37.420  34.052  36.066  1.00  0.00     0.031 C 
ATOM     56  C   UNL A   1      37.427  31.983  31.524  1.00  0.00     0.029 A 
ATOM     57  N   UNL A   1      39.087  31.422  32.916  1.00  0.00    -0.354 N 
ATOM     58  C   UNL A   1      39.409  33.172  36.821  1.00  0.00     0.074 A 
ATOM     59  C   UNL A   1      38.238  33.969  37.108  1.00  0.00     0.031 C 
ATOM     60  C   UNL A   1      38.121  30.992  30.946  1.00  0.00     0.029 A 
ATOM     61  C   UNL A   1      39.215  30.595  31.830  1.00  0.00     0.049 A 
ATOM     62  H   UNL A   1      39.714  31.419  33.676  1.00  0.00     0.167 HD
ATOM     63  C   UNL A   1      40.468  33.008  37.654  1.00  0.00     0.037 A 
ATOM     64  C   UNL A   1      40.100  29.612  31.583  1.00  0.00     0.037 A 
ATOM     65  C   UNL A   1      41.542  32.071  37.416  1.00  0.00     0.049 A 
ATOM     66  C   UNL A   1      41.161  29.290  32.599  1.00  0.00     0.074 A 
ATOM     67  C   UNL A   1      42.614  31.755  38.235  1.00  0.00     0.029 A 
ATOM     68  N   UNL A   1      41.643  31.253  36.301  1.00  0.00    -0.354 N 
ATOM     69  N   UNL A   1      41.385  29.843  33.766  1.00  0.00    -0.248 NA
ATOM     70  C   UNL A   1      42.091  28.202  32.266  1.00  0.00     0.031 C 
ATOM     71  C   UNL A   1      43.366  30.755  37.614  1.00  0.00     0.029 A 
ATOM     72  C   UNL A   1      42.737  30.412  36.429  1.00  0.00     0.049 A 
ATOM     73  H   UNL A   1      41.029  31.267  35.532  1.00  0.00     0.167 HD
ATOM     74  C   UNL A   1      42.465  29.161  34.311  1.00  0.00     0.074 A 
ATOM     75  C   UNL A   1      42.837  28.137  33.360  1.00  0.00     0.031 C 
ATOM     76  C   UNL A   1      43.094  29.378  35.492  1.00  0.00     0.037 A 
BRANCH  63  77
ATOM     77  C   UNL A   1      40.564  33.871  38.891  1.00  0.00     0.064 A 
ATOM     78  C   UNL A   1      40.034  33.486  40.129  1.00  0.00     0.173 A 
ATOM     79  C   UNL A   1      41.284  35.081  38.847  1.00  0.00     0.173 A 
ATOM     80  F   UNL A   1      39.357  32.334  40.247  1.00  0.00    -0.203 F 
ATOM     81  C   UNL A   1      40.179  34.292  41.258  1.00  0.00     0.198 A 
ATOM     82  C   UNL A   1      41.475  35.857  39.989  1.00  0.00     0.198 A 
ATOM     83  F   UNL A   1      41.840  35.498  37.698  1.00  0.00    -0.203 F 
ATOM     84  F   UNL A   1      39.612  33.924  42.415  1.00  0.00    -0.200 F 
ATOM     85  C   UNL A   1      40.911  35.468  41.192  1.00  0.00     0.200 A 
ATOM     86  F   UNL A   1      42.222  36.968  39.929  1.00  0.00    -0.200 F 
ATOM     87  F   UNL A   1      41.079  36.218  42.289  1.00  0.00    -0.200 F 
ENDBRANCH  63  77
BRANCH  64  88
ATOM     88  C   UNL A   1      39.960  28.817  30.338  1.00  0.00     0.064 A 
ATOM     89  C   UNL A   1      40.513  29.275  29.134  1.00  0.00     0.173 A 
ATOM     90  C   UNL A   1      39.328  27.566  30.336  1.00  0.00     0.173 A 
ATOM     91  F   UNL A   1      41.117  30.471  29.087  1.00  0.00    -0.203 F 
ATOM     92  C   UNL A   1      40.432  28.513  27.972  1.00  0.00     0.198 A 
ATOM     93  C   UNL A   1      39.278  26.790  29.181  1.00  0.00     0.198 A 
ATOM     94  F   UNL A   1      38.797  27.080  31.467  1.00  0.00    -0.203 F 
ATOM     95  F   UNL A   1      40.942  28.986  26.827  1.00  0.00    -0.200 F 
ATOM     96  C   UNL A   1      39.825  27.266  27.999  1.00  0.00     0.200 A 
ATOM     97  F   UNL A   1      38.712  25.576  29.217  1.00  0.00    -0.200 F 
ATOM     98  F   UNL A   1      39.767  26.524  26.886  1.00  0.00    -0.200 F 
ENDBRANCH  64  88
BRANCH  76  99
ATOM     99  C   UNL A   1      44.242  28.481  35.856  1.00  0.00     0.064 A 
ATOM    100  C   UNL A   1      45.564  28.806  35.521  1.00  0.00     0.173 A 
ATOM    101  C   UNL A   1      44.025  27.330  36.631  1.00  0.00     0.173 A 
ATOM    102  F   UNL A   1      45.825  29.890  34.776  1.00  0.00    -0.203 F 
ATOM    103  C   UNL A   1      46.627  28.006  35.937  1.00  0.00     0.198 A 
ATOM    104  C   UNL A   1      45.091  26.549  37.069  1.00  0.00     0.198 A 
ATOM    105  F   UNL A   1      42.781  26.979  36.988  1.00  0.00    -0.203 F 
ATOM    106  F   UNL A   1      47.880  28.320  35.581  1.00  0.00    -0.200 F 
ATOM    107  C   UNL A   1      46.391  26.885  36.720  1.00  0.00     0.200 A 
ATOM    108  F   UNL A   1      44.863  25.476  37.840  1.00  0.00    -0.200 F 
ATOM    109  F   UNL A   1      47.415  26.128  37.137  1.00  0.00    -0.200 F 
ENDBRANCH  76  99
ENDBRANCH  50  51
ENDBRANCH  43  45
ENDBRANCH  42  43
ENDBRANCH  41  42
ENDBRANCH  40  41
ENDBRANCH  39  40
ENDBRANCH  38  39
ENDBRANCH   1  38
TORSDOF 23
ENDMDL
