MODEL 1
REMARK VINA RESULT:     -11.5      0.000      0.000
REMARK SMILES CC1=C(CC(=O)OCCOCCOCCOC(=O)c2ccc(-c3c4nc(c(-c5c(F)c(F)c(F)c(F)c5F)c5ccc([nH]5)c(-c5c(F)c(F)c(F)c(F)c5F)c5nc(c(-c6c(F)c(F)c(F)c(F)c6F)c6ccc3[nH]6)C=C5)C=C4)cc2)c2cc(F)ccc2/C1=C\c1ccc([S@@+](C)[O-])cc1
REMARK SMILES IDX 11 1 10 2 9 3 8 4 7 5 5 6 6 7 4 8 3 9 1 10 2 11 89 12 82 13
REMARK SMILES IDX 88 14 90 15 83 16 87 17 84 18 86 19 85 20 91 21 92 22 99 23
REMARK SMILES IDX 93 24 98 25 94 26 95 27 96 28 97 29 12 30 13 31 14 32 15 33
REMARK SMILES IDX 16 34 17 35 18 36 19 37 20 38 81 39 21 40 80 41 22 42 23 43
REMARK SMILES IDX 24 44 74 45 25 46 79 47 73 48 75 49 26 50 78 51 72 52 71 53
REMARK SMILES IDX 27 55 59 56 39 57 58 58 40 59 43 60 57 61 76 62 41 63 42 64
REMARK SMILES IDX 56 66 77 67 44 68 28 69 29 70 37 71 30 72 31 73 35 74 38 75
REMARK SMILES IDX 32 76 33 77 36 78 34 79 60 80 61 81 69 82 62 83 63 84 67 85
REMARK SMILES IDX 70 86 64 87 65 88 68 89 66 90 45 91 46 92 54 93 47 94 48 95
REMARK SMILES IDX 52 96 55 97 49 98 50 99 53 100 51 101
REMARK H PARENT 75 54 43 65
REMARK Flexibility Score: inf
ROOT
ATOM      1  C   UNL A   1      39.791  19.910  25.792  1.00  0.00     0.188 C 
ENDROOT
BRANCH   1   2
ATOM      2  O   UNL A   1      38.952  21.063  25.778  1.00  0.00    -0.376 OA
BRANCH   2   3
ATOM      3  C   UNL A   1      37.782  21.019  24.969  1.00  0.00     0.202 C 
BRANCH   3   4
ATOM      4  C   UNL A   1      36.488  21.348  25.715  1.00  0.00     0.261 C 
BRANCH   4   5
ATOM      5  O   UNL A   1      35.368  20.581  25.219  1.00  0.00    -0.463 OA
BRANCH   5   6
ATOM      6  C   UNL A   1      34.163  20.887  25.760  1.00  0.00     0.310 C 
ATOM      7  O   UNL A   1      33.154  20.199  25.624  1.00  0.00    -0.252 OA
BRANCH   6   8
ATOM      8  C   UNL A   1      34.162  22.115  26.672  1.00  0.00     0.159 C 
BRANCH   8   9
ATOM      9  C   UNL A   1      33.466  23.384  26.278  1.00  0.00    -0.025 C 
ATOM     10  C   UNL A   1      35.289  24.549  24.937  1.00  0.00     0.045 C 
ATOM     11  C   UNL A   1      33.928  24.416  25.529  1.00  0.00    -0.039 C 
ATOM     12  C   UNL A   1      32.847  25.392  25.286  1.00  0.00    -0.014 C 
ATOM     13  C   UNL A   1      32.018  23.609  26.472  1.00  0.00    -0.011 A 
ATOM     14  C   UNL A   1      31.643  24.861  25.953  1.00  0.00    -0.010 A 
ATOM     15  C   UNL A   1      32.951  26.500  24.520  1.00  0.00     0.017 C 
ATOM     16  C   UNL A   1      31.050  22.763  26.993  1.00  0.00     0.048 A 
ATOM     17  C   UNL A   1      30.333  25.316  26.069  1.00  0.00     0.012 A 
ATOM     18  C   UNL A   1      29.728  23.209  27.042  1.00  0.00     0.123 A 
ATOM     19  C   UNL A   1      29.369  24.485  26.630  1.00  0.00     0.040 A 
ATOM     20  F   UNL A   1      28.778  22.391  27.514  1.00  0.00    -0.207 F 
BRANCH  15  21
ATOM     21  C   UNL A   1      31.849  27.436  24.258  1.00  0.00    -0.025 A 
ATOM     22  C   UNL A   1      31.020  27.229  23.151  1.00  0.00     0.013 A 
ATOM     23  C   UNL A   1      31.730  28.621  24.992  1.00  0.00     0.013 A 
ATOM     24  C   UNL A   1      30.164  28.245  22.709  1.00  0.00     0.061 A 
ATOM     25  C   UNL A   1      30.860  29.630  24.559  1.00  0.00     0.061 A 
ATOM     26  C   UNL A   1      30.100  29.466  23.392  1.00  0.00     0.152 A 
BRANCH  26  27
ATOM     27  S   UNL A   1      29.230  30.892  22.689  1.00  0.00    -0.018 S 
ATOM     28  C   UNL A   1      28.053  30.054  21.612  1.00  0.00     0.346 C 
ATOM     29  O   UNL A   1      28.427  31.563  23.860  1.00  0.00    -0.612 OA
ENDBRANCH  26  27
ENDBRANCH  15  21
ENDBRANCH   8   9
ENDBRANCH   6   8
ENDBRANCH   5   6
ENDBRANCH   4   5
ENDBRANCH   3   4
ENDBRANCH   2   3
ENDBRANCH   1   2
BRANCH   1  30
ATOM     30  C   UNL A   1      41.165  20.021  26.471  1.00  0.00     0.188 C 
BRANCH  30  31
ATOM     31  O   UNL A   1      42.096  20.721  25.652  1.00  0.00    -0.376 OA
BRANCH  31  32
ATOM     32  C   UNL A   1      42.284  22.079  26.030  1.00  0.00     0.202 C 
BRANCH  32  33
ATOM     33  C   UNL A   1      43.154  22.789  24.992  1.00  0.00     0.261 C 
BRANCH  33  34
ATOM     34  O   UNL A   1      43.018  24.223  25.020  1.00  0.00    -0.460 OA
BRANCH  34  35
ATOM     35  C   UNL A   1      44.140  24.914  25.313  1.00  0.00     0.338 C 
ATOM     36  O   UNL A   1      45.196  24.899  24.712  1.00  0.00    -0.246 OA
BRANCH  35  37
ATOM     37  C   UNL A   1      43.846  25.796  26.455  1.00  0.00     0.060 A 
ATOM     38  C   UNL A   1      44.135  27.156  26.405  1.00  0.00     0.016 A 
ATOM     39  C   UNL A   1      43.199  25.261  27.568  1.00  0.00     0.016 A 
ATOM     40  C   UNL A   1      43.748  27.976  27.472  1.00  0.00     0.010 A 
ATOM     41  C   UNL A   1      42.765  26.084  28.608  1.00  0.00     0.010 A 
ATOM     42  C   UNL A   1      43.033  27.454  28.571  1.00  0.00    -0.014 A 
BRANCH  42  43
ATOM     43  C   UNL A   1      42.488  28.366  29.611  1.00  0.00     0.031 A 
ATOM     44  C   UNL A   1      41.161  29.051  29.452  1.00  0.00     0.074 A 
ATOM     45  C   UNL A   1      43.222  28.592  30.717  1.00  0.00     0.049 A 
ATOM     46  N   UNL A   1      40.471  29.722  30.341  1.00  0.00    -0.248 NA
ATOM     47  C   UNL A   1      40.536  29.006  28.121  1.00  0.00     0.031 C 
ATOM     48  C   UNL A   1      44.582  28.098  30.938  1.00  0.00     0.029 A 
ATOM     49  N   UNL A   1      42.925  29.276  31.871  1.00  0.00    -0.354 N 
ATOM     50  C   UNL A   1      39.325  30.155  29.688  1.00  0.00     0.074 A 
ATOM     51  C   UNL A   1      39.445  29.737  28.307  1.00  0.00     0.031 C 
ATOM     52  C   UNL A   1      44.976  28.432  32.176  1.00  0.00     0.029 A 
ATOM     53  C   UNL A   1      43.901  29.171  32.833  1.00  0.00     0.049 A 
ATOM     54  H   UNL A   1      42.096  29.791  31.996  1.00  0.00     0.167 HD
ATOM     55  C   UNL A   1      38.255  30.807  30.204  1.00  0.00     0.037 A 
ATOM     56  C   UNL A   1      43.911  29.583  34.115  1.00  0.00     0.037 A 
ATOM     57  C   UNL A   1      38.139  31.215  31.580  1.00  0.00     0.049 A 
ATOM     58  C   UNL A   1      42.695  30.258  34.682  1.00  0.00     0.074 A 
ATOM     59  C   UNL A   1      37.064  31.807  32.220  1.00  0.00     0.029 A 
ATOM     60  N   UNL A   1      39.142  31.080  32.529  1.00  0.00    -0.354 N 
ATOM     61  N   UNL A   1      41.557  30.536  34.096  1.00  0.00    -0.248 NA
ATOM     62  C   UNL A   1      42.758  30.662  36.094  1.00  0.00     0.031 C 
ATOM     63  C   UNL A   1      37.428  32.064  33.545  1.00  0.00     0.029 A 
ATOM     64  C   UNL A   1      38.716  31.595  33.743  1.00  0.00     0.049 A 
ATOM     65  H   UNL A   1      40.026  30.677  32.365  1.00  0.00     0.167 HD
ATOM     66  C   UNL A   1      40.763  31.131  35.065  1.00  0.00     0.074 A 
ATOM     67  C   UNL A   1      41.541  31.155  36.286  1.00  0.00     0.031 C 
ATOM     68  C   UNL A   1      39.503  31.616  34.950  1.00  0.00     0.037 A 
BRANCH  55  69
ATOM     69  C   UNL A   1      37.095  31.082  29.292  1.00  0.00     0.064 A 
ATOM     70  C   UNL A   1      36.145  30.087  29.010  1.00  0.00     0.173 A 
ATOM     71  C   UNL A   1      36.878  32.362  28.762  1.00  0.00     0.173 A 
ATOM     72  F   UNL A   1      36.307  28.846  29.492  1.00  0.00    -0.203 F 
ATOM     73  C   UNL A   1      35.033  30.358  28.218  1.00  0.00     0.198 A 
ATOM     74  C   UNL A   1      35.751  32.637  27.991  1.00  0.00     0.198 A 
ATOM     75  F   UNL A   1      37.747  33.354  29.010  1.00  0.00    -0.203 F 
ATOM     76  F   UNL A   1      34.157  29.384  27.941  1.00  0.00    -0.200 F 
ATOM     77  C   UNL A   1      34.832  31.635  27.716  1.00  0.00     0.200 A 
ATOM     78  F   UNL A   1      35.547  33.876  27.519  1.00  0.00    -0.200 F 
ATOM     79  F   UNL A   1      33.752  31.900  26.969  1.00  0.00    -0.200 F 
ENDBRANCH  55  69
BRANCH  56  80
ATOM     80  C   UNL A   1      45.084  29.271  34.971  1.00  0.00     0.064 A 
ATOM     81  C   UNL A   1      45.104  28.109  35.756  1.00  0.00     0.173 A 
ATOM     82  C   UNL A   1      46.218  30.094  34.991  1.00  0.00     0.173 A 
ATOM     83  F   UNL A   1      44.036  27.298  35.780  1.00  0.00    -0.203 F 
ATOM     84  C   UNL A   1      46.213  27.787  36.537  1.00  0.00     0.198 A 
ATOM     85  C   UNL A   1      47.335  29.759  35.754  1.00  0.00     0.198 A 
ATOM     86  F   UNL A   1      46.249  31.211  34.249  1.00  0.00    -0.203 F 
ATOM     87  F   UNL A   1      46.195  26.686  37.298  1.00  0.00    -0.200 F 
ATOM     88  C   UNL A   1      47.330  28.609  36.528  1.00  0.00     0.200 A 
ATOM     89  F   UNL A   1      48.418  30.547  35.733  1.00  0.00    -0.200 F 
ATOM     90  F   UNL A   1      48.401  28.292  37.269  1.00  0.00    -0.200 F 
ENDBRANCH  56  80
BRANCH  68  91
ATOM     91  C   UNL A   1      38.879  32.218  36.174  1.00  0.00     0.064 A 
ATOM     92  C   UNL A   1      38.120  31.441  37.062  1.00  0.00     0.173 A 
ATOM     93  C   UNL A   1      39.098  33.566  36.497  1.00  0.00     0.173 A 
ATOM     94  F   UNL A   1      37.873  30.152  36.789  1.00  0.00    -0.203 F 
ATOM     95  C   UNL A   1      37.594  31.995  38.226  1.00  0.00     0.198 A 
ATOM     96  C   UNL A   1      38.591  34.110  37.674  1.00  0.00     0.198 A 
ATOM     97  F   UNL A   1      39.821  34.348  35.683  1.00  0.00    -0.203 F 
ATOM     98  F   UNL A   1      36.848  31.244  39.046  1.00  0.00    -0.200 F 
ATOM     99  C   UNL A   1      37.838  33.326  38.535  1.00  0.00     0.200 A 
ATOM    100  F   UNL A   1      38.837  35.392  37.978  1.00  0.00    -0.200 F 
ATOM    101  F   UNL A   1      37.342  33.854  39.663  1.00  0.00    -0.200 F 
ENDBRANCH  68  91
ENDBRANCH  42  43
ENDBRANCH  35  37
ENDBRANCH  34  35
ENDBRANCH  33  34
ENDBRANCH  32  33
ENDBRANCH  31  32
ENDBRANCH  30  31
ENDBRANCH   1  30
TORSDOF 20
ENDMDL
MODEL 2
REMARK VINA RESULT:     -11.4      4.353      7.364
REMARK SMILES CC1=C(CC(=O)OCCOCCOCCOC(=O)c2ccc(-c3c4nc(c(-c5c(F)c(F)c(F)c(F)c5F)c5ccc([nH]5)c(-c5c(F)c(F)c(F)c(F)c5F)c5nc(c(-c6c(F)c(F)c(F)c(F)c6F)c6ccc3[nH]6)C=C5)C=C4)cc2)c2cc(F)ccc2/C1=C\c1ccc([S@@+](C)[O-])cc1
REMARK SMILES IDX 11 1 10 2 9 3 8 4 7 5 5 6 6 7 4 8 3 9 1 10 2 11 89 12 82 13
REMARK SMILES IDX 88 14 90 15 83 16 87 17 84 18 86 19 85 20 91 21 92 22 99 23
REMARK SMILES IDX 93 24 98 25 94 26 95 27 96 28 97 29 12 30 13 31 14 32 15 33
REMARK SMILES IDX 16 34 17 35 18 36 19 37 20 38 81 39 21 40 80 41 22 42 23 43
REMARK SMILES IDX 24 44 74 45 25 46 79 47 73 48 75 49 26 50 78 51 72 52 71 53
REMARK SMILES IDX 27 55 59 56 39 57 58 58 40 59 43 60 57 61 76 62 41 63 42 64
REMARK SMILES IDX 56 66 77 67 44 68 28 69 29 70 37 71 30 72 31 73 35 74 38 75
REMARK SMILES IDX 32 76 33 77 36 78 34 79 60 80 61 81 69 82 62 83 63 84 67 85
REMARK SMILES IDX 70 86 64 87 65 88 68 89 66 90 45 91 46 92 54 93 47 94 48 95
REMARK SMILES IDX 52 96 55 97 49 98 50 99 53 100 51 101
REMARK H PARENT 75 54 43 65
REMARK Flexibility Score: inf
ROOT
ATOM      1  C   UNL A   1      36.671  22.228  23.878  1.00  0.00     0.188 C 
ENDROOT
BRANCH   1   2
ATOM      2  O   UNL A   1      35.320  22.579  24.166  1.00  0.00    -0.376 OA
BRANCH   2   3
ATOM      3  C   UNL A   1      34.608  21.764  25.091  1.00  0.00     0.202 C 
BRANCH   3   4
ATOM      4  C   UNL A   1      34.294  22.448  26.422  1.00  0.00     0.261 C 
BRANCH   4   5
ATOM      5  O   UNL A   1      32.885  22.389  26.741  1.00  0.00    -0.463 OA
BRANCH   5   6
ATOM      6  C   UNL A   1      32.265  23.586  26.882  1.00  0.00     0.310 C 
ATOM      7  O   UNL A   1      31.256  23.763  27.560  1.00  0.00    -0.252 OA
BRANCH   6   8
ATOM      8  C   UNL A   1      32.983  24.762  26.218  1.00  0.00     0.159 C 
BRANCH   8   9
ATOM      9  C   UNL A   1      32.236  25.787  25.416  1.00  0.00    -0.025 C 
ATOM     10  C   UNL A   1      30.842  24.297  23.893  1.00  0.00     0.045 C 
ATOM     11  C   UNL A   1      31.314  25.602  24.439  1.00  0.00    -0.039 C 
ATOM     12  C   UNL A   1      30.744  26.899  24.024  1.00  0.00    -0.014 C 
ATOM     13  C   UNL A   1      32.230  27.227  25.744  1.00  0.00    -0.011 A 
ATOM     14  C   UNL A   1      31.397  27.929  24.855  1.00  0.00    -0.010 A 
ATOM     15  C   UNL A   1      29.754  27.067  23.122  1.00  0.00     0.017 C 
ATOM     16  C   UNL A   1      32.839  27.901  26.793  1.00  0.00     0.048 A 
ATOM     17  C   UNL A   1      31.276  29.313  24.936  1.00  0.00     0.012 A 
ATOM     18  C   UNL A   1      32.653  29.281  26.899  1.00  0.00     0.123 A 
ATOM     19  C   UNL A   1      31.920  29.996  25.962  1.00  0.00     0.040 A 
ATOM     20  F   UNL A   1      33.210  29.940  27.924  1.00  0.00    -0.207 F 
BRANCH  15  21
ATOM     21  C   UNL A   1      29.173  28.366  22.756  1.00  0.00    -0.025 A 
ATOM     22  C   UNL A   1      29.931  29.271  22.005  1.00  0.00     0.013 A 
ATOM     23  C   UNL A   1      27.950  28.779  23.296  1.00  0.00     0.013 A 
ATOM     24  C   UNL A   1      29.530  30.607  21.894  1.00  0.00     0.061 A 
ATOM     25  C   UNL A   1      27.542  30.113  23.170  1.00  0.00     0.061 A 
ATOM     26  C   UNL A   1      28.348  31.047  22.503  1.00  0.00     0.152 A 
BRANCH  26  27
ATOM     27  S   UNL A   1      27.951  32.811  22.625  1.00  0.00    -0.018 S 
ATOM     28  C   UNL A   1      29.552  33.467  23.130  1.00  0.00     0.346 C 
ATOM     29  O   UNL A   1      27.654  33.317  21.169  1.00  0.00    -0.612 OA
ENDBRANCH  26  27
ENDBRANCH  15  21
ENDBRANCH   8   9
ENDBRANCH   6   8
ENDBRANCH   5   6
ENDBRANCH   4   5
ENDBRANCH   3   4
ENDBRANCH   2   3
ENDBRANCH   1   2
BRANCH   1  30
ATOM     30  C   UNL A   1      37.505  21.580  24.993  1.00  0.00     0.188 C 
BRANCH  30  31
ATOM     31  O   UNL A   1      37.386  20.161  24.976  1.00  0.00    -0.376 OA
BRANCH  31  32
ATOM     32  C   UNL A   1      38.635  19.481  25.008  1.00  0.00     0.202 C 
BRANCH  32  33
ATOM     33  C   UNL A   1      39.591  20.201  25.959  1.00  0.00     0.261 C 
BRANCH  33  34
ATOM     34  O   UNL A   1      40.468  19.307  26.671  1.00  0.00    -0.460 OA
BRANCH  34  35
ATOM     35  C   UNL A   1      41.746  19.266  26.239  1.00  0.00     0.338 C 
ATOM     36  O   UNL A   1      42.332  18.319  25.751  1.00  0.00    -0.246 OA
BRANCH  35  37
ATOM     37  C   UNL A   1      42.311  20.621  26.361  1.00  0.00     0.060 A 
ATOM     38  C   UNL A   1      42.649  21.362  25.234  1.00  0.00     0.016 A 
ATOM     39  C   UNL A   1      42.434  21.185  27.630  1.00  0.00     0.016 A 
ATOM     40  C   UNL A   1      43.089  22.682  25.391  1.00  0.00     0.010 A 
ATOM     41  C   UNL A   1      42.821  22.516  27.786  1.00  0.00     0.010 A 
ATOM     42  C   UNL A   1      43.151  23.283  26.666  1.00  0.00    -0.014 A 
BRANCH  42  43
ATOM     43  C   UNL A   1      43.461  24.731  26.798  1.00  0.00     0.031 A 
ATOM     44  C   UNL A   1      42.464  25.710  27.348  1.00  0.00     0.074 A 
ATOM     45  C   UNL A   1      44.667  25.171  26.392  1.00  0.00     0.049 A 
ATOM     46  N   UNL A   1      42.646  26.961  27.696  1.00  0.00    -0.248 NA
ATOM     47  C   UNL A   1      41.078  25.243  27.505  1.00  0.00     0.031 C 
ATOM     48  C   UNL A   1      45.676  24.352  25.718  1.00  0.00     0.029 A 
ATOM     49  N   UNL A   1      45.260  26.404  26.502  1.00  0.00    -0.354 N 
ATOM     50  C   UNL A   1      41.411  27.420  28.133  1.00  0.00     0.074 A 
ATOM     51  C   UNL A   1      40.468  26.339  27.938  1.00  0.00     0.031 C 
ATOM     52  C   UNL A   1      46.787  25.082  25.537  1.00  0.00     0.029 A 
ATOM     53  C   UNL A   1      46.567  26.422  26.076  1.00  0.00     0.049 A 
ATOM     54  H   UNL A   1      44.795  27.199  26.852  1.00  0.00     0.167 HD
ATOM     55  C   UNL A   1      41.104  28.619  28.683  1.00  0.00     0.037 A 
ATOM     56  C   UNL A   1      47.497  27.393  26.151  1.00  0.00     0.037 A 
ATOM     57  C   UNL A   1      42.048  29.688  28.880  1.00  0.00     0.049 A 
ATOM     58  C   UNL A   1      47.149  28.697  26.810  1.00  0.00     0.074 A 
ATOM     59  C   UNL A   1      41.855  30.909  29.502  1.00  0.00     0.029 A 
ATOM     60  N   UNL A   1      43.366  29.665  28.447  1.00  0.00    -0.354 N 
ATOM     61  N   UNL A   1      46.018  29.072  27.353  1.00  0.00    -0.248 NA
ATOM     62  C   UNL A   1      48.214  29.707  26.884  1.00  0.00     0.031 C 
ATOM     63  C   UNL A   1      43.044  31.640  29.413  1.00  0.00     0.029 A 
ATOM     64  C   UNL A   1      43.991  30.859  28.772  1.00  0.00     0.049 A 
ATOM     65  H   UNL A   1      43.794  28.912  27.979  1.00  0.00     0.167 HD
ATOM     66  C   UNL A   1      46.234  30.350  27.845  1.00  0.00     0.074 A 
ATOM     67  C   UNL A   1      47.615  30.681  27.556  1.00  0.00     0.031 C 
ATOM     68  C   UNL A   1      45.365  31.176  28.476  1.00  0.00     0.037 A 
BRANCH  55  69
ATOM     69  C   UNL A   1      39.696  28.831  29.160  1.00  0.00     0.064 A 
ATOM     70  C   UNL A   1      39.341  28.586  30.496  1.00  0.00     0.173 A 
ATOM     71  C   UNL A   1      38.715  29.360  28.308  1.00  0.00     0.173 A 
ATOM     72  F   UNL A   1      40.242  28.080  31.351  1.00  0.00    -0.203 F 
ATOM     73  C   UNL A   1      38.053  28.844  30.956  1.00  0.00     0.198 A 
ATOM     74  C   UNL A   1      37.434  29.641  28.778  1.00  0.00     0.198 A 
ATOM     75  F   UNL A   1      39.003  29.625  27.025  1.00  0.00    -0.203 F 
ATOM     76  F   UNL A   1      37.732  28.575  32.229  1.00  0.00    -0.200 F 
ATOM     77  C   UNL A   1      37.103  29.380  30.100  1.00  0.00     0.200 A 
ATOM     78  F   UNL A   1      36.520  30.174  27.954  1.00  0.00    -0.200 F 
ATOM     79  F   UNL A   1      35.868  29.646  30.548  1.00  0.00    -0.200 F 
ENDBRANCH  55  69
BRANCH  56  80
ATOM     80  C   UNL A   1      48.875  27.119  25.672  1.00  0.00     0.064 A 
ATOM     81  C   UNL A   1      49.209  27.296  24.322  1.00  0.00     0.173 A 
ATOM     82  C   UNL A   1      49.892  26.720  26.551  1.00  0.00     0.173 A 
ATOM     83  F   UNL A   1      48.266  27.662  23.441  1.00  0.00    -0.203 F 
ATOM     84  C   UNL A   1      50.508  27.076  23.867  1.00  0.00     0.198 A 
ATOM     85  C   UNL A   1      51.195  26.523  26.099  1.00  0.00     0.198 A 
ATOM     86  F   UNL A   1      49.622  26.547  27.853  1.00  0.00    -0.203 F 
ATOM     87  F   UNL A   1      50.794  27.227  22.567  1.00  0.00    -0.200 F 
ATOM     88  C   UNL A   1      51.501  26.698  24.757  1.00  0.00     0.200 A 
ATOM     89  F   UNL A   1      52.156  26.171  26.964  1.00  0.00    -0.200 F 
ATOM     90  F   UNL A   1      52.752  26.499  24.321  1.00  0.00    -0.200 F 
ENDBRANCH  56  80
BRANCH  68  91
ATOM     91  C   UNL A   1      45.872  32.522  28.901  1.00  0.00     0.064 A 
ATOM     92  C   UNL A   1      45.676  33.659  28.103  1.00  0.00     0.173 A 
ATOM     93  C   UNL A   1      46.497  32.689  30.146  1.00  0.00     0.173 A 
ATOM     94  F   UNL A   1      45.095  33.547  26.900  1.00  0.00    -0.203 F 
ATOM     95  C   UNL A   1      46.097  34.914  28.533  1.00  0.00     0.198 A 
ATOM     96  C   UNL A   1      46.895  33.950  30.583  1.00  0.00     0.198 A 
ATOM     97  F   UNL A   1      46.702  31.634  30.948  1.00  0.00    -0.203 F 
ATOM     98  F   UNL A   1      45.927  35.983  27.743  1.00  0.00    -0.200 F 
ATOM     99  C   UNL A   1      46.697  35.060  29.775  1.00  0.00     0.200 A 
ATOM    100  F   UNL A   1      47.463  34.091  31.788  1.00  0.00    -0.200 F 
ATOM    101  F   UNL A   1      47.089  36.271  30.193  1.00  0.00    -0.200 F 
ENDBRANCH  68  91
ENDBRANCH  42  43
ENDBRANCH  35  37
ENDBRANCH  34  35
ENDBRANCH  33  34
ENDBRANCH  32  33
ENDBRANCH  31  32
ENDBRANCH  30  31
ENDBRANCH   1  30
TORSDOF 20
ENDMDL
MODEL 3
REMARK VINA RESULT:     -10.9      3.841      9.306
REMARK SMILES CC1=C(CC(=O)OCCOCCOCCOC(=O)c2ccc(-c3c4nc(c(-c5c(F)c(F)c(F)c(F)c5F)c5ccc([nH]5)c(-c5c(F)c(F)c(F)c(F)c5F)c5nc(c(-c6c(F)c(F)c(F)c(F)c6F)c6ccc3[nH]6)C=C5)C=C4)cc2)c2cc(F)ccc2/C1=C\c1ccc([S@@+](C)[O-])cc1
REMARK SMILES IDX 11 1 10 2 9 3 8 4 7 5 5 6 6 7 4 8 3 9 1 10 2 11 89 12 82 13
REMARK SMILES IDX 88 14 90 15 83 16 87 17 84 18 86 19 85 20 91 21 92 22 99 23
REMARK SMILES IDX 93 24 98 25 94 26 95 27 96 28 97 29 12 30 13 31 14 32 15 33
REMARK SMILES IDX 16 34 17 35 18 36 19 37 20 38 81 39 21 40 80 41 22 42 23 43
REMARK SMILES IDX 24 44 74 45 25 46 79 47 73 48 75 49 26 50 78 51 72 52 71 53
REMARK SMILES IDX 27 55 59 56 39 57 58 58 40 59 43 60 57 61 76 62 41 63 42 64
REMARK SMILES IDX 56 66 77 67 44 68 28 69 29 70 37 71 30 72 31 73 35 74 38 75
REMARK SMILES IDX 32 76 33 77 36 78 34 79 60 80 61 81 69 82 62 83 63 84 67 85
REMARK SMILES IDX 70 86 64 87 65 88 68 89 66 90 45 91 46 92 54 93 47 94 48 95
REMARK SMILES IDX 52 96 55 97 49 98 50 99 53 100 51 101
REMARK H PARENT 75 54 43 65
REMARK Flexibility Score: inf
ROOT
ATOM      1  C   UNL A   1      34.732  32.652  28.042  1.00  0.00     0.188 C 
ENDROOT
BRANCH   1   2
ATOM      2  O   UNL A   1      34.326  31.330  27.692  1.00  0.00    -0.376 OA
BRANCH   2   3
ATOM      3  C   UNL A   1      33.004  31.155  27.195  1.00  0.00     0.202 C 
BRANCH   3   4
ATOM      4  C   UNL A   1      32.618  29.700  26.930  1.00  0.00     0.261 C 
BRANCH   4   5
ATOM      5  O   UNL A   1      31.839  29.558  25.721  1.00  0.00    -0.463 OA
BRANCH   5   6
ATOM      6  C   UNL A   1      32.394  28.790  24.752  1.00  0.00     0.310 C 
ATOM      7  O   UNL A   1      33.539  28.937  24.330  1.00  0.00    -0.252 OA
BRANCH   6   8
ATOM      8  C   UNL A   1      31.526  27.622  24.281  1.00  0.00     0.159 C 
BRANCH   8   9
ATOM      9  C   UNL A   1      32.053  26.218  24.242  1.00  0.00    -0.025 C 
ATOM     10  C   UNL A   1      31.613  25.461  26.633  1.00  0.00     0.045 C 
ATOM     11  C   UNL A   1      32.081  25.287  25.228  1.00  0.00    -0.039 C 
ATOM     12  C   UNL A   1      32.568  23.998  24.697  1.00  0.00    -0.014 C 
ATOM     13  C   UNL A   1      32.438  25.531  22.992  1.00  0.00    -0.011 A 
ATOM     14  C   UNL A   1      32.836  24.210  23.262  1.00  0.00    -0.010 A 
ATOM     15  C   UNL A   1      32.653  22.846  25.396  1.00  0.00     0.017 C 
ATOM     16  C   UNL A   1      32.382  25.978  21.680  1.00  0.00     0.048 A 
ATOM     17  C   UNL A   1      33.294  23.382  22.241  1.00  0.00     0.012 A 
ATOM     18  C   UNL A   1      32.783  25.112  20.660  1.00  0.00     0.123 A 
ATOM     19  C   UNL A   1      33.278  23.843  20.929  1.00  0.00     0.040 A 
ATOM     20  F   UNL A   1      32.704  25.519  19.387  1.00  0.00    -0.207 F 
BRANCH  15  21
ATOM     21  C   UNL A   1      33.102  21.564  24.835  1.00  0.00    -0.025 A 
ATOM     22  C   UNL A   1      32.152  20.638  24.392  1.00  0.00     0.013 A 
ATOM     23  C   UNL A   1      34.447  21.187  24.903  1.00  0.00     0.013 A 
ATOM     24  C   UNL A   1      32.524  19.313  24.133  1.00  0.00     0.061 A 
ATOM     25  C   UNL A   1      34.821  19.866  24.627  1.00  0.00     0.061 A 
ATOM     26  C   UNL A   1      33.857  18.909  24.279  1.00  0.00     0.152 A 
BRANCH  26  27
ATOM     27  S   UNL A   1      34.319  17.156  24.234  1.00  0.00    -0.018 S 
ATOM     28  C   UNL A   1      33.010  16.452  25.253  1.00  0.00     0.346 C 
ATOM     29  O   UNL A   1      34.108  16.663  22.759  1.00  0.00    -0.612 OA
ENDBRANCH  26  27
ENDBRANCH  15  21
ENDBRANCH   8   9
ENDBRANCH   6   8
ENDBRANCH   5   6
ENDBRANCH   4   5
ENDBRANCH   3   4
ENDBRANCH   2   3
ENDBRANCH   1   2
BRANCH   1  30
ATOM     30  C   UNL A   1      33.651  33.737  28.154  1.00  0.00     0.188 C 
BRANCH  30  31
ATOM     31  O   UNL A   1      33.874  34.582  29.278  1.00  0.00    -0.376 OA
BRANCH  31  32
ATOM     32  C   UNL A   1      32.825  35.514  29.510  1.00  0.00     0.202 C 
BRANCH  32  33
ATOM     33  C   UNL A   1      33.375  36.737  30.245  1.00  0.00     0.261 C 
BRANCH  33  34
ATOM     34  O   UNL A   1      32.744  36.969  31.519  1.00  0.00    -0.460 OA
BRANCH  34  35
ATOM     35  C   UNL A   1      32.412  35.865  32.221  1.00  0.00     0.338 C 
ATOM     36  O   UNL A   1      31.299  35.503  32.549  1.00  0.00    -0.246 OA
BRANCH  35  37
ATOM     37  C   UNL A   1      33.641  35.087  32.454  1.00  0.00     0.060 A 
ATOM     38  C   UNL A   1      34.879  35.714  32.558  1.00  0.00     0.016 A 
ATOM     39  C   UNL A   1      33.538  33.711  32.645  1.00  0.00     0.016 A 
ATOM     40  C   UNL A   1      36.006  34.950  32.880  1.00  0.00     0.010 A 
ATOM     41  C   UNL A   1      34.650  32.955  33.017  1.00  0.00     0.010 A 
ATOM     42  C   UNL A   1      35.900  33.568  33.142  1.00  0.00    -0.014 A 
BRANCH  42  43
ATOM     43  C   UNL A   1      37.076  32.807  33.642  1.00  0.00     0.031 A 
ATOM     44  C   UNL A   1      37.795  31.804  32.787  1.00  0.00     0.074 A 
ATOM     45  C   UNL A   1      37.488  33.017  34.907  1.00  0.00     0.049 A 
ATOM     46  N   UNL A   1      38.938  31.202  33.011  1.00  0.00    -0.248 NA
ATOM     47  C   UNL A   1      37.144  31.399  31.532  1.00  0.00     0.031 C 
ATOM     48  C   UNL A   1      36.801  33.862  35.884  1.00  0.00     0.029 A 
ATOM     49  N   UNL A   1      38.592  32.557  35.582  1.00  0.00    -0.354 N 
ATOM     50  C   UNL A   1      39.152  30.371  31.920  1.00  0.00     0.074 A 
ATOM     51  C   UNL A   1      37.988  30.486  31.068  1.00  0.00     0.031 C 
ATOM     52  C   UNL A   1      37.531  33.917  37.008  1.00  0.00     0.029 A 
ATOM     53  C   UNL A   1      38.733  33.107  36.834  1.00  0.00     0.049 A 
ATOM     54  H   UNL A   1      39.220  31.899  35.207  1.00  0.00     0.167 HD
ATOM     55  C   UNL A   1      40.239  29.612  31.639  1.00  0.00     0.037 A 
ATOM     56  C   UNL A   1      39.739  33.006  37.723  1.00  0.00     0.037 A 
ATOM     57  C   UNL A   1      41.397  29.506  32.488  1.00  0.00     0.049 A 
ATOM     58  C   UNL A   1      40.957  32.200  37.370  1.00  0.00     0.074 A 
ATOM     59  C   UNL A   1      42.582  28.829  32.255  1.00  0.00     0.029 A 
ATOM     60  N   UNL A   1      41.510  30.087  33.743  1.00  0.00    -0.354 N 
ATOM     61  N   UNL A   1      41.216  31.533  36.273  1.00  0.00    -0.248 NA
ATOM     62  C   UNL A   1      42.032  32.149  38.372  1.00  0.00     0.031 C 
ATOM     63  C   UNL A   1      43.397  28.970  33.382  1.00  0.00     0.029 A 
ATOM     64  C   UNL A   1      42.737  29.768  34.302  1.00  0.00     0.049 A 
ATOM     65  H   UNL A   1      40.821  30.643  34.172  1.00  0.00     0.167 HD
ATOM     66  C   UNL A   1      42.483  30.995  36.442  1.00  0.00     0.074 A 
ATOM     67  C   UNL A   1      42.953  31.432  37.741  1.00  0.00     0.031 C 
ATOM     68  C   UNL A   1      43.191  30.208  35.598  1.00  0.00     0.037 A 
BRANCH  55  69
ATOM     69  C   UNL A   1      40.256  28.869  30.334  1.00  0.00     0.064 A 
ATOM     70  C   UNL A   1      39.575  27.650  30.187  1.00  0.00     0.173 A 
ATOM     71  C   UNL A   1      40.881  29.411  29.201  1.00  0.00     0.173 A 
ATOM     72  F   UNL A   1      38.962  27.090  31.240  1.00  0.00    -0.203 F 
ATOM     73  C   UNL A   1      39.535  26.993  28.960  1.00  0.00     0.198 A 
ATOM     74  C   UNL A   1      40.817  28.764  27.969  1.00  0.00     0.198 A 
ATOM     75  F   UNL A   1      41.535  30.579  29.283  1.00  0.00    -0.203 F 
ATOM     76  F   UNL A   1      38.902  25.817  28.853  1.00  0.00    -0.200 F 
ATOM     77  C   UNL A   1      40.148  27.554  27.851  1.00  0.00     0.200 A 
ATOM     78  F   UNL A   1      41.396  29.314  26.892  1.00  0.00    -0.200 F 
ATOM     79  F   UNL A   1      40.093  26.930  26.666  1.00  0.00    -0.200 F 
ENDBRANCH  55  69
BRANCH  56  80
ATOM     80  C   UNL A   1      39.669  33.774  38.992  1.00  0.00     0.064 A 
ATOM     81  C   UNL A   1      39.043  33.229  40.122  1.00  0.00     0.173 A 
ATOM     82  C   UNL A   1      40.258  35.040  39.117  1.00  0.00     0.173 A 
ATOM     83  F   UNL A   1      38.453  32.026  40.045  1.00  0.00    -0.203 F 
ATOM     84  C   UNL A   1      39.002  33.925  41.328  1.00  0.00     0.198 A 
ATOM     85  C   UNL A   1      40.236  35.725  40.330  1.00  0.00     0.198 A 
ATOM     86  F   UNL A   1      40.876  35.598  38.066  1.00  0.00    -0.203 F 
ATOM     87  F   UNL A   1      38.374  33.392  42.385  1.00  0.00    -0.200 F 
ATOM     88  C   UNL A   1      39.605  35.169  41.433  1.00  0.00     0.200 A 
ATOM     89  F   UNL A   1      40.832  36.921  40.432  1.00  0.00    -0.200 F 
ATOM     90  F   UNL A   1      39.576  35.832  42.597  1.00  0.00    -0.200 F 
ENDBRANCH  56  80
BRANCH  68  91
ATOM     91  C   UNL A   1      44.551  29.760  36.043  1.00  0.00     0.064 A 
ATOM     92  C   UNL A   1      44.733  28.545  36.721  1.00  0.00     0.173 A 
ATOM     93  C   UNL A   1      45.690  30.517  35.730  1.00  0.00     0.173 A 
ATOM     94  F   UNL A   1      43.673  27.794  37.054  1.00  0.00    -0.203 F 
ATOM     95  C   UNL A   1      46.006  28.110  37.078  1.00  0.00     0.198 A 
ATOM     96  C   UNL A   1      46.963  30.066  36.067  1.00  0.00     0.198 A 
ATOM     97  F   UNL A   1      45.569  31.683  35.078  1.00  0.00    -0.203 F 
ATOM     98  F   UNL A   1      46.154  26.961  37.751  1.00  0.00    -0.200 F 
ATOM     99  C   UNL A   1      47.120  28.866  36.743  1.00  0.00     0.200 A 
ATOM    100  F   UNL A   1      48.040  30.792  35.732  1.00  0.00    -0.200 F 
ATOM    101  F   UNL A   1      48.345  28.438  37.076  1.00  0.00    -0.200 F 
ENDBRANCH  68  91
ENDBRANCH  42  43
ENDBRANCH  35  37
ENDBRANCH  34  35
ENDBRANCH  33  34
ENDBRANCH  32  33
ENDBRANCH  31  32
ENDBRANCH  30  31
ENDBRANCH   1  30
TORSDOF 20
ENDMDL
