MODEL 1
REMARK VINA RESULT:     -11.6      0.000      0.000
REMARK SMILES O=C(OCCOCCOCCOC(=O)[C@H]1[C@@H](C(=O)NN2CCOCC2)[C@H]2C=C[C@@H]1CC2)c1ccc(-c2c3nc(c(-c4c(F)c(F)c(F)c(F)c4F)c4ccc([nH]4)c(-c4c(F)c(F)c(F)c(F)c4F)c4nc(c(-c5c(F)c(F)c(F)c(F)c5F)c5ccc2[nH]5)C=C4)C=C3)cc1
REMARK SMILES IDX 7 1 6 2 5 3 4 4 3 5 2 6 1 7 32 8 33 9 94 10 34 11 93 12
REMARK SMILES IDX 35 13 36 14 37 15 87 16 38 17 92 18 86 19 88 20 39 21 91 22
REMARK SMILES IDX 85 23 84 24 40 26 72 27 52 28 71 29 53 30 56 31 70 32 89 33
REMARK SMILES IDX 54 34 55 35 69 37 90 38 57 39 41 40 42 41 50 42 43 43 44 44
REMARK SMILES IDX 48 45 51 46 45 47 46 48 49 49 47 50 73 51 74 52 82 53 75 54
REMARK SMILES IDX 76 55 80 56 83 57 77 58 78 59 81 60 79 61 58 62 59 63 67 64
REMARK SMILES IDX 60 65 61 66 65 67 68 68 62 69 63 70 66 71 64 72 8 73 9 74
REMARK SMILES IDX 10 75 11 76 12 77 13 78 14 79 15 80 16 81 29 82 26 83 28 84
REMARK SMILES IDX 30 85 27 86 31 87 17 88 18 89 19 90 20 92 21 93 25 94 22 95
REMARK SMILES IDX 24 96 23 97
REMARK H PARENT 88 25 56 36 19 91
REMARK Flexibility Score: inf
ROOT
ATOM      1  C   UNL A   1      32.834  30.048  26.503  1.00  0.00     0.188 C 
ENDROOT
BRANCH   1   2
ATOM      2  O   UNL A   1      31.496  30.526  26.467  1.00  0.00    -0.376 OA
BRANCH   2   3
ATOM      3  C   UNL A   1      31.320  31.916  26.685  1.00  0.00     0.202 C 
BRANCH   3   4
ATOM      4  C   UNL A   1      32.547  32.658  27.236  1.00  0.00     0.261 C 
BRANCH   4   5
ATOM      5  O   UNL A   1      32.242  33.955  27.769  1.00  0.00    -0.460 OA
BRANCH   5   6
ATOM      6  C   UNL A   1      32.995  34.709  28.609  1.00  0.00     0.338 C 
ATOM      7  O   UNL A   1      32.657  35.879  28.790  1.00  0.00    -0.246 OA
BRANCH   6   8
ATOM      8  C   UNL A   1      34.289  34.250  29.233  1.00  0.00     0.060 A 
ATOM      9  C   UNL A   1      35.561  34.277  28.649  1.00  0.00     0.016 A 
ATOM     10  C   UNL A   1      34.207  33.777  30.558  1.00  0.00     0.016 A 
ATOM     11  C   UNL A   1      36.708  33.841  29.333  1.00  0.00     0.010 A 
ATOM     12  C   UNL A   1      35.352  33.369  31.260  1.00  0.00     0.010 A 
ATOM     13  C   UNL A   1      36.617  33.388  30.644  1.00  0.00    -0.014 A 
BRANCH  13  14
ATOM     14  C   UNL A   1      37.767  32.731  31.313  1.00  0.00     0.031 A 
ATOM     15  C   UNL A   1      38.254  31.461  30.702  1.00  0.00     0.074 A 
ATOM     16  C   UNL A   1      38.429  33.229  32.375  1.00  0.00     0.049 A 
ATOM     17  N   UNL A   1      39.222  30.682  31.096  1.00  0.00    -0.248 NA
ATOM     18  C   UNL A   1      37.623  31.064  29.433  1.00  0.00     0.031 C 
ATOM     19  C   UNL A   1      38.306  34.577  32.890  1.00  0.00     0.029 A 
ATOM     20  N   UNL A   1      39.325  32.648  33.240  1.00  0.00    -0.354 N 
ATOM     21  C   UNL A   1      39.372  29.757  30.081  1.00  0.00     0.074 A 
ATOM     22  C   UNL A   1      38.321  29.988  29.117  1.00  0.00     0.031 C 
ATOM     23  C   UNL A   1      38.923  34.675  34.076  1.00  0.00     0.029 A 
ATOM     24  C   UNL A   1      39.533  33.396  34.379  1.00  0.00     0.049 A 
ATOM     25  H   UNL A   1      39.772  31.789  33.065  1.00  0.00     0.167 HD
ATOM     26  C   UNL A   1      40.353  28.843  29.941  1.00  0.00     0.037 A 
ATOM     27  C   UNL A   1      40.146  33.087  35.536  1.00  0.00     0.037 A 
ATOM     28  C   UNL A   1      41.354  28.600  30.938  1.00  0.00     0.049 A 
ATOM     29  C   UNL A   1      41.011  31.866  35.528  1.00  0.00     0.074 A 
ATOM     30  C   UNL A   1      42.367  27.663  30.934  1.00  0.00     0.029 A 
ATOM     31  N   UNL A   1      41.440  29.285  32.147  1.00  0.00    -0.354 N 
ATOM     32  N   UNL A   1      41.179  31.005  34.555  1.00  0.00    -0.248 NA
ATOM     33  C   UNL A   1      41.855  31.629  36.702  1.00  0.00     0.031 C 
ATOM     34  C   UNL A   1      43.012  27.723  32.174  1.00  0.00     0.029 A 
ATOM     35  C   UNL A   1      42.449  28.746  32.925  1.00  0.00     0.049 A 
ATOM     36  H   UNL A   1      40.867  30.041  32.408  1.00  0.00     0.167 HD
ATOM     37  C   UNL A   1      42.213  30.179  34.953  1.00  0.00     0.074 A 
ATOM     38  C   UNL A   1      42.601  30.615  36.282  1.00  0.00     0.031 C 
ATOM     39  C   UNL A   1      42.814  29.188  34.252  1.00  0.00     0.037 A 
BRANCH  26  40
ATOM     40  C   UNL A   1      40.301  28.034  28.684  1.00  0.00     0.064 A 
ATOM     41  C   UNL A   1      39.642  26.793  28.636  1.00  0.00     0.173 A 
ATOM     42  C   UNL A   1      41.043  28.433  27.566  1.00  0.00     0.173 A 
ATOM     43  F   UNL A   1      38.957  26.347  29.700  1.00  0.00    -0.203 F 
ATOM     44  C   UNL A   1      39.781  25.955  27.533  1.00  0.00     0.198 A 
ATOM     45  C   UNL A   1      41.152  27.606  26.453  1.00  0.00     0.198 A 
ATOM     46  F   UNL A   1      41.703  29.600  27.576  1.00  0.00    -0.203 F 
ATOM     47  F   UNL A   1      39.232  24.732  27.548  1.00  0.00    -0.200 F 
ATOM     48  C   UNL A   1      40.539  26.362  26.445  1.00  0.00     0.200 A 
ATOM     49  F   UNL A   1      41.891  27.997  25.406  1.00  0.00    -0.200 F 
ATOM     50  F   UNL A   1      40.703  25.541  25.398  1.00  0.00    -0.200 F 
ENDBRANCH  26  40
BRANCH  27  51
ATOM     51  C   UNL A   1      40.007  33.960  36.732  1.00  0.00     0.064 A 
ATOM     52  C   UNL A   1      39.071  33.703  37.741  1.00  0.00     0.173 A 
ATOM     53  C   UNL A   1      40.824  35.094  36.880  1.00  0.00     0.173 A 
ATOM     54  F   UNL A   1      38.262  32.639  37.646  1.00  0.00    -0.203 F 
ATOM     55  C   UNL A   1      38.940  34.556  38.839  1.00  0.00     0.198 A 
ATOM     56  C   UNL A   1      40.700  35.939  37.984  1.00  0.00     0.198 A 
ATOM     57  F   UNL A   1      41.741  35.390  35.947  1.00  0.00    -0.203 F 
ATOM     58  F   UNL A   1      38.015  34.301  39.775  1.00  0.00    -0.200 F 
ATOM     59  C   UNL A   1      39.754  35.673  38.960  1.00  0.00     0.200 A 
ATOM     60  F   UNL A   1      41.493  37.014  38.098  1.00  0.00    -0.200 F 
ATOM     61  F   UNL A   1      39.621  36.492  40.012  1.00  0.00    -0.200 F 
ENDBRANCH  27  51
BRANCH  39  62
ATOM     62  C   UNL A   1      43.986  28.518  34.893  1.00  0.00     0.064 A 
ATOM     63  C   UNL A   1      45.297  28.952  34.664  1.00  0.00     0.173 A 
ATOM     64  C   UNL A   1      43.780  27.479  35.814  1.00  0.00     0.173 A 
ATOM     65  F   UNL A   1      45.541  29.926  33.775  1.00  0.00    -0.203 F 
ATOM     66  C   UNL A   1      46.366  28.365  35.334  1.00  0.00     0.198 A 
ATOM     67  C   UNL A   1      44.847  26.920  36.507  1.00  0.00     0.198 A 
ATOM     68  F   UNL A   1      42.541  27.028  36.063  1.00  0.00    -0.203 F 
ATOM     69  F   UNL A   1      47.617  28.772  35.076  1.00  0.00    -0.200 F 
ATOM     70  C   UNL A   1      46.139  27.362  36.264  1.00  0.00     0.200 A 
ATOM     71  F   UNL A   1      44.625  25.961  37.417  1.00  0.00    -0.200 F 
ATOM     72  F   UNL A   1      47.168  26.818  36.928  1.00  0.00    -0.200 F 
ENDBRANCH  39  62
ENDBRANCH  13  14
ENDBRANCH   6   8
ENDBRANCH   5   6
ENDBRANCH   4   5
ENDBRANCH   3   4
ENDBRANCH   2   3
ENDBRANCH   1   2
BRANCH   1  73
ATOM     73  C   UNL A   1      33.120  28.547  26.684  1.00  0.00     0.188 C 
BRANCH  73  74
ATOM     74  O   UNL A   1      32.074  27.597  26.787  1.00  0.00    -0.376 OA
BRANCH  74  75
ATOM     75  C   UNL A   1      31.998  26.549  25.845  1.00  0.00     0.202 C 
BRANCH  75  76
ATOM     76  C   UNL A   1      31.510  25.172  26.306  1.00  0.00     0.261 C 
BRANCH  76  77
ATOM     77  O   UNL A   1      32.155  24.025  25.731  1.00  0.00    -0.463 OA
BRANCH  77  78
ATOM     78  C   UNL A   1      32.793  23.169  26.573  1.00  0.00     0.310 C 
ATOM     79  O   UNL A   1      32.311  22.745  27.626  1.00  0.00    -0.252 OA
BRANCH  78  80
ATOM     80  C   UNL A   1      34.230  22.868  26.174  1.00  0.00     0.119 C 
ATOM     81  C   UNL A   1      34.523  21.711  25.149  1.00  0.00     0.101 C 
ATOM     82  C   UNL A   1      35.038  24.124  25.760  1.00  0.00     0.026 C 
ATOM     83  C   UNL A   1      35.498  22.221  24.043  1.00  0.00     0.025 C 
ATOM     84  C   UNL A   1      34.600  24.422  24.352  1.00  0.00    -0.027 C 
ATOM     85  C   UNL A   1      36.538  23.725  25.763  1.00  0.00     0.009 C 
ATOM     86  C   UNL A   1      34.859  23.451  23.471  1.00  0.00    -0.027 C 
ATOM     87  C   UNL A   1      36.825  22.676  24.674  1.00  0.00     0.009 C 
BRANCH  81  88
ATOM     88  C   UNL A   1      33.344  21.028  24.464  1.00  0.00     0.238 C 
ATOM     89  O   UNL A   1      32.812  21.484  23.452  1.00  0.00    -0.273 OA
ATOM     90  N   UNL A   1      32.822  19.858  24.947  1.00  0.00    -0.288 N 
ATOM     91  H   UNL A   1      31.855  19.842  25.128  1.00  0.00     0.185 HD
BRANCH  90  92
ATOM     92  N   UNL A   1      33.535  18.681  25.209  1.00  0.00    -0.217 NA
ATOM     93  C   UNL A   1      34.559  18.203  24.290  1.00  0.00     0.136 C 
ATOM     94  C   UNL A   1      32.786  17.612  25.878  1.00  0.00     0.136 C 
ATOM     95  C   UNL A   1      34.116  16.997  23.437  1.00  0.00     0.177 C 
ATOM     96  C   UNL A   1      32.356  16.500  24.920  1.00  0.00     0.177 C 
ATOM     97  O   UNL A   1      33.491  15.973  24.220  1.00  0.00    -0.379 OA
ENDBRANCH  90  92
ENDBRANCH  81  88
ENDBRANCH  78  80
ENDBRANCH  77  78
ENDBRANCH  76  77
ENDBRANCH  75  76
ENDBRANCH  74  75
ENDBRANCH  73  74
ENDBRANCH   1  73
TORSDOF 19
ENDMDL
MODEL 2
REMARK VINA RESULT:     -11.5      0.524      7.131
REMARK SMILES O=C(OCCOCCOCCOC(=O)[C@H]1[C@@H](C(=O)NN2CCOCC2)[C@H]2C=C[C@@H]1CC2)c1ccc(-c2c3nc(c(-c4c(F)c(F)c(F)c(F)c4F)c4ccc([nH]4)c(-c4c(F)c(F)c(F)c(F)c4F)c4nc(c(-c5c(F)c(F)c(F)c(F)c5F)c5ccc2[nH]5)C=C4)C=C3)cc1
REMARK SMILES IDX 7 1 6 2 5 3 4 4 3 5 2 6 1 7 32 8 33 9 94 10 34 11 93 12
REMARK SMILES IDX 35 13 36 14 37 15 87 16 38 17 92 18 86 19 88 20 39 21 91 22
REMARK SMILES IDX 85 23 84 24 40 26 72 27 52 28 71 29 53 30 56 31 70 32 89 33
REMARK SMILES IDX 54 34 55 35 69 37 90 38 57 39 41 40 42 41 50 42 43 43 44 44
REMARK SMILES IDX 48 45 51 46 45 47 46 48 49 49 47 50 73 51 74 52 82 53 75 54
REMARK SMILES IDX 76 55 80 56 83 57 77 58 78 59 81 60 79 61 58 62 59 63 67 64
REMARK SMILES IDX 60 65 61 66 65 67 68 68 62 69 63 70 66 71 64 72 8 73 9 74
REMARK SMILES IDX 10 75 11 76 12 77 13 78 14 79 15 80 16 81 29 82 26 83 28 84
REMARK SMILES IDX 30 85 27 86 31 87 17 88 18 89 19 90 20 92 21 93 25 94 22 95
REMARK SMILES IDX 24 96 23 97
REMARK H PARENT 88 25 56 36 19 91
REMARK Flexibility Score: inf
ROOT
ATOM      1  C   UNL A   1      32.612  30.347  26.941  1.00  0.00     0.188 C 
ENDROOT
BRANCH   1   2
ATOM      2  O   UNL A   1      31.440  30.876  26.334  1.00  0.00    -0.376 OA
BRANCH   2   3
ATOM      3  C   UNL A   1      31.236  32.271  26.475  1.00  0.00     0.202 C 
BRANCH   3   4
ATOM      4  C   UNL A   1      32.470  33.079  26.906  1.00  0.00     0.261 C 
BRANCH   4   5
ATOM      5  O   UNL A   1      32.154  34.221  27.716  1.00  0.00    -0.460 OA
BRANCH   5   6
ATOM      6  C   UNL A   1      32.944  34.838  28.630  1.00  0.00     0.338 C 
ATOM      7  O   UNL A   1      32.697  36.012  28.905  1.00  0.00    -0.246 OA
BRANCH   6   8
ATOM      8  C   UNL A   1      34.182  34.223  29.235  1.00  0.00     0.060 A 
ATOM      9  C   UNL A   1      35.503  34.392  28.802  1.00  0.00     0.016 A 
ATOM     10  C   UNL A   1      33.984  33.425  30.379  1.00  0.00     0.016 A 
ATOM     11  C   UNL A   1      36.587  33.786  29.457  1.00  0.00     0.010 A 
ATOM     12  C   UNL A   1      35.066  32.841  31.059  1.00  0.00     0.010 A 
ATOM     13  C   UNL A   1      36.382  33.009  30.592  1.00  0.00    -0.014 A 
BRANCH  13  14
ATOM     14  C   UNL A   1      37.475  32.193  31.175  1.00  0.00     0.031 A 
ATOM     15  C   UNL A   1      38.065  32.687  32.452  1.00  0.00     0.074 A 
ATOM     16  C   UNL A   1      37.916  31.024  30.673  1.00  0.00     0.049 A 
ATOM     17  N   UNL A   1      39.038  32.178  33.155  1.00  0.00    -0.248 NA
ATOM     18  C   UNL A   1      37.417  33.861  33.059  1.00  0.00     0.031 C 
ATOM     19  C   UNL A   1      37.258  30.245  29.645  1.00  0.00     0.029 A 
ATOM     20  N   UNL A   1      39.049  30.291  30.939  1.00  0.00    -0.354 N 
ATOM     21  C   UNL A   1      39.058  32.915  34.323  1.00  0.00     0.074 A 
ATOM     22  C   UNL A   1      38.093  33.982  34.187  1.00  0.00     0.031 C 
ATOM     23  C   UNL A   1      38.068  29.263  29.220  1.00  0.00     0.029 A 
ATOM     24  C   UNL A   1      39.293  29.319  29.993  1.00  0.00     0.049 A 
ATOM     25  H   UNL A   1      39.624  30.444  31.722  1.00  0.00     0.167 HD
ATOM     26  C   UNL A   1      39.775  32.668  35.438  1.00  0.00     0.037 A 
ATOM     27  C   UNL A   1      40.379  28.557  29.773  1.00  0.00     0.037 A 
ATOM     28  C   UNL A   1      40.764  31.633  35.528  1.00  0.00     0.049 A 
ATOM     29  C   UNL A   1      41.391  28.504  30.873  1.00  0.00     0.074 A 
ATOM     30  C   UNL A   1      41.592  31.321  36.587  1.00  0.00     0.029 A 
ATOM     31  N   UNL A   1      41.082  30.761  34.491  1.00  0.00    -0.354 N 
ATOM     32  N   UNL A   1      41.396  29.179  31.996  1.00  0.00    -0.248 NA
ATOM     33  C   UNL A   1      42.472  27.521  30.750  1.00  0.00     0.031 C 
ATOM     34  C   UNL A   1      42.469  30.317  36.162  1.00  0.00     0.029 A 
ATOM     35  C   UNL A   1      42.142  29.953  34.863  1.00  0.00     0.049 A 
ATOM     36  H   UNL A   1      40.621  30.725  33.623  1.00  0.00     0.167 HD
ATOM     37  C   UNL A   1      42.415  28.641  32.759  1.00  0.00     0.074 A 
ATOM     38  C   UNL A   1      43.040  27.613  31.946  1.00  0.00     0.031 C 
ATOM     39  C   UNL A   1      42.758  28.941  34.035  1.00  0.00     0.037 A 
BRANCH  26  40
ATOM     40  C   UNL A   1      39.519  33.595  36.584  1.00  0.00     0.064 A 
ATOM     41  C   UNL A   1      40.253  34.784  36.745  1.00  0.00     0.173 A 
ATOM     42  C   UNL A   1      38.640  33.216  37.605  1.00  0.00     0.173 A 
ATOM     43  F   UNL A   1      41.142  35.163  35.814  1.00  0.00    -0.203 F 
ATOM     44  C   UNL A   1      40.158  35.525  37.919  1.00  0.00     0.198 A 
ATOM     45  C   UNL A   1      38.526  33.978  38.763  1.00  0.00     0.198 A 
ATOM     46  F   UNL A   1      37.934  32.081  37.501  1.00  0.00    -0.203 F 
ATOM     47  F   UNL A   1      40.943  36.597  38.098  1.00  0.00    -0.200 F 
ATOM     48  C   UNL A   1      39.297  35.119  38.927  1.00  0.00     0.200 A 
ATOM     49  F   UNL A   1      37.698  33.581  39.740  1.00  0.00    -0.200 F 
ATOM     50  F   UNL A   1      39.233  35.812  40.073  1.00  0.00    -0.200 F 
ENDBRANCH  26  40
BRANCH  27  51
ATOM     51  C   UNL A   1      40.521  27.769  28.519  1.00  0.00     0.064 A 
ATOM     52  C   UNL A   1      39.954  26.498  28.366  1.00  0.00     0.173 A 
ATOM     53  C   UNL A   1      41.251  28.287  27.436  1.00  0.00     0.173 A 
ATOM     54  F   UNL A   1      39.254  25.954  29.371  1.00  0.00    -0.203 F 
ATOM     55  C   UNL A   1      40.128  25.766  27.189  1.00  0.00     0.198 A 
ATOM     56  C   UNL A   1      41.414  27.560  26.256  1.00  0.00     0.198 A 
ATOM     57  F   UNL A   1      41.815  29.500  27.522  1.00  0.00    -0.203 F 
ATOM     58  F   UNL A   1      39.598  24.540  27.082  1.00  0.00    -0.200 F 
ATOM     59  C   UNL A   1      40.857  26.297  26.135  1.00  0.00     0.200 A 
ATOM     60  F   UNL A   1      42.116  28.079  25.238  1.00  0.00    -0.200 F 
ATOM     61  F   UNL A   1      41.027  25.589  25.010  1.00  0.00    -0.200 F 
ENDBRANCH  27  51
BRANCH  39  62
ATOM     62  C   UNL A   1      43.846  28.124  34.654  1.00  0.00     0.064 A 
ATOM     63  C   UNL A   1      45.177  28.559  34.665  1.00  0.00     0.173 A 
ATOM     64  C   UNL A   1      43.531  26.928  35.318  1.00  0.00     0.173 A 
ATOM     65  F   UNL A   1      45.526  29.683  34.023  1.00  0.00    -0.203 F 
ATOM     66  C   UNL A   1      46.158  27.820  35.317  1.00  0.00     0.198 A 
ATOM     67  C   UNL A   1      44.509  26.213  35.998  1.00  0.00     0.198 A 
ATOM     68  F   UNL A   1      42.269  26.472  35.332  1.00  0.00    -0.203 F 
ATOM     69  F   UNL A   1      47.433  28.235  35.287  1.00  0.00    -0.200 F 
ATOM     70  C   UNL A   1      45.822  26.658  35.995  1.00  0.00     0.200 A 
ATOM     71  F   UNL A   1      44.178  25.098  36.666  1.00  0.00    -0.200 F 
ATOM     72  F   UNL A   1      46.765  25.964  36.646  1.00  0.00    -0.200 F 
ENDBRANCH  39  62
ENDBRANCH  13  14
ENDBRANCH   6   8
ENDBRANCH   5   6
ENDBRANCH   4   5
ENDBRANCH   3   4
ENDBRANCH   2   3
ENDBRANCH   1   2
BRANCH   1  73
ATOM     73  C   UNL A   1      33.010  28.878  26.717  1.00  0.00     0.188 C 
BRANCH  73  74
ATOM     74  O   UNL A   1      32.062  27.902  26.324  1.00  0.00    -0.376 OA
BRANCH  74  75
ATOM     75  C   UNL A   1      32.512  26.695  25.747  1.00  0.00     0.202 C 
BRANCH  75  76
ATOM     76  C   UNL A   1      31.823  25.384  26.138  1.00  0.00     0.261 C 
BRANCH  76  77
ATOM     77  O   UNL A   1      32.364  24.173  25.588  1.00  0.00    -0.463 OA
BRANCH  77  78
ATOM     78  C   UNL A   1      32.840  23.241  26.455  1.00  0.00     0.310 C 
ATOM     79  O   UNL A   1      32.221  22.826  27.437  1.00  0.00    -0.252 OA
BRANCH  78  80
ATOM     80  C   UNL A   1      34.282  22.832  26.189  1.00  0.00     0.119 C 
ATOM     81  C   UNL A   1      34.578  21.587  25.273  1.00  0.00     0.101 C 
ATOM     82  C   UNL A   1      35.192  24.007  25.750  1.00  0.00     0.026 C 
ATOM     83  C   UNL A   1      35.659  21.958  24.213  1.00  0.00     0.025 C 
ATOM     84  C   UNL A   1      34.876  24.222  24.295  1.00  0.00    -0.027 C 
ATOM     85  C   UNL A   1      36.661  23.528  25.896  1.00  0.00     0.009 C 
ATOM     86  C   UNL A   1      35.139  23.175  23.507  1.00  0.00    -0.027 C 
ATOM     87  C   UNL A   1      36.962  22.386  24.908  1.00  0.00     0.009 C 
BRANCH  81  88
ATOM     88  C   UNL A   1      33.413  20.919  24.551  1.00  0.00     0.238 C 
ATOM     89  O   UNL A   1      32.890  21.407  23.548  1.00  0.00    -0.273 OA
ATOM     90  N   UNL A   1      32.893  19.731  24.988  1.00  0.00    -0.288 N 
ATOM     91  H   UNL A   1      31.924  19.702  25.156  1.00  0.00     0.185 HD
BRANCH  90  92
ATOM     92  N   UNL A   1      33.611  18.550  25.218  1.00  0.00    -0.217 NA
ATOM     93  C   UNL A   1      34.573  18.054  24.245  1.00  0.00     0.136 C 
ATOM     94  C   UNL A   1      32.894  17.494  25.943  1.00  0.00     0.136 C 
ATOM     95  C   UNL A   1      34.070  16.843  23.433  1.00  0.00     0.177 C 
ATOM     96  C   UNL A   1      32.398  16.376  25.024  1.00  0.00     0.177 C 
ATOM     97  O   UNL A   1      33.485  15.833  24.262  1.00  0.00    -0.379 OA
ENDBRANCH  90  92
ENDBRANCH  81  88
ENDBRANCH  78  80
ENDBRANCH  77  78
ENDBRANCH  76  77
ENDBRANCH  75  76
ENDBRANCH  74  75
ENDBRANCH  73  74
ENDBRANCH   1  73
TORSDOF 19
ENDMDL
MODEL 3
REMARK VINA RESULT:     -11.5      6.217     10.595
REMARK SMILES O=C(OCCOCCOCCOC(=O)[C@H]1[C@@H](C(=O)NN2CCOCC2)[C@H]2C=C[C@@H]1CC2)c1ccc(-c2c3nc(c(-c4c(F)c(F)c(F)c(F)c4F)c4ccc([nH]4)c(-c4c(F)c(F)c(F)c(F)c4F)c4nc(c(-c5c(F)c(F)c(F)c(F)c5F)c5ccc2[nH]5)C=C4)C=C3)cc1
REMARK SMILES IDX 7 1 6 2 5 3 4 4 3 5 2 6 1 7 32 8 33 9 94 10 34 11 93 12
REMARK SMILES IDX 35 13 36 14 37 15 87 16 38 17 92 18 86 19 88 20 39 21 91 22
REMARK SMILES IDX 85 23 84 24 40 26 72 27 52 28 71 29 53 30 56 31 70 32 89 33
REMARK SMILES IDX 54 34 55 35 69 37 90 38 57 39 41 40 42 41 50 42 43 43 44 44
REMARK SMILES IDX 48 45 51 46 45 47 46 48 49 49 47 50 73 51 74 52 82 53 75 54
REMARK SMILES IDX 76 55 80 56 83 57 77 58 78 59 81 60 79 61 58 62 59 63 67 64
REMARK SMILES IDX 60 65 61 66 65 67 68 68 62 69 63 70 66 71 64 72 8 73 9 74
REMARK SMILES IDX 10 75 11 76 12 77 13 78 14 79 15 80 16 81 29 82 26 83 28 84
REMARK SMILES IDX 30 85 27 86 31 87 17 88 18 89 19 90 20 92 21 93 25 94 22 95
REMARK SMILES IDX 24 96 23 97
REMARK H PARENT 88 25 56 36 19 91
REMARK Flexibility Score: inf
ROOT
ATOM      1  C   UNL A   1      41.392  20.281  26.502  1.00  0.00     0.188 C 
ENDROOT
BRANCH   1   2
ATOM      2  O   UNL A   1      42.067  19.544  27.513  1.00  0.00    -0.376 OA
BRANCH   2   3
ATOM      3  C   UNL A   1      42.864  18.459  27.071  1.00  0.00     0.202 C 
BRANCH   3   4
ATOM      4  C   UNL A   1      43.059  18.359  25.550  1.00  0.00     0.261 C 
BRANCH   4   5
ATOM      5  O   UNL A   1      44.433  18.423  25.142  1.00  0.00    -0.460 OA
BRANCH   5   6
ATOM      6  C   UNL A   1      45.039  19.389  24.406  1.00  0.00     0.338 C 
ATOM      7  O   UNL A   1      45.766  19.033  23.477  1.00  0.00    -0.246 OA
BRANCH   6   8
ATOM      8  C   UNL A   1      44.985  20.862  24.727  1.00  0.00     0.060 A 
ATOM      9  C   UNL A   1      44.694  21.906  23.840  1.00  0.00     0.016 A 
ATOM     10  C   UNL A   1      45.217  21.214  26.071  1.00  0.00     0.016 A 
ATOM     11  C   UNL A   1      44.651  23.247  24.253  1.00  0.00     0.010 A 
ATOM     12  C   UNL A   1      45.144  22.549  26.499  1.00  0.00     0.010 A 
ATOM     13  C   UNL A   1      44.869  23.583  25.585  1.00  0.00    -0.014 A 
BRANCH  13  14
ATOM     14  C   UNL A   1      45.035  24.996  26.006  1.00  0.00     0.031 A 
ATOM     15  C   UNL A   1      46.433  25.511  26.068  1.00  0.00     0.074 A 
ATOM     16  C   UNL A   1      44.024  25.846  26.265  1.00  0.00     0.049 A 
ATOM     17  N   UNL A   1      46.854  26.693  26.421  1.00  0.00    -0.248 NA
ATOM     18  C   UNL A   1      47.486  24.602  25.586  1.00  0.00     0.031 C 
ATOM     19  C   UNL A   1      42.629  25.621  25.951  1.00  0.00     0.029 A 
ATOM     20  N   UNL A   1      44.006  27.073  26.887  1.00  0.00    -0.354 N 
ATOM     21  C   UNL A   1      48.203  26.696  26.123  1.00  0.00     0.074 A 
ATOM     22  C   UNL A   1      48.558  25.367  25.681  1.00  0.00     0.031 C 
ATOM     23  C   UNL A   1      41.866  26.553  26.541  1.00  0.00     0.029 A 
ATOM     24  C   UNL A   1      42.737  27.477  27.239  1.00  0.00     0.049 A 
ATOM     25  H   UNL A   1      44.814  27.606  27.061  1.00  0.00     0.167 HD
ATOM     26  C   UNL A   1      49.048  27.746  26.150  1.00  0.00     0.037 A 
ATOM     27  C   UNL A   1      42.320  28.479  28.034  1.00  0.00     0.037 A 
ATOM     28  C   UNL A   1      48.682  29.042  26.642  1.00  0.00     0.049 A 
ATOM     29  C   UNL A   1      43.332  29.527  28.372  1.00  0.00     0.074 A 
ATOM     30  C   UNL A   1      49.467  30.169  26.770  1.00  0.00     0.029 A 
ATOM     31  N   UNL A   1      47.419  29.368  27.127  1.00  0.00    -0.354 N 
ATOM     32  N   UNL A   1      44.606  29.547  28.063  1.00  0.00    -0.248 NA
ATOM     33  C   UNL A   1      42.854  30.733  29.054  1.00  0.00     0.031 C 
ATOM     34  C   UNL A   1      48.704  31.151  27.411  1.00  0.00     0.029 A 
ATOM     35  C   UNL A   1      47.422  30.662  27.618  1.00  0.00     0.049 A 
ATOM     36  H   UNL A   1      46.640  28.767  27.122  1.00  0.00     0.167 HD
ATOM     37  C   UNL A   1      45.064  30.801  28.420  1.00  0.00     0.074 A 
ATOM     38  C   UNL A   1      43.939  31.497  29.017  1.00  0.00     0.031 C 
ATOM     39  C   UNL A   1      46.292  31.335  28.219  1.00  0.00     0.037 A 
BRANCH  26  40
ATOM     40  C   UNL A   1      50.441  27.460  25.684  1.00  0.00     0.064 A 
ATOM     41  C   UNL A   1      50.770  27.442  24.317  1.00  0.00     0.173 A 
ATOM     42  C   UNL A   1      51.415  27.055  26.604  1.00  0.00     0.173 A 
ATOM     43  F   UNL A   1      49.854  27.778  23.395  1.00  0.00    -0.203 F 
ATOM     44  C   UNL A   1      52.006  26.968  23.889  1.00  0.00     0.198 A 
ATOM     45  C   UNL A   1      52.660  26.612  26.172  1.00  0.00     0.198 A 
ATOM     46  F   UNL A   1      51.138  27.039  27.917  1.00  0.00    -0.203 F 
ATOM     47  F   UNL A   1      52.263  26.859  22.578  1.00  0.00    -0.200 F 
ATOM     48  C   UNL A   1      52.948  26.551  24.817  1.00  0.00     0.200 A 
ATOM     49  F   UNL A   1      53.567  26.202  27.070  1.00  0.00    -0.200 F 
ATOM     50  F   UNL A   1      54.124  26.059  24.403  1.00  0.00    -0.200 F 
ENDBRANCH  26  40
BRANCH  27  51
ATOM     51  C   UNL A   1      40.907  28.556  28.492  1.00  0.00     0.064 A 
ATOM     52  C   UNL A   1      40.505  28.107  29.756  1.00  0.00     0.173 A 
ATOM     53  C   UNL A   1      39.916  29.083  27.647  1.00  0.00     0.173 A 
ATOM     54  F   UNL A   1      41.408  27.588  30.599  1.00  0.00    -0.203 F 
ATOM     55  C   UNL A   1      39.166  28.162  30.150  1.00  0.00     0.198 A 
ATOM     56  C   UNL A   1      38.580  29.149  28.046  1.00  0.00     0.198 A 
ATOM     57  F   UNL A   1      40.241  29.531  26.425  1.00  0.00    -0.203 F 
ATOM     58  F   UNL A   1      38.806  27.699  31.355  1.00  0.00    -0.200 F 
ATOM     59  C   UNL A   1      38.205  28.683  29.296  1.00  0.00     0.200 A 
ATOM     60  F   UNL A   1      37.656  29.657  27.218  1.00  0.00    -0.200 F 
ATOM     61  F   UNL A   1      36.920  28.728  29.675  1.00  0.00    -0.200 F 
ENDBRANCH  27  51
BRANCH  39  62
ATOM     62  C   UNL A   1      46.485  32.762  28.618  1.00  0.00     0.064 A 
ATOM     63  C   UNL A   1      46.209  33.816  27.738  1.00  0.00     0.173 A 
ATOM     64  C   UNL A   1      46.874  33.076  29.930  1.00  0.00     0.173 A 
ATOM     65  F   UNL A   1      45.858  33.561  26.468  1.00  0.00    -0.203 F 
ATOM     66  C   UNL A   1      46.319  35.137  28.156  1.00  0.00     0.198 A 
ATOM     67  C   UNL A   1      46.947  34.397  30.354  1.00  0.00     0.198 A 
ATOM     68  F   UNL A   1      47.151  32.099  30.807  1.00  0.00    -0.203 F 
ATOM     69  F   UNL A   1      46.083  36.132  27.290  1.00  0.00    -0.200 F 
ATOM     70  C   UNL A   1      46.673  35.427  29.466  1.00  0.00     0.200 A 
ATOM     71  F   UNL A   1      47.274  34.674  31.624  1.00  0.00    -0.200 F 
ATOM     72  F   UNL A   1      46.750  36.700  29.874  1.00  0.00    -0.200 F 
ENDBRANCH  39  62
ENDBRANCH  13  14
ENDBRANCH   6   8
ENDBRANCH   5   6
ENDBRANCH   4   5
ENDBRANCH   3   4
ENDBRANCH   2   3
ENDBRANCH   1   2
BRANCH   1  73
ATOM     73  C   UNL A   1      41.510  21.813  26.445  1.00  0.00     0.188 C 
BRANCH  73  74
ATOM     74  O   UNL A   1      40.396  22.635  26.139  1.00  0.00    -0.376 OA
BRANCH  74  75
ATOM     75  C   UNL A   1      39.094  22.162  26.410  1.00  0.00     0.202 C 
BRANCH  75  76
ATOM     76  C   UNL A   1      37.997  22.370  25.362  1.00  0.00     0.261 C 
BRANCH  76  77
ATOM     77  O   UNL A   1      36.718  21.773  25.629  1.00  0.00    -0.463 OA
BRANCH  77  78
ATOM     78  C   UNL A   1      35.620  22.570  25.555  1.00  0.00     0.310 C 
ATOM     79  O   UNL A   1      35.240  23.314  26.463  1.00  0.00    -0.252 OA
BRANCH  78  80
ATOM     80  C   UNL A   1      34.801  22.375  24.288  1.00  0.00     0.119 C 
ATOM     81  C   UNL A   1      33.692  21.260  24.245  1.00  0.00     0.101 C 
ATOM     82  C   UNL A   1      34.213  23.691  23.717  1.00  0.00     0.026 C 
ATOM     83  C   UNL A   1      32.367  21.855  23.677  1.00  0.00     0.025 C 
ATOM     84  C   UNL A   1      33.011  23.983  24.573  1.00  0.00    -0.027 C 
ATOM     85  C   UNL A   1      33.755  23.397  22.264  1.00  0.00     0.009 C 
ATOM     86  C   UNL A   1      32.056  23.048  24.531  1.00  0.00    -0.027 C 
ATOM     87  C   UNL A   1      32.591  22.389  22.253  1.00  0.00     0.009 C 
BRANCH  81  88
ATOM     88  C   UNL A   1      33.363  20.509  25.531  1.00  0.00     0.238 C 
ATOM     89  O   UNL A   1      32.734  21.025  26.456  1.00  0.00    -0.273 OA
ATOM     90  N   UNL A   1      33.754  19.210  25.715  1.00  0.00    -0.288 N 
ATOM     91  H   UNL A   1      34.270  19.010  26.529  1.00  0.00     0.185 HD
BRANCH  90  92
ATOM     92  N   UNL A   1      33.488  18.137  24.854  1.00  0.00    -0.217 NA
ATOM     93  C   UNL A   1      32.326  17.283  25.054  1.00  0.00     0.136 C 
ATOM     94  C   UNL A   1      34.662  17.435  24.322  1.00  0.00     0.136 C 
ATOM     95  C   UNL A   1      32.664  15.901  25.649  1.00  0.00     0.177 C 
ATOM     96  C   UNL A   1      34.926  16.104  25.026  1.00  0.00     0.177 C 
ATOM     97  O   UNL A   1      33.760  15.270  24.978  1.00  0.00    -0.379 OA
ENDBRANCH  90  92
ENDBRANCH  81  88
ENDBRANCH  78  80
ENDBRANCH  77  78
ENDBRANCH  76  77
ENDBRANCH  75  76
ENDBRANCH  74  75
ENDBRANCH  73  74
ENDBRANCH   1  73
TORSDOF 19
ENDMDL
