MODEL 1
REMARK VINA RESULT:     -11.0      0.000      0.000
REMARK SMILES C[C@@](NC(=O)[C@H]1COc2ccccc21)(C(=O)OCCOCCOCCOC(=O)c1ccc(-c2c3nc(c(-c4c(F)c(F)c(F)c(F)c4F)c4ccc([nH]4)c(-c4c(F)c(F)c(F)c(F)c4F)c4nc(c(-c5c(F)c(F)c(F)c(F)c5F)c5ccc2[nH]5)C=C4)C=C3)cc1)C(F)(F)F
REMARK SMILES IDX 21 1 20 2 19 3 18 4 17 5 15 6 16 7 2 8 1 9 3 10 4 11 5 13
REMARK SMILES IDX 6 14 7 15 14 16 8 17 9 18 13 19 10 20 12 21 11 22 92 23
REMARK SMILES IDX 93 24 94 25 95 26 22 27 23 28 24 29 25 30 26 31 27 32 28 33
REMARK SMILES IDX 29 34 30 35 91 36 31 37 90 38 32 39 33 40 34 41 84 42 35 43
REMARK SMILES IDX 89 44 83 45 85 46 36 47 88 48 82 49 81 50 37 52 69 53 49 54
REMARK SMILES IDX 68 55 50 56 53 57 67 58 86 59 51 60 52 61 66 63 87 64 54 65
REMARK SMILES IDX 38 66 39 67 47 68 40 69 41 70 45 71 48 72 42 73 43 74 46 75
REMARK SMILES IDX 44 76 70 77 71 78 79 79 72 80 73 81 77 82 80 83 74 84 75 85
REMARK SMILES IDX 78 86 76 87 55 88 56 89 64 90 57 91 58 92 62 93 65 94 59 95
REMARK SMILES IDX 60 96 63 97 61 98
REMARK H PARENT 3 12 85 51 53 62
REMARK Flexibility Score: inf
ROOT
ATOM      1  C   UNL A   1      34.270  22.209  23.906  1.00  0.00     0.188 C 
ENDROOT
BRANCH   1   2
ATOM      2  O   UNL A   1      33.033  22.798  23.557  1.00  0.00    -0.376 OA
BRANCH   2   3
ATOM      3  C   UNL A   1      33.031  23.504  22.335  1.00  0.00     0.202 C 
BRANCH   3   4
ATOM      4  C   UNL A   1      33.651  24.901  22.334  1.00  0.00     0.261 C 
BRANCH   4   5
ATOM      5  O   UNL A   1      32.837  26.063  22.634  1.00  0.00    -0.461 OA
BRANCH   5   6
ATOM      6  C   UNL A   1      32.691  26.512  23.913  1.00  0.00     0.341 C 
ATOM      7  O   UNL A   1      33.615  26.537  24.711  1.00  0.00    -0.249 OA
BRANCH   6   8
ATOM      8  C   UNL A   1      31.205  26.761  24.267  1.00  0.00     0.231 C 
ATOM      9  C   UNL A   1      30.277  25.594  23.873  1.00  0.00     0.058 C 
BRANCH   8  10
ATOM     10  N   UNL A   1      30.934  27.124  25.716  1.00  0.00    -0.332 N 
ATOM     11  C   UNL A   1      31.510  27.986  26.613  1.00  0.00     0.232 C 
ATOM     12  H   UNL A   1      30.172  26.630  26.096  1.00  0.00     0.164 HD
ATOM     13  O   UNL A   1      31.237  27.828  27.802  1.00  0.00    -0.274 OA
BRANCH  11  14
ATOM     14  C   UNL A   1      32.384  29.096  26.105  1.00  0.00     0.150 C 
ATOM     15  C   UNL A   1      31.618  30.422  25.978  1.00  0.00     0.248 C 
ATOM     16  C   UNL A   1      33.554  29.564  26.884  1.00  0.00     0.010 A 
ATOM     17  O   UNL A   1      32.121  31.376  26.941  1.00  0.00    -0.492 OA
ATOM     18  C   UNL A   1      33.360  30.886  27.251  1.00  0.00     0.123 A 
ATOM     19  C   UNL A   1      34.777  28.945  27.074  1.00  0.00     0.008 A 
ATOM     20  C   UNL A   1      34.364  31.646  27.807  1.00  0.00     0.047 A 
ATOM     21  C   UNL A   1      35.813  29.701  27.627  1.00  0.00     0.001 A 
ATOM     22  C   UNL A   1      35.610  31.045  27.983  1.00  0.00     0.004 A 
ENDBRANCH  11  14
ENDBRANCH   8  10
BRANCH   8  23
ATOM     23  C   UNL A   1      30.842  27.959  23.356  1.00  0.00     0.422 C 
ATOM     24  F   UNL A   1      31.905  28.756  23.102  1.00  0.00    -0.168 F 
ATOM     25  F   UNL A   1      30.388  27.515  22.154  1.00  0.00    -0.168 F 
ATOM     26  F   UNL A   1      29.858  28.726  23.875  1.00  0.00    -0.168 F 
ENDBRANCH   8  23
ENDBRANCH   6   8
ENDBRANCH   5   6
ENDBRANCH   4   5
ENDBRANCH   3   4
ENDBRANCH   2   3
ENDBRANCH   1   2
BRANCH   1  27
ATOM     27  C   UNL A   1      34.359  21.852  25.398  1.00  0.00     0.188 C 
BRANCH  27  28
ATOM     28  O   UNL A   1      35.466  21.127  25.905  1.00  0.00    -0.376 OA
BRANCH  28  29
ATOM     29  C   UNL A   1      36.229  20.332  25.007  1.00  0.00     0.202 C 
BRANCH  29  30
ATOM     30  C   UNL A   1      37.769  20.429  24.998  1.00  0.00     0.261 C 
BRANCH  30  31
ATOM     31  O   UNL A   1      38.340  21.608  25.597  1.00  0.00    -0.460 OA
BRANCH  31  32
ATOM     32  C   UNL A   1      39.480  21.422  26.312  1.00  0.00     0.338 C 
ATOM     33  O   UNL A   1      40.176  20.419  26.335  1.00  0.00    -0.246 OA
BRANCH  32  34
ATOM     34  C   UNL A   1      39.923  22.721  26.880  1.00  0.00     0.060 A 
ATOM     35  C   UNL A   1      39.294  23.891  26.419  1.00  0.00     0.016 A 
ATOM     36  C   UNL A   1      40.915  22.805  27.858  1.00  0.00     0.016 A 
ATOM     37  C   UNL A   1      39.652  25.139  26.926  1.00  0.00     0.010 A 
ATOM     38  C   UNL A   1      41.313  24.065  28.329  1.00  0.00     0.010 A 
ATOM     39  C   UNL A   1      40.702  25.238  27.845  1.00  0.00    -0.014 A 
BRANCH  39  40
ATOM     40  C   UNL A   1      41.312  26.569  28.098  1.00  0.00     0.031 A 
ATOM     41  C   UNL A   1      42.719  26.799  27.614  1.00  0.00     0.074 A 
ATOM     42  C   UNL A   1      40.634  27.568  28.690  1.00  0.00     0.049 A 
ATOM     43  N   UNL A   1      43.486  27.850  27.744  1.00  0.00    -0.248 NA
ATOM     44  C   UNL A   1      43.343  25.687  26.877  1.00  0.00     0.031 C 
ATOM     45  C   UNL A   1      39.248  27.504  29.145  1.00  0.00     0.029 A 
ATOM     46  N   UNL A   1      41.036  28.841  29.014  1.00  0.00    -0.354 N 
ATOM     47  C   UNL A   1      44.677  27.528  27.107  1.00  0.00     0.074 A 
ATOM     48  C   UNL A   1      44.545  26.174  26.616  1.00  0.00     0.031 C 
ATOM     49  C   UNL A   1      38.921  28.679  29.711  1.00  0.00     0.029 A 
ATOM     50  C   UNL A   1      40.083  29.568  29.684  1.00  0.00     0.049 A 
ATOM     51  H   UNL A   1      41.926  29.200  28.787  1.00  0.00     0.167 HD
ATOM     52  C   UNL A   1      45.780  28.293  26.937  1.00  0.00     0.037 A 
ATOM     53  C   UNL A   1      40.154  30.798  30.233  1.00  0.00     0.037 A 
ATOM     54  C   UNL A   1      45.922  29.635  27.431  1.00  0.00     0.049 A 
ATOM     55  C   UNL A   1      41.432  31.594  30.115  1.00  0.00     0.074 A 
ATOM     56  C   UNL A   1      47.006  30.488  27.313  1.00  0.00     0.029 A 
ATOM     57  N   UNL A   1      44.950  30.320  28.143  1.00  0.00    -0.354 N 
ATOM     58  N   UNL A   1      42.551  31.287  29.501  1.00  0.00    -0.248 NA
ATOM     59  C   UNL A   1      41.455  32.913  30.766  1.00  0.00     0.031 C 
ATOM     60  C   UNL A   1      46.709  31.670  27.999  1.00  0.00     0.029 A 
ATOM     61  C   UNL A   1      45.419  31.577  28.492  1.00  0.00     0.049 A 
ATOM     62  H   UNL A   1      44.058  29.967  28.367  1.00  0.00     0.167 HD
ATOM     63  C   UNL A   1      43.391  32.382  29.665  1.00  0.00     0.074 A 
ATOM     64  C   UNL A   1      42.649  33.370  30.418  1.00  0.00     0.031 C 
ATOM     65  C   UNL A   1      44.665  32.555  29.232  1.00  0.00     0.037 A 
BRANCH  52  66
ATOM     66  C   UNL A   1      46.938  27.683  26.203  1.00  0.00     0.064 A 
ATOM     67  C   UNL A   1      47.076  27.809  24.814  1.00  0.00     0.173 A 
ATOM     68  C   UNL A   1      47.943  27.004  26.906  1.00  0.00     0.173 A 
ATOM     69  F   UNL A   1      46.131  28.433  24.094  1.00  0.00    -0.203 F 
ATOM     70  C   UNL A   1      48.173  27.263  24.152  1.00  0.00     0.198 A 
ATOM     71  C   UNL A   1      49.052  26.484  26.246  1.00  0.00     0.198 A 
ATOM     72  F   UNL A   1      47.857  26.855  28.237  1.00  0.00    -0.203 F 
ATOM     73  F   UNL A   1      48.265  27.360  22.818  1.00  0.00    -0.200 F 
ATOM     74  C   UNL A   1      49.164  26.610  24.870  1.00  0.00     0.200 A 
ATOM     75  F   UNL A   1      50.014  25.862  26.941  1.00  0.00    -0.200 F 
ATOM     76  F   UNL A   1      50.225  26.095  24.233  1.00  0.00    -0.200 F 
ENDBRANCH  52  66
BRANCH  53  77
ATOM     77  C   UNL A   1      38.995  31.358  30.981  1.00  0.00     0.064 A 
ATOM     78  C   UNL A   1      38.771  31.034  32.327  1.00  0.00     0.173 A 
ATOM     79  C   UNL A   1      38.046  32.172  30.341  1.00  0.00     0.173 A 
ATOM     80  F   UNL A   1      39.628  30.231  32.973  1.00  0.00    -0.203 F 
ATOM     81  C   UNL A   1      37.629  31.475  32.994  1.00  0.00     0.198 A 
ATOM     82  C   UNL A   1      36.922  32.640  31.019  1.00  0.00     0.198 A 
ATOM     83  F   UNL A   1      38.205  32.503  29.052  1.00  0.00    -0.203 F 
ATOM     84  F   UNL A   1      37.405  31.092  34.258  1.00  0.00    -0.200 F 
ATOM     85  C   UNL A   1      36.708  32.281  32.341  1.00  0.00     0.200 A 
ATOM     86  F   UNL A   1      36.038  33.422  30.386  1.00  0.00    -0.200 F 
ATOM     87  F   UNL A   1      35.606  32.695  32.980  1.00  0.00    -0.200 F 
ENDBRANCH  53  77
BRANCH  65  88
ATOM     88  C   UNL A   1      45.324  33.875  29.526  1.00  0.00     0.064 A 
ATOM     89  C   UNL A   1      46.085  34.079  30.685  1.00  0.00     0.173 A 
ATOM     90  C   UNL A   1      45.218  34.939  28.615  1.00  0.00     0.173 A 
ATOM     91  F   UNL A   1      46.209  33.100  31.593  1.00  0.00    -0.203 F 
ATOM     92  C   UNL A   1      46.684  35.311  30.941  1.00  0.00     0.198 A 
ATOM     93  C   UNL A   1      45.846  36.157  28.858  1.00  0.00     0.198 A 
ATOM     94  F   UNL A   1      44.511  34.794  27.484  1.00  0.00    -0.203 F 
ATOM     95  F   UNL A   1      47.358  35.501  32.084  1.00  0.00    -0.200 F 
ATOM     96  C   UNL A   1      46.570  36.345  30.026  1.00  0.00     0.200 A 
ATOM     97  F   UNL A   1      45.748  37.150  27.964  1.00  0.00    -0.200 F 
ATOM     98  F   UNL A   1      47.151  37.528  30.272  1.00  0.00    -0.200 F 
ENDBRANCH  65  88
ENDBRANCH  39  40
ENDBRANCH  32  34
ENDBRANCH  31  32
ENDBRANCH  30  31
ENDBRANCH  29  30
ENDBRANCH  28  29
ENDBRANCH  27  28
ENDBRANCH   1  27
TORSDOF 20
ENDMDL
MODEL 2
REMARK VINA RESULT:     -10.9      4.875     10.748
REMARK SMILES C[C@@](NC(=O)[C@H]1COc2ccccc21)(C(=O)OCCOCCOCCOC(=O)c1ccc(-c2c3nc(c(-c4c(F)c(F)c(F)c(F)c4F)c4ccc([nH]4)c(-c4c(F)c(F)c(F)c(F)c4F)c4nc(c(-c5c(F)c(F)c(F)c(F)c5F)c5ccc2[nH]5)C=C4)C=C3)cc1)C(F)(F)F
REMARK SMILES IDX 21 1 20 2 19 3 18 4 17 5 15 6 16 7 2 8 1 9 3 10 4 11 5 13
REMARK SMILES IDX 6 14 7 15 14 16 8 17 9 18 13 19 10 20 12 21 11 22 92 23
REMARK SMILES IDX 93 24 94 25 95 26 22 27 23 28 24 29 25 30 26 31 27 32 28 33
REMARK SMILES IDX 29 34 30 35 91 36 31 37 90 38 32 39 33 40 34 41 84 42 35 43
REMARK SMILES IDX 89 44 83 45 85 46 36 47 88 48 82 49 81 50 37 52 69 53 49 54
REMARK SMILES IDX 68 55 50 56 53 57 67 58 86 59 51 60 52 61 66 63 87 64 54 65
REMARK SMILES IDX 38 66 39 67 47 68 40 69 41 70 45 71 48 72 42 73 43 74 46 75
REMARK SMILES IDX 44 76 70 77 71 78 79 79 72 80 73 81 77 82 80 83 74 84 75 85
REMARK SMILES IDX 78 86 76 87 55 88 56 89 64 90 57 91 58 92 62 93 65 94 59 95
REMARK SMILES IDX 60 96 63 97 61 98
REMARK H PARENT 3 12 85 51 53 62
REMARK Flexibility Score: inf
ROOT
ATOM      1  C   UNL A   1      34.263  31.415  27.797  1.00  0.00     0.188 C 
ENDROOT
BRANCH   1   2
ATOM      2  O   UNL A   1      35.352  30.546  28.035  1.00  0.00    -0.376 OA
BRANCH   2   3
ATOM      3  C   UNL A   1      35.248  29.277  27.426  1.00  0.00     0.202 C 
BRANCH   3   4
ATOM      4  C   UNL A   1      33.875  28.865  26.896  1.00  0.00     0.261 C 
BRANCH   4   5
ATOM      5  O   UNL A   1      33.674  27.543  26.334  1.00  0.00    -0.461 OA
BRANCH   5   6
ATOM      6  C   UNL A   1      33.373  27.375  25.015  1.00  0.00     0.341 C 
ATOM      7  O   UNL A   1      33.930  28.004  24.128  1.00  0.00    -0.249 OA
BRANCH   6   8
ATOM      8  C   UNL A   1      32.126  26.481  24.821  1.00  0.00     0.231 C 
ATOM      9  C   UNL A   1      32.227  25.544  23.600  1.00  0.00     0.058 C 
BRANCH   8  10
ATOM     10  N   UNL A   1      31.722  25.655  26.029  1.00  0.00    -0.332 N 
ATOM     11  C   UNL A   1      31.944  24.360  26.424  1.00  0.00     0.232 C 
ATOM     12  H   UNL A   1      31.180  26.163  26.674  1.00  0.00     0.164 HD
ATOM     13  O   UNL A   1      31.229  23.913  27.318  1.00  0.00    -0.274 OA
BRANCH  11  14
ATOM     14  C   UNL A   1      33.068  23.586  25.796  1.00  0.00     0.150 C 
ATOM     15  C   UNL A   1      34.155  23.218  26.817  1.00  0.00     0.248 C 
ATOM     16  C   UNL A   1      32.833  22.250  25.199  1.00  0.00     0.010 A 
ATOM     17  O   UNL A   1      34.179  21.787  27.019  1.00  0.00    -0.492 OA
ATOM     18  C   UNL A   1      33.560  21.302  25.900  1.00  0.00     0.123 A 
ATOM     19  C   UNL A   1      32.201  21.927  24.010  1.00  0.00     0.008 A 
ATOM     20  C   UNL A   1      33.698  20.008  25.451  1.00  0.00     0.047 A 
ATOM     21  C   UNL A   1      32.336  20.622  23.532  1.00  0.00     0.001 A 
ATOM     22  C   UNL A   1      33.087  19.671  24.243  1.00  0.00     0.004 A 
ENDBRANCH  11  14
ENDBRANCH   8  10
BRANCH   8  23
ATOM     23  C   UNL A   1      31.018  27.517  24.508  1.00  0.00     0.422 C 
ATOM     24  F   UNL A   1      31.055  27.940  23.223  1.00  0.00    -0.168 F 
ATOM     25  F   UNL A   1      29.791  26.967  24.706  1.00  0.00    -0.168 F 
ATOM     26  F   UNL A   1      31.083  28.603  25.309  1.00  0.00    -0.168 F 
ENDBRANCH   8  23
ENDBRANCH   6   8
ENDBRANCH   5   6
ENDBRANCH   4   5
ENDBRANCH   3   4
ENDBRANCH   2   3
ENDBRANCH   1   2
BRANCH   1  27
ATOM     27  C   UNL A   1      34.472  32.812  28.401  1.00  0.00     0.188 C 
BRANCH  27  28
ATOM     28  O   UNL A   1      33.587  33.875  28.095  1.00  0.00    -0.376 OA
BRANCH  28  29
ATOM     29  C   UNL A   1      33.900  35.179  28.565  1.00  0.00     0.202 C 
BRANCH  29  30
ATOM     30  C   UNL A   1      32.912  35.935  29.479  1.00  0.00     0.261 C 
BRANCH  30  31
ATOM     31  O   UNL A   1      32.394  35.204  30.605  1.00  0.00    -0.460 OA
BRANCH  31  32
ATOM     32  C   UNL A   1      32.679  35.715  31.831  1.00  0.00     0.338 C 
ATOM     33  O   UNL A   1      31.994  36.490  32.479  1.00  0.00    -0.246 OA
BRANCH  32  34
ATOM     34  C   UNL A   1      33.841  34.992  32.409  1.00  0.00     0.060 A 
ATOM     35  C   UNL A   1      35.109  35.587  32.298  1.00  0.00     0.016 A 
ATOM     36  C   UNL A   1      33.702  33.768  33.065  1.00  0.00     0.016 A 
ATOM     37  C   UNL A   1      36.236  34.967  32.835  1.00  0.00     0.010 A 
ATOM     38  C   UNL A   1      34.844  33.119  33.558  1.00  0.00     0.010 A 
ATOM     39  C   UNL A   1      36.118  33.703  33.421  1.00  0.00    -0.014 A 
BRANCH  39  40
ATOM     40  C   UNL A   1      37.347  32.902  33.656  1.00  0.00     0.031 A 
ATOM     41  C   UNL A   1      38.113  33.151  34.928  1.00  0.00     0.074 A 
ATOM     42  C   UNL A   1      37.753  31.944  32.804  1.00  0.00     0.049 A 
ATOM     43  N   UNL A   1      39.231  32.617  35.349  1.00  0.00    -0.248 NA
ATOM     44  C   UNL A   1      37.532  34.138  35.854  1.00  0.00     0.031 C 
ATOM     45  C   UNL A   1      37.071  31.553  31.574  1.00  0.00     0.029 A 
ATOM     46  N   UNL A   1      38.857  31.126  32.852  1.00  0.00    -0.354 N 
ATOM     47  C   UNL A   1      39.484  33.199  36.583  1.00  0.00     0.074 A 
ATOM     48  C   UNL A   1      38.423  34.150  36.833  1.00  0.00     0.031 C 
ATOM     49  C   UNL A   1      37.783  30.585  30.970  1.00  0.00     0.029 A 
ATOM     50  C   UNL A   1      38.986  30.308  31.756  1.00  0.00     0.049 A 
ATOM     51  H   UNL A   1      39.496  31.126  33.602  1.00  0.00     0.167 HD
ATOM     52  C   UNL A   1      40.505  32.960  37.439  1.00  0.00     0.037 A 
ATOM     53  C   UNL A   1      39.975  29.456  31.419  1.00  0.00     0.037 A 
ATOM     54  C   UNL A   1      41.569  32.025  37.193  1.00  0.00     0.049 A 
ATOM     55  C   UNL A   1      41.155  29.280  32.346  1.00  0.00     0.074 A 
ATOM     56  C   UNL A   1      42.652  31.719  37.999  1.00  0.00     0.029 A 
ATOM     57  N   UNL A   1      41.687  31.248  36.051  1.00  0.00    -0.354 N 
ATOM     58  N   UNL A   1      41.383  29.826  33.517  1.00  0.00    -0.248 NA
ATOM     59  C   UNL A   1      42.216  28.363  31.903  1.00  0.00     0.031 C 
ATOM     60  C   UNL A   1      43.453  30.794  37.322  1.00  0.00     0.029 A 
ATOM     61  C   UNL A   1      42.839  30.480  36.121  1.00  0.00     0.049 A 
ATOM     62  H   UNL A   1      41.048  31.242  35.302  1.00  0.00     0.167 HD
ATOM     63  C   UNL A   1      42.589  29.296  33.960  1.00  0.00     0.074 A 
ATOM     64  C   UNL A   1      43.037  28.371  32.942  1.00  0.00     0.031 C 
ATOM     65  C   UNL A   1      43.268  29.553  35.105  1.00  0.00     0.037 A 
BRANCH  52  66
ATOM     66  C   UNL A   1      40.535  33.744  38.717  1.00  0.00     0.064 A 
ATOM     67  C   UNL A   1      41.308  34.906  38.850  1.00  0.00     0.173 A 
ATOM     68  C   UNL A   1      39.744  33.352  39.807  1.00  0.00     0.173 A 
ATOM     69  F   UNL A   1      42.096  35.312  37.843  1.00  0.00    -0.203 F 
ATOM     70  C   UNL A   1      41.301  35.639  40.033  1.00  0.00     0.198 A 
ATOM     71  C   UNL A   1      39.716  34.102  40.978  1.00  0.00     0.198 A 
ATOM     72  F   UNL A   1      38.986  32.247  39.731  1.00  0.00    -0.203 F 
ATOM     73  F   UNL A   1      42.078  36.724  40.153  1.00  0.00    -0.200 F 
ATOM     74  C   UNL A   1      40.498  35.242  41.093  1.00  0.00     0.200 A 
ATOM     75  F   UNL A   1      38.933  33.723  41.998  1.00  0.00    -0.200 F 
ATOM     76  F   UNL A   1      40.482  35.955  42.227  1.00  0.00    -0.200 F 
ENDBRANCH  52  66
BRANCH  53  77
ATOM     77  C   UNL A   1      39.927  28.718  30.127  1.00  0.00     0.064 A 
ATOM     78  C   UNL A   1      39.363  27.437  30.042  1.00  0.00     0.173 A 
ATOM     79  C   UNL A   1      40.510  29.250  28.967  1.00  0.00     0.173 A 
ATOM     80  F   UNL A   1      38.825  26.868  31.131  1.00  0.00    -0.203 F 
ATOM     81  C   UNL A   1      39.413  26.705  28.856  1.00  0.00     0.198 A 
ATOM     82  C   UNL A   1      40.529  28.531  27.773  1.00  0.00     0.198 A 
ATOM     83  F   UNL A   1      41.074  30.467  28.995  1.00  0.00    -0.203 F 
ATOM     84  F   UNL A   1      38.930  25.455  28.822  1.00  0.00    -0.200 F 
ATOM     85  C   UNL A   1      39.992  27.254  27.722  1.00  0.00     0.200 A 
ATOM     86  F   UNL A   1      41.086  29.068  26.679  1.00  0.00    -0.200 F 
ATOM     87  F   UNL A   1      40.049  26.546  26.586  1.00  0.00    -0.200 F 
ENDBRANCH  53  77
BRANCH  65  88
ATOM     88  C   UNL A   1      44.544  28.795  35.341  1.00  0.00     0.064 A 
ATOM     89  C   UNL A   1      45.784  29.279  34.900  1.00  0.00     0.173 A 
ATOM     90  C   UNL A   1      44.529  27.581  36.047  1.00  0.00     0.173 A 
ATOM     91  F   UNL A   1      45.854  30.429  34.212  1.00  0.00    -0.203 F 
ATOM     92  C   UNL A   1      46.956  28.560  35.125  1.00  0.00     0.198 A 
ATOM     93  C   UNL A   1      45.706  26.881  36.299  1.00  0.00     0.198 A 
ATOM     94  F   UNL A   1      43.372  27.077  36.501  1.00  0.00    -0.203 F 
ATOM     95  F   UNL A   1      48.121  29.014  34.643  1.00  0.00    -0.200 F 
ATOM     96  C   UNL A   1      46.917  27.366  35.828  1.00  0.00     0.200 A 
ATOM     97  F   UNL A   1      45.667  25.736  36.993  1.00  0.00    -0.200 F 
ATOM     98  F   UNL A   1      48.046  26.677  36.047  1.00  0.00    -0.200 F 
ENDBRANCH  65  88
ENDBRANCH  39  40
ENDBRANCH  32  34
ENDBRANCH  31  32
ENDBRANCH  30  31
ENDBRANCH  29  30
ENDBRANCH  28  29
ENDBRANCH  27  28
ENDBRANCH   1  27
TORSDOF 20
ENDMDL
MODEL 3
REMARK VINA RESULT:     -10.9      4.116     10.198
REMARK SMILES C[C@@](NC(=O)[C@H]1COc2ccccc21)(C(=O)OCCOCCOCCOC(=O)c1ccc(-c2c3nc(c(-c4c(F)c(F)c(F)c(F)c4F)c4ccc([nH]4)c(-c4c(F)c(F)c(F)c(F)c4F)c4nc(c(-c5c(F)c(F)c(F)c(F)c5F)c5ccc2[nH]5)C=C4)C=C3)cc1)C(F)(F)F
REMARK SMILES IDX 21 1 20 2 19 3 18 4 17 5 15 6 16 7 2 8 1 9 3 10 4 11 5 13
REMARK SMILES IDX 6 14 7 15 14 16 8 17 9 18 13 19 10 20 12 21 11 22 92 23
REMARK SMILES IDX 93 24 94 25 95 26 22 27 23 28 24 29 25 30 26 31 27 32 28 33
REMARK SMILES IDX 29 34 30 35 91 36 31 37 90 38 32 39 33 40 34 41 84 42 35 43
REMARK SMILES IDX 89 44 83 45 85 46 36 47 88 48 82 49 81 50 37 52 69 53 49 54
REMARK SMILES IDX 68 55 50 56 53 57 67 58 86 59 51 60 52 61 66 63 87 64 54 65
REMARK SMILES IDX 38 66 39 67 47 68 40 69 41 70 45 71 48 72 42 73 43 74 46 75
REMARK SMILES IDX 44 76 70 77 71 78 79 79 72 80 73 81 77 82 80 83 74 84 75 85
REMARK SMILES IDX 78 86 76 87 55 88 56 89 64 90 57 91 58 92 62 93 65 94 59 95
REMARK SMILES IDX 60 96 63 97 61 98
REMARK H PARENT 3 12 85 51 53 62
REMARK Flexibility Score: inf
ROOT
ATOM      1  C   UNL A   1      34.284  28.956  27.043  1.00  0.00     0.188 C 
ENDROOT
BRANCH   1   2
ATOM      2  O   UNL A   1      34.013  27.890  26.155  1.00  0.00    -0.376 OA
BRANCH   2   3
ATOM      3  C   UNL A   1      32.644  27.639  25.922  1.00  0.00     0.202 C 
BRANCH   3   4
ATOM      4  C   UNL A   1      32.148  27.750  24.481  1.00  0.00     0.261 C 
BRANCH   4   5
ATOM      5  O   UNL A   1      31.592  26.592  23.806  1.00  0.00    -0.461 OA
BRANCH   5   6
ATOM      6  C   UNL A   1      31.167  25.503  24.508  1.00  0.00     0.341 C 
ATOM      7  O   UNL A   1      30.268  25.561  25.333  1.00  0.00    -0.249 OA
BRANCH   6   8
ATOM      8  C   UNL A   1      32.093  24.283  24.289  1.00  0.00     0.231 C 
ATOM      9  C   UNL A   1      33.215  24.540  23.262  1.00  0.00     0.058 C 
BRANCH   8  10
ATOM     10  N   UNL A   1      32.716  23.704  25.546  1.00  0.00    -0.332 N 
ATOM     11  C   UNL A   1      33.371  22.536  25.842  1.00  0.00     0.232 C 
ATOM     12  H   UNL A   1      32.632  24.301  26.323  1.00  0.00     0.164 HD
ATOM     13  O   UNL A   1      33.491  22.242  27.030  1.00  0.00    -0.274 OA
BRANCH  11  14
ATOM     14  C   UNL A   1      33.949  21.716  24.724  1.00  0.00     0.150 C 
ATOM     15  C   UNL A   1      35.482  21.645  24.793  1.00  0.00     0.248 C 
ATOM     16  C   UNL A   1      33.643  20.271  24.600  1.00  0.00     0.010 A 
ATOM     17  O   UNL A   1      35.900  20.295  25.096  1.00  0.00    -0.492 OA
ATOM     18  C   UNL A   1      34.813  19.544  24.744  1.00  0.00     0.123 A 
ATOM     19  C   UNL A   1      32.472  19.662  24.186  1.00  0.00     0.008 A 
ATOM     20  C   UNL A   1      34.872  18.194  24.476  1.00  0.00     0.047 A 
ATOM     21  C   UNL A   1      32.512  18.296  23.900  1.00  0.00     0.001 A 
ATOM     22  C   UNL A   1      33.707  17.569  24.035  1.00  0.00     0.004 A 
ENDBRANCH  11  14
ENDBRANCH   8  10
BRANCH   8  23
ATOM     23  C   UNL A   1      31.132  23.243  23.661  1.00  0.00     0.422 C 
ATOM     24  F   UNL A   1      30.104  23.824  23.000  1.00  0.00    -0.168 F 
ATOM     25  F   UNL A   1      31.796  22.475  22.757  1.00  0.00    -0.168 F 
ATOM     26  F   UNL A   1      30.615  22.395  24.576  1.00  0.00    -0.168 F 
ENDBRANCH   8  23
ENDBRANCH   6   8
ENDBRANCH   5   6
ENDBRANCH   4   5
ENDBRANCH   3   4
ENDBRANCH   2   3
ENDBRANCH   1   2
BRANCH   1  27
ATOM     27  C   UNL A   1      33.061  29.854  27.285  1.00  0.00     0.188 C 
BRANCH  27  28
ATOM     28  O   UNL A   1      32.877  31.046  26.542  1.00  0.00    -0.376 OA
BRANCH  28  29
ATOM     29  C   UNL A   1      31.750  31.863  26.831  1.00  0.00     0.202 C 
BRANCH  29  30
ATOM     30  C   UNL A   1      31.940  33.351  27.196  1.00  0.00     0.261 C 
BRANCH  30  31
ATOM     31  O   UNL A   1      32.580  33.625  28.456  1.00  0.00    -0.460 OA
BRANCH  31  32
ATOM     32  C   UNL A   1      33.711  34.375  28.400  1.00  0.00     0.338 C 
ATOM     33  O   UNL A   1      33.780  35.590  28.308  1.00  0.00    -0.246 OA
BRANCH  32  34
ATOM     34  C   UNL A   1      34.884  33.526  28.732  1.00  0.00     0.060 A 
ATOM     35  C   UNL A   1      34.643  32.262  29.300  1.00  0.00     0.016 A 
ATOM     36  C   UNL A   1      36.193  33.936  28.480  1.00  0.00     0.016 A 
ATOM     37  C   UNL A   1      35.700  31.411  29.617  1.00  0.00     0.010 A 
ATOM     38  C   UNL A   1      37.259  33.102  28.850  1.00  0.00     0.010 A 
ATOM     39  C   UNL A   1      37.017  31.848  29.444  1.00  0.00    -0.014 A 
BRANCH  39  40
ATOM     40  C   UNL A   1      38.115  31.102  30.110  1.00  0.00     0.031 A 
ATOM     41  C   UNL A   1      38.385  31.400  31.561  1.00  0.00     0.074 A 
ATOM     42  C   UNL A   1      38.823  30.150  29.478  1.00  0.00     0.049 A 
ATOM     43  N   UNL A   1      39.307  30.919  32.356  1.00  0.00    -0.248 NA
ATOM     44  C   UNL A   1      37.488  32.376  32.203  1.00  0.00     0.031 C 
ATOM     45  C   UNL A   1      38.621  29.715  28.099  1.00  0.00     0.029 A 
ATOM     46  N   UNL A   1      39.869  29.379  29.925  1.00  0.00    -0.354 N 
ATOM     47  C   UNL A   1      39.098  31.529  33.586  1.00  0.00     0.074 A 
ATOM     48  C   UNL A   1      37.984  32.438  33.428  1.00  0.00     0.031 C 
ATOM     49  C   UNL A   1      39.531  28.769  27.804  1.00  0.00     0.029 A 
ATOM     50  C   UNL A   1      40.396  28.552  28.964  1.00  0.00     0.049 A 
ATOM     51  H   UNL A   1      40.209  29.416  30.849  1.00  0.00     0.167 HD
ATOM     52  C   UNL A   1      39.768  31.344  34.747  1.00  0.00     0.037 A 
ATOM     53  C   UNL A   1      41.470  27.737  29.011  1.00  0.00     0.037 A 
ATOM     54  C   UNL A   1      40.883  30.450  34.908  1.00  0.00     0.049 A 
ATOM     55  C   UNL A   1      42.262  27.623  30.293  1.00  0.00     0.074 A 
ATOM     56  C   UNL A   1      41.630  30.200  36.046  1.00  0.00     0.029 A 
ATOM     57  N   UNL A   1      41.414  29.663  33.899  1.00  0.00    -0.354 N 
ATOM     58  N   UNL A   1      42.052  28.194  31.456  1.00  0.00    -0.248 NA
ATOM     59  C   UNL A   1      43.441  26.744  30.268  1.00  0.00     0.031 C 
ATOM     60  C   UNL A   1      42.647  29.300  35.712  1.00  0.00     0.029 A 
ATOM     61  C   UNL A   1      42.497  28.944  34.383  1.00  0.00     0.049 A 
ATOM     62  H   UNL A   1      41.074  29.620  32.976  1.00  0.00     0.167 HD
ATOM     63  C   UNL A   1      43.049  27.721  32.301  1.00  0.00     0.074 A 
ATOM     64  C   UNL A   1      43.852  26.800  31.526  1.00  0.00     0.031 C 
ATOM     65  C   UNL A   1      43.281  28.021  33.603  1.00  0.00     0.037 A 
BRANCH  52  66
ATOM     66  C   UNL A   1      39.328  32.146  35.935  1.00  0.00     0.064 A 
ATOM     67  C   UNL A   1      38.375  31.657  36.841  1.00  0.00     0.173 A 
ATOM     68  C   UNL A   1      39.899  33.401  36.194  1.00  0.00     0.173 A 
ATOM     69  F   UNL A   1      37.786  30.471  36.627  1.00  0.00    -0.203 F 
ATOM     70  C   UNL A   1      38.000  32.402  37.955  1.00  0.00     0.198 A 
ATOM     71  C   UNL A   1      39.542  34.131  37.323  1.00  0.00     0.198 A 
ATOM     72  F   UNL A   1      40.813  33.914  35.357  1.00  0.00    -0.203 F 
ATOM     73  F   UNL A   1      37.059  31.933  38.787  1.00  0.00    -0.200 F 
ATOM     74  C   UNL A   1      38.590  33.633  38.200  1.00  0.00     0.200 A 
ATOM     75  F   UNL A   1      40.120  35.315  37.564  1.00  0.00    -0.200 F 
ATOM     76  F   UNL A   1      38.236  34.344  39.280  1.00  0.00    -0.200 F 
ENDBRANCH  52  66
BRANCH  53  77
ATOM     77  C   UNL A   1      41.896  26.980  27.803  1.00  0.00     0.064 A 
ATOM     78  C   UNL A   1      41.460  25.666  27.576  1.00  0.00     0.173 A 
ATOM     79  C   UNL A   1      42.807  27.529  26.888  1.00  0.00     0.173 A 
ATOM     80  F   UNL A   1      40.618  25.082  28.441  1.00  0.00    -0.203 F 
ATOM     81  C   UNL A   1      41.943  24.922  26.500  1.00  0.00     0.198 A 
ATOM     82  C   UNL A   1      43.262  26.797  25.793  1.00  0.00     0.198 A 
ATOM     83  F   UNL A   1      43.265  28.777  27.063  1.00  0.00    -0.203 F 
ATOM     84  F   UNL A   1      41.563  23.646  26.348  1.00  0.00    -0.200 F 
ATOM     85  C   UNL A   1      42.839  25.489  25.607  1.00  0.00     0.200 A 
ATOM     86  F   UNL A   1      44.125  27.350  24.931  1.00  0.00    -0.200 F 
ATOM     87  F   UNL A   1      43.311  24.770  24.580  1.00  0.00    -0.200 F 
ENDBRANCH  53  77
BRANCH  65  88
ATOM     88  C   UNL A   1      44.422  27.320  34.284  1.00  0.00     0.064 A 
ATOM     89  C   UNL A   1      45.707  27.880  34.341  1.00  0.00     0.173 A 
ATOM     90  C   UNL A   1      44.219  26.083  34.918  1.00  0.00     0.173 A 
ATOM     91  F   UNL A   1      45.958  29.054  33.743  1.00  0.00    -0.203 F 
ATOM     92  C   UNL A   1      46.753  27.212  34.974  1.00  0.00     0.198 A 
ATOM     93  C   UNL A   1      45.258  25.435  35.579  1.00  0.00     0.198 A 
ATOM     94  F   UNL A   1      43.007  25.507  34.905  1.00  0.00    -0.203 F 
ATOM     95  F   UNL A   1      47.985  27.740  34.965  1.00  0.00    -0.200 F 
ATOM     96  C   UNL A   1      46.527  25.994  35.597  1.00  0.00     0.200 A 
ATOM     97  F   UNL A   1      45.034  24.266  36.195  1.00  0.00    -0.200 F 
ATOM     98  F   UNL A   1      47.534  25.356  36.209  1.00  0.00    -0.200 F 
ENDBRANCH  65  88
ENDBRANCH  39  40
ENDBRANCH  32  34
ENDBRANCH  31  32
ENDBRANCH  30  31
ENDBRANCH  29  30
ENDBRANCH  28  29
ENDBRANCH  27  28
ENDBRANCH   1  27
TORSDOF 20
ENDMDL
