MODEL 1
REMARK VINA RESULT:     -11.6      0.000      0.000
REMARK SMILES O=C(OCCOCCOCCOC(=O)c1ccc(-c2c3nc(c(-c4c(F)c(F)c(F)c(F)c4F)c4ccc([nH]4)c(-c4c(F)c(F)c(F)c(F)c4F)c4nc(c(-c5c(F)c(F)c(F)c(F)c5F)c5ccc2[nH]5)C=C4)C=C3)cc1)c1ccc(-c2ccc(/C=C3/SC(=S)N(c4ccccc4)C3=O)o2)cc1
REMARK SMILES IDX 7 1 6 2 5 3 4 4 3 5 2 6 1 7 78 8 79 9 102 10 80 11 101 12
REMARK SMILES IDX 81 13 82 14 83 15 100 16 84 17 85 18 86 19 87 20 88 21 98 22
REMARK SMILES IDX 89 23 91 24 99 25 90 26 92 27 93 28 97 29 94 30 96 31 95 32
REMARK SMILES IDX 8 33 9 34 10 35 11 36 12 37 13 38 14 39 15 40 16 41 77 42
REMARK SMILES IDX 17 43 76 44 18 45 19 46 20 47 70 48 21 49 75 50 69 51 71 52
REMARK SMILES IDX 22 53 74 54 68 55 67 56 23 58 55 59 35 60 54 61 36 62 39 63
REMARK SMILES IDX 53 64 72 65 37 66 38 67 52 69 73 70 40 71 24 72 25 73 33 74
REMARK SMILES IDX 26 75 27 76 31 77 34 78 28 79 29 80 32 81 30 82 56 83 57 84
REMARK SMILES IDX 65 85 58 86 59 87 63 88 66 89 60 90 61 91 64 92 62 93 41 94
REMARK SMILES IDX 42 95 50 96 43 97 44 98 48 99 51 100 45 101 46 102 49 103
REMARK SMILES IDX 47 104
REMARK H PARENT 71 57 39 68
REMARK Flexibility Score: inf
ROOT
ATOM      1  C   UNL A   1      43.781  19.026  25.893  1.00  0.00     0.188 C 
ENDROOT
BRANCH   1   2
ATOM      2  O   UNL A   1      42.574  18.694  25.193  1.00  0.00    -0.376 OA
BRANCH   2   3
ATOM      3  C   UNL A   1      41.382  19.129  25.846  1.00  0.00     0.202 C 
BRANCH   3   4
ATOM      4  C   UNL A   1      41.595  19.799  27.208  1.00  0.00     0.261 C 
BRANCH   4   5
ATOM      5  O   UNL A   1      40.699  20.896  27.438  1.00  0.00    -0.460 OA
BRANCH   5   6
ATOM      6  C   UNL A   1      40.347  21.837  26.526  1.00  0.00     0.338 C 
ATOM      7  O   UNL A   1      41.171  22.649  26.120  1.00  0.00    -0.246 OA
BRANCH   6   8
ATOM      8  C   UNL A   1      38.991  21.848  25.927  1.00  0.00     0.060 A 
ATOM      9  C   UNL A   1      38.392  20.710  25.384  1.00  0.00     0.016 A 
ATOM     10  C   UNL A   1      38.242  23.025  26.039  1.00  0.00     0.016 A 
ATOM     11  C   UNL A   1      37.085  20.767  24.890  1.00  0.00     0.013 A 
ATOM     12  C   UNL A   1      36.928  23.077  25.553  1.00  0.00     0.013 A 
ATOM     13  C   UNL A   1      36.341  21.952  24.956  1.00  0.00     0.017 A 
BRANCH  13  14
ATOM     14  C   UNL A   1      35.001  22.016  24.390  1.00  0.00     0.134 A 
ATOM     15  C   UNL A   1      33.852  21.279  24.567  1.00  0.00     0.051 A 
ATOM     16  O   UNL A   1      34.755  23.035  23.517  1.00  0.00    -0.457 OA
ATOM     17  C   UNL A   1      32.863  21.875  23.751  1.00  0.00     0.051 A 
ATOM     18  C   UNL A   1      33.443  22.953  23.105  1.00  0.00     0.128 A 
BRANCH  18  19
ATOM     19  C   UNL A   1      32.840  23.868  22.207  1.00  0.00     0.068 C 
ATOM     20  C   UNL A   1      32.373  25.054  22.584  1.00  0.00     0.084 C 
ATOM     21  S   UNL A   1      31.572  26.140  21.512  1.00  0.00    -0.054 SA
ATOM     22  C   UNL A   1      32.482  25.620  23.939  1.00  0.00     0.270 C 
ATOM     23  C   UNL A   1      31.355  27.358  22.750  1.00  0.00     0.152 C 
ATOM     24  N   UNL A   1      31.885  26.869  23.935  1.00  0.00    -0.261 N 
ATOM     25  O   UNL A   1      32.990  25.042  24.881  1.00  0.00    -0.268 OA
ATOM     26  S   UNL A   1      30.687  28.853  22.367  1.00  0.00    -0.051 S 
BRANCH  24  27
ATOM     27  C   UNL A   1      31.793  27.519  25.147  1.00  0.00     0.051 A 
ATOM     28  C   UNL A   1      31.312  26.922  26.277  1.00  0.00     0.027 A 
ATOM     29  C   UNL A   1      32.116  28.823  25.203  1.00  0.00     0.027 A 
ATOM     30  C   UNL A   1      31.211  27.695  27.420  1.00  0.00     0.002 A 
ATOM     31  C   UNL A   1      32.080  29.404  26.413  1.00  0.00     0.002 A 
ATOM     32  C   UNL A   1      31.653  28.920  27.594  1.00  0.00     0.000 A 
ENDBRANCH  24  27
ENDBRANCH  18  19
ENDBRANCH  13  14
ENDBRANCH   6   8
ENDBRANCH   5   6
ENDBRANCH   4   5
ENDBRANCH   3   4
ENDBRANCH   2   3
ENDBRANCH   1   2
BRANCH   1  33
ATOM     33  C   UNL A   1      44.914  19.308  24.902  1.00  0.00     0.188 C 
BRANCH  33  34
ATOM     34  O   UNL A   1      44.773  20.527  24.170  1.00  0.00    -0.376 OA
BRANCH  34  35
ATOM     35  C   UNL A   1      44.282  21.653  24.898  1.00  0.00     0.202 C 
BRANCH  35  36
ATOM     36  C   UNL A   1      45.342  22.685  25.307  1.00  0.00     0.261 C 
BRANCH  36  37
ATOM     37  O   UNL A   1      44.780  23.915  25.828  1.00  0.00    -0.460 OA
BRANCH  37  38
ATOM     38  C   UNL A   1      44.098  23.779  26.995  1.00  0.00     0.338 C 
ATOM     39  O   UNL A   1      44.006  22.768  27.667  1.00  0.00    -0.246 OA
BRANCH  38  40
ATOM     40  C   UNL A   1      43.412  25.031  27.416  1.00  0.00     0.060 A 
ATOM     41  C   UNL A   1      43.993  26.276  27.161  1.00  0.00     0.016 A 
ATOM     42  C   UNL A   1      42.349  24.953  28.322  1.00  0.00     0.016 A 
ATOM     43  C   UNL A   1      43.579  27.414  27.884  1.00  0.00     0.010 A 
ATOM     44  C   UNL A   1      41.916  26.102  29.023  1.00  0.00     0.010 A 
ATOM     45  C   UNL A   1      42.585  27.337  28.878  1.00  0.00    -0.014 A 
BRANCH  45  46
ATOM     46  C   UNL A   1      42.412  28.520  29.848  1.00  0.00     0.031 A 
ATOM     47  C   UNL A   1      43.375  28.328  31.244  1.00  0.00     0.074 A 
ATOM     48  C   UNL A   1      41.455  29.478  29.478  1.00  0.00     0.049 A 
ATOM     49  N   UNL A   1      43.601  29.093  32.310  1.00  0.00    -0.248 NA
ATOM     50  C   UNL A   1      44.049  27.008  31.458  1.00  0.00     0.031 C 
ATOM     51  C   UNL A   1      40.414  29.298  28.423  1.00  0.00     0.029 A 
ATOM     52  N   UNL A   1      41.012  30.723  29.996  1.00  0.00    -0.354 N 
ATOM     53  C   UNL A   1      44.090  28.290  33.405  1.00  0.00     0.074 A 
ATOM     54  C   UNL A   1      44.474  27.035  32.733  1.00  0.00     0.031 C 
ATOM     55  C   UNL A   1      39.393  30.193  28.571  1.00  0.00     0.029 A 
ATOM     56  C   UNL A   1      39.613  31.041  29.774  1.00  0.00     0.049 A 
ATOM     57  H   UNL A   1      41.618  31.334  30.476  1.00  0.00     0.167 HD
ATOM     58  C   UNL A   1      43.884  28.390  34.816  1.00  0.00     0.037 A 
ATOM     59  C   UNL A   1      38.570  31.643  30.552  1.00  0.00     0.037 A 
ATOM     60  C   UNL A   1      42.927  29.396  35.560  1.00  0.00     0.049 A 
ATOM     61  C   UNL A   1      38.470  31.978  32.262  1.00  0.00     0.074 A 
ATOM     62  C   UNL A   1      43.188  30.269  36.599  1.00  0.00     0.029 A 
ATOM     63  N   UNL A   1      41.436  29.458  35.634  1.00  0.00    -0.354 N 
ATOM     64  N   UNL A   1      38.794  31.181  33.278  1.00  0.00    -0.248 NA
ATOM     65  C   UNL A   1      37.946  33.222  32.834  1.00  0.00     0.031 C 
ATOM     66  C   UNL A   1      42.035  31.106  36.788  1.00  0.00     0.029 A 
ATOM     67  C   UNL A   1      40.986  30.776  35.906  1.00  0.00     0.049 A 
ATOM     68  H   UNL A   1      40.842  28.683  35.509  1.00  0.00     0.167 HD
ATOM     69  C   UNL A   1      38.904  31.820  34.482  1.00  0.00     0.074 A 
ATOM     70  C   UNL A   1      38.157  33.056  34.162  1.00  0.00     0.031 C 
ATOM     71  C   UNL A   1      39.656  31.547  35.635  1.00  0.00     0.037 A 
BRANCH  58  72
ATOM     72  C   UNL A   1      44.770  27.487  35.673  1.00  0.00     0.064 A 
ATOM     73  C   UNL A   1      44.190  26.311  36.188  1.00  0.00     0.173 A 
ATOM     74  C   UNL A   1      46.151  27.649  35.891  1.00  0.00     0.173 A 
ATOM     75  F   UNL A   1      42.877  26.090  36.030  1.00  0.00    -0.203 F 
ATOM     76  C   UNL A   1      44.936  25.337  36.845  1.00  0.00     0.198 A 
ATOM     77  C   UNL A   1      46.906  26.659  36.546  1.00  0.00     0.198 A 
ATOM     78  F   UNL A   1      46.784  28.759  35.477  1.00  0.00    -0.203 F 
ATOM     79  F   UNL A   1      44.330  24.228  37.291  1.00  0.00    -0.200 F 
ATOM     80  C   UNL A   1      46.299  25.499  37.008  1.00  0.00     0.200 A 
ATOM     81  F   UNL A   1      48.230  26.810  36.709  1.00  0.00    -0.200 F 
ATOM     82  F   UNL A   1      47.022  24.536  37.596  1.00  0.00    -0.200 F 
ENDBRANCH  58  72
BRANCH  59  83
ATOM     83  C   UNL A   1      37.283  31.979  29.848  1.00  0.00     0.064 A 
ATOM     84  C   UNL A   1      37.090  33.312  29.460  1.00  0.00     0.173 A 
ATOM     85  C   UNL A   1      36.257  31.069  29.540  1.00  0.00     0.173 A 
ATOM     86  F   UNL A   1      38.028  34.226  29.747  1.00  0.00    -0.203 F 
ATOM     87  C   UNL A   1      35.930  33.727  28.806  1.00  0.00     0.198 A 
ATOM     88  C   UNL A   1      35.102  31.482  28.862  1.00  0.00     0.198 A 
ATOM     89  F   UNL A   1      36.363  29.779  29.886  1.00  0.00    -0.203 F 
ATOM     90  F   UNL A   1      35.774  35.019  28.486  1.00  0.00    -0.200 F 
ATOM     91  C   UNL A   1      34.937  32.812  28.501  1.00  0.00     0.200 A 
ATOM     92  F   UNL A   1      34.141  30.594  28.560  1.00  0.00    -0.200 F 
ATOM     93  F   UNL A   1      33.825  33.212  27.869  1.00  0.00    -0.200 F 
ENDBRANCH  59  83
BRANCH  71  94
ATOM     94  C   UNL A   1      39.255  32.461  36.757  1.00  0.00     0.064 A 
ATOM     95  C   UNL A   1      39.854  33.715  36.942  1.00  0.00     0.173 A 
ATOM     96  C   UNL A   1      38.240  32.074  37.640  1.00  0.00     0.173 A 
ATOM     97  F   UNL A   1      40.867  34.110  36.156  1.00  0.00    -0.203 F 
ATOM     98  C   UNL A   1      39.418  34.564  37.957  1.00  0.00     0.198 A 
ATOM     99  C   UNL A   1      37.778  32.939  38.621  1.00  0.00     0.198 A 
ATOM    100  F   UNL A   1      37.683  30.859  37.534  1.00  0.00    -0.203 F 
ATOM    101  F   UNL A   1      40.012  35.751  38.144  1.00  0.00    -0.200 F 
ATOM    102  C   UNL A   1      38.366  34.182  38.780  1.00  0.00     0.200 A 
ATOM    103  F   UNL A   1      36.759  32.565  39.405  1.00  0.00    -0.200 F 
ATOM    104  F   UNL A   1      37.925  35.010  39.738  1.00  0.00    -0.200 F 
ENDBRANCH  71  94
ENDBRANCH  45  46
ENDBRANCH  38  40
ENDBRANCH  37  38
ENDBRANCH  36  37
ENDBRANCH  35  36
ENDBRANCH  34  35
ENDBRANCH  33  34
ENDBRANCH   1  33
TORSDOF 20
ENDMDL
MODEL 2
REMARK VINA RESULT:     -11.0      1.892      7.317
REMARK SMILES O=C(OCCOCCOCCOC(=O)c1ccc(-c2c3nc(c(-c4c(F)c(F)c(F)c(F)c4F)c4ccc([nH]4)c(-c4c(F)c(F)c(F)c(F)c4F)c4nc(c(-c5c(F)c(F)c(F)c(F)c5F)c5ccc2[nH]5)C=C4)C=C3)cc1)c1ccc(-c2ccc(/C=C3/SC(=S)N(c4ccccc4)C3=O)o2)cc1
REMARK SMILES IDX 7 1 6 2 5 3 4 4 3 5 2 6 1 7 78 8 79 9 102 10 80 11 101 12
REMARK SMILES IDX 81 13 82 14 83 15 100 16 84 17 85 18 86 19 87 20 88 21 98 22
REMARK SMILES IDX 89 23 91 24 99 25 90 26 92 27 93 28 97 29 94 30 96 31 95 32
REMARK SMILES IDX 8 33 9 34 10 35 11 36 12 37 13 38 14 39 15 40 16 41 77 42
REMARK SMILES IDX 17 43 76 44 18 45 19 46 20 47 70 48 21 49 75 50 69 51 71 52
REMARK SMILES IDX 22 53 74 54 68 55 67 56 23 58 55 59 35 60 54 61 36 62 39 63
REMARK SMILES IDX 53 64 72 65 37 66 38 67 52 69 73 70 40 71 24 72 25 73 33 74
REMARK SMILES IDX 26 75 27 76 31 77 34 78 28 79 29 80 32 81 30 82 56 83 57 84
REMARK SMILES IDX 65 85 58 86 59 87 63 88 66 89 60 90 61 91 64 92 62 93 41 94
REMARK SMILES IDX 42 95 50 96 43 97 44 98 48 99 51 100 45 101 46 102 49 103
REMARK SMILES IDX 47 104
REMARK H PARENT 71 57 39 68
REMARK Flexibility Score: inf
ROOT
ATOM      1  C   UNL A   1      45.332  21.852  24.925  1.00  0.00     0.188 C 
ENDROOT
BRANCH   1   2
ATOM      2  O   UNL A   1      44.035  22.091  24.364  1.00  0.00    -0.376 OA
BRANCH   2   3
ATOM      3  C   UNL A   1      43.015  22.330  25.333  1.00  0.00     0.202 C 
BRANCH   3   4
ATOM      4  C   UNL A   1      43.065  23.707  26.003  1.00  0.00     0.261 C 
BRANCH   4   5
ATOM      5  O   UNL A   1      41.924  23.967  26.835  1.00  0.00    -0.460 OA
BRANCH   5   6
ATOM      6  C   UNL A   1      41.049  23.037  27.292  1.00  0.00     0.338 C 
ATOM      7  O   UNL A   1      41.326  22.347  28.266  1.00  0.00    -0.246 OA
BRANCH   6   8
ATOM      8  C   UNL A   1      39.702  22.897  26.687  1.00  0.00     0.060 A 
ATOM      9  C   UNL A   1      38.826  23.972  26.528  1.00  0.00     0.016 A 
ATOM     10  C   UNL A   1      39.363  21.654  26.139  1.00  0.00     0.016 A 
ATOM     11  C   UNL A   1      37.593  23.791  25.894  1.00  0.00     0.013 A 
ATOM     12  C   UNL A   1      38.132  21.477  25.494  1.00  0.00     0.013 A 
ATOM     13  C   UNL A   1      37.224  22.541  25.381  1.00  0.00     0.017 A 
BRANCH  13  14
ATOM     14  C   UNL A   1      35.916  22.349  24.770  1.00  0.00     0.134 A 
ATOM     15  C   UNL A   1      34.919  21.412  24.921  1.00  0.00     0.051 A 
ATOM     16  O   UNL A   1      35.516  23.297  23.875  1.00  0.00    -0.457 OA
ATOM     17  C   UNL A   1      33.865  21.807  24.064  1.00  0.00     0.051 A 
ATOM     18  C   UNL A   1      34.257  22.968  23.421  1.00  0.00     0.128 A 
BRANCH  18  19
ATOM     19  C   UNL A   1      33.525  23.747  22.491  1.00  0.00     0.068 C 
ATOM     20  C   UNL A   1      32.970  24.916  22.799  1.00  0.00     0.084 C 
ATOM     21  S   UNL A   1      32.018  25.831  21.694  1.00  0.00    -0.054 SA
ATOM     22  C   UNL A   1      33.098  25.602  24.096  1.00  0.00     0.270 C 
ATOM     23  C   UNL A   1      31.754  27.127  22.842  1.00  0.00     0.152 C 
ATOM     24  N   UNL A   1      32.388  26.788  24.028  1.00  0.00    -0.261 N 
ATOM     25  O   UNL A   1      33.706  25.153  25.049  1.00  0.00    -0.268 OA
ATOM     26  S   UNL A   1      30.931  28.519  22.381  1.00  0.00    -0.051 S 
BRANCH  24  27
ATOM     27  C   UNL A   1      32.300  27.529  25.188  1.00  0.00     0.051 A 
ATOM     28  C   UNL A   1      31.359  27.294  26.149  1.00  0.00     0.027 A 
ATOM     29  C   UNL A   1      33.125  28.579  25.345  1.00  0.00     0.027 A 
ATOM     30  C   UNL A   1      31.331  28.142  27.242  1.00  0.00     0.002 A 
ATOM     31  C   UNL A   1      33.056  29.232  26.516  1.00  0.00     0.002 A 
ATOM     32  C   UNL A   1      32.198  29.082  27.542  1.00  0.00     0.000 A 
ENDBRANCH  24  27
ENDBRANCH  18  19
ENDBRANCH  13  14
ENDBRANCH   6   8
ENDBRANCH   5   6
ENDBRANCH   4   5
ENDBRANCH   3   4
ENDBRANCH   2   3
ENDBRANCH   1   2
BRANCH   1  33
ATOM     33  C   UNL A   1      46.402  22.628  24.150  1.00  0.00     0.188 C 
BRANCH  33  34
ATOM     34  O   UNL A   1      46.303  24.049  24.262  1.00  0.00    -0.376 OA
BRANCH  34  35
ATOM     35  C   UNL A   1      47.513  24.749  24.551  1.00  0.00     0.202 C 
BRANCH  35  36
ATOM     36  C   UNL A   1      47.549  25.468  25.907  1.00  0.00     0.261 C 
BRANCH  36  37
ATOM     37  O   UNL A   1      47.058  24.657  27.004  1.00  0.00    -0.460 OA
BRANCH  37  38
ATOM     38  C   UNL A   1      47.268  25.184  28.239  1.00  0.00     0.338 C 
ATOM     39  O   UNL A   1      48.321  25.201  28.849  1.00  0.00    -0.246 OA
BRANCH  38  40
ATOM     40  C   UNL A   1      46.036  25.763  28.839  1.00  0.00     0.060 A 
ATOM     41  C   UNL A   1      45.917  27.143  29.018  1.00  0.00     0.016 A 
ATOM     42  C   UNL A   1      45.135  24.915  29.494  1.00  0.00     0.016 A 
ATOM     43  C   UNL A   1      44.969  27.663  29.925  1.00  0.00     0.010 A 
ATOM     44  C   UNL A   1      44.167  25.443  30.380  1.00  0.00     0.010 A 
ATOM     45  C   UNL A   1      44.126  26.822  30.675  1.00  0.00    -0.014 A 
BRANCH  45  46
ATOM     46  C   UNL A   1      43.359  27.417  31.871  1.00  0.00     0.031 A 
ATOM     47  C   UNL A   1      41.828  28.004  31.400  1.00  0.00     0.074 A 
ATOM     48  C   UNL A   1      44.061  27.459  33.086  1.00  0.00     0.049 A 
ATOM     49  N   UNL A   1      40.810  28.540  32.069  1.00  0.00    -0.248 NA
ATOM     50  C   UNL A   1      41.525  28.084  29.935  1.00  0.00     0.031 C 
ATOM     51  C   UNL A   1      45.534  27.269  33.241  1.00  0.00     0.029 A 
ATOM     52  N   UNL A   1      43.759  27.840  34.419  1.00  0.00    -0.354 N 
ATOM     53  C   UNL A   1      39.971  29.301  31.175  1.00  0.00     0.074 A 
ATOM     54  C   UNL A   1      40.414  28.836  29.848  1.00  0.00     0.031 C 
ATOM     55  C   UNL A   1      45.979  27.770  34.431  1.00  0.00     0.029 A 
ATOM     56  C   UNL A   1      44.860  28.397  35.185  1.00  0.00     0.049 A 
ATOM     57  H   UNL A   1      42.858  27.731  34.802  1.00  0.00     0.167 HD
ATOM     58  C   UNL A   1      39.228  30.507  31.373  1.00  0.00     0.037 A 
ATOM     59  C   UNL A   1      45.006  29.472  36.122  1.00  0.00     0.037 A 
ATOM     60  C   UNL A   1      39.230  31.415  32.661  1.00  0.00     0.049 A 
ATOM     61  C   UNL A   1      43.941  30.799  36.513  1.00  0.00     0.074 A 
ATOM     62  C   UNL A   1      38.175  31.884  33.420  1.00  0.00     0.029 A 
ATOM     63  N   UNL A   1      40.280  32.316  33.224  1.00  0.00    -0.354 N 
ATOM     64  N   UNL A   1      43.272  31.592  35.679  1.00  0.00    -0.248 NA
ATOM     65  C   UNL A   1      43.666  31.268  37.874  1.00  0.00     0.031 C 
ATOM     66  C   UNL A   1      38.708  32.506  34.600  1.00  0.00     0.029 A 
ATOM     67  C   UNL A   1      40.117  32.490  34.623  1.00  0.00     0.049 A 
ATOM     68  H   UNL A   1      40.995  32.734  32.692  1.00  0.00     0.167 HD
ATOM     69  C   UNL A   1      42.286  32.331  36.272  1.00  0.00     0.074 A 
ATOM     70  C   UNL A   1      42.731  32.229  37.679  1.00  0.00     0.031 C 
ATOM     71  C   UNL A   1      41.083  32.868  35.790  1.00  0.00     0.037 A 
BRANCH  58  72
ATOM     72  C   UNL A   1      38.266  30.876  30.246  1.00  0.00     0.064 A 
ATOM     73  C   UNL A   1      37.253  29.950  29.929  1.00  0.00     0.173 A 
ATOM     74  C   UNL A   1      38.211  32.113  29.577  1.00  0.00     0.173 A 
ATOM     75  F   UNL A   1      37.243  28.745  30.517  1.00  0.00    -0.203 F 
ATOM     76  C   UNL A   1      36.227  30.242  29.035  1.00  0.00     0.198 A 
ATOM     77  C   UNL A   1      37.168  32.412  28.681  1.00  0.00     0.198 A 
ATOM     78  F   UNL A   1      39.159  33.043  29.778  1.00  0.00    -0.203 F 
ATOM     79  F   UNL A   1      35.278  29.327  28.794  1.00  0.00    -0.200 F 
ATOM     80  C   UNL A   1      36.171  31.480  28.424  1.00  0.00     0.200 A 
ATOM     81  F   UNL A   1      37.108  33.612  28.083  1.00  0.00    -0.200 F 
ATOM     82  F   UNL A   1      35.154  31.776  27.603  1.00  0.00    -0.200 F 
ENDBRANCH  58  72
BRANCH  59  83
ATOM     83  C   UNL A   1      46.316  29.582  36.855  1.00  0.00     0.064 A 
ATOM     84  C   UNL A   1      46.475  28.806  38.010  1.00  0.00     0.173 A 
ATOM     85  C   UNL A   1      47.398  30.396  36.478  1.00  0.00     0.173 A 
ATOM     86  F   UNL A   1      45.466  28.026  38.427  1.00  0.00    -0.203 F 
ATOM     87  C   UNL A   1      47.649  28.839  38.763  1.00  0.00     0.198 A 
ATOM     88  C   UNL A   1      48.586  30.412  37.222  1.00  0.00     0.198 A 
ATOM     89  F   UNL A   1      47.320  31.175  35.391  1.00  0.00    -0.203 F 
ATOM     90  F   UNL A   1      47.742  28.104  39.880  1.00  0.00    -0.200 F 
ATOM     91  C   UNL A   1      48.708  29.637  38.367  1.00  0.00     0.200 A 
ATOM     92  F   UNL A   1      49.617  31.181  36.835  1.00  0.00    -0.200 F 
ATOM     93  F   UNL A   1      49.836  29.665  39.090  1.00  0.00    -0.200 F 
ENDBRANCH  59  83
BRANCH  71  94
ATOM     94  C   UNL A   1      40.460  33.773  36.813  1.00  0.00     0.064 A 
ATOM     95  C   UNL A   1      40.795  35.131  36.903  1.00  0.00     0.173 A 
ATOM     96  C   UNL A   1      39.500  33.266  37.697  1.00  0.00     0.173 A 
ATOM     97  F   UNL A   1      41.747  35.654  36.115  1.00  0.00    -0.203 F 
ATOM     98  C   UNL A   1      40.155  35.957  37.825  1.00  0.00     0.198 A 
ATOM     99  C   UNL A   1      38.834  34.100  38.582  1.00  0.00     0.198 A 
ATOM    100  F   UNL A   1      39.196  31.960  37.683  1.00  0.00    -0.203 F 
ATOM    101  F   UNL A   1      40.498  37.250  37.922  1.00  0.00    -0.200 F 
ATOM    102  C   UNL A   1      39.160  35.444  38.648  1.00  0.00     0.200 A 
ATOM    103  F   UNL A   1      37.872  33.597  39.367  1.00  0.00    -0.200 F 
ATOM    104  F   UNL A   1      38.523  36.242  39.514  1.00  0.00    -0.200 F 
ENDBRANCH  71  94
ENDBRANCH  45  46
ENDBRANCH  38  40
ENDBRANCH  37  38
ENDBRANCH  36  37
ENDBRANCH  35  36
ENDBRANCH  34  35
ENDBRANCH  33  34
ENDBRANCH   1  33
TORSDOF 20
ENDMDL
MODEL 3
REMARK VINA RESULT:     -10.8      3.878      7.319
REMARK SMILES O=C(OCCOCCOCCOC(=O)c1ccc(-c2c3nc(c(-c4c(F)c(F)c(F)c(F)c4F)c4ccc([nH]4)c(-c4c(F)c(F)c(F)c(F)c4F)c4nc(c(-c5c(F)c(F)c(F)c(F)c5F)c5ccc2[nH]5)C=C4)C=C3)cc1)c1ccc(-c2ccc(/C=C3/SC(=S)N(c4ccccc4)C3=O)o2)cc1
REMARK SMILES IDX 7 1 6 2 5 3 4 4 3 5 2 6 1 7 78 8 79 9 102 10 80 11 101 12
REMARK SMILES IDX 81 13 82 14 83 15 100 16 84 17 85 18 86 19 87 20 88 21 98 22
REMARK SMILES IDX 89 23 91 24 99 25 90 26 92 27 93 28 97 29 94 30 96 31 95 32
REMARK SMILES IDX 8 33 9 34 10 35 11 36 12 37 13 38 14 39 15 40 16 41 77 42
REMARK SMILES IDX 17 43 76 44 18 45 19 46 20 47 70 48 21 49 75 50 69 51 71 52
REMARK SMILES IDX 22 53 74 54 68 55 67 56 23 58 55 59 35 60 54 61 36 62 39 63
REMARK SMILES IDX 53 64 72 65 37 66 38 67 52 69 73 70 40 71 24 72 25 73 33 74
REMARK SMILES IDX 26 75 27 76 31 77 34 78 28 79 29 80 32 81 30 82 56 83 57 84
REMARK SMILES IDX 65 85 58 86 59 87 63 88 66 89 60 90 61 91 64 92 62 93 41 94
REMARK SMILES IDX 42 95 50 96 43 97 44 98 48 99 51 100 45 101 46 102 49 103
REMARK SMILES IDX 47 104
REMARK H PARENT 71 57 39 68
REMARK Flexibility Score: inf
ROOT
ATOM      1  C   UNL A   1      43.842  18.605  25.053  1.00  0.00     0.188 C 
ENDROOT
BRANCH   1   2
ATOM      2  O   UNL A   1      45.262  18.566  25.238  1.00  0.00    -0.376 OA
BRANCH   2   3
ATOM      3  C   UNL A   1      45.900  19.838  25.129  1.00  0.00     0.202 C 
BRANCH   3   4
ATOM      4  C   UNL A   1      45.038  20.947  24.519  1.00  0.00     0.261 C 
BRANCH   4   5
ATOM      5  O   UNL A   1      44.642  21.940  25.477  1.00  0.00    -0.460 OA
BRANCH   5   6
ATOM      6  C   UNL A   1      44.233  23.201  25.188  1.00  0.00     0.338 C 
ATOM      7  O   UNL A   1      43.217  23.390  24.528  1.00  0.00    -0.246 OA
BRANCH   6   8
ATOM      8  C   UNL A   1      44.946  24.379  25.740  1.00  0.00     0.060 A 
ATOM      9  C   UNL A   1      44.471  25.110  26.830  1.00  0.00     0.016 A 
ATOM     10  C   UNL A   1      46.210  24.674  25.218  1.00  0.00     0.016 A 
ATOM     11  C   UNL A   1      45.219  26.174  27.346  1.00  0.00     0.013 A 
ATOM     12  C   UNL A   1      46.962  25.734  25.744  1.00  0.00     0.013 A 
ATOM     13  C   UNL A   1      46.466  26.508  26.803  1.00  0.00     0.017 A 
BRANCH  13  14
ATOM     14  C   UNL A   1      47.212  27.650  27.312  1.00  0.00     0.134 A 
ATOM     15  C   UNL A   1      48.194  27.803  28.264  1.00  0.00     0.051 A 
ATOM     16  O   UNL A   1      46.956  28.855  26.727  1.00  0.00    -0.457 OA
ATOM     17  C   UNL A   1      48.543  29.174  28.263  1.00  0.00     0.051 A 
ATOM     18  C   UNL A   1      47.761  29.808  27.313  1.00  0.00     0.128 A 
BRANCH  18  19
ATOM     19  C   UNL A   1      47.771  31.173  26.935  1.00  0.00     0.068 C 
ATOM     20  C   UNL A   1      46.940  32.075  27.449  1.00  0.00     0.084 C 
ATOM     21  S   UNL A   1      46.898  33.720  26.940  1.00  0.00    -0.054 SA
ATOM     22  C   UNL A   1      45.964  31.818  28.521  1.00  0.00     0.270 C 
ATOM     23  C   UNL A   1      45.640  34.144  28.081  1.00  0.00     0.152 C 
ATOM     24  N   UNL A   1      45.292  33.000  28.785  1.00  0.00    -0.261 N 
ATOM     25  O   UNL A   1      45.787  30.732  29.037  1.00  0.00    -0.268 OA
ATOM     26  S   UNL A   1      45.129  35.739  28.233  1.00  0.00    -0.051 S 
BRANCH  24  27
ATOM     27  C   UNL A   1      44.257  32.939  29.693  1.00  0.00     0.051 A 
ATOM     28  C   UNL A   1      44.454  32.788  31.036  1.00  0.00     0.027 A 
ATOM     29  C   UNL A   1      42.994  32.949  29.231  1.00  0.00     0.027 A 
ATOM     30  C   UNL A   1      43.335  32.680  31.842  1.00  0.00     0.002 A 
ATOM     31  C   UNL A   1      42.014  32.959  30.148  1.00  0.00     0.002 A 
ATOM     32  C   UNL A   1      42.080  32.840  31.487  1.00  0.00     0.000 A 
ENDBRANCH  24  27
ENDBRANCH  18  19
ENDBRANCH  13  14
ENDBRANCH   6   8
ENDBRANCH   5   6
ENDBRANCH   4   5
ENDBRANCH   3   4
ENDBRANCH   2   3
ENDBRANCH   1   2
BRANCH   1  33
ATOM     33  C   UNL A   1      43.120  18.314  26.373  1.00  0.00     0.188 C 
BRANCH  33  34
ATOM     34  O   UNL A   1      42.388  19.419  26.905  1.00  0.00    -0.376 OA
BRANCH  34  35
ATOM     35  C   UNL A   1      41.211  19.804  26.193  1.00  0.00     0.202 C 
BRANCH  35  36
ATOM     36  C   UNL A   1      40.477  21.031  26.752  1.00  0.00     0.261 C 
BRANCH  36  37
ATOM     37  O   UNL A   1      40.608  22.211  25.920  1.00  0.00    -0.460 OA
BRANCH  37  38
ATOM     38  C   UNL A   1      39.822  23.256  26.288  1.00  0.00     0.338 C 
ATOM     39  O   UNL A   1      38.613  23.330  26.168  1.00  0.00    -0.246 OA
BRANCH  38  40
ATOM     40  C   UNL A   1      40.594  24.386  26.872  1.00  0.00     0.060 A 
ATOM     41  C   UNL A   1      40.865  24.426  28.242  1.00  0.00     0.016 A 
ATOM     42  C   UNL A   1      40.786  25.544  26.110  1.00  0.00     0.016 A 
ATOM     43  C   UNL A   1      41.225  25.642  28.860  1.00  0.00     0.010 A 
ATOM     44  C   UNL A   1      41.176  26.755  26.729  1.00  0.00     0.010 A 
ATOM     45  C   UNL A   1      41.318  26.842  28.131  1.00  0.00    -0.014 A 
BRANCH  45  46
ATOM     46  C   UNL A   1      41.387  28.174  28.900  1.00  0.00     0.031 A 
ATOM     47  C   UNL A   1      42.550  28.115  30.148  1.00  0.00     0.074 A 
ATOM     48  C   UNL A   1      40.449  29.148  28.520  1.00  0.00     0.049 A 
ATOM     49  N   UNL A   1      42.998  29.013  31.023  1.00  0.00    -0.248 NA
ATOM     50  C   UNL A   1      43.158  26.787  30.481  1.00  0.00     0.031 C 
ATOM     51  C   UNL A   1      39.241  28.902  27.679  1.00  0.00     0.029 A 
ATOM     52  N   UNL A   1      40.183  30.494  28.879  1.00  0.00    -0.354 N 
ATOM     53  C   UNL A   1      43.603  28.350  32.152  1.00  0.00     0.074 A 
ATOM     54  C   UNL A   1      43.787  26.974  31.654  1.00  0.00     0.031 C 
ATOM     55  C   UNL A   1      38.320  29.901  27.824  1.00  0.00     0.029 A 
ATOM     56  C   UNL A   1      38.791  30.904  28.818  1.00  0.00     0.049 A 
ATOM     57  H   UNL A   1      40.899  31.114  29.152  1.00  0.00     0.167 HD
ATOM     58  C   UNL A   1      43.638  28.689  33.541  1.00  0.00     0.037 A 
ATOM     59  C   UNL A   1      37.932  31.716  29.629  1.00  0.00     0.037 A 
ATOM     60  C   UNL A   1      42.886  29.885  34.237  1.00  0.00     0.049 A 
ATOM     61  C   UNL A   1      38.136  32.324  31.253  1.00  0.00     0.074 A 
ATOM     62  C   UNL A   1      43.371  30.882  35.061  1.00  0.00     0.029 A 
ATOM     63  N   UNL A   1      41.435  30.098  34.522  1.00  0.00    -0.354 N 
ATOM     64  N   UNL A   1      38.567  31.670  32.329  1.00  0.00    -0.248 NA
ATOM     65  C   UNL A   1      37.799  33.686  31.677  1.00  0.00     0.031 C 
ATOM     66  C   UNL A   1      42.325  31.843  35.275  1.00  0.00     0.029 A 
ATOM     67  C   UNL A   1      41.126  31.479  34.630  1.00  0.00     0.049 A 
ATOM     68  H   UNL A   1      40.777  29.373  34.621  1.00  0.00     0.167 HD
ATOM     69  C   UNL A   1      38.915  32.477  33.377  1.00  0.00     0.074 A 
ATOM     70  C   UNL A   1      38.212  33.712  32.967  1.00  0.00     0.031 C 
ATOM     71  C   UNL A   1      39.825  32.319  34.434  1.00  0.00     0.037 A 
BRANCH  58  72
ATOM     72  C   UNL A   1      44.588  27.853  34.396  1.00  0.00     0.064 A 
ATOM     73  C   UNL A   1      44.025  26.812  35.159  1.00  0.00     0.173 A 
ATOM     74  C   UNL A   1      45.993  27.938  34.396  1.00  0.00     0.173 A 
ATOM     75  F   UNL A   1      42.693  26.671  35.217  1.00  0.00    -0.203 F 
ATOM     76  C   UNL A   1      44.804  25.887  35.849  1.00  0.00     0.198 A 
ATOM     77  C   UNL A   1      46.780  26.998  35.085  1.00  0.00     0.198 A 
ATOM     78  F   UNL A   1      46.619  28.925  33.735  1.00  0.00    -0.203 F 
ATOM     79  F   UNL A   1      44.210  24.903  36.538  1.00  0.00    -0.200 F 
ATOM     80  C   UNL A   1      46.183  25.966  35.798  1.00  0.00     0.200 A 
ATOM     81  F   UNL A   1      48.120  27.069  35.040  1.00  0.00    -0.200 F 
ATOM     82  F   UNL A   1      46.930  25.044  36.422  1.00  0.00    -0.200 F 
ENDBRANCH  58  72
BRANCH  59  83
ATOM     83  C   UNL A   1      36.574  32.056  29.079  1.00  0.00     0.064 A 
ATOM     84  C   UNL A   1      36.351  33.384  28.688  1.00  0.00     0.173 A 
ATOM     85  C   UNL A   1      35.507  31.156  28.919  1.00  0.00     0.173 A 
ATOM     86  F   UNL A   1      37.328  34.289  28.838  1.00  0.00    -0.203 F 
ATOM     87  C   UNL A   1      35.126  33.802  28.170  1.00  0.00     0.198 A 
ATOM     88  C   UNL A   1      34.283  31.572  28.377  1.00  0.00     0.198 A 
ATOM     89  F   UNL A   1      35.638  29.872  29.279  1.00  0.00    -0.203 F 
ATOM     90  F   UNL A   1      34.949  35.090  27.842  1.00  0.00    -0.200 F 
ATOM     91  C   UNL A   1      34.092  32.896  28.008  1.00  0.00     0.200 A 
ATOM     92  F   UNL A   1      33.281  30.692  28.214  1.00  0.00    -0.200 F 
ATOM     93  F   UNL A   1      32.916  33.300  27.507  1.00  0.00    -0.200 F 
ENDBRANCH  59  83
BRANCH  71  94
ATOM     94  C   UNL A   1      39.675  33.432  35.431  1.00  0.00     0.064 A 
ATOM     95  C   UNL A   1      38.905  33.289  36.593  1.00  0.00     0.173 A 
ATOM     96  C   UNL A   1      40.335  34.649  35.218  1.00  0.00     0.173 A 
ATOM     97  F   UNL A   1      38.211  32.163  36.818  1.00  0.00    -0.203 F 
ATOM     98  C   UNL A   1      38.835  34.321  37.527  1.00  0.00     0.198 A 
ATOM     99  C   UNL A   1      40.299  35.657  36.170  1.00  0.00     0.198 A 
ATOM    100  F   UNL A   1      41.032  34.848  34.090  1.00  0.00    -0.203 F 
ATOM    101  F   UNL A   1      38.077  34.186  38.624  1.00  0.00    -0.200 F 
ATOM    102  C   UNL A   1      39.550  35.495  37.323  1.00  0.00     0.200 A 
ATOM    103  F   UNL A   1      40.997  36.782  35.967  1.00  0.00    -0.200 F 
ATOM    104  F   UNL A   1      39.507  36.477  38.233  1.00  0.00    -0.200 F 
ENDBRANCH  71  94
ENDBRANCH  45  46
ENDBRANCH  38  40
ENDBRANCH  37  38
ENDBRANCH  36  37
ENDBRANCH  35  36
ENDBRANCH  34  35
ENDBRANCH  33  34
ENDBRANCH   1  33
TORSDOF 20
ENDMDL
