MODEL 1
REMARK VINA RESULT:     -11.4      0.000      0.000
REMARK SMILES O=C(CCN1C(=O)/C(=C\c2ccc(-c3cccc(Cl)c3)o2)SC1=S)OCCOCCOCCOC(=O)c1ccc(-c2c3nc(c(-c4c(F)c(F)c(F)c(F)c4F)c4ccc([nH]4)c(-c4c(F)c(F)c(F)c(F)c4F)c4nc(c(-c5c(F)c(F)c(F)c(F)c5F)c5ccc2[nH]5)C=C4)C=C3)cc1
REMARK SMILES IDX 29 1 28 2 27 3 26 4 25 5 2 6 1 7 3 8 4 9 5 10 6 11 23 12
REMARK SMILES IDX 7 13 8 14 22 15 24 16 9 17 10 18 11 19 21 20 12 21 13 22
REMARK SMILES IDX 14 23 15 24 20 25 16 26 18 27 17 28 19 29 30 30 31 31 32 32
REMARK SMILES IDX 33 33 34 34 35 35 36 36 37 37 38 38 99 39 39 40 98 41 40 42
REMARK SMILES IDX 41 43 42 44 92 45 43 46 97 47 91 48 93 49 44 50 96 51 90 52
REMARK SMILES IDX 89 53 45 55 77 56 57 57 76 58 58 59 61 60 75 61 94 62 59 63
REMARK SMILES IDX 60 64 74 66 95 67 62 68 46 69 47 70 55 71 48 72 49 73 53 74
REMARK SMILES IDX 56 75 50 76 51 77 54 78 52 79 78 80 79 81 87 82 80 83 81 84
REMARK SMILES IDX 85 85 88 86 82 87 83 88 86 89 84 90 63 91 64 92 72 93 65 94
REMARK SMILES IDX 66 95 70 96 73 97 67 98 68 99 71 100 69 101
REMARK H PARENT 93 54 61 65
REMARK Flexibility Score: inf
ROOT
ATOM      1  C   UNL A   1      31.599  27.609  26.583  1.00  0.00     0.188 C 
ENDROOT
BRANCH   1   2
ATOM      2  O   UNL A   1      30.759  26.514  26.906  1.00  0.00    -0.376 OA
BRANCH   2   3
ATOM      3  C   UNL A   1      30.213  25.744  25.844  1.00  0.00     0.202 C 
BRANCH   3   4
ATOM      4  C   UNL A   1      29.723  26.475  24.593  1.00  0.00     0.261 C 
BRANCH   4   5
ATOM      5  O   UNL A   1      30.209  26.086  23.285  1.00  0.00    -0.463 OA
BRANCH   5   6
ATOM      6  C   UNL A   1      30.828  26.750  22.296  1.00  0.00     0.307 C 
ATOM      7  O   UNL A   1      30.738  27.977  22.244  1.00  0.00    -0.252 OA
BRANCH   6   8
ATOM      8  C   UNL A   1      31.660  26.023  21.288  1.00  0.00     0.144 C 
BRANCH   8   9
ATOM      9  C   UNL A   1      33.150  26.155  21.578  1.00  0.00     0.139 C 
BRANCH   9  10
ATOM     10  N   UNL A   1      33.506  25.661  22.914  1.00  0.00    -0.292 N 
ATOM     11  C   UNL A   1      33.462  24.292  23.136  1.00  0.00     0.266 C 
ATOM     12  C   UNL A   1      33.859  26.452  23.987  1.00  0.00     0.148 C 
ATOM     13  O   UNL A   1      33.281  23.458  22.262  1.00  0.00    -0.268 OA
ATOM     14  C   UNL A   1      33.574  24.000  24.596  1.00  0.00     0.084 C 
ATOM     15  S   UNL A   1      34.041  25.448  25.421  1.00  0.00    -0.054 SA
ATOM     16  S   UNL A   1      34.071  28.103  24.031  1.00  0.00    -0.052 S 
ATOM     17  C   UNL A   1      33.265  22.872  25.255  1.00  0.00     0.068 C 
BRANCH  17  18
ATOM     18  C   UNL A   1      32.920  21.634  24.646  1.00  0.00     0.128 A 
ATOM     19  C   UNL A   1      32.304  21.405  23.422  1.00  0.00     0.051 A 
ATOM     20  O   UNL A   1      33.271  20.399  25.169  1.00  0.00    -0.457 OA
ATOM     21  C   UNL A   1      32.280  20.017  23.191  1.00  0.00     0.051 A 
ATOM     22  C   UNL A   1      32.884  19.438  24.281  1.00  0.00     0.134 A 
BRANCH  22  23
ATOM     23  C   UNL A   1      33.192  18.051  24.590  1.00  0.00     0.019 A 
ATOM     24  C   UNL A   1      32.140  17.134  24.751  1.00  0.00     0.012 A 
ATOM     25  C   UNL A   1      34.502  17.633  24.847  1.00  0.00     0.032 A 
ATOM     26  C   UNL A   1      32.386  15.830  25.182  1.00  0.00     0.002 A 
ATOM     27  C   UNL A   1      34.740  16.329  25.289  1.00  0.00     0.041 A 
ATOM     28  C   UNL A   1      33.689  15.429  25.463  1.00  0.00     0.020 A 
ATOM     29  Cl  UNL A   1      36.348  15.838  25.665  1.00  0.00    -0.084 Cl
ENDBRANCH  22  23
ENDBRANCH  17  18
ENDBRANCH   9  10
ENDBRANCH   8   9
ENDBRANCH   6   8
ENDBRANCH   5   6
ENDBRANCH   4   5
ENDBRANCH   3   4
ENDBRANCH   2   3
ENDBRANCH   1   2
BRANCH   1  30
ATOM     30  C   UNL A   1      31.505  28.879  27.433  1.00  0.00     0.188 C 
BRANCH  30  31
ATOM     31  O   UNL A   1      32.381  29.921  27.020  1.00  0.00    -0.376 OA
BRANCH  31  32
ATOM     32  C   UNL A   1      31.736  30.955  26.276  1.00  0.00     0.202 C 
BRANCH  32  33
ATOM     33  C   UNL A   1      31.955  32.367  26.840  1.00  0.00     0.261 C 
BRANCH  33  34
ATOM     34  O   UNL A   1      32.826  32.463  27.980  1.00  0.00    -0.460 OA
BRANCH  34  35
ATOM     35  C   UNL A   1      33.846  33.344  27.899  1.00  0.00     0.338 C 
ATOM     36  O   UNL A   1      33.769  34.535  27.660  1.00  0.00    -0.246 OA
BRANCH  35  37
ATOM     37  C   UNL A   1      35.098  32.660  28.291  1.00  0.00     0.060 A 
ATOM     38  C   UNL A   1      35.047  31.301  28.618  1.00  0.00     0.016 A 
ATOM     39  C   UNL A   1      36.304  33.360  28.382  1.00  0.00     0.016 A 
ATOM     40  C   UNL A   1      36.202  30.637  29.040  1.00  0.00     0.010 A 
ATOM     41  C   UNL A   1      37.456  32.701  28.835  1.00  0.00     0.010 A 
ATOM     42  C   UNL A   1      37.406  31.341  29.187  1.00  0.00    -0.014 A 
BRANCH  42  43
ATOM     43  C   UNL A   1      38.550  30.688  29.877  1.00  0.00     0.031 A 
ATOM     44  C   UNL A   1      38.832  31.055  31.309  1.00  0.00     0.074 A 
ATOM     45  C   UNL A   1      39.297  29.748  29.269  1.00  0.00     0.049 A 
ATOM     46  N   UNL A   1      39.745  30.589  32.125  1.00  0.00    -0.248 NA
ATOM     47  C   UNL A   1      37.964  32.083  31.903  1.00  0.00     0.031 C 
ATOM     48  C   UNL A   1      39.116  29.281  27.897  1.00  0.00     0.029 A 
ATOM     49  N   UNL A   1      40.364  29.019  29.737  1.00  0.00    -0.354 N 
ATOM     50  C   UNL A   1      39.546  31.249  33.330  1.00  0.00     0.074 A 
ATOM     51  C   UNL A   1      38.455  32.179  33.129  1.00  0.00     0.031 C 
ATOM     52  C   UNL A   1      40.049  28.349  27.628  1.00  0.00     0.029 A 
ATOM     53  C   UNL A   1      40.902  28.167  28.802  1.00  0.00     0.049 A 
ATOM     54  H   UNL A   1      40.709  29.099  30.654  1.00  0.00     0.167 HD
ATOM     55  C   UNL A   1      40.200  31.086  34.505  1.00  0.00     0.037 A 
ATOM     56  C   UNL A   1      41.967  27.345  28.886  1.00  0.00     0.037 A 
ATOM     57  C   UNL A   1      41.302  30.183  34.708  1.00  0.00     0.049 A 
ATOM     58  C   UNL A   1      42.729  27.240  30.185  1.00  0.00     0.074 A 
ATOM     59  C   UNL A   1      42.032  29.957  35.862  1.00  0.00     0.029 A 
ATOM     60  N   UNL A   1      41.840  29.362  33.728  1.00  0.00    -0.354 N 
ATOM     61  N   UNL A   1      42.508  27.841  31.330  1.00  0.00    -0.248 NA
ATOM     62  C   UNL A   1      43.886  26.331  30.205  1.00  0.00     0.031 C 
ATOM     63  C   UNL A   1      43.040  29.032  35.570  1.00  0.00     0.029 A 
ATOM     64  C   UNL A   1      42.905  28.644  34.247  1.00  0.00     0.049 A 
ATOM     65  H   UNL A   1      41.513  29.299  32.802  1.00  0.00     0.167 HD
ATOM     66  C   UNL A   1      43.475  27.363  32.207  1.00  0.00     0.074 A 
ATOM     67  C   UNL A   1      44.272  26.406  31.470  1.00  0.00     0.031 C 
ATOM     68  C   UNL A   1      43.689  27.690  33.506  1.00  0.00     0.037 A 
BRANCH  55  69
ATOM     69  C   UNL A   1      39.746  31.915  35.668  1.00  0.00     0.064 A 
ATOM     70  C   UNL A   1      40.338  33.154  35.957  1.00  0.00     0.173 A 
ATOM     71  C   UNL A   1      38.676  31.494  36.471  1.00  0.00     0.173 A 
ATOM     72  F   UNL A   1      41.374  33.594  35.228  1.00  0.00    -0.203 F 
ATOM     73  C   UNL A   1      39.885  33.933  37.018  1.00  0.00     0.198 A 
ATOM     74  C   UNL A   1      38.208  32.288  37.515  1.00  0.00     0.198 A 
ATOM     75  F   UNL A   1      38.074  30.319  36.234  1.00  0.00    -0.203 F 
ATOM     76  F   UNL A   1      40.488  35.097  37.298  1.00  0.00    -0.200 F 
ATOM     77  C   UNL A   1      38.816  33.504  37.790  1.00  0.00     0.200 A 
ATOM     78  F   UNL A   1      37.168  31.877  38.253  1.00  0.00    -0.200 F 
ATOM     79  F   UNL A   1      38.373  34.261  38.804  1.00  0.00    -0.200 F 
ENDBRANCH  55  69
BRANCH  56  80
ATOM     80  C   UNL A   1      42.404  26.557  27.701  1.00  0.00     0.064 A 
ATOM     81  C   UNL A   1      41.955  25.246  27.491  1.00  0.00     0.173 A 
ATOM     82  C   UNL A   1      43.332  27.081  26.789  1.00  0.00     0.173 A 
ATOM     83  F   UNL A   1      41.092  24.688  28.354  1.00  0.00    -0.203 F 
ATOM     84  C   UNL A   1      42.439  24.478  26.434  1.00  0.00     0.198 A 
ATOM     85  C   UNL A   1      43.792  26.323  25.714  1.00  0.00     0.198 A 
ATOM     86  F   UNL A   1      43.801  28.327  26.948  1.00  0.00    -0.203 F 
ATOM     87  F   UNL A   1      42.044  23.206  26.296  1.00  0.00    -0.200 F 
ATOM     88  C   UNL A   1      43.355  25.019  25.544  1.00  0.00     0.200 A 
ATOM     89  F   UNL A   1      44.673  26.852  24.852  1.00  0.00    -0.200 F 
ATOM     90  F   UNL A   1      43.828  24.277  24.533  1.00  0.00    -0.200 F 
ENDBRANCH  56  80
BRANCH  68  91
ATOM     91  C   UNL A   1      44.808  26.987  34.221  1.00  0.00     0.064 A 
ATOM     92  C   UNL A   1      46.101  27.528  34.277  1.00  0.00     0.173 A 
ATOM     93  C   UNL A   1      44.579  25.767  34.876  1.00  0.00     0.173 A 
ATOM     94  F   UNL A   1      46.377  28.686  33.658  1.00  0.00    -0.203 F 
ATOM     95  C   UNL A   1      47.131  26.856  34.932  1.00  0.00     0.198 A 
ATOM     96  C   UNL A   1      45.604  25.114  35.556  1.00  0.00     0.198 A 
ATOM     97  F   UNL A   1      43.359  25.210  34.863  1.00  0.00    -0.203 F 
ATOM     98  F   UNL A   1      48.372  27.364  34.923  1.00  0.00    -0.200 F 
ATOM     99  C   UNL A   1      46.881  25.653  35.574  1.00  0.00     0.200 A 
ATOM    100  F   UNL A   1      45.357  23.959  36.189  1.00  0.00    -0.200 F 
ATOM    101  F   UNL A   1      47.874  25.008  36.203  1.00  0.00    -0.200 F 
ENDBRANCH  68  91
ENDBRANCH  42  43
ENDBRANCH  35  37
ENDBRANCH  34  35
ENDBRANCH  33  34
ENDBRANCH  32  33
ENDBRANCH  31  32
ENDBRANCH  30  31
ENDBRANCH   1  30
TORSDOF 21
ENDMDL
MODEL 2
REMARK VINA RESULT:     -11.1      3.939      5.623
REMARK SMILES O=C(CCN1C(=O)/C(=C\c2ccc(-c3cccc(Cl)c3)o2)SC1=S)OCCOCCOCCOC(=O)c1ccc(-c2c3nc(c(-c4c(F)c(F)c(F)c(F)c4F)c4ccc([nH]4)c(-c4c(F)c(F)c(F)c(F)c4F)c4nc(c(-c5c(F)c(F)c(F)c(F)c5F)c5ccc2[nH]5)C=C4)C=C3)cc1
REMARK SMILES IDX 29 1 28 2 27 3 26 4 25 5 2 6 1 7 3 8 4 9 5 10 6 11 23 12
REMARK SMILES IDX 7 13 8 14 22 15 24 16 9 17 10 18 11 19 21 20 12 21 13 22
REMARK SMILES IDX 14 23 15 24 20 25 16 26 18 27 17 28 19 29 30 30 31 31 32 32
REMARK SMILES IDX 33 33 34 34 35 35 36 36 37 37 38 38 99 39 39 40 98 41 40 42
REMARK SMILES IDX 41 43 42 44 92 45 43 46 97 47 91 48 93 49 44 50 96 51 90 52
REMARK SMILES IDX 89 53 45 55 77 56 57 57 76 58 58 59 61 60 75 61 94 62 59 63
REMARK SMILES IDX 60 64 74 66 95 67 62 68 46 69 47 70 55 71 48 72 49 73 53 74
REMARK SMILES IDX 56 75 50 76 51 77 54 78 52 79 78 80 79 81 87 82 80 83 81 84
REMARK SMILES IDX 85 85 88 86 82 87 83 88 86 89 84 90 63 91 64 92 72 93 65 94
REMARK SMILES IDX 66 95 70 96 73 97 67 98 68 99 71 100 69 101
REMARK H PARENT 93 54 61 65
REMARK Flexibility Score: inf
ROOT
ATOM      1  C   UNL A   1      32.668  31.271  27.207  1.00  0.00     0.188 C 
ENDROOT
BRANCH   1   2
ATOM      2  O   UNL A   1      31.990  30.031  27.092  1.00  0.00    -0.376 OA
BRANCH   2   3
ATOM      3  C   UNL A   1      32.187  29.259  25.916  1.00  0.00     0.202 C 
BRANCH   3   4
ATOM      4  C   UNL A   1      33.617  28.892  25.518  1.00  0.00     0.261 C 
BRANCH   4   5
ATOM      5  O   UNL A   1      33.860  28.074  24.348  1.00  0.00    -0.463 OA
BRANCH   5   6
ATOM      6  C   UNL A   1      33.752  28.296  23.029  1.00  0.00     0.307 C 
ATOM      7  O   UNL A   1      34.752  28.610  22.385  1.00  0.00    -0.252 OA
BRANCH   6   8
ATOM      8  C   UNL A   1      32.442  28.121  22.328  1.00  0.00     0.144 C 
BRANCH   8   9
ATOM      9  C   UNL A   1      32.031  26.657  22.244  1.00  0.00     0.139 C 
BRANCH   9  10
ATOM     10  N   UNL A   1      31.334  26.202  23.454  1.00  0.00    -0.292 N 
ATOM     11  C   UNL A   1      31.881  25.143  24.164  1.00  0.00     0.266 C 
ATOM     12  C   UNL A   1      30.153  26.726  23.936  1.00  0.00     0.148 C 
ATOM     13  O   UNL A   1      32.975  24.650  23.931  1.00  0.00    -0.268 OA
ATOM     14  C   UNL A   1      30.909  24.641  25.179  1.00  0.00     0.084 C 
ATOM     15  S   UNL A   1      29.604  25.771  25.308  1.00  0.00    -0.054 SA
ATOM     16  S   UNL A   1      29.289  28.030  23.364  1.00  0.00    -0.052 S 
ATOM     17  C   UNL A   1      30.905  23.470  25.835  1.00  0.00     0.068 C 
BRANCH  17  18
ATOM     18  C   UNL A   1      31.960  22.515  25.816  1.00  0.00     0.128 A 
ATOM     19  C   UNL A   1      33.051  22.403  26.669  1.00  0.00     0.051 A 
ATOM     20  O   UNL A   1      31.991  21.427  24.960  1.00  0.00    -0.457 OA
ATOM     21  C   UNL A   1      33.756  21.232  26.333  1.00  0.00     0.051 A 
ATOM     22  C   UNL A   1      33.073  20.662  25.285  1.00  0.00     0.134 A 
BRANCH  22  23
ATOM     23  C   UNL A   1      33.291  19.427  24.550  1.00  0.00     0.019 A 
ATOM     24  C   UNL A   1      32.560  19.192  23.373  1.00  0.00     0.012 A 
ATOM     25  C   UNL A   1      34.121  18.417  25.046  1.00  0.00     0.032 A 
ATOM     26  C   UNL A   1      32.637  17.965  22.714  1.00  0.00     0.002 A 
ATOM     27  C   UNL A   1      34.185  17.186  24.389  1.00  0.00     0.041 A 
ATOM     28  C   UNL A   1      33.444  16.953  23.230  1.00  0.00     0.020 A 
ATOM     29  Cl  UNL A   1      35.160  15.923  25.038  1.00  0.00    -0.084 Cl
ENDBRANCH  22  23
ENDBRANCH  17  18
ENDBRANCH   9  10
ENDBRANCH   8   9
ENDBRANCH   6   8
ENDBRANCH   5   6
ENDBRANCH   4   5
ENDBRANCH   3   4
ENDBRANCH   2   3
ENDBRANCH   1   2
BRANCH   1  30
ATOM     30  C   UNL A   1      31.892  32.559  26.917  1.00  0.00     0.188 C 
BRANCH  30  31
ATOM     31  O   UNL A   1      32.336  33.685  27.664  1.00  0.00    -0.376 OA
BRANCH  31  32
ATOM     32  C   UNL A   1      33.614  33.504  28.274  1.00  0.00     0.202 C 
BRANCH  32  33
ATOM     33  C   UNL A   1      33.767  34.201  29.635  1.00  0.00     0.261 C 
BRANCH  33  34
ATOM     34  O   UNL A   1      35.031  34.022  30.297  1.00  0.00    -0.460 OA
BRANCH  34  35
ATOM     35  C   UNL A   1      35.209  32.868  30.975  1.00  0.00     0.338 C 
ATOM     36  O   UNL A   1      34.367  32.245  31.596  1.00  0.00    -0.246 OA
BRANCH  35  37
ATOM     37  C   UNL A   1      36.584  32.379  30.730  1.00  0.00     0.060 A 
ATOM     38  C   UNL A   1      37.175  32.631  29.487  1.00  0.00     0.016 A 
ATOM     39  C   UNL A   1      37.269  31.638  31.697  1.00  0.00     0.016 A 
ATOM     40  C   UNL A   1      38.453  32.140  29.206  1.00  0.00     0.010 A 
ATOM     41  C   UNL A   1      38.539  31.121  31.403  1.00  0.00     0.010 A 
ATOM     42  C   UNL A   1      39.128  31.350  30.148  1.00  0.00    -0.014 A 
BRANCH  42  43
ATOM     43  C   UNL A   1      40.362  30.629  29.739  1.00  0.00     0.031 A 
ATOM     44  C   UNL A   1      41.680  31.352  29.818  1.00  0.00     0.074 A 
ATOM     45  C   UNL A   1      40.330  29.340  29.354  1.00  0.00     0.049 A 
ATOM     46  N   UNL A   1      42.887  30.918  29.555  1.00  0.00    -0.248 NA
ATOM     47  C   UNL A   1      41.628  32.756  30.257  1.00  0.00     0.031 C 
ATOM     48  C   UNL A   1      39.130  28.515  29.258  1.00  0.00     0.029 A 
ATOM     49  N   UNL A   1      41.349  28.501  28.969  1.00  0.00    -0.354 N 
ATOM     50  C   UNL A   1      43.737  31.984  29.818  1.00  0.00     0.074 A 
ATOM     51  C   UNL A   1      42.906  33.099  30.220  1.00  0.00     0.031 C 
ATOM     52  C   UNL A   1      39.477  27.288  28.829  1.00  0.00     0.029 A 
ATOM     53  C   UNL A   1      40.922  27.246  28.605  1.00  0.00     0.049 A 
ATOM     54  H   UNL A   1      42.294  28.773  28.955  1.00  0.00     0.167 HD
ATOM     55  C   UNL A   1      45.089  32.028  29.749  1.00  0.00     0.037 A 
ATOM     56  C   UNL A   1      41.620  26.192  28.135  1.00  0.00     0.037 A 
ATOM     57  C   UNL A   1      45.921  30.933  29.327  1.00  0.00     0.049 A 
ATOM     58  C   UNL A   1      43.120  26.293  27.992  1.00  0.00     0.074 A 
ATOM     59  C   UNL A   1      47.300  30.888  29.217  1.00  0.00     0.029 A 
ATOM     60  N   UNL A   1      45.450  29.689  28.934  1.00  0.00    -0.354 N 
ATOM     61  N   UNL A   1      43.917  27.294  28.281  1.00  0.00    -0.248 NA
ATOM     62  C   UNL A   1      43.817  25.110  27.466  1.00  0.00     0.031 C 
ATOM     63  C   UNL A   1      47.661  29.633  28.716  1.00  0.00     0.029 A 
ATOM     64  C   UNL A   1      46.510  28.878  28.562  1.00  0.00     0.049 A 
ATOM     65  H   UNL A   1      44.502  29.422  28.921  1.00  0.00     0.167 HD
ATOM     66  C   UNL A   1      45.204  26.851  27.999  1.00  0.00     0.074 A 
ATOM     67  C   UNL A   1      45.086  25.485  27.538  1.00  0.00     0.031 C 
ATOM     68  C   UNL A   1      46.381  27.517  28.108  1.00  0.00     0.037 A 
BRANCH  55  69
ATOM     69  C   UNL A   1      45.758  33.314  30.131  1.00  0.00     0.064 A 
ATOM     70  C   UNL A   1      46.176  33.555  31.448  1.00  0.00     0.173 A 
ATOM     71  C   UNL A   1      46.029  34.293  29.164  1.00  0.00     0.173 A 
ATOM     72  F   UNL A   1      45.927  32.655  32.412  1.00  0.00    -0.203 F 
ATOM     73  C   UNL A   1      46.829  34.737  31.786  1.00  0.00     0.198 A 
ATOM     74  C   UNL A   1      46.705  35.463  29.501  1.00  0.00     0.198 A 
ATOM     75  F   UNL A   1      45.651  34.109  27.891  1.00  0.00    -0.203 F 
ATOM     76  F   UNL A   1      47.189  34.962  33.058  1.00  0.00    -0.200 F 
ATOM     77  C   UNL A   1      47.100  35.686  30.812  1.00  0.00     0.200 A 
ATOM     78  F   UNL A   1      46.976  36.374  28.556  1.00  0.00    -0.200 F 
ATOM     79  F   UNL A   1      47.739  36.818  31.136  1.00  0.00    -0.200 F 
ENDBRANCH  55  69
BRANCH  56  80
ATOM     80  C   UNL A   1      40.917  24.941  27.742  1.00  0.00     0.064 A 
ATOM     81  C   UNL A   1      41.229  23.711  28.338  1.00  0.00     0.173 A 
ATOM     82  C   UNL A   1      39.963  24.942  26.713  1.00  0.00     0.173 A 
ATOM     83  F   UNL A   1      42.158  23.652  29.304  1.00  0.00    -0.203 F 
ATOM     84  C   UNL A   1      40.637  22.526  27.901  1.00  0.00     0.198 A 
ATOM     85  C   UNL A   1      39.350  23.762  26.297  1.00  0.00     0.198 A 
ATOM     86  F   UNL A   1      39.635  26.089  26.102  1.00  0.00    -0.203 F 
ATOM     87  F   UNL A   1      41.003  21.358  28.443  1.00  0.00    -0.200 F 
ATOM     88  C   UNL A   1      39.696  22.554  26.883  1.00  0.00     0.200 A 
ATOM     89  F   UNL A   1      38.435  23.794  25.318  1.00  0.00    -0.200 F 
ATOM     90  F   UNL A   1      39.134  21.415  26.457  1.00  0.00    -0.200 F 
ENDBRANCH  56  80
BRANCH  68  91
ATOM     91  C   UNL A   1      47.635  26.770  27.751  1.00  0.00     0.064 A 
ATOM     92  C   UNL A   1      48.172  26.809  26.456  1.00  0.00     0.173 A 
ATOM     93  C   UNL A   1      48.318  26.022  28.721  1.00  0.00     0.173 A 
ATOM     94  F   UNL A   1      47.552  27.500  25.487  1.00  0.00    -0.203 F 
ATOM     95  C   UNL A   1      49.327  26.098  26.137  1.00  0.00     0.198 A 
ATOM     96  C   UNL A   1      49.490  25.338  28.407  1.00  0.00     0.198 A 
ATOM     97  F   UNL A   1      47.854  25.958  29.979  1.00  0.00    -0.203 F 
ATOM     98  F   UNL A   1      49.789  26.103  24.879  1.00  0.00    -0.200 F 
ATOM     99  C   UNL A   1      49.987  25.368  27.113  1.00  0.00     0.200 A 
ATOM    100  F   UNL A   1      50.135  24.644  29.355  1.00  0.00    -0.200 F 
ATOM    101  F   UNL A   1      51.098  24.684  26.804  1.00  0.00    -0.200 F 
ENDBRANCH  68  91
ENDBRANCH  42  43
ENDBRANCH  35  37
ENDBRANCH  34  35
ENDBRANCH  33  34
ENDBRANCH  32  33
ENDBRANCH  31  32
ENDBRANCH  30  31
ENDBRANCH   1  30
TORSDOF 21
ENDMDL
MODEL 3
REMARK VINA RESULT:     -11.0      3.202      5.415
REMARK SMILES O=C(CCN1C(=O)/C(=C\c2ccc(-c3cccc(Cl)c3)o2)SC1=S)OCCOCCOCCOC(=O)c1ccc(-c2c3nc(c(-c4c(F)c(F)c(F)c(F)c4F)c4ccc([nH]4)c(-c4c(F)c(F)c(F)c(F)c4F)c4nc(c(-c5c(F)c(F)c(F)c(F)c5F)c5ccc2[nH]5)C=C4)C=C3)cc1
REMARK SMILES IDX 29 1 28 2 27 3 26 4 25 5 2 6 1 7 3 8 4 9 5 10 6 11 23 12
REMARK SMILES IDX 7 13 8 14 22 15 24 16 9 17 10 18 11 19 21 20 12 21 13 22
REMARK SMILES IDX 14 23 15 24 20 25 16 26 18 27 17 28 19 29 30 30 31 31 32 32
REMARK SMILES IDX 33 33 34 34 35 35 36 36 37 37 38 38 99 39 39 40 98 41 40 42
REMARK SMILES IDX 41 43 42 44 92 45 43 46 97 47 91 48 93 49 44 50 96 51 90 52
REMARK SMILES IDX 89 53 45 55 77 56 57 57 76 58 58 59 61 60 75 61 94 62 59 63
REMARK SMILES IDX 60 64 74 66 95 67 62 68 46 69 47 70 55 71 48 72 49 73 53 74
REMARK SMILES IDX 56 75 50 76 51 77 54 78 52 79 78 80 79 81 87 82 80 83 81 84
REMARK SMILES IDX 85 85 88 86 82 87 83 88 86 89 84 90 63 91 64 92 72 93 65 94
REMARK SMILES IDX 66 95 70 96 73 97 67 98 68 99 71 100 69 101
REMARK H PARENT 93 54 61 65
REMARK Flexibility Score: inf
ROOT
ATOM      1  C   UNL A   1      31.360  25.780  26.354  1.00  0.00     0.188 C 
ENDROOT
BRANCH   1   2
ATOM      2  O   UNL A   1      30.706  24.642  26.891  1.00  0.00    -0.376 OA
BRANCH   2   3
ATOM      3  C   UNL A   1      31.397  23.401  26.888  1.00  0.00     0.202 C 
BRANCH   3   4
ATOM      4  C   UNL A   1      30.795  22.235  26.101  1.00  0.00     0.261 C 
BRANCH   4   5
ATOM      5  O   UNL A   1      31.462  21.735  24.917  1.00  0.00    -0.463 OA
BRANCH   5   6
ATOM      6  C   UNL A   1      31.454  22.107  23.628  1.00  0.00     0.307 C 
ATOM      7  O   UNL A   1      30.640  22.947  23.246  1.00  0.00    -0.252 OA
BRANCH   6   8
ATOM      8  C   UNL A   1      32.451  21.549  22.663  1.00  0.00     0.144 C 
BRANCH   8   9
ATOM      9  C   UNL A   1      33.493  22.584  22.256  1.00  0.00     0.139 C 
BRANCH   9  10
ATOM     10  N   UNL A   1      33.864  23.469  23.368  1.00  0.00    -0.292 N 
ATOM     11  C   UNL A   1      33.400  24.776  23.344  1.00  0.00     0.266 C 
ATOM     12  C   UNL A   1      34.666  23.116  24.432  1.00  0.00     0.148 C 
ATOM     13  O   UNL A   1      32.592  25.206  22.534  1.00  0.00    -0.268 OA
ATOM     14  C   UNL A   1      34.097  25.593  24.381  1.00  0.00     0.084 C 
ATOM     15  S   UNL A   1      34.975  24.532  25.430  1.00  0.00    -0.054 SA
ATOM     16  S   UNL A   1      35.317  21.625  24.788  1.00  0.00    -0.052 S 
ATOM     17  C   UNL A   1      34.183  26.928  24.484  1.00  0.00     0.068 C 
BRANCH  17  18
ATOM     18  C   UNL A   1      33.457  27.861  23.692  1.00  0.00     0.128 A 
ATOM     19  C   UNL A   1      33.907  28.648  22.639  1.00  0.00     0.051 A 
ATOM     20  O   UNL A   1      32.088  28.047  23.791  1.00  0.00    -0.457 OA
ATOM     21  C   UNL A   1      32.801  29.320  22.086  1.00  0.00     0.051 A 
ATOM     22  C   UNL A   1      31.707  28.923  22.816  1.00  0.00     0.134 A 
BRANCH  22  23
ATOM     23  C   UNL A   1      30.294  29.239  22.688  1.00  0.00     0.019 A 
ATOM     24  C   UNL A   1      29.343  28.363  23.237  1.00  0.00     0.012 A 
ATOM     25  C   UNL A   1      29.855  30.330  21.932  1.00  0.00     0.032 A 
ATOM     26  C   UNL A   1      27.978  28.557  23.017  1.00  0.00     0.002 A 
ATOM     27  C   UNL A   1      28.489  30.513  21.705  1.00  0.00     0.041 A 
ATOM     28  C   UNL A   1      27.550  29.630  22.239  1.00  0.00     0.020 A 
ATOM     29  Cl  UNL A   1      27.956  31.823  20.721  1.00  0.00    -0.084 Cl
ENDBRANCH  22  23
ENDBRANCH  17  18
ENDBRANCH   9  10
ENDBRANCH   8   9
ENDBRANCH   6   8
ENDBRANCH   5   6
ENDBRANCH   4   5
ENDBRANCH   3   4
ENDBRANCH   2   3
ENDBRANCH   1   2
BRANCH   1  30
ATOM     30  C   UNL A   1      30.754  27.162  26.612  1.00  0.00     0.188 C 
BRANCH  30  31
ATOM     31  O   UNL A   1      31.425  27.911  27.619  1.00  0.00    -0.376 OA
BRANCH  31  32
ATOM     32  C   UNL A   1      32.808  28.136  27.344  1.00  0.00     0.202 C 
BRANCH  32  33
ATOM     33  C   UNL A   1      33.149  29.588  26.977  1.00  0.00     0.261 C 
BRANCH  33  34
ATOM     34  O   UNL A   1      33.577  30.429  28.063  1.00  0.00    -0.460 OA
BRANCH  34  35
ATOM     35  C   UNL A   1      34.645  31.225  27.837  1.00  0.00     0.338 C 
ATOM     36  O   UNL A   1      34.629  32.407  27.548  1.00  0.00    -0.246 OA
BRANCH  35  37
ATOM     37  C   UNL A   1      35.878  30.464  28.139  1.00  0.00     0.060 A 
ATOM     38  C   UNL A   1      36.007  29.865  29.396  1.00  0.00     0.016 A 
ATOM     39  C   UNL A   1      36.918  30.379  27.209  1.00  0.00     0.016 A 
ATOM     40  C   UNL A   1      37.180  29.182  29.730  1.00  0.00     0.010 A 
ATOM     41  C   UNL A   1      38.106  29.719  27.556  1.00  0.00     0.010 A 
ATOM     42  C   UNL A   1      38.251  29.136  28.827  1.00  0.00    -0.014 A 
BRANCH  42  43
ATOM     43  C   UNL A   1      39.571  28.634  29.291  1.00  0.00     0.031 A 
ATOM     44  C   UNL A   1      40.321  29.430  30.326  1.00  0.00     0.074 A 
ATOM     45  C   UNL A   1      40.079  27.471  28.846  1.00  0.00     0.049 A 
ATOM     46  N   UNL A   1      41.465  29.171  30.910  1.00  0.00    -0.248 NA
ATOM     47  C   UNL A   1      39.692  30.685  30.766  1.00  0.00     0.031 C 
ATOM     48  C   UNL A   1      39.448  26.591  27.867  1.00  0.00     0.029 A 
ATOM     49  N   UNL A   1      41.253  26.831  29.168  1.00  0.00    -0.354 N 
ATOM     50  C   UNL A   1      41.680  30.216  31.799  1.00  0.00     0.074 A 
ATOM     51  C   UNL A   1      40.571  31.135  31.648  1.00  0.00     0.031 C 
ATOM     52  C   UNL A   1      40.247  25.529  27.657  1.00  0.00     0.029 A 
ATOM     53  C   UNL A   1      41.453  25.662  28.474  1.00  0.00     0.049 A 
ATOM     54  H   UNL A   1      41.890  27.178  29.832  1.00  0.00     0.167 HD
ATOM     55  C   UNL A   1      42.698  30.388  32.674  1.00  0.00     0.037 A 
ATOM     56  C   UNL A   1      42.495  24.807  28.492  1.00  0.00     0.037 A 
ATOM     57  C   UNL A   1      43.816  29.494  32.813  1.00  0.00     0.049 A 
ATOM     58  C   UNL A   1      43.656  25.065  29.421  1.00  0.00     0.074 A 
ATOM     59  C   UNL A   1      44.900  29.592  33.668  1.00  0.00     0.029 A 
ATOM     60  N   UNL A   1      44.000  28.338  32.069  1.00  0.00    -0.354 N 
ATOM     61  N   UNL A   1      43.831  26.036  30.285  1.00  0.00    -0.248 NA
ATOM     62  C   UNL A   1      44.763  24.096  29.383  1.00  0.00     0.031 C 
ATOM     63  C   UNL A   1      45.762  28.521  33.411  1.00  0.00     0.029 A 
ATOM     64  C   UNL A   1      45.189  27.727  32.432  1.00  0.00     0.049 A 
ATOM     65  H   UNL A   1      43.377  28.002  31.385  1.00  0.00     0.167 HD
ATOM     66  C   UNL A   1      45.047  25.780  30.909  1.00  0.00     0.074 A 
ATOM     67  C   UNL A   1      45.558  24.551  30.342  1.00  0.00     0.031 C 
ATOM     68  C   UNL A   1      45.686  26.500  31.863  1.00  0.00     0.037 A 
BRANCH  55  69
ATOM     69  C   UNL A   1      42.656  31.605  33.550  1.00  0.00     0.064 A 
ATOM     70  C   UNL A   1      43.299  32.795  33.177  1.00  0.00     0.173 A 
ATOM     71  C   UNL A   1      41.926  31.598  34.747  1.00  0.00     0.173 A 
ATOM     72  F   UNL A   1      44.022  32.847  32.048  1.00  0.00    -0.203 F 
ATOM     73  C   UNL A   1      43.224  33.930  33.979  1.00  0.00     0.198 A 
ATOM     74  C   UNL A   1      41.832  32.743  35.534  1.00  0.00     0.198 A 
ATOM     75  F   UNL A   1      41.292  30.486  35.146  1.00  0.00    -0.203 F 
ATOM     76  F   UNL A   1      43.874  35.046  33.621  1.00  0.00    -0.200 F 
ATOM     77  C   UNL A   1      42.484  33.905  35.152  1.00  0.00     0.200 A 
ATOM     78  F   UNL A   1      41.107  32.721  36.662  1.00  0.00    -0.200 F 
ATOM     79  F   UNL A   1      42.403  35.003  35.918  1.00  0.00    -0.200 F 
ENDBRANCH  55  69
BRANCH  56  80
ATOM     80  C   UNL A   1      42.512  23.624  27.588  1.00  0.00     0.064 A 
ATOM     81  C   UNL A   1      42.083  22.364  28.029  1.00  0.00     0.173 A 
ATOM     82  C   UNL A   1      43.019  23.719  26.284  1.00  0.00     0.173 A 
ATOM     83  F   UNL A   1      41.621  22.213  29.279  1.00  0.00    -0.203 F 
ATOM     84  C   UNL A   1      42.190  21.239  27.212  1.00  0.00     0.198 A 
ATOM     85  C   UNL A   1      43.097  22.601  25.457  1.00  0.00     0.198 A 
ATOM     86  F   UNL A   1      43.451  24.899  25.816  1.00  0.00    -0.203 F 
ATOM     87  F   UNL A   1      41.836  20.036  27.682  1.00  0.00    -0.200 F 
ATOM     88  C   UNL A   1      42.693  21.360  25.925  1.00  0.00     0.200 A 
ATOM     89  F   UNL A   1      43.578  22.723  24.212  1.00  0.00    -0.200 F 
ATOM     90  F   UNL A   1      42.805  20.278  25.143  1.00  0.00    -0.200 F 
ENDBRANCH  56  80
BRANCH  68  91
ATOM     91  C   UNL A   1      46.993  25.963  32.376  1.00  0.00     0.064 A 
ATOM     92  C   UNL A   1      47.066  25.201  33.551  1.00  0.00     0.173 A 
ATOM     93  C   UNL A   1      48.184  26.198  31.672  1.00  0.00     0.173 A 
ATOM     94  F   UNL A   1      45.959  24.957  34.269  1.00  0.00    -0.203 F 
ATOM     95  C   UNL A   1      48.288  24.723  34.020  1.00  0.00     0.198 A 
ATOM     96  C   UNL A   1      49.399  25.692  32.127  1.00  0.00     0.198 A 
ATOM     97  F   UNL A   1      48.170  26.913  30.536  1.00  0.00    -0.203 F 
ATOM     98  F   UNL A   1      48.341  24.045  35.176  1.00  0.00    -0.200 F 
ATOM     99  C   UNL A   1      49.451  24.965  33.306  1.00  0.00     0.200 A 
ATOM    100  F   UNL A   1      50.520  25.914  31.428  1.00  0.00    -0.200 F 
ATOM    101  F   UNL A   1      50.626  24.504  33.760  1.00  0.00    -0.200 F 
ENDBRANCH  68  91
ENDBRANCH  42  43
ENDBRANCH  35  37
ENDBRANCH  34  35
ENDBRANCH  33  34
ENDBRANCH  32  33
ENDBRANCH  31  32
ENDBRANCH  30  31
ENDBRANCH   1  30
TORSDOF 21
ENDMDL
