MODEL 1
REMARK VINA RESULT:     -12.3      0.000      0.000
REMARK SMILES Cc1cc(=O)c(Oc2ccc(C(=O)OCCOCCOCCOC(=O)c3ccc(-c4c5nc(c(-c6c(F)c(F)c(F)c(F)c6F)c6ccc([nH]6)c(-c6c(F)c(F)c(F)c(F)c6F)c6nc(c(-c7c(F)c(F)c(F)c(F)c7F)c7ccc4[nH]7)C=C6)C=C5)cc3)cc2)c(-c2ccc(S(C)(=O)=O)cc2)o1
REMARK SMILES IDX 18 1 17 2 16 3 15 4 14 5 12 6 13 7 11 8 8 9 9 10 90 11 10 12
REMARK SMILES IDX 89 13 7 14 6 15 1 16 2 17 3 18 102 19 4 20 91 21 5 22 92 23
REMARK SMILES IDX 93 24 101 25 94 26 100 27 95 28 96 29 97 30 98 31 99 32
REMARK SMILES IDX 19 33 20 34 21 35 22 36 23 37 24 38 25 39 26 40 27 41 88 42
REMARK SMILES IDX 28 43 87 44 29 45 30 46 31 47 81 48 32 49 86 50 80 51 82 52
REMARK SMILES IDX 33 53 85 54 79 55 78 56 34 58 66 59 46 60 65 61 47 62 50 63
REMARK SMILES IDX 64 64 83 65 48 66 49 67 63 69 84 70 51 71 35 72 36 73 44 74
REMARK SMILES IDX 37 75 38 76 42 77 45 78 39 79 40 80 43 81 41 82 67 83 68 84
REMARK SMILES IDX 76 85 69 86 70 87 74 88 77 89 71 90 72 91 75 92 73 93 52 94
REMARK SMILES IDX 53 95 61 96 54 97 55 98 59 99 62 100 56 101 57 102 60 103
REMARK SMILES IDX 58 104
REMARK H PARENT 82 57 50 68
REMARK Flexibility Score: inf
ROOT
ATOM      1  C   UNL A   1      33.005  36.151  29.345  1.00  0.00     0.188 C 
ENDROOT
BRANCH   1   2
ATOM      2  O   UNL A   1      33.838  35.277  28.589  1.00  0.00    -0.376 OA
BRANCH   2   3
ATOM      3  C   UNL A   1      33.239  34.053  28.134  1.00  0.00     0.202 C 
BRANCH   3   4
ATOM      4  C   UNL A   1      34.039  32.748  28.289  1.00  0.00     0.261 C 
BRANCH   4   5
ATOM      5  O   UNL A   1      33.514  31.657  27.510  1.00  0.00    -0.460 OA
BRANCH   5   6
ATOM      6  C   UNL A   1      34.324  30.596  27.268  1.00  0.00     0.338 C 
ATOM      7  O   UNL A   1      35.542  30.610  27.253  1.00  0.00    -0.246 OA
BRANCH   6   8
ATOM      8  C   UNL A   1      33.488  29.365  27.089  1.00  0.00     0.060 A 
ATOM      9  C   UNL A   1      32.014  26.977  26.895  1.00  0.00     0.127 A 
ATOM     10  C   UNL A   1      33.329  27.026  26.433  1.00  0.00     0.048 A 
ATOM     11  C   UNL A   1      31.403  28.136  27.372  1.00  0.00     0.048 A 
ATOM     12  C   UNL A   1      34.076  28.207  26.561  1.00  0.00     0.019 A 
ATOM     13  C   UNL A   1      32.135  29.325  27.467  1.00  0.00     0.019 A 
BRANCH   9  14
ATOM     14  O   UNL A   1      31.237  25.868  26.712  1.00  0.00    -0.449 OA
BRANCH  14  15
ATOM     15  C   UNL A   1      31.345  24.985  25.648  1.00  0.00     0.217 A 
ATOM     16  C   UNL A   1      31.854  21.850  22.704  1.00  0.00     0.088 C 
ATOM     17  C   UNL A   1      31.738  22.873  23.789  1.00  0.00     0.105 A 
ATOM     18  C   UNL A   1      32.193  22.658  25.026  1.00  0.00     0.098 A 
ATOM     19  O   UNL A   1      31.114  24.047  23.420  1.00  0.00    -0.457 OA
ATOM     20  C   UNL A   1      32.036  23.713  26.037  1.00  0.00     0.228 A 
ATOM     21  C   UNL A   1      30.938  25.064  24.353  1.00  0.00     0.180 A 
ATOM     22  O   UNL A   1      32.477  23.525  27.168  1.00  0.00    -0.285 OA
BRANCH  21  23
ATOM     23  C   UNL A   1      30.246  26.209  23.746  1.00  0.00     0.021 A 
ATOM     24  C   UNL A   1      28.856  26.348  23.872  1.00  0.00     0.013 A 
ATOM     25  C   UNL A   1      30.979  27.212  23.111  1.00  0.00     0.013 A 
ATOM     26  C   UNL A   1      28.231  27.546  23.506  1.00  0.00     0.021 A 
ATOM     27  C   UNL A   1      30.347  28.396  22.727  1.00  0.00     0.021 A 
ATOM     28  C   UNL A   1      28.978  28.581  22.939  1.00  0.00     0.067 A 
BRANCH  28  29
ATOM     29  S   UNL A   1      28.311  30.238  22.881  1.00  0.00     0.175 S 
ATOM     30  C   UNL A   1      28.432  30.910  21.259  1.00  0.00     0.163 C 
ATOM     31  O   UNL A   1      26.903  30.131  23.202  1.00  0.00    -0.224 OA
ATOM     32  O   UNL A   1      29.208  31.022  23.702  1.00  0.00    -0.224 OA
ENDBRANCH  28  29
ENDBRANCH  21  23
ENDBRANCH  14  15
ENDBRANCH   9  14
ENDBRANCH   6   8
ENDBRANCH   5   6
ENDBRANCH   4   5
ENDBRANCH   3   4
ENDBRANCH   2   3
ENDBRANCH   1   2
BRANCH   1  33
ATOM     33  C   UNL A   1      32.921  35.778  30.831  1.00  0.00     0.188 C 
BRANCH  33  34
ATOM     34  O   UNL A   1      34.130  35.278  31.381  1.00  0.00    -0.376 OA
BRANCH  34  35
ATOM     35  C   UNL A   1      34.194  35.471  32.801  1.00  0.00     0.202 C 
BRANCH  35  36
ATOM     36  C   UNL A   1      35.006  34.364  33.504  1.00  0.00     0.261 C 
BRANCH  36  37
ATOM     37  O   UNL A   1      35.992  33.738  32.637  1.00  0.00    -0.460 OA
BRANCH  37  38
ATOM     38  C   UNL A   1      35.705  32.498  32.156  1.00  0.00     0.338 C 
ATOM     39  O   UNL A   1      34.608  31.967  32.124  1.00  0.00    -0.246 OA
BRANCH  38  40
ATOM     40  C   UNL A   1      36.922  31.875  31.552  1.00  0.00     0.060 A 
ATOM     41  C   UNL A   1      37.932  31.292  32.327  1.00  0.00     0.016 A 
ATOM     42  C   UNL A   1      37.071  31.890  30.161  1.00  0.00     0.016 A 
ATOM     43  C   UNL A   1      39.118  30.830  31.718  1.00  0.00     0.010 A 
ATOM     44  C   UNL A   1      38.267  31.459  29.559  1.00  0.00     0.010 A 
ATOM     45  C   UNL A   1      39.325  30.958  30.332  1.00  0.00    -0.014 A 
BRANCH  45  46
ATOM     46  C   UNL A   1      40.537  30.379  29.678  1.00  0.00     0.031 A 
ATOM     47  C   UNL A   1      40.675  28.941  29.231  1.00  0.00     0.074 A 
ATOM     48  C   UNL A   1      41.584  31.200  29.501  1.00  0.00     0.049 A 
ATOM     49  N   UNL A   1      41.631  28.354  28.548  1.00  0.00    -0.248 NA
ATOM     50  C   UNL A   1      39.599  28.031  29.603  1.00  0.00     0.031 C 
ATOM     51  C   UNL A   1      41.619  32.604  29.904  1.00  0.00     0.029 A 
ATOM     52  N   UNL A   1      42.814  30.969  28.948  1.00  0.00    -0.354 N 
ATOM     53  C   UNL A   1      41.234  27.027  28.377  1.00  0.00     0.074 A 
ATOM     54  C   UNL A   1      39.970  26.882  29.057  1.00  0.00     0.031 C 
ATOM     55  C   UNL A   1      42.815  33.114  29.584  1.00  0.00     0.029 A 
ATOM     56  C   UNL A   1      43.629  32.069  28.965  1.00  0.00     0.049 A 
ATOM     57  H   UNL A   1      43.086  30.100  28.574  1.00  0.00     0.167 HD
ATOM     58  C   UNL A   1      41.864  26.021  27.722  1.00  0.00     0.037 A 
ATOM     59  C   UNL A   1      44.890  32.228  28.528  1.00  0.00     0.037 A 
ATOM     60  C   UNL A   1      43.161  26.140  27.107  1.00  0.00     0.049 A 
ATOM     61  C   UNL A   1      45.595  31.095  27.845  1.00  0.00     0.074 A 
ATOM     62  C   UNL A   1      43.864  25.194  26.380  1.00  0.00     0.029 A 
ATOM     63  N   UNL A   1      43.965  27.265  27.180  1.00  0.00    -0.354 N 
ATOM     64  N   UNL A   1      45.163  29.884  27.592  1.00  0.00    -0.248 NA
ATOM     65  C   UNL A   1      46.959  31.361  27.370  1.00  0.00     0.031 C 
ATOM     66  C   UNL A   1      45.120  25.725  26.070  1.00  0.00     0.029 A 
ATOM     67  C   UNL A   1      45.174  27.023  26.547  1.00  0.00     0.049 A 
ATOM     68  H   UNL A   1      43.715  28.111  27.616  1.00  0.00     0.167 HD
ATOM     69  C   UNL A   1      46.194  29.248  26.913  1.00  0.00     0.074 A 
ATOM     70  C   UNL A   1      47.264  30.213  26.780  1.00  0.00     0.031 C 
ATOM     71  C   UNL A   1      46.244  27.978  26.440  1.00  0.00     0.037 A 
BRANCH  58  72
ATOM     72  C   UNL A   1      41.179  24.683  27.612  1.00  0.00     0.064 A 
ATOM     73  C   UNL A   1      40.090  24.495  26.748  1.00  0.00     0.173 A 
ATOM     74  C   UNL A   1      41.713  23.549  28.247  1.00  0.00     0.173 A 
ATOM     75  F   UNL A   1      39.546  25.543  26.112  1.00  0.00    -0.203 F 
ATOM     76  C   UNL A   1      39.567  23.224  26.517  1.00  0.00     0.198 A 
ATOM     77  C   UNL A   1      41.200  22.277  27.997  1.00  0.00     0.198 A 
ATOM     78  F   UNL A   1      42.763  23.669  29.073  1.00  0.00    -0.203 F 
ATOM     79  F   UNL A   1      38.531  23.069  25.680  1.00  0.00    -0.200 F 
ATOM     80  C   UNL A   1      40.132  22.114  27.130  1.00  0.00     0.200 A 
ATOM     81  F   UNL A   1      41.763  21.204  28.572  1.00  0.00    -0.200 F 
ATOM     82  F   UNL A   1      39.654  20.887  26.874  1.00  0.00    -0.200 F 
ENDBRANCH  58  72
BRANCH  59  83
ATOM     83  C   UNL A   1      45.520  33.557  28.686  1.00  0.00     0.064 A 
ATOM     84  C   UNL A   1      45.235  34.590  27.786  1.00  0.00     0.173 A 
ATOM     85  C   UNL A   1      46.328  33.848  29.795  1.00  0.00     0.173 A 
ATOM     86  F   UNL A   1      44.471  34.349  26.711  1.00  0.00    -0.203 F 
ATOM     87  C   UNL A   1      45.734  35.872  27.992  1.00  0.00     0.198 A 
ATOM     88  C   UNL A   1      46.804  35.136  30.013  1.00  0.00     0.198 A 
ATOM     89  F   UNL A   1      46.607  32.890  30.692  1.00  0.00    -0.203 F 
ATOM     90  F   UNL A   1      45.456  36.844  27.112  1.00  0.00    -0.200 F 
ATOM     91  C   UNL A   1      46.507  36.148  29.110  1.00  0.00     0.200 A 
ATOM     92  F   UNL A   1      47.526  35.404  31.109  1.00  0.00    -0.200 F 
ATOM     93  F   UNL A   1      46.959  37.391  29.325  1.00  0.00    -0.200 F 
ENDBRANCH  59  83
BRANCH  71  94
ATOM     94  C   UNL A   1      47.499  27.551  25.739  1.00  0.00     0.064 A 
ATOM     95  C   UNL A   1      48.569  26.979  26.442  1.00  0.00     0.173 A 
ATOM     96  C   UNL A   1      47.615  27.669  24.346  1.00  0.00     0.173 A 
ATOM     97  F   UNL A   1      48.509  26.853  27.777  1.00  0.00    -0.203 F 
ATOM     98  C   UNL A   1      49.722  26.568  25.779  1.00  0.00     0.198 A 
ATOM     99  C   UNL A   1      48.758  27.230  23.683  1.00  0.00     0.198 A 
ATOM    100  F   UNL A   1      46.615  28.199  23.626  1.00  0.00    -0.203 F 
ATOM    101  F   UNL A   1      50.751  26.068  26.477  1.00  0.00    -0.200 F 
ATOM    102  C   UNL A   1      49.813  26.688  24.401  1.00  0.00     0.200 A 
ATOM    103  F   UNL A   1      48.838  27.334  22.349  1.00  0.00    -0.200 F 
ATOM    104  F   UNL A   1      50.922  26.286  23.764  1.00  0.00    -0.200 F 
ENDBRANCH  71  94
ENDBRANCH  45  46
ENDBRANCH  38  40
ENDBRANCH  37  38
ENDBRANCH  36  37
ENDBRANCH  35  36
ENDBRANCH  34  35
ENDBRANCH  33  34
ENDBRANCH   1  33
TORSDOF 21
ENDMDL
MODEL 2
REMARK VINA RESULT:     -12.0      0.610      6.858
REMARK SMILES Cc1cc(=O)c(Oc2ccc(C(=O)OCCOCCOCCOC(=O)c3ccc(-c4c5nc(c(-c6c(F)c(F)c(F)c(F)c6F)c6ccc([nH]6)c(-c6c(F)c(F)c(F)c(F)c6F)c6nc(c(-c7c(F)c(F)c(F)c(F)c7F)c7ccc4[nH]7)C=C6)C=C5)cc3)cc2)c(-c2ccc(S(C)(=O)=O)cc2)o1
REMARK SMILES IDX 18 1 17 2 16 3 15 4 14 5 12 6 13 7 11 8 8 9 9 10 90 11 10 12
REMARK SMILES IDX 89 13 7 14 6 15 1 16 2 17 3 18 102 19 4 20 91 21 5 22 92 23
REMARK SMILES IDX 93 24 101 25 94 26 100 27 95 28 96 29 97 30 98 31 99 32
REMARK SMILES IDX 19 33 20 34 21 35 22 36 23 37 24 38 25 39 26 40 27 41 88 42
REMARK SMILES IDX 28 43 87 44 29 45 30 46 31 47 81 48 32 49 86 50 80 51 82 52
REMARK SMILES IDX 33 53 85 54 79 55 78 56 34 58 66 59 46 60 65 61 47 62 50 63
REMARK SMILES IDX 64 64 83 65 48 66 49 67 63 69 84 70 51 71 35 72 36 73 44 74
REMARK SMILES IDX 37 75 38 76 42 77 45 78 39 79 40 80 43 81 41 82 67 83 68 84
REMARK SMILES IDX 76 85 69 86 70 87 74 88 77 89 71 90 72 91 75 92 73 93 52 94
REMARK SMILES IDX 53 95 61 96 54 97 55 98 59 99 62 100 56 101 57 102 60 103
REMARK SMILES IDX 58 104
REMARK H PARENT 82 57 50 68
REMARK Flexibility Score: inf
ROOT
ATOM      1  C   UNL A   1      32.928  36.059  29.511  1.00  0.00     0.188 C 
ENDROOT
BRANCH   1   2
ATOM      2  O   UNL A   1      33.888  35.248  28.839  1.00  0.00    -0.376 OA
BRANCH   2   3
ATOM      3  C   UNL A   1      33.391  34.066  28.191  1.00  0.00     0.202 C 
BRANCH   3   4
ATOM      4  C   UNL A   1      34.206  32.767  28.316  1.00  0.00     0.261 C 
BRANCH   4   5
ATOM      5  O   UNL A   1      33.570  31.630  27.704  1.00  0.00    -0.460 OA
BRANCH   5   6
ATOM      6  C   UNL A   1      34.350  30.583  27.335  1.00  0.00     0.338 C 
ATOM      7  O   UNL A   1      35.565  30.589  27.244  1.00  0.00    -0.246 OA
BRANCH   6   8
ATOM      8  C   UNL A   1      33.489  29.375  27.119  1.00  0.00     0.060 A 
ATOM      9  C   UNL A   1      31.976  27.020  26.845  1.00  0.00     0.127 A 
ATOM     10  C   UNL A   1      33.263  27.089  26.315  1.00  0.00     0.048 A 
ATOM     11  C   UNL A   1      31.408  28.149  27.435  1.00  0.00     0.048 A 
ATOM     12  C   UNL A   1      34.032  28.252  26.481  1.00  0.00     0.019 A 
ATOM     13  C   UNL A   1      32.159  29.322  27.570  1.00  0.00     0.019 A 
BRANCH   9  14
ATOM     14  O   UNL A   1      31.176  25.934  26.631  1.00  0.00    -0.449 OA
BRANCH  14  15
ATOM     15  C   UNL A   1      31.317  25.033  25.586  1.00  0.00     0.217 A 
ATOM     16  C   UNL A   1      31.926  21.853  22.710  1.00  0.00     0.088 C 
ATOM     17  C   UNL A   1      31.775  22.893  23.774  1.00  0.00     0.105 A 
ATOM     18  C   UNL A   1      32.211  22.709  25.022  1.00  0.00     0.098 A 
ATOM     19  O   UNL A   1      31.139  24.051  23.372  1.00  0.00    -0.457 OA
ATOM     20  C   UNL A   1      32.020  23.779  26.010  1.00  0.00     0.228 A 
ATOM     21  C   UNL A   1      30.931  25.082  24.283  1.00  0.00     0.180 A 
ATOM     22  O   UNL A   1      32.443  23.619  27.152  1.00  0.00    -0.285 OA
BRANCH  21  23
ATOM     23  C   UNL A   1      30.233  26.204  23.643  1.00  0.00     0.021 A 
ATOM     24  C   UNL A   1      28.874  26.436  23.901  1.00  0.00     0.013 A 
ATOM     25  C   UNL A   1      30.939  27.099  22.837  1.00  0.00     0.013 A 
ATOM     26  C   UNL A   1      28.271  27.630  23.487  1.00  0.00     0.021 A 
ATOM     27  C   UNL A   1      30.326  28.278  22.408  1.00  0.00     0.021 A 
ATOM     28  C   UNL A   1      29.000  28.563  22.744  1.00  0.00     0.067 A 
BRANCH  28  29
ATOM     29  S   UNL A   1      28.412  30.243  22.594  1.00  0.00     0.175 S 
ATOM     30  C   UNL A   1      29.141  31.278  23.817  1.00  0.00     0.163 C 
ATOM     31  O   UNL A   1      28.851  30.724  21.301  1.00  0.00    -0.224 OA
ATOM     32  O   UNL A   1      27.005  30.169  22.926  1.00  0.00    -0.224 OA
ENDBRANCH  28  29
ENDBRANCH  21  23
ENDBRANCH  14  15
ENDBRANCH   9  14
ENDBRANCH   6   8
ENDBRANCH   5   6
ENDBRANCH   4   5
ENDBRANCH   3   4
ENDBRANCH   2   3
ENDBRANCH   1   2
BRANCH   1  33
ATOM     33  C   UNL A   1      32.724  35.670  30.981  1.00  0.00     0.188 C 
BRANCH  33  34
ATOM     34  O   UNL A   1      33.919  35.612  31.745  1.00  0.00    -0.376 OA
BRANCH  34  35
ATOM     35  C   UNL A   1      33.984  34.427  32.551  1.00  0.00     0.202 C 
BRANCH  35  36
ATOM     36  C   UNL A   1      34.482  33.205  31.752  1.00  0.00     0.261 C 
BRANCH  36  37
ATOM     37  O   UNL A   1      34.985  32.134  32.598  1.00  0.00    -0.460 OA
BRANCH  37  38
ATOM     38  C   UNL A   1      36.149  32.358  33.266  1.00  0.00     0.338 C 
ATOM     39  O   UNL A   1      36.264  32.727  34.422  1.00  0.00    -0.246 OA
BRANCH  38  40
ATOM     40  C   UNL A   1      37.321  31.986  32.416  1.00  0.00     0.060 A 
ATOM     41  C   UNL A   1      37.306  32.099  31.021  1.00  0.00     0.016 A 
ATOM     42  C   UNL A   1      38.473  31.486  33.033  1.00  0.00     0.016 A 
ATOM     43  C   UNL A   1      38.389  31.618  30.257  1.00  0.00     0.010 A 
ATOM     44  C   UNL A   1      39.538  30.976  32.270  1.00  0.00     0.010 A 
ATOM     45  C   UNL A   1      39.497  30.999  30.867  1.00  0.00    -0.014 A 
BRANCH  45  46
ATOM     46  C   UNL A   1      40.685  30.581  30.064  1.00  0.00     0.031 A 
ATOM     47  C   UNL A   1      41.853  31.475  29.717  1.00  0.00     0.074 A 
ATOM     48  C   UNL A   1      40.693  29.321  29.601  1.00  0.00     0.049 A 
ATOM     49  N   UNL A   1      42.992  31.192  29.128  1.00  0.00    -0.248 NA
ATOM     50  C   UNL A   1      41.730  32.884  30.072  1.00  0.00     0.031 C 
ATOM     51  C   UNL A   1      39.630  28.344  29.824  1.00  0.00     0.029 A 
ATOM     52  N   UNL A   1      41.620  28.655  28.845  1.00  0.00    -0.354 N 
ATOM     53  C   UNL A   1      43.724  32.380  29.095  1.00  0.00     0.074 A 
ATOM     54  C   UNL A   1      42.890  33.398  29.688  1.00  0.00     0.031 C 
ATOM     55  C   UNL A   1      39.963  27.198  29.216  1.00  0.00     0.029 A 
ATOM     56  C   UNL A   1      41.256  27.368  28.555  1.00  0.00     0.049 A 
ATOM     57  H   UNL A   1      42.464  29.061  28.541  1.00  0.00     0.167 HD
ATOM     58  C   UNL A   1      44.970  32.607  28.611  1.00  0.00     0.037 A 
ATOM     59  C   UNL A   1      41.890  26.422  27.842  1.00  0.00     0.037 A 
ATOM     60  C   UNL A   1      45.776  31.614  27.949  1.00  0.00     0.049 A 
ATOM     61  C   UNL A   1      43.248  26.697  27.271  1.00  0.00     0.074 A 
ATOM     62  C   UNL A   1      47.069  31.731  27.464  1.00  0.00     0.029 A 
ATOM     63  N   UNL A   1      45.352  30.331  27.647  1.00  0.00    -0.354 N 
ATOM     64  N   UNL A   1      43.972  27.787  27.346  1.00  0.00    -0.248 NA
ATOM     65  C   UNL A   1      43.886  25.600  26.532  1.00  0.00     0.031 C 
ATOM     66  C   UNL A   1      47.401  30.540  26.811  1.00  0.00     0.029 A 
ATOM     67  C   UNL A   1      46.340  29.660  26.946  1.00  0.00     0.049 A 
ATOM     68  H   UNL A   1      44.478  29.952  27.894  1.00  0.00     0.167 HD
ATOM     69  C   UNL A   1      45.157  27.503  26.681  1.00  0.00     0.074 A 
ATOM     70  C   UNL A   1      45.060  26.132  26.224  1.00  0.00     0.031 C 
ATOM     71  C   UNL A   1      46.229  28.306  26.472  1.00  0.00     0.037 A 
BRANCH  58  72
ATOM     72  C   UNL A   1      45.573  33.978  28.769  1.00  0.00     0.064 A 
ATOM     73  C   UNL A   1      45.390  34.968  27.791  1.00  0.00     0.173 A 
ATOM     74  C   UNL A   1      46.196  34.355  29.970  1.00  0.00     0.173 A 
ATOM     75  F   UNL A   1      44.796  34.665  26.627  1.00  0.00    -0.203 F 
ATOM     76  C   UNL A   1      45.799  36.282  28.013  1.00  0.00     0.198 A 
ATOM     77  C   UNL A   1      46.585  35.674  30.197  1.00  0.00     0.198 A 
ATOM     78  F   UNL A   1      46.384  33.452  30.945  1.00  0.00    -0.203 F 
ATOM     79  F   UNL A   1      45.606  37.212  27.067  1.00  0.00    -0.200 F 
ATOM     80  C   UNL A   1      46.383  36.637  29.222  1.00  0.00     0.200 A 
ATOM     81  F   UNL A   1      47.126  36.020  31.374  1.00  0.00    -0.200 F 
ATOM     82  F   UNL A   1      46.737  37.911  29.449  1.00  0.00    -0.200 F 
ENDBRANCH  58  72
BRANCH  59  83
ATOM     83  C   UNL A   1      41.237  25.102  27.699  1.00  0.00     0.064 A 
ATOM     84  C   UNL A   1      40.176  24.928  26.802  1.00  0.00     0.173 A 
ATOM     85  C   UNL A   1      41.728  23.974  28.371  1.00  0.00     0.173 A 
ATOM     86  F   UNL A   1      39.676  25.984  26.145  1.00  0.00    -0.203 F 
ATOM     87  C   UNL A   1      39.632  23.668  26.579  1.00  0.00     0.198 A 
ATOM     88  C   UNL A   1      41.200  22.711  28.127  1.00  0.00     0.198 A 
ATOM     89  F   UNL A   1      42.758  24.095  29.223  1.00  0.00    -0.203 F 
ATOM     90  F   UNL A   1      38.611  23.526  25.722  1.00  0.00    -0.200 F 
ATOM     91  C   UNL A   1      40.151  22.559  27.231  1.00  0.00     0.200 A 
ATOM     92  F   UNL A   1      41.723  21.639  28.737  1.00  0.00    -0.200 F 
ATOM     93  F   UNL A   1      39.647  21.341  26.989  1.00  0.00    -0.200 F 
ENDBRANCH  59  83
BRANCH  71  94
ATOM     94  C   UNL A   1      47.385  27.732  25.709  1.00  0.00     0.064 A 
ATOM     95  C   UNL A   1      47.423  27.764  24.307  1.00  0.00     0.173 A 
ATOM     96  C   UNL A   1      48.487  27.187  26.385  1.00  0.00     0.173 A 
ATOM     97  F   UNL A   1      46.389  28.267  23.616  1.00  0.00    -0.203 F 
ATOM     98  C   UNL A   1      48.510  27.245  23.610  1.00  0.00     0.198 A 
ATOM     99  C   UNL A   1      49.586  26.695  25.684  1.00  0.00     0.198 A 
ATOM    100  F   UNL A   1      48.505  27.143  27.726  1.00  0.00    -0.203 F 
ATOM    101  F   UNL A   1      48.505  27.244  22.270  1.00  0.00    -0.200 F 
ATOM    102  C   UNL A   1      49.592  26.718  24.298  1.00  0.00     0.200 A 
ATOM    103  F   UNL A   1      50.636  26.199  26.352  1.00  0.00    -0.200 F 
ATOM    104  F   UNL A   1      50.640  26.224  23.624  1.00  0.00    -0.200 F 
ENDBRANCH  71  94
ENDBRANCH  45  46
ENDBRANCH  38  40
ENDBRANCH  37  38
ENDBRANCH  36  37
ENDBRANCH  35  36
ENDBRANCH  34  35
ENDBRANCH  33  34
ENDBRANCH   1  33
TORSDOF 21
ENDMDL
MODEL 3
REMARK VINA RESULT:     -11.0      1.485      2.290
REMARK SMILES Cc1cc(=O)c(Oc2ccc(C(=O)OCCOCCOCCOC(=O)c3ccc(-c4c5nc(c(-c6c(F)c(F)c(F)c(F)c6F)c6ccc([nH]6)c(-c6c(F)c(F)c(F)c(F)c6F)c6nc(c(-c7c(F)c(F)c(F)c(F)c7F)c7ccc4[nH]7)C=C6)C=C5)cc3)cc2)c(-c2ccc(S(C)(=O)=O)cc2)o1
REMARK SMILES IDX 18 1 17 2 16 3 15 4 14 5 12 6 13 7 11 8 8 9 9 10 90 11 10 12
REMARK SMILES IDX 89 13 7 14 6 15 1 16 2 17 3 18 102 19 4 20 91 21 5 22 92 23
REMARK SMILES IDX 93 24 101 25 94 26 100 27 95 28 96 29 97 30 98 31 99 32
REMARK SMILES IDX 19 33 20 34 21 35 22 36 23 37 24 38 25 39 26 40 27 41 88 42
REMARK SMILES IDX 28 43 87 44 29 45 30 46 31 47 81 48 32 49 86 50 80 51 82 52
REMARK SMILES IDX 33 53 85 54 79 55 78 56 34 58 66 59 46 60 65 61 47 62 50 63
REMARK SMILES IDX 64 64 83 65 48 66 49 67 63 69 84 70 51 71 35 72 36 73 44 74
REMARK SMILES IDX 37 75 38 76 42 77 45 78 39 79 40 80 43 81 41 82 67 83 68 84
REMARK SMILES IDX 76 85 69 86 70 87 74 88 77 89 71 90 72 91 75 92 73 93 52 94
REMARK SMILES IDX 53 95 61 96 54 97 55 98 59 99 62 100 56 101 57 102 60 103
REMARK SMILES IDX 58 104
REMARK H PARENT 82 57 50 68
REMARK Flexibility Score: inf
ROOT
ATOM      1  C   UNL A   1      32.747  36.380  30.242  1.00  0.00     0.188 C 
ENDROOT
BRANCH   1   2
ATOM      2  O   UNL A   1      33.726  35.828  29.366  1.00  0.00    -0.376 OA
BRANCH   2   3
ATOM      3  C   UNL A   1      33.281  34.788  28.480  1.00  0.00     0.202 C 
BRANCH   3   4
ATOM      4  C   UNL A   1      33.646  33.333  28.821  1.00  0.00     0.261 C 
BRANCH   4   5
ATOM      5  O   UNL A   1      33.486  32.427  27.713  1.00  0.00    -0.460 OA
BRANCH   5   6
ATOM      6  C   UNL A   1      34.423  31.461  27.537  1.00  0.00     0.338 C 
ATOM      7  O   UNL A   1      35.624  31.587  27.702  1.00  0.00    -0.246 OA
BRANCH   6   8
ATOM      8  C   UNL A   1      33.747  30.175  27.170  1.00  0.00     0.060 A 
ATOM      9  C   UNL A   1      32.508  27.702  26.658  1.00  0.00     0.127 A 
ATOM     10  C   UNL A   1      33.896  27.781  26.759  1.00  0.00     0.048 A 
ATOM     11  C   UNL A   1      31.742  28.866  26.725  1.00  0.00     0.048 A 
ATOM     12  C   UNL A   1      34.513  29.008  27.048  1.00  0.00     0.019 A 
ATOM     13  C   UNL A   1      32.357  30.096  26.977  1.00  0.00     0.019 A 
BRANCH   9  14
ATOM     14  O   UNL A   1      31.886  26.541  26.299  1.00  0.00    -0.449 OA
BRANCH  14  15
ATOM     15  C   UNL A   1      32.124  25.837  25.127  1.00  0.00     0.217 A 
ATOM     16  C   UNL A   1      33.082  23.240  21.797  1.00  0.00     0.088 C 
ATOM     17  C   UNL A   1      32.818  24.076  23.009  1.00  0.00     0.105 A 
ATOM     18  C   UNL A   1      33.282  23.752  24.218  1.00  0.00     0.098 A 
ATOM     19  O   UNL A   1      32.046  25.199  22.786  1.00  0.00    -0.457 OA
ATOM     20  C   UNL A   1      32.974  24.625  25.359  1.00  0.00     0.228 A 
ATOM     21  C   UNL A   1      31.724  26.043  23.844  1.00  0.00     0.180 A 
ATOM     22  O   UNL A   1      33.423  24.340  26.466  1.00  0.00    -0.285 OA
BRANCH  21  23
ATOM     23  C   UNL A   1      30.892  27.161  23.380  1.00  0.00     0.021 A 
ATOM     24  C   UNL A   1      29.494  27.086  23.457  1.00  0.00     0.013 A 
ATOM     25  C   UNL A   1      31.491  28.341  22.936  1.00  0.00     0.013 A 
ATOM     26  C   UNL A   1      28.714  28.228  23.242  1.00  0.00     0.021 A 
ATOM     27  C   UNL A   1      30.706  29.471  22.701  1.00  0.00     0.021 A 
ATOM     28  C   UNL A   1      29.320  29.432  22.870  1.00  0.00     0.067 A 
BRANCH  28  29
ATOM     29  S   UNL A   1      28.424  30.970  23.025  1.00  0.00     0.175 S 
ATOM     30  C   UNL A   1      28.403  31.843  21.498  1.00  0.00     0.163 C 
ATOM     31  O   UNL A   1      27.054  30.623  23.346  1.00  0.00    -0.224 OA
ATOM     32  O   UNL A   1      29.223  31.769  23.928  1.00  0.00    -0.224 OA
ENDBRANCH  28  29
ENDBRANCH  21  23
ENDBRANCH  14  15
ENDBRANCH   9  14
ENDBRANCH   6   8
ENDBRANCH   5   6
ENDBRANCH   4   5
ENDBRANCH   3   4
ENDBRANCH   2   3
ENDBRANCH   1   2
BRANCH   1  33
ATOM     33  C   UNL A   1      32.827  35.828  31.671  1.00  0.00     0.188 C 
BRANCH  33  34
ATOM     34  O   UNL A   1      34.131  35.441  32.080  1.00  0.00    -0.376 OA
BRANCH  34  35
ATOM     35  C   UNL A   1      34.148  34.120  32.639  1.00  0.00     0.202 C 
BRANCH  35  36
ATOM     36  C   UNL A   1      35.085  33.171  31.866  1.00  0.00     0.261 C 
BRANCH  36  37
ATOM     37  O   UNL A   1      35.775  32.222  32.726  1.00  0.00    -0.460 OA
BRANCH  37  38
ATOM     38  C   UNL A   1      36.941  32.629  33.298  1.00  0.00     0.338 C 
ATOM     39  O   UNL A   1      37.060  33.386  34.246  1.00  0.00    -0.246 OA
BRANCH  38  40
ATOM     40  C   UNL A   1      38.105  31.932  32.669  1.00  0.00     0.060 A 
ATOM     41  C   UNL A   1      38.973  31.111  33.398  1.00  0.00     0.016 A 
ATOM     42  C   UNL A   1      38.351  32.122  31.305  1.00  0.00     0.016 A 
ATOM     43  C   UNL A   1      40.128  30.578  32.786  1.00  0.00     0.010 A 
ATOM     44  C   UNL A   1      39.519  31.618  30.705  1.00  0.00     0.010 A 
ATOM     45  C   UNL A   1      40.446  30.869  31.446  1.00  0.00    -0.014 A 
BRANCH  45  46
ATOM     46  C   UNL A   1      41.614  30.224  30.774  1.00  0.00     0.031 A 
ATOM     47  C   UNL A   1      41.568  28.903  30.041  1.00  0.00     0.074 A 
ATOM     48  C   UNL A   1      42.791  30.863  30.855  1.00  0.00     0.049 A 
ATOM     49  N   UNL A   1      42.487  28.302  29.321  1.00  0.00    -0.248 NA
ATOM     50  C   UNL A   1      40.327  28.144  30.129  1.00  0.00     0.031 C 
ATOM     51  C   UNL A   1      43.005  32.130  31.550  1.00  0.00     0.029 A 
ATOM     52  N   UNL A   1      44.022  30.531  30.356  1.00  0.00    -0.354 N 
ATOM     53  C   UNL A   1      41.904  27.128  28.840  1.00  0.00     0.074 A 
ATOM     54  C   UNL A   1      40.566  27.079  29.379  1.00  0.00     0.031 C 
ATOM     55  C   UNL A   1      44.295  32.472  31.435  1.00  0.00     0.029 A 
ATOM     56  C   UNL A   1      44.994  31.442  30.669  1.00  0.00     0.049 A 
ATOM     57  H   UNL A   1      44.190  29.719  29.826  1.00  0.00     0.167 HD
ATOM     58  C   UNL A   1      42.433  26.175  28.033  1.00  0.00     0.037 A 
ATOM     59  C   UNL A   1      46.304  31.456  30.369  1.00  0.00     0.037 A 
ATOM     60  C   UNL A   1      43.792  26.180  27.554  1.00  0.00     0.049 A 
ATOM     61  C   UNL A   1      46.890  30.374  29.514  1.00  0.00     0.074 A 
ATOM     62  C   UNL A   1      44.410  25.287  26.695  1.00  0.00     0.029 A 
ATOM     63  N   UNL A   1      44.752  27.106  27.926  1.00  0.00    -0.354 N 
ATOM     64  N   UNL A   1      46.301  29.334  28.976  1.00  0.00    -0.248 NA
ATOM     65  C   UNL A   1      48.323  30.480  29.208  1.00  0.00     0.031 C 
ATOM     66  C   UNL A   1      45.761  25.636  26.599  1.00  0.00     0.029 A 
ATOM     67  C   UNL A   1      45.968  26.783  27.346  1.00  0.00     0.049 A 
ATOM     68  H   UNL A   1      44.594  27.880  28.513  1.00  0.00     0.167 HD
ATOM     69  C   UNL A   1      47.284  28.672  28.254  1.00  0.00     0.074 A 
ATOM     70  C   UNL A   1      48.503  29.437  28.410  1.00  0.00     0.031 C 
ATOM     71  C   UNL A   1      47.183  27.533  27.525  1.00  0.00     0.037 A 
BRANCH  58  72
ATOM     72  C   UNL A   1      41.560  25.031  27.589  1.00  0.00     0.064 A 
ATOM     73  C   UNL A   1      41.674  23.762  28.177  1.00  0.00     0.173 A 
ATOM     74  C   UNL A   1      40.499  25.242  26.693  1.00  0.00     0.173 A 
ATOM     75  F   UNL A   1      42.665  23.507  29.043  1.00  0.00    -0.203 F 
ATOM     76  C   UNL A   1      40.756  22.752  27.891  1.00  0.00     0.198 A 
ATOM     77  C   UNL A   1      39.571  24.237  26.426  1.00  0.00     0.198 A 
ATOM     78  F   UNL A   1      40.334  26.441  26.113  1.00  0.00    -0.203 F 
ATOM     79  F   UNL A   1      40.882  21.550  28.471  1.00  0.00    -0.200 F 
ATOM     80  C   UNL A   1      39.697  22.995  27.028  1.00  0.00     0.200 A 
ATOM     81  F   UNL A   1      38.535  24.481  25.611  1.00  0.00    -0.200 F 
ATOM     82  F   UNL A   1      38.791  22.035  26.786  1.00  0.00    -0.200 F 
ENDBRANCH  58  72
BRANCH  59  83
ATOM     83  C   UNL A   1      47.118  32.593  30.854  1.00  0.00     0.064 A 
ATOM     84  C   UNL A   1      47.768  32.524  32.092  1.00  0.00     0.173 A 
ATOM     85  C   UNL A   1      47.346  33.716  30.047  1.00  0.00     0.173 A 
ATOM     86  F   UNL A   1      47.570  31.468  32.894  1.00  0.00    -0.203 F 
ATOM     87  C   UNL A   1      48.624  33.540  32.505  1.00  0.00     0.198 A 
ATOM     88  C   UNL A   1      48.223  34.718  30.449  1.00  0.00     0.198 A 
ATOM     89  F   UNL A   1      46.758  33.810  28.845  1.00  0.00    -0.203 F 
ATOM     90  F   UNL A   1      49.230  33.457  33.697  1.00  0.00    -0.200 F 
ATOM     91  C   UNL A   1      48.861  34.629  31.679  1.00  0.00     0.200 A 
ATOM     92  F   UNL A   1      48.471  35.754  29.638  1.00  0.00    -0.200 F 
ATOM     93  F   UNL A   1      49.712  35.590  32.063  1.00  0.00    -0.200 F 
ENDBRANCH  59  83
BRANCH  71  94
ATOM     94  C   UNL A   1      48.422  27.036  26.843  1.00  0.00     0.064 A 
ATOM     95  C   UNL A   1      49.375  26.269  27.528  1.00  0.00     0.173 A 
ATOM     96  C   UNL A   1      48.637  27.287  25.479  1.00  0.00     0.173 A 
ATOM     97  F   UNL A   1      49.218  26.010  28.836  1.00  0.00    -0.203 F 
ATOM     98  C   UNL A   1      50.513  25.796  26.881  1.00  0.00     0.198 A 
ATOM     99  C   UNL A   1      49.762  26.788  24.828  1.00  0.00     0.198 A 
ATOM    100  F   UNL A   1      47.749  28.006  24.775  1.00  0.00    -0.203 F 
ATOM    101  F   UNL A   1      51.433  25.105  27.567  1.00  0.00    -0.200 F 
ATOM    102  C   UNL A   1      50.701  26.050  25.531  1.00  0.00     0.200 A 
ATOM    103  F   UNL A   1      49.935  27.023  23.520  1.00  0.00    -0.200 F 
ATOM    104  F   UNL A   1      51.795  25.589  24.908  1.00  0.00    -0.200 F 
ENDBRANCH  71  94
ENDBRANCH  45  46
ENDBRANCH  38  40
ENDBRANCH  37  38
ENDBRANCH  36  37
ENDBRANCH  35  36
ENDBRANCH  34  35
ENDBRANCH  33  34
ENDBRANCH   1  33
TORSDOF 21
ENDMDL
