MODEL 1
REMARK VINA RESULT:      -9.0      0.000      0.000
REMARK SMILES O=C(OCCOCCOCCOC(=O)c1ccc([C@H]2CCC[N@@H+](CCN3CCCC3=O)C2)cc1)c1ccc(-c2c3nc(c(-c4c(F)c(F)c(F)c(F)c4F)c4ccc([nH]4)c(-c4c(F)c(F)c(F)c(F)c4F)c4nc(c(-c5c(F)c(F)c(F)c(F)c5F)c5ccc2[nH]5)C=C4)C=C3)cc1
REMARK SMILES IDX 8 1 7 2 6 3 5 4 4 5 3 6 2 7 1 8 35 9 36 10 97 11 37 12 96 13
REMARK SMILES IDX 38 14 39 15 40 16 90 17 41 18 95 19 89 20 91 21 42 22 94 23
REMARK SMILES IDX 88 24 87 25 43 27 75 28 55 29 74 30 56 31 59 32 73 33 92 34
REMARK SMILES IDX 57 35 58 36 72 38 93 39 60 40 44 41 45 42 53 43 46 44 47 45
REMARK SMILES IDX 51 46 54 47 48 48 49 49 52 50 50 51 76 52 77 53 85 54 78 55
REMARK SMILES IDX 79 56 83 57 86 58 80 59 81 60 84 61 82 62 61 63 62 64 70 65
REMARK SMILES IDX 63 66 64 67 68 68 71 69 65 70 66 71 69 72 67 73 9 74 10 75
REMARK SMILES IDX 11 76 12 77 13 78 14 79 15 80 16 81 34 82 17 83 33 84 18 85
REMARK SMILES IDX 19 86 20 87 32 88 21 89 23 90 22 91 24 93 25 94 26 95 27 96
REMARK SMILES IDX 30 97 28 98 29 99 31 100
REMARK H PARENT 91 26 59 37 23 92
REMARK Flexibility Score: inf
ROOT
ATOM      1  C   UNL A   1      33.046  36.250  30.982  1.00  0.00     0.188 C 
ENDROOT
BRANCH   1   2
ATOM      2  C   UNL A   1      33.602  35.749  32.314  1.00  0.00     0.188 C 
BRANCH   2   3
ATOM      3  O   UNL A   1      32.887  34.651  32.872  1.00  0.00    -0.376 OA
BRANCH   3   4
ATOM      4  C   UNL A   1      33.673  33.515  33.241  1.00  0.00     0.202 C 
BRANCH   4   5
ATOM      5  C   UNL A   1      35.095  33.769  33.787  1.00  0.00     0.261 C 
BRANCH   5   6
ATOM      6  O   UNL A   1      35.980  32.625  33.850  1.00  0.00    -0.460 OA
BRANCH   6   7
ATOM      7  C   UNL A   1      37.040  32.357  34.652  1.00  0.00     0.338 C 
ATOM      8  O   UNL A   1      37.024  32.728  35.823  1.00  0.00    -0.246 OA
BRANCH   7   9
ATOM      9  C   UNL A   1      38.234  31.624  34.167  1.00  0.00     0.060 A 
ATOM     10  C   UNL A   1      39.504  31.861  34.660  1.00  0.00     0.016 A 
ATOM     11  C   UNL A   1      38.080  30.593  33.230  1.00  0.00     0.016 A 
ATOM     12  C   UNL A   1      40.622  31.300  34.086  1.00  0.00     0.010 A 
ATOM     13  C   UNL A   1      39.201  29.904  32.744  1.00  0.00     0.010 A 
ATOM     14  C   UNL A   1      40.491  30.305  33.125  1.00  0.00    -0.014 A 
BRANCH  14  15
ATOM     15  C   UNL A   1      41.728  29.849  32.452  1.00  0.00     0.031 A 
ATOM     16  C   UNL A   1      42.330  30.729  31.395  1.00  0.00     0.074 A 
ATOM     17  C   UNL A   1      42.448  28.824  32.952  1.00  0.00     0.049 A 
ATOM     18  N   UNL A   1      43.389  30.531  30.656  1.00  0.00    -0.248 NA
ATOM     19  C   UNL A   1      41.675  32.030  31.169  1.00  0.00     0.031 C 
ATOM     20  C   UNL A   1      42.103  28.038  34.141  1.00  0.00     0.029 A 
ATOM     21  N   UNL A   1      43.665  28.317  32.573  1.00  0.00    -0.354 N 
ATOM     22  C   UNL A   1      43.527  31.676  29.887  1.00  0.00     0.074 A 
ATOM     23  C   UNL A   1      42.421  32.549  30.208  1.00  0.00     0.031 C 
ATOM     24  C   UNL A   1      43.126  27.222  34.435  1.00  0.00     0.029 A 
ATOM     25  C   UNL A   1      44.091  27.274  33.361  1.00  0.00     0.049 A 
ATOM     26  H   UNL A   1      44.182  28.664  31.811  1.00  0.00     0.167 HD
ATOM     27  C   UNL A   1      44.508  31.979  29.007  1.00  0.00     0.037 A 
ATOM     28  C   UNL A   1      45.099  26.406  33.178  1.00  0.00     0.037 A 
ATOM     29  C   UNL A   1      45.606  31.103  28.704  1.00  0.00     0.049 A 
ATOM     30  C   UNL A   1      45.966  26.586  31.977  1.00  0.00     0.074 A 
ATOM     31  C   UNL A   1      46.619  31.268  27.778  1.00  0.00     0.029 A 
ATOM     32  N   UNL A   1      45.829  29.885  29.331  1.00  0.00    -0.354 N 
ATOM     33  N   UNL A   1      45.986  27.569  31.116  1.00  0.00    -0.248 NA
ATOM     34  C   UNL A   1      46.954  25.529  31.729  1.00  0.00     0.031 C 
ATOM     35  C   UNL A   1      47.424  30.125  27.805  1.00  0.00     0.029 A 
ATOM     36  C   UNL A   1      46.949  29.276  28.790  1.00  0.00     0.049 A 
ATOM     37  H   UNL A   1      45.274  29.511  30.052  1.00  0.00     0.167 HD
ATOM     38  C   UNL A   1      47.015  27.272  30.244  1.00  0.00     0.074 A 
ATOM     39  C   UNL A   1      47.580  26.007  30.667  1.00  0.00     0.031 C 
ATOM     40  C   UNL A   1      47.477  28.007  29.207  1.00  0.00     0.037 A 
BRANCH  27  41
ATOM     41  C   UNL A   1      44.395  33.284  28.280  1.00  0.00     0.064 A 
ATOM     42  C   UNL A   1      44.765  34.501  28.872  1.00  0.00     0.173 A 
ATOM     43  C   UNL A   1      43.894  33.314  26.971  1.00  0.00     0.173 A 
ATOM     44  F   UNL A   1      45.219  34.530  30.134  1.00  0.00    -0.203 F 
ATOM     45  C   UNL A   1      44.615  35.704  28.185  1.00  0.00     0.198 A 
ATOM     46  C   UNL A   1      43.773  34.514  26.278  1.00  0.00     0.198 A 
ATOM     47  F   UNL A   1      43.515  32.178  26.366  1.00  0.00    -0.203 F 
ATOM     48  F   UNL A   1      44.921  36.861  28.789  1.00  0.00    -0.200 F 
ATOM     49  C   UNL A   1      44.127  35.707  26.887  1.00  0.00     0.200 A 
ATOM     50  F   UNL A   1      43.306  34.515  25.022  1.00  0.00    -0.200 F 
ATOM     51  F   UNL A   1      43.983  36.865  26.228  1.00  0.00    -0.200 F 
ENDBRANCH  27  41
BRANCH  28  52
ATOM     52  C   UNL A   1      45.296  25.196  34.012  1.00  0.00     0.064 A 
ATOM     53  C   UNL A   1      44.675  23.979  33.711  1.00  0.00     0.173 A 
ATOM     54  C   UNL A   1      45.922  25.325  35.262  1.00  0.00     0.173 A 
ATOM     55  F   UNL A   1      43.995  23.836  32.566  1.00  0.00    -0.203 F 
ATOM     56  C   UNL A   1      44.679  22.930  34.633  1.00  0.00     0.198 A 
ATOM     57  C   UNL A   1      45.924  24.278  36.178  1.00  0.00     0.198 A 
ATOM     58  F   UNL A   1      46.445  26.504  35.629  1.00  0.00    -0.203 F 
ATOM     59  F   UNL A   1      44.030  21.792  34.354  1.00  0.00    -0.200 F 
ATOM     60  C   UNL A   1      45.304  23.081  35.862  1.00  0.00     0.200 A 
ATOM     61  F   UNL A   1      46.485  24.441  37.384  1.00  0.00    -0.200 F 
ATOM     62  F   UNL A   1      45.284  22.084  36.758  1.00  0.00    -0.200 F 
ENDBRANCH  28  52
BRANCH  40  63
ATOM     63  C   UNL A   1      48.704  27.481  28.539  1.00  0.00     0.064 A 
ATOM     64  C   UNL A   1      49.991  27.777  29.008  1.00  0.00     0.173 A 
ATOM     65  C   UNL A   1      48.578  26.725  27.365  1.00  0.00     0.173 A 
ATOM     66  F   UNL A   1      50.154  28.541  30.099  1.00  0.00    -0.203 F 
ATOM     67  C   UNL A   1      51.113  27.369  28.295  1.00  0.00     0.198 A 
ATOM     68  C   UNL A   1      49.703  26.284  26.680  1.00  0.00     0.198 A 
ATOM     69  F   UNL A   1      47.364  26.434  26.873  1.00  0.00    -0.203 F 
ATOM     70  F   UNL A   1      52.334  27.740  28.705  1.00  0.00    -0.200 F 
ATOM     71  C   UNL A   1      50.968  26.618  27.137  1.00  0.00     0.200 A 
ATOM     72  F   UNL A   1      49.560  25.558  25.564  1.00  0.00    -0.200 F 
ATOM     73  F   UNL A   1      52.051  26.236  26.448  1.00  0.00    -0.200 F 
ENDBRANCH  40  63
ENDBRANCH  14  15
ENDBRANCH   7   9
ENDBRANCH   6   7
ENDBRANCH   5   6
ENDBRANCH   4   5
ENDBRANCH   3   4
ENDBRANCH   2   3
ENDBRANCH   1   2
BRANCH   1  74
ATOM     74  O   UNL A   1      32.582  35.274  30.060  1.00  0.00    -0.376 OA
BRANCH  74  75
ATOM     75  C   UNL A   1      33.551  34.652  29.224  1.00  0.00     0.202 C 
BRANCH  75  76
ATOM     76  C   UNL A   1      34.185  33.326  29.680  1.00  0.00     0.261 C 
BRANCH  76  77
ATOM     77  O   UNL A   1      35.477  33.002  29.131  1.00  0.00    -0.460 OA
BRANCH  77  78
ATOM     78  C   UNL A   1      35.455  31.958  28.267  1.00  0.00     0.338 C 
ATOM     79  O   UNL A   1      34.489  31.553  27.636  1.00  0.00    -0.246 OA
BRANCH  78  80
ATOM     80  C   UNL A   1      36.719  31.201  28.286  1.00  0.00     0.060 A 
ATOM     81  C   UNL A   1      36.959  29.998  27.616  1.00  0.00     0.016 A 
ATOM     82  C   UNL A   1      37.667  31.697  29.167  1.00  0.00     0.016 A 
ATOM     83  C   UNL A   1      38.184  29.316  27.809  1.00  0.00     0.005 A 
ATOM     84  C   UNL A   1      38.851  31.002  29.376  1.00  0.00     0.005 A 
ATOM     85  C   UNL A   1      39.173  29.828  28.668  1.00  0.00    -0.039 A 
BRANCH  85  86
ATOM     86  C   UNL A   1      40.560  29.155  28.834  1.00  0.00     0.074 C 
ATOM     87  C   UNL A   1      40.505  27.948  29.789  1.00  0.00     0.020 C 
ATOM     88  C   UNL A   1      41.135  28.728  27.457  1.00  0.00     0.270 C 
ATOM     89  C   UNL A   1      41.752  27.069  29.678  1.00  0.00     0.062 C 
ATOM     90  N   UNL A   1      42.169  27.705  27.331  1.00  0.00    -0.333 N 
ATOM     91  C   UNL A   1      41.954  26.580  28.243  1.00  0.00     0.262 C 
ATOM     92  H   UNL A   1      43.062  28.112  27.611  1.00  0.00     0.348 HD
BRANCH  90  93
ATOM     93  C   UNL A   1      42.276  27.272  25.908  1.00  0.00     0.284 C 
BRANCH  93  94
ATOM     94  C   UNL A   1      43.572  26.608  25.344  1.00  0.00     0.180 C 
BRANCH  94  95
ATOM     95  N   UNL A   1      43.667  25.143  25.348  1.00  0.00    -0.337 N 
ATOM     96  C   UNL A   1      42.535  24.263  25.499  1.00  0.00     0.120 C 
ATOM     97  C   UNL A   1      44.797  24.447  24.964  1.00  0.00     0.222 C 
ATOM     98  C   UNL A   1      43.164  22.888  25.660  1.00  0.00     0.031 C 
ATOM     99  C   UNL A   1      44.455  22.984  24.867  1.00  0.00     0.102 C 
ATOM    100  O   UNL A   1      45.882  24.939  24.685  1.00  0.00    -0.275 OA
ENDBRANCH  94  95
ENDBRANCH  93  94
ENDBRANCH  90  93
ENDBRANCH  85  86
ENDBRANCH  78  80
ENDBRANCH  77  78
ENDBRANCH  76  77
ENDBRANCH  75  76
ENDBRANCH  74  75
ENDBRANCH   1  74
TORSDOF 21
ENDMDL
MODEL 2
REMARK VINA RESULT:      -8.9      5.689     10.871
REMARK SMILES O=C(OCCOCCOCCOC(=O)c1ccc([C@H]2CCC[N@@H+](CCN3CCCC3=O)C2)cc1)c1ccc(-c2c3nc(c(-c4c(F)c(F)c(F)c(F)c4F)c4ccc([nH]4)c(-c4c(F)c(F)c(F)c(F)c4F)c4nc(c(-c5c(F)c(F)c(F)c(F)c5F)c5ccc2[nH]5)C=C4)C=C3)cc1
REMARK SMILES IDX 8 1 7 2 6 3 5 4 4 5 3 6 2 7 1 8 35 9 36 10 97 11 37 12 96 13
REMARK SMILES IDX 38 14 39 15 40 16 90 17 41 18 95 19 89 20 91 21 42 22 94 23
REMARK SMILES IDX 88 24 87 25 43 27 75 28 55 29 74 30 56 31 59 32 73 33 92 34
REMARK SMILES IDX 57 35 58 36 72 38 93 39 60 40 44 41 45 42 53 43 46 44 47 45
REMARK SMILES IDX 51 46 54 47 48 48 49 49 52 50 50 51 76 52 77 53 85 54 78 55
REMARK SMILES IDX 79 56 83 57 86 58 80 59 81 60 84 61 82 62 61 63 62 64 70 65
REMARK SMILES IDX 63 66 64 67 68 68 71 69 65 70 66 71 69 72 67 73 9 74 10 75
REMARK SMILES IDX 11 76 12 77 13 78 14 79 15 80 16 81 34 82 17 83 33 84 18 85
REMARK SMILES IDX 19 86 20 87 32 88 21 89 23 90 22 91 24 93 25 94 26 95 27 96
REMARK SMILES IDX 30 97 28 98 29 99 31 100
REMARK H PARENT 91 26 59 37 23 92
REMARK Flexibility Score: inf
ROOT
ATOM      1  C   UNL A   1      39.630  21.722  25.916  1.00  0.00     0.188 C 
ENDROOT
BRANCH   1   2
ATOM      2  C   UNL A   1      40.382  21.731  27.246  1.00  0.00     0.188 C 
BRANCH   2   3
ATOM      3  O   UNL A   1      41.729  22.184  27.155  1.00  0.00    -0.376 OA
BRANCH   3   4
ATOM      4  C   UNL A   1      42.514  21.601  26.110  1.00  0.00     0.202 C 
BRANCH   4   5
ATOM      5  C   UNL A   1      43.350  22.549  25.223  1.00  0.00     0.261 C 
BRANCH   5   6
ATOM      6  O   UNL A   1      43.962  23.683  25.881  1.00  0.00    -0.460 OA
BRANCH   6   7
ATOM      7  C   UNL A   1      43.837  25.016  25.665  1.00  0.00     0.338 C 
ATOM      8  O   UNL A   1      44.273  25.506  24.627  1.00  0.00    -0.246 OA
BRANCH   7   9
ATOM      9  C   UNL A   1      43.187  25.919  26.646  1.00  0.00     0.060 A 
ATOM     10  C   UNL A   1      43.595  27.225  26.840  1.00  0.00     0.016 A 
ATOM     11  C   UNL A   1      42.063  25.474  27.355  1.00  0.00     0.016 A 
ATOM     12  C   UNL A   1      43.099  27.996  27.866  1.00  0.00     0.010 A 
ATOM     13  C   UNL A   1      41.448  26.307  28.303  1.00  0.00     0.010 A 
ATOM     14  C   UNL A   1      42.011  27.556  28.609  1.00  0.00    -0.014 A 
BRANCH  14  15
ATOM     15  C   UNL A   1      41.621  28.369  29.784  1.00  0.00     0.031 A 
ATOM     16  C   UNL A   1      40.407  29.244  29.674  1.00  0.00     0.074 A 
ATOM     17  C   UNL A   1      42.162  28.131  30.996  1.00  0.00     0.049 A 
ATOM     18  N   UNL A   1      39.889  30.058  30.555  1.00  0.00    -0.248 NA
ATOM     19  C   UNL A   1      39.645  29.159  28.416  1.00  0.00     0.031 C 
ATOM     20  C   UNL A   1      43.181  27.120  31.294  1.00  0.00     0.029 A 
ATOM     21  N   UNL A   1      41.871  28.667  32.226  1.00  0.00    -0.354 N 
ATOM     22  C   UNL A   1      38.748  30.574  29.962  1.00  0.00     0.074 A 
ATOM     23  C   UNL A   1      38.666  30.024  28.629  1.00  0.00     0.031 C 
ATOM     24  C   UNL A   1      43.354  27.054  32.623  1.00  0.00     0.029 A 
ATOM     25  C   UNL A   1      42.628  28.138  33.244  1.00  0.00     0.049 A 
ATOM     26  H   UNL A   1      41.189  29.363  32.365  1.00  0.00     0.167 HD
ATOM     27  C   UNL A   1      37.835  31.416  30.497  1.00  0.00     0.037 A 
ATOM     28  C   UNL A   1      42.779  28.548  34.513  1.00  0.00     0.037 A 
ATOM     29  C   UNL A   1      37.926  31.950  31.828  1.00  0.00     0.049 A 
ATOM     30  C   UNL A   1      41.981  29.725  34.967  1.00  0.00     0.074 A 
ATOM     31  C   UNL A   1      37.104  32.867  32.455  1.00  0.00     0.029 A 
ATOM     32  N   UNL A   1      38.913  31.605  32.742  1.00  0.00    -0.354 N 
ATOM     33  N   UNL A   1      41.023  30.359  34.345  1.00  0.00    -0.248 NA
ATOM     34  C   UNL A   1      42.289  30.237  36.307  1.00  0.00     0.031 C 
ATOM     35  C   UNL A   1      37.624  33.121  33.728  1.00  0.00     0.029 A 
ATOM     36  C   UNL A   1      38.734  32.315  33.917  1.00  0.00     0.049 A 
ATOM     37  H   UNL A   1      39.631  30.953  32.578  1.00  0.00     0.167 HD
ATOM     38  C   UNL A   1      40.583  31.322  35.231  1.00  0.00     0.074 A 
ATOM     39  C   UNL A   1      41.394  31.203  36.425  1.00  0.00     0.031 C 
ATOM     40  C   UNL A   1      39.567  32.201  35.081  1.00  0.00     0.037 A 
BRANCH  27  41
ATOM     41  C   UNL A   1      36.702  31.845  29.616  1.00  0.00     0.064 A 
ATOM     42  C   UNL A   1      36.612  33.147  29.100  1.00  0.00     0.173 A 
ATOM     43  C   UNL A   1      35.682  30.938  29.296  1.00  0.00     0.173 A 
ATOM     44  F   UNL A   1      37.546  34.061  29.404  1.00  0.00    -0.203 F 
ATOM     45  C   UNL A   1      35.529  33.530  28.312  1.00  0.00     0.198 A 
ATOM     46  C   UNL A   1      34.616  31.316  28.485  1.00  0.00     0.198 A 
ATOM     47  F   UNL A   1      35.715  29.686  29.776  1.00  0.00    -0.203 F 
ATOM     48  F   UNL A   1      35.434  34.793  27.876  1.00  0.00    -0.200 F 
ATOM     49  C   UNL A   1      34.537  32.612  28.000  1.00  0.00     0.200 A 
ATOM     50  F   UNL A   1      33.661  30.427  28.181  1.00  0.00    -0.200 F 
ATOM     51  F   UNL A   1      33.496  32.982  27.243  1.00  0.00    -0.200 F 
ENDBRANCH  27  41
BRANCH  28  52
ATOM     52  C   UNL A   1      43.805  27.999  35.433  1.00  0.00     0.064 A 
ATOM     53  C   UNL A   1      45.151  28.368  35.347  1.00  0.00     0.173 A 
ATOM     54  C   UNL A   1      43.472  26.907  36.250  1.00  0.00     0.173 A 
ATOM     55  F   UNL A   1      45.528  29.350  34.517  1.00  0.00    -0.203 F 
ATOM     56  C   UNL A   1      46.129  27.665  36.054  1.00  0.00     0.198 A 
ATOM     57  C   UNL A   1      44.449  26.208  36.952  1.00  0.00     0.198 A 
ATOM     58  F   UNL A   1      42.208  26.460  36.285  1.00  0.00    -0.203 F 
ATOM     59  F   UNL A   1      47.420  27.994  35.916  1.00  0.00    -0.200 F 
ATOM     60  C   UNL A   1      45.777  26.589  36.855  1.00  0.00     0.200 A 
ATOM     61  F   UNL A   1      44.114  25.140  37.687  1.00  0.00    -0.200 F 
ATOM     62  F   UNL A   1      46.718  25.898  37.512  1.00  0.00    -0.200 F 
ENDBRANCH  28  52
BRANCH  40  63
ATOM     63  C   UNL A   1      39.243  33.023  36.284  1.00  0.00     0.064 A 
ATOM     64  C   UNL A   1      39.821  34.281  36.503  1.00  0.00     0.173 A 
ATOM     65  C   UNL A   1      38.392  32.500  37.268  1.00  0.00     0.173 A 
ATOM     66  F   UNL A   1      40.681  34.795  35.609  1.00  0.00    -0.203 F 
ATOM     67  C   UNL A   1      39.589  34.969  37.689  1.00  0.00     0.198 A 
ATOM     68  C   UNL A   1      38.130  33.209  38.432  1.00  0.00     0.198 A 
ATOM     69  F   UNL A   1      37.833  31.291  37.106  1.00  0.00    -0.203 F 
ATOM     70  F   UNL A   1      40.222  36.127  37.923  1.00  0.00    -0.200 F 
ATOM     71  C   UNL A   1      38.740  34.436  38.649  1.00  0.00     0.200 A 
ATOM     72  F   UNL A   1      37.309  32.693  39.356  1.00  0.00    -0.200 F 
ATOM     73  F   UNL A   1      38.527  35.095  39.794  1.00  0.00    -0.200 F 
ENDBRANCH  40  63
ENDBRANCH  14  15
ENDBRANCH   7   9
ENDBRANCH   6   7
ENDBRANCH   5   6
ENDBRANCH   4   5
ENDBRANCH   3   4
ENDBRANCH   2   3
ENDBRANCH   1   2
BRANCH   1  74
ATOM     74  O   UNL A   1      38.235  21.457  25.956  1.00  0.00    -0.376 OA
BRANCH  74  75
ATOM     75  C   UNL A   1      37.385  22.310  25.200  1.00  0.00     0.202 C 
BRANCH  75  76
ATOM     76  C   UNL A   1      36.082  21.735  24.616  1.00  0.00     0.261 C 
BRANCH  76  77
ATOM     77  O   UNL A   1      35.205  21.056  25.534  1.00  0.00    -0.460 OA
BRANCH  77  78
ATOM     78  C   UNL A   1      34.037  20.654  24.974  1.00  0.00     0.338 C 
ATOM     79  O   UNL A   1      33.748  19.519  24.624  1.00  0.00    -0.246 OA
BRANCH  78  80
ATOM     80  C   UNL A   1      33.165  21.794  24.643  1.00  0.00     0.060 A 
ATOM     81  C   UNL A   1      32.455  22.572  25.564  1.00  0.00     0.016 A 
ATOM     82  C   UNL A   1      32.958  21.979  23.286  1.00  0.00     0.016 A 
ATOM     83  C   UNL A   1      31.564  23.569  25.104  1.00  0.00     0.005 A 
ATOM     84  C   UNL A   1      32.056  22.937  22.845  1.00  0.00     0.005 A 
ATOM     85  C   UNL A   1      31.375  23.797  23.729  1.00  0.00    -0.039 A 
BRANCH  85  86
ATOM     86  C   UNL A   1      30.476  24.940  23.191  1.00  0.00     0.074 C 
ATOM     87  C   UNL A   1      29.533  25.492  24.277  1.00  0.00     0.020 C 
ATOM     88  C   UNL A   1      31.336  26.085  22.591  1.00  0.00     0.270 C 
ATOM     89  C   UNL A   1      28.917  26.834  23.876  1.00  0.00     0.062 C 
ATOM     90  N   UNL A   1      30.819  27.440  22.427  1.00  0.00    -0.333 N 
ATOM     91  C   UNL A   1      30.001  27.866  23.565  1.00  0.00     0.262 C 
ATOM     92  H   UNL A   1      30.190  27.451  21.624  1.00  0.00     0.348 HD
BRANCH  90  93
ATOM     93  C   UNL A   1      31.946  28.377  22.155  1.00  0.00     0.284 C 
BRANCH  93  94
ATOM     94  C   UNL A   1      33.370  28.150  22.756  1.00  0.00     0.180 C 
BRANCH  94  95
ATOM     95  N   UNL A   1      33.479  27.704  24.150  1.00  0.00    -0.337 N 
ATOM     96  C   UNL A   1      34.018  26.426  24.547  1.00  0.00     0.120 C 
ATOM     97  C   UNL A   1      33.311  28.539  25.237  1.00  0.00     0.222 C 
ATOM     98  C   UNL A   1      33.712  26.350  26.035  1.00  0.00     0.031 C 
ATOM     99  C   UNL A   1      33.726  27.801  26.482  1.00  0.00     0.102 C 
ATOM    100  O   UNL A   1      32.947  29.706  25.196  1.00  0.00    -0.275 OA
ENDBRANCH  94  95
ENDBRANCH  93  94
ENDBRANCH  90  93
ENDBRANCH  85  86
ENDBRANCH  78  80
ENDBRANCH  77  78
ENDBRANCH  76  77
ENDBRANCH  75  76
ENDBRANCH  74  75
ENDBRANCH   1  74
TORSDOF 21
ENDMDL
MODEL 3
REMARK VINA RESULT:      -8.6      0.988      2.210
REMARK SMILES O=C(OCCOCCOCCOC(=O)c1ccc([C@H]2CCC[N@@H+](CCN3CCCC3=O)C2)cc1)c1ccc(-c2c3nc(c(-c4c(F)c(F)c(F)c(F)c4F)c4ccc([nH]4)c(-c4c(F)c(F)c(F)c(F)c4F)c4nc(c(-c5c(F)c(F)c(F)c(F)c5F)c5ccc2[nH]5)C=C4)C=C3)cc1
REMARK SMILES IDX 8 1 7 2 6 3 5 4 4 5 3 6 2 7 1 8 35 9 36 10 97 11 37 12 96 13
REMARK SMILES IDX 38 14 39 15 40 16 90 17 41 18 95 19 89 20 91 21 42 22 94 23
REMARK SMILES IDX 88 24 87 25 43 27 75 28 55 29 74 30 56 31 59 32 73 33 92 34
REMARK SMILES IDX 57 35 58 36 72 38 93 39 60 40 44 41 45 42 53 43 46 44 47 45
REMARK SMILES IDX 51 46 54 47 48 48 49 49 52 50 50 51 76 52 77 53 85 54 78 55
REMARK SMILES IDX 79 56 83 57 86 58 80 59 81 60 84 61 82 62 61 63 62 64 70 65
REMARK SMILES IDX 63 66 64 67 68 68 71 69 65 70 66 71 69 72 67 73 9 74 10 75
REMARK SMILES IDX 11 76 12 77 13 78 14 79 15 80 16 81 34 82 17 83 33 84 18 85
REMARK SMILES IDX 19 86 20 87 32 88 21 89 23 90 22 91 24 93 25 94 26 95 27 96
REMARK SMILES IDX 30 97 28 98 29 99 31 100
REMARK H PARENT 91 26 59 37 23 92
REMARK Flexibility Score: inf
ROOT
ATOM      1  C   UNL A   1      32.513  36.220  31.143  1.00  0.00     0.188 C 
ENDROOT
BRANCH   1   2
ATOM      2  C   UNL A   1      33.165  35.797  32.459  1.00  0.00     0.188 C 
BRANCH   2   3
ATOM      3  O   UNL A   1      32.631  34.602  33.020  1.00  0.00    -0.376 OA
BRANCH   3   4
ATOM      4  C   UNL A   1      33.555  33.523  33.189  1.00  0.00     0.202 C 
BRANCH   4   5
ATOM      5  C   UNL A   1      34.933  33.845  33.808  1.00  0.00     0.261 C 
BRANCH   5   6
ATOM      6  O   UNL A   1      35.796  32.718  34.091  1.00  0.00    -0.460 OA
BRANCH   6   7
ATOM      7  C   UNL A   1      36.912  32.616  34.854  1.00  0.00     0.338 C 
ATOM      8  O   UNL A   1      36.959  33.186  35.941  1.00  0.00    -0.246 OA
BRANCH   7   9
ATOM      9  C   UNL A   1      38.096  31.833  34.424  1.00  0.00     0.060 A 
ATOM     10  C   UNL A   1      39.355  32.034  34.958  1.00  0.00     0.016 A 
ATOM     11  C   UNL A   1      37.937  30.791  33.501  1.00  0.00     0.016 A 
ATOM     12  C   UNL A   1      40.472  31.423  34.433  1.00  0.00     0.010 A 
ATOM     13  C   UNL A   1      39.050  30.054  33.066  1.00  0.00     0.010 A 
ATOM     14  C   UNL A   1      40.338  30.416  33.486  1.00  0.00    -0.014 A 
BRANCH  14  15
ATOM     15  C   UNL A   1      41.582  29.904  32.864  1.00  0.00     0.031 A 
ATOM     16  C   UNL A   1      42.231  30.726  31.789  1.00  0.00     0.074 A 
ATOM     17  C   UNL A   1      42.263  28.885  33.425  1.00  0.00     0.049 A 
ATOM     18  N   UNL A   1      43.304  30.474  31.087  1.00  0.00    -0.248 NA
ATOM     19  C   UNL A   1      41.614  32.031  31.494  1.00  0.00     0.031 C 
ATOM     20  C   UNL A   1      41.869  28.157  34.635  1.00  0.00     0.029 A 
ATOM     21  N   UNL A   1      43.477  28.335  33.099  1.00  0.00    -0.354 N 
ATOM     22  C   UNL A   1      43.488  31.583  30.276  1.00  0.00     0.074 A 
ATOM     23  C   UNL A   1      42.397  32.494  30.532  1.00  0.00     0.031 C 
ATOM     24  C   UNL A   1      42.864  27.329  34.988  1.00  0.00     0.029 A 
ATOM     25  C   UNL A   1      43.858  27.316  33.940  1.00  0.00     0.049 A 
ATOM     26  H   UNL A   1      44.021  28.638  32.337  1.00  0.00     0.167 HD
ATOM     27  C   UNL A   1      44.499  31.827  29.412  1.00  0.00     0.037 A 
ATOM     28  C   UNL A   1      44.848  26.418  33.819  1.00  0.00     0.037 A 
ATOM     29  C   UNL A   1      45.583  30.913  29.173  1.00  0.00     0.049 A 
ATOM     30  C   UNL A   1      45.750  26.528  32.635  1.00  0.00     0.074 A 
ATOM     31  C   UNL A   1      46.623  31.017  28.269  1.00  0.00     0.029 A 
ATOM     32  N   UNL A   1      45.761  29.718  29.855  1.00  0.00    -0.354 N 
ATOM     33  N   UNL A   1      45.816  27.474  31.735  1.00  0.00    -0.248 NA
ATOM     34  C   UNL A   1      46.719  25.440  32.456  1.00  0.00     0.031 C 
ATOM     35  C   UNL A   1      47.399  29.858  28.363  1.00  0.00     0.029 A 
ATOM     36  C   UNL A   1      46.879  29.061  29.369  1.00  0.00     0.049 A 
ATOM     37  H   UNL A   1      45.179  29.386  30.576  1.00  0.00     0.167 HD
ATOM     38  C   UNL A   1      46.860  27.118  30.904  1.00  0.00     0.074 A 
ATOM     39  C   UNL A   1      47.382  25.859  31.393  1.00  0.00     0.031 C 
ATOM     40  C   UNL A   1      47.366  27.799  29.851  1.00  0.00     0.037 A 
BRANCH  27  41
ATOM     41  C   UNL A   1      44.436  33.103  28.629  1.00  0.00     0.064 A 
ATOM     42  C   UNL A   1      44.074  33.128  27.274  1.00  0.00     0.173 A 
ATOM     43  C   UNL A   1      44.758  34.319  29.247  1.00  0.00     0.173 A 
ATOM     44  F   UNL A   1      43.789  31.987  26.628  1.00  0.00    -0.203 F 
ATOM     45  C   UNL A   1      44.058  34.324  26.561  1.00  0.00     0.198 A 
ATOM     46  C   UNL A   1      44.713  35.516  28.540  1.00  0.00     0.198 A 
ATOM     47  F   UNL A   1      45.123  34.346  30.538  1.00  0.00    -0.203 F 
ATOM     48  F   UNL A   1      43.765  34.319  25.254  1.00  0.00    -0.200 F 
ATOM     49  C   UNL A   1      44.370  35.517  27.197  1.00  0.00     0.200 A 
ATOM     50  F   UNL A   1      45.010  36.668  29.157  1.00  0.00    -0.200 F 
ATOM     51  F   UNL A   1      44.355  36.667  26.509  1.00  0.00    -0.200 F 
ENDBRANCH  27  41
BRANCH  28  52
ATOM     52  C   UNL A   1      44.995  25.239  34.706  1.00  0.00     0.064 A 
ATOM     53  C   UNL A   1      45.889  25.228  35.782  1.00  0.00     0.173 A 
ATOM     54  C   UNL A   1      44.409  24.022  34.325  1.00  0.00     0.173 A 
ATOM     55  F   UNL A   1      46.536  26.348  36.131  1.00  0.00    -0.203 F 
ATOM     56  C   UNL A   1      46.186  24.038  36.450  1.00  0.00     0.198 A 
ATOM     57  C   UNL A   1      44.707  22.838  34.992  1.00  0.00     0.198 A 
ATOM     58  F   UNL A   1      43.622  23.971  33.240  1.00  0.00    -0.203 F 
ATOM     59  F   UNL A   1      47.088  24.034  37.440  1.00  0.00    -0.200 F 
ATOM     60  C   UNL A   1      45.595  22.847  36.055  1.00  0.00     0.200 A 
ATOM     61  F   UNL A   1      44.174  21.681  34.579  1.00  0.00    -0.200 F 
ATOM     62  F   UNL A   1      45.901  21.701  36.677  1.00  0.00    -0.200 F 
ENDBRANCH  28  52
BRANCH  40  63
ATOM     63  C   UNL A   1      48.596  27.217  29.238  1.00  0.00     0.064 A 
ATOM     64  C   UNL A   1      48.541  26.156  28.324  1.00  0.00     0.173 A 
ATOM     65  C   UNL A   1      49.854  27.692  29.634  1.00  0.00     0.173 A 
ATOM     66  F   UNL A   1      47.358  25.639  27.958  1.00  0.00    -0.203 F 
ATOM     67  C   UNL A   1      49.709  25.560  27.862  1.00  0.00     0.198 A 
ATOM     68  C   UNL A   1      51.018  27.121  29.138  1.00  0.00     0.198 A 
ATOM     69  F   UNL A   1      49.951  28.695  30.521  1.00  0.00    -0.203 F 
ATOM     70  F   UNL A   1      49.639  24.487  27.063  1.00  0.00    -0.200 F 
ATOM     71  C   UNL A   1      50.945  26.047  28.264  1.00  0.00     0.200 A 
ATOM     72  F   UNL A   1      52.210  27.594  29.526  1.00  0.00    -0.200 F 
ATOM     73  F   UNL A   1      52.068  25.465  27.826  1.00  0.00    -0.200 F 
ENDBRANCH  40  63
ENDBRANCH  14  15
ENDBRANCH   7   9
ENDBRANCH   6   7
ENDBRANCH   5   6
ENDBRANCH   4   5
ENDBRANCH   3   4
ENDBRANCH   2   3
ENDBRANCH   1   2
BRANCH   1  74
ATOM     74  O   UNL A   1      32.538  35.288  30.072  1.00  0.00    -0.376 OA
BRANCH  74  75
ATOM     75  C   UNL A   1      33.802  34.994  29.491  1.00  0.00     0.202 C 
BRANCH  75  76
ATOM     76  C   UNL A   1      34.522  33.695  29.894  1.00  0.00     0.261 C 
BRANCH  76  77
ATOM     77  O   UNL A   1      35.904  33.572  29.506  1.00  0.00    -0.460 OA
BRANCH  77  78
ATOM     78  C   UNL A   1      36.083  32.932  28.325  1.00  0.00     0.338 C 
ATOM     79  O   UNL A   1      35.508  33.167  27.272  1.00  0.00    -0.246 OA
BRANCH  78  80
ATOM     80  C   UNL A   1      36.948  31.747  28.466  1.00  0.00     0.060 A 
ATOM     81  C   UNL A   1      36.717  30.494  27.891  1.00  0.00     0.016 A 
ATOM     82  C   UNL A   1      37.989  31.906  29.367  1.00  0.00     0.016 A 
ATOM     83  C   UNL A   1      37.570  29.409  28.198  1.00  0.00     0.005 A 
ATOM     84  C   UNL A   1      38.800  30.826  29.689  1.00  0.00     0.005 A 
ATOM     85  C   UNL A   1      38.656  29.565  29.078  1.00  0.00    -0.039 A 
BRANCH  85  86
ATOM     86  C   UNL A   1      39.664  28.422  29.368  1.00  0.00     0.074 C 
ATOM     87  C   UNL A   1      39.193  27.077  28.783  1.00  0.00     0.020 C 
ATOM     88  C   UNL A   1      41.075  28.781  28.830  1.00  0.00     0.270 C 
ATOM     89  C   UNL A   1      40.321  26.044  28.737  1.00  0.00     0.062 C 
ATOM     90  N   UNL A   1      42.083  27.760  28.557  1.00  0.00    -0.333 N 
ATOM     91  C   UNL A   1      41.512  26.565  27.933  1.00  0.00     0.262 C 
ATOM     92  H   UNL A   1      42.470  27.442  29.446  1.00  0.00     0.348 HD
BRANCH  90  93
ATOM     93  C   UNL A   1      43.188  28.352  27.749  1.00  0.00     0.284 C 
BRANCH  93  94
ATOM     94  C   UNL A   1      43.300  28.116  26.209  1.00  0.00     0.180 C 
BRANCH  94  95
ATOM     95  N   UNL A   1      44.488  27.427  25.690  1.00  0.00    -0.337 N 
ATOM     96  C   UNL A   1      45.814  27.993  25.695  1.00  0.00     0.120 C 
ATOM     97  C   UNL A   1      44.516  26.083  25.370  1.00  0.00     0.222 C 
ATOM     98  C   UNL A   1      46.630  27.012  24.869  1.00  0.00     0.031 C 
ATOM     99  C   UNL A   1      45.941  25.679  25.103  1.00  0.00     0.102 C 
ATOM    100  O   UNL A   1      43.555  25.327  25.365  1.00  0.00    -0.275 OA
ENDBRANCH  94  95
ENDBRANCH  93  94
ENDBRANCH  90  93
ENDBRANCH  85  86
ENDBRANCH  78  80
ENDBRANCH  77  78
ENDBRANCH  76  77
ENDBRANCH  75  76
ENDBRANCH  74  75
ENDBRANCH   1  74
TORSDOF 21
ENDMDL
