MODEL 1
REMARK VINA RESULT:     -10.3      0.000      0.000
REMARK SMILES C=CCN1C(=O)/C(=C\c2cccn2-c2ccc(C(=O)OCCOCCOCCOC(=O)c3ccc(-c4c5nc(c(-c6c(F)c(F)c(F)c(F)c6F)c6ccc([nH]6)c(-c6c(F)c(F)c(F)c(F)c6F)c6nc(c(-c7c(F)c(F)c(F)c(F)c7F)c7ccc4[nH]7)C=C6)C=C5)cc3)cc2)C(O)=NC1=S
REMARK SMILES IDX 24 1 23 2 22 3 21 4 20 5 18 6 19 7 17 8 14 9 15 10 96 11
REMARK SMILES IDX 16 12 95 13 13 14 9 15 10 16 11 17 12 18 8 19 4 20 5 21
REMARK SMILES IDX 100 22 6 23 7 24 99 25 101 26 97 27 3 28 2 29 1 30 98 31
REMARK SMILES IDX 25 33 26 34 27 35 28 36 29 37 30 38 31 39 32 40 33 41 94 42
REMARK SMILES IDX 34 43 93 44 35 45 36 46 37 47 87 48 38 49 92 50 86 51 88 52
REMARK SMILES IDX 39 53 91 54 85 55 84 56 40 58 72 59 52 60 71 61 53 62 56 63
REMARK SMILES IDX 70 64 89 65 54 66 55 67 69 69 90 70 57 71 41 72 42 73 50 74
REMARK SMILES IDX 43 75 44 76 48 77 51 78 45 79 46 80 49 81 47 82 73 83 74 84
REMARK SMILES IDX 82 85 75 86 76 87 80 88 83 89 77 90 78 91 81 92 79 93 58 94
REMARK SMILES IDX 59 95 67 96 60 97 61 98 65 99 68 100 62 101 63 102 66 103
REMARK SMILES IDX 64 104
REMARK H PARENT 98 32 88 57 56 68
REMARK Flexibility Score: inf
ROOT
ATOM      1  C   UNL A   1      33.444  36.667  29.657  1.00  0.00     0.188 C 
ENDROOT
BRANCH   1   2
ATOM      2  O   UNL A   1      32.844  37.324  30.761  1.00  0.00    -0.376 OA
BRANCH   2   3
ATOM      3  C   UNL A   1      32.404  36.466  31.810  1.00  0.00     0.202 C 
BRANCH   3   4
ATOM      4  C   UNL A   1      33.348  36.337  33.017  1.00  0.00     0.261 C 
BRANCH   4   5
ATOM      5  O   UNL A   1      34.564  35.612  32.773  1.00  0.00    -0.460 OA
BRANCH   5   6
ATOM      6  C   UNL A   1      34.565  34.295  33.076  1.00  0.00     0.338 C 
ATOM      7  O   UNL A   1      33.610  33.541  33.040  1.00  0.00    -0.246 OA
BRANCH   6   8
ATOM      8  C   UNL A   1      35.963  33.855  33.319  1.00  0.00     0.060 A 
ATOM      9  C   UNL A   1      38.555  32.953  33.857  1.00  0.00     0.046 A 
ATOM     10  C   UNL A   1      37.475  32.068  33.964  1.00  0.00     0.027 A 
ATOM     11  C   UNL A   1      38.348  34.267  33.413  1.00  0.00     0.027 A 
ATOM     12  C   UNL A   1      36.178  32.530  33.725  1.00  0.00     0.018 A 
ATOM     13  C   UNL A   1      37.052  34.714  33.131  1.00  0.00     0.018 A 
BRANCH   9  14
ATOM     14  N   UNL A   1      39.847  32.518  34.261  1.00  0.00    -0.317 N 
ATOM     15  C   UNL A   1      40.209  31.978  35.496  1.00  0.00     0.047 A 
ATOM     16  C   UNL A   1      41.553  31.652  35.439  1.00  0.00     0.028 A 
ATOM     17  C   UNL A   1      42.024  31.970  34.148  1.00  0.00     0.020 A 
ATOM     18  C   UNL A   1      40.953  32.461  33.435  1.00  0.00     0.092 A 
BRANCH  15  19
ATOM     19  C   UNL A   1      39.234  31.720  36.498  1.00  0.00     0.046 C 
ATOM     20  N   UNL A   1      39.328  34.505  38.910  1.00  0.00    -0.279 N 
ATOM     21  C   UNL A   1      39.525  33.914  37.661  1.00  0.00     0.265 C 
ATOM     22  C   UNL A   1      38.422  34.016  39.864  1.00  0.00     0.206 C 
ATOM     23  O   UNL A   1      40.141  34.467  36.753  1.00  0.00    -0.268 OA
ATOM     24  C   UNL A   1      38.900  32.575  37.484  1.00  0.00     0.104 C 
ATOM     25  N   UNL A   1      37.684  32.899  39.568  1.00  0.00    -0.184 NA
ATOM     26  S   UNL A   1      38.156  34.735  41.376  1.00  0.00    -0.038 S 
ATOM     27  C   UNL A   1      37.894  32.238  38.492  1.00  0.00     0.226 C 
BRANCH  20  28
ATOM     28  C   UNL A   1      40.131  35.713  39.140  1.00  0.00     0.155 C 
BRANCH  28  29
ATOM     29  C   UNL A   1      39.301  36.940  38.878  1.00  0.00    -0.013 C 
ATOM     30  C   UNL A   1      39.092  37.927  39.758  1.00  0.00     0.006 C 
ENDBRANCH  28  29
ENDBRANCH  20  28
BRANCH  27  31
ATOM     31  O   UNL A   1      37.090  31.182  38.276  1.00  0.00    -0.493 OA
ATOM     32  H   UNL A   1      37.460  30.345  38.075  1.00  0.00     0.295 HD
ENDBRANCH  27  31
ENDBRANCH  15  19
ENDBRANCH   9  14
ENDBRANCH   6   8
ENDBRANCH   5   6
ENDBRANCH   4   5
ENDBRANCH   3   4
ENDBRANCH   2   3
ENDBRANCH   1   2
BRANCH   1  33
ATOM     33  C   UNL A   1      33.034  35.195  29.476  1.00  0.00     0.188 C 
BRANCH  33  34
ATOM     34  O   UNL A   1      32.679  34.659  28.210  1.00  0.00    -0.376 OA
BRANCH  34  35
ATOM     35  C   UNL A   1      32.938  33.303  27.885  1.00  0.00     0.202 C 
BRANCH  35  36
ATOM     36  C   UNL A   1      34.353  32.716  27.986  1.00  0.00     0.261 C 
BRANCH  36  37
ATOM     37  O   UNL A   1      34.801  32.326  29.280  1.00  0.00    -0.460 OA
BRANCH  37  38
ATOM     38  C   UNL A   1      36.051  32.753  29.555  1.00  0.00     0.338 C 
ATOM     39  O   UNL A   1      36.421  33.889  29.793  1.00  0.00    -0.246 OA
BRANCH  38  40
ATOM     40  C   UNL A   1      36.971  31.614  29.521  1.00  0.00     0.060 A 
ATOM     41  C   UNL A   1      37.743  31.362  30.659  1.00  0.00     0.016 A 
ATOM     42  C   UNL A   1      37.208  30.957  28.308  1.00  0.00     0.016 A 
ATOM     43  C   UNL A   1      38.831  30.514  30.559  1.00  0.00     0.010 A 
ATOM     44  C   UNL A   1      38.318  30.135  28.198  1.00  0.00     0.010 A 
ATOM     45  C   UNL A   1      39.153  29.960  29.313  1.00  0.00    -0.014 A 
BRANCH  45  46
ATOM     46  C   UNL A   1      40.460  29.287  29.170  1.00  0.00     0.031 A 
ATOM     47  C   UNL A   1      41.653  30.221  29.210  1.00  0.00     0.074 A 
ATOM     48  C   UNL A   1      40.396  27.935  28.990  1.00  0.00     0.049 A 
ATOM     49  N   UNL A   1      42.850  30.054  28.735  1.00  0.00    -0.248 NA
ATOM     50  C   UNL A   1      41.481  31.558  29.831  1.00  0.00     0.031 C 
ATOM     51  C   UNL A   1      39.135  27.169  29.008  1.00  0.00     0.029 A 
ATOM     52  N   UNL A   1      41.325  26.941  28.759  1.00  0.00    -0.354 N 
ATOM     53  C   UNL A   1      43.611  31.153  29.166  1.00  0.00     0.074 A 
ATOM     54  C   UNL A   1      42.694  32.099  29.730  1.00  0.00     0.031 C 
ATOM     55  C   UNL A   1      39.360  25.871  28.741  1.00  0.00     0.029 A 
ATOM     56  C   UNL A   1      40.775  25.655  28.521  1.00  0.00     0.049 A 
ATOM     57  H   UNL A   1      42.295  27.111  28.759  1.00  0.00     0.167 HD
ATOM     58  C   UNL A   1      44.972  31.171  29.175  1.00  0.00     0.037 A 
ATOM     59  C   UNL A   1      41.397  24.498  28.143  1.00  0.00     0.037 A 
ATOM     60  C   UNL A   1      45.527  29.983  28.618  1.00  0.00     0.049 A 
ATOM     61  C   UNL A   1      42.843  24.781  28.204  1.00  0.00     0.074 A 
ATOM     62  C   UNL A   1      45.693  29.520  27.340  1.00  0.00     0.029 A 
ATOM     63  N   UNL A   1      45.799  28.955  29.486  1.00  0.00    -0.354 N 
ATOM     64  N   UNL A   1      43.511  24.954  29.306  1.00  0.00    -0.248 NA
ATOM     65  C   UNL A   1      43.598  24.949  26.958  1.00  0.00     0.031 C 
ATOM     66  C   UNL A   1      45.739  28.111  27.462  1.00  0.00     0.029 A 
ATOM     67  C   UNL A   1      45.612  27.770  28.811  1.00  0.00     0.049 A 
ATOM     68  H   UNL A   1      46.077  29.048  30.426  1.00  0.00     0.167 HD
ATOM     69  C   UNL A   1      44.665  25.571  28.875  1.00  0.00     0.074 A 
ATOM     70  C   UNL A   1      44.780  25.291  27.464  1.00  0.00     0.031 C 
ATOM     71  C   UNL A   1      45.154  26.628  29.572  1.00  0.00     0.037 A 
BRANCH  58  72
ATOM     72  C   UNL A   1      45.900  32.116  29.876  1.00  0.00     0.064 A 
ATOM     73  C   UNL A   1      46.692  32.993  29.102  1.00  0.00     0.173 A 
ATOM     74  C   UNL A   1      46.264  31.969  31.224  1.00  0.00     0.173 A 
ATOM     75  F   UNL A   1      46.412  33.202  27.807  1.00  0.00    -0.203 F 
ATOM     76  C   UNL A   1      47.823  33.617  29.625  1.00  0.00     0.198 A 
ATOM     77  C   UNL A   1      47.373  32.631  31.754  1.00  0.00     0.198 A 
ATOM     78  F   UNL A   1      45.616  31.110  32.024  1.00  0.00    -0.203 F 
ATOM     79  F   UNL A   1      48.607  34.356  28.827  1.00  0.00    -0.200 F 
ATOM     80  C   UNL A   1      48.169  33.428  30.949  1.00  0.00     0.200 A 
ATOM     81  F   UNL A   1      47.709  32.437  33.038  1.00  0.00    -0.200 F 
ATOM     82  F   UNL A   1      49.285  33.982  31.442  1.00  0.00    -0.200 F 
ENDBRANCH  58  72
BRANCH  59  83
ATOM     83  C   UNL A   1      40.983  23.121  27.662  1.00  0.00     0.064 A 
ATOM     84  C   UNL A   1      39.968  22.835  26.738  1.00  0.00     0.173 A 
ATOM     85  C   UNL A   1      41.732  21.977  28.064  1.00  0.00     0.173 A 
ATOM     86  F   UNL A   1      39.129  23.774  26.298  1.00  0.00    -0.203 F 
ATOM     87  C   UNL A   1      39.775  21.551  26.199  1.00  0.00     0.198 A 
ATOM     88  C   UNL A   1      41.571  20.712  27.494  1.00  0.00     0.198 A 
ATOM     89  F   UNL A   1      42.670  22.056  29.018  1.00  0.00    -0.203 F 
ATOM     90  F   UNL A   1      38.792  21.349  25.309  1.00  0.00    -0.200 F 
ATOM     91  C   UNL A   1      40.598  20.500  26.548  1.00  0.00     0.200 A 
ATOM     92  F   UNL A   1      42.391  19.713  27.853  1.00  0.00    -0.200 F 
ATOM     93  F   UNL A   1      40.455  19.297  25.978  1.00  0.00    -0.200 F 
ENDBRANCH  59  83
BRANCH  71  94
ATOM     94  C   UNL A   1      44.682  26.645  31.013  1.00  0.00     0.064 A 
ATOM     95  C   UNL A   1      45.233  25.757  31.950  1.00  0.00     0.173 A 
ATOM     96  C   UNL A   1      43.585  27.403  31.453  1.00  0.00     0.173 A 
ATOM     97  F   UNL A   1      46.289  25.001  31.615  1.00  0.00    -0.203 F 
ATOM     98  C   UNL A   1      44.695  25.622  33.234  1.00  0.00     0.198 A 
ATOM     99  C   UNL A   1      43.053  27.283  32.735  1.00  0.00     0.198 A 
ATOM    100  F   UNL A   1      43.005  28.285  30.641  1.00  0.00    -0.203 F 
ATOM    101  F   UNL A   1      45.235  24.753  34.097  1.00  0.00    -0.200 F 
ATOM    102  C   UNL A   1      43.603  26.382  33.624  1.00  0.00     0.200 A 
ATOM    103  F   UNL A   1      42.009  28.042  33.100  1.00  0.00    -0.200 F 
ATOM    104  F   UNL A   1      43.090  26.257  34.856  1.00  0.00    -0.200 F 
ENDBRANCH  71  94
ENDBRANCH  45  46
ENDBRANCH  38  40
ENDBRANCH  37  38
ENDBRANCH  36  37
ENDBRANCH  35  36
ENDBRANCH  34  35
ENDBRANCH  33  34
ENDBRANCH   1  33
TORSDOF 22
ENDMDL
MODEL 2
REMARK VINA RESULT:     -10.3      6.368     12.478
REMARK SMILES C=CCN1C(=O)/C(=C\c2cccn2-c2ccc(C(=O)OCCOCCOCCOC(=O)c3ccc(-c4c5nc(c(-c6c(F)c(F)c(F)c(F)c6F)c6ccc([nH]6)c(-c6c(F)c(F)c(F)c(F)c6F)c6nc(c(-c7c(F)c(F)c(F)c(F)c7F)c7ccc4[nH]7)C=C6)C=C5)cc3)cc2)C(O)=NC1=S
REMARK SMILES IDX 24 1 23 2 22 3 21 4 20 5 18 6 19 7 17 8 14 9 15 10 96 11
REMARK SMILES IDX 16 12 95 13 13 14 9 15 10 16 11 17 12 18 8 19 4 20 5 21
REMARK SMILES IDX 100 22 6 23 7 24 99 25 101 26 97 27 3 28 2 29 1 30 98 31
REMARK SMILES IDX 25 33 26 34 27 35 28 36 29 37 30 38 31 39 32 40 33 41 94 42
REMARK SMILES IDX 34 43 93 44 35 45 36 46 37 47 87 48 38 49 92 50 86 51 88 52
REMARK SMILES IDX 39 53 91 54 85 55 84 56 40 58 72 59 52 60 71 61 53 62 56 63
REMARK SMILES IDX 70 64 89 65 54 66 55 67 69 69 90 70 57 71 41 72 42 73 50 74
REMARK SMILES IDX 43 75 44 76 48 77 51 78 45 79 46 80 49 81 47 82 73 83 74 84
REMARK SMILES IDX 82 85 75 86 76 87 80 88 83 89 77 90 78 91 81 92 79 93 58 94
REMARK SMILES IDX 59 95 67 96 60 97 61 98 65 99 68 100 62 101 63 102 66 103
REMARK SMILES IDX 64 104
REMARK H PARENT 98 32 88 57 56 68
REMARK Flexibility Score: inf
ROOT
ATOM      1  C   UNL A   1      40.706  20.043  26.440  1.00  0.00     0.188 C 
ENDROOT
BRANCH   1   2
ATOM      2  O   UNL A   1      40.193  19.209  25.415  1.00  0.00    -0.376 OA
BRANCH   2   3
ATOM      3  C   UNL A   1      38.776  19.069  25.399  1.00  0.00     0.202 C 
BRANCH   3   4
ATOM      4  C   UNL A   1      37.996  20.179  24.675  1.00  0.00     0.261 C 
BRANCH   4   5
ATOM      5  O   UNL A   1      37.276  21.083  25.528  1.00  0.00    -0.460 OA
BRANCH   5   6
ATOM      6  C   UNL A   1      37.638  22.384  25.489  1.00  0.00     0.338 C 
ATOM      7  O   UNL A   1      38.736  22.841  25.752  1.00  0.00    -0.246 OA
BRANCH   6   8
ATOM      8  C   UNL A   1      36.522  23.181  24.917  1.00  0.00     0.060 A 
ATOM      9  C   UNL A   1      34.374  24.685  23.946  1.00  0.00     0.046 A 
ATOM     10  C   UNL A   1      34.845  24.906  25.246  1.00  0.00     0.027 A 
ATOM     11  C   UNL A   1      35.020  23.764  23.108  1.00  0.00     0.027 A 
ATOM     12  C   UNL A   1      35.899  24.131  25.738  1.00  0.00     0.018 A 
ATOM     13  C   UNL A   1      36.104  23.021  23.590  1.00  0.00     0.018 A 
BRANCH   9  14
ATOM     14  N   UNL A   1      33.199  25.361  23.513  1.00  0.00    -0.317 N 
ATOM     15  C   UNL A   1      32.200  24.866  22.675  1.00  0.00     0.047 A 
ATOM     16  C   UNL A   1      31.225  25.841  22.556  1.00  0.00     0.028 A 
ATOM     17  C   UNL A   1      31.611  26.942  23.349  1.00  0.00     0.020 A 
ATOM     18  C   UNL A   1      32.802  26.609  23.953  1.00  0.00     0.092 A 
BRANCH  15  19
ATOM     19  C   UNL A   1      32.227  23.520  22.215  1.00  0.00     0.046 C 
ATOM     20  N   UNL A   1      32.106  21.316  25.166  1.00  0.00    -0.279 N 
ATOM     21  C   UNL A   1      31.881  22.507  24.475  1.00  0.00     0.265 C 
ATOM     22  C   UNL A   1      32.274  20.074  24.534  1.00  0.00     0.206 C 
ATOM     23  O   UNL A   1      31.512  23.539  25.030  1.00  0.00    -0.268 OA
ATOM     24  C   UNL A   1      32.081  22.437  23.002  1.00  0.00     0.104 C 
ATOM     25  N   UNL A   1      32.218  20.011  23.166  1.00  0.00    -0.184 NA
ATOM     26  S   UNL A   1      32.526  18.615  25.362  1.00  0.00    -0.038 S 
ATOM     27  C   UNL A   1      32.132  21.077  22.463  1.00  0.00     0.226 C 
BRANCH  20  28
ATOM     28  C   UNL A   1      32.122  21.459  26.628  1.00  0.00     0.155 C 
BRANCH  28  29
ATOM     29  C   UNL A   1      33.235  22.383  27.041  1.00  0.00    -0.013 C 
ATOM     30  C   UNL A   1      34.051  22.184  28.084  1.00  0.00     0.006 C 
ENDBRANCH  28  29
ENDBRANCH  20  28
BRANCH  27  31
ATOM     31  O   UNL A   1      32.042  20.905  21.132  1.00  0.00    -0.493 OA
ATOM     32  H   UNL A   1      31.354  21.321  20.651  1.00  0.00     0.295 HD
ENDBRANCH  27  31
ENDBRANCH  15  19
ENDBRANCH   9  14
ENDBRANCH   6   8
ENDBRANCH   5   6
ENDBRANCH   4   5
ENDBRANCH   3   4
ENDBRANCH   2   3
ENDBRANCH   1   2
BRANCH   1  33
ATOM     33  C   UNL A   1      42.233  20.238  26.414  1.00  0.00     0.188 C 
BRANCH  33  34
ATOM     34  O   UNL A   1      42.998  20.066  25.229  1.00  0.00    -0.376 OA
BRANCH  34  35
ATOM     35  C   UNL A   1      44.274  20.663  25.083  1.00  0.00     0.202 C 
BRANCH  35  36
ATOM     36  C   UNL A   1      44.497  21.846  24.130  1.00  0.00     0.261 C 
BRANCH  36  37
ATOM     37  O   UNL A   1      43.679  22.996  24.324  1.00  0.00    -0.460 OA
BRANCH  37  38
ATOM     38  C   UNL A   1      44.383  24.085  24.698  1.00  0.00     0.338 C 
ATOM     39  O   UNL A   1      45.560  24.323  24.497  1.00  0.00    -0.246 OA
BRANCH  38  40
ATOM     40  C   UNL A   1      43.505  25.000  25.432  1.00  0.00     0.060 A 
ATOM     41  C   UNL A   1      43.861  26.351  25.476  1.00  0.00     0.016 A 
ATOM     42  C   UNL A   1      42.482  24.478  26.230  1.00  0.00     0.016 A 
ATOM     43  C   UNL A   1      43.251  27.176  26.405  1.00  0.00     0.010 A 
ATOM     44  C   UNL A   1      41.895  25.296  27.184  1.00  0.00     0.010 A 
ATOM     45  C   UNL A   1      42.322  26.628  27.299  1.00  0.00    -0.014 A 
BRANCH  45  46
ATOM     46  C   UNL A   1      41.893  27.454  28.446  1.00  0.00     0.031 A 
ATOM     47  C   UNL A   1      42.685  27.221  29.717  1.00  0.00     0.074 A 
ATOM     48  C   UNL A   1      40.831  28.275  28.199  1.00  0.00     0.049 A 
ATOM     49  N   UNL A   1      42.352  27.446  30.952  1.00  0.00    -0.248 NA
ATOM     50  C   UNL A   1      44.031  26.605  29.606  1.00  0.00     0.031 C 
ATOM     51  C   UNL A   1      40.188  28.403  26.877  1.00  0.00     0.029 A 
ATOM     52  N   UNL A   1      40.079  29.146  28.961  1.00  0.00    -0.354 N 
ATOM     53  C   UNL A   1      43.494  27.194  31.729  1.00  0.00     0.074 A 
ATOM     54  C   UNL A   1      44.455  26.569  30.868  1.00  0.00     0.031 C 
ATOM     55  C   UNL A   1      39.130  29.230  26.938  1.00  0.00     0.029 A 
ATOM     56  C   UNL A   1      38.969  29.721  28.290  1.00  0.00     0.049 A 
ATOM     57  H   UNL A   1      40.296  29.353  29.899  1.00  0.00     0.167 HD
ATOM     58  C   UNL A   1      43.653  27.645  33.003  1.00  0.00     0.037 A 
ATOM     59  C   UNL A   1      37.968  30.513  28.780  1.00  0.00     0.037 A 
ATOM     60  C   UNL A   1      42.496  28.325  33.480  1.00  0.00     0.049 A 
ATOM     61  C   UNL A   1      38.356  30.838  30.166  1.00  0.00     0.074 A 
ATOM     62  C   UNL A   1      41.274  27.912  33.941  1.00  0.00     0.029 A 
ATOM     63  N   UNL A   1      42.446  29.683  33.287  1.00  0.00    -0.354 N 
ATOM     64  N   UNL A   1      39.339  31.627  30.487  1.00  0.00    -0.248 NA
ATOM     65  C   UNL A   1      37.651  30.197  31.280  1.00  0.00     0.031 C 
ATOM     66  C   UNL A   1      40.401  28.998  33.696  1.00  0.00     0.029 A 
ATOM     67  C   UNL A   1      41.128  30.036  33.106  1.00  0.00     0.049 A 
ATOM     68  H   UNL A   1      43.216  30.296  33.279  1.00  0.00     0.167 HD
ATOM     69  C   UNL A   1      39.570  31.311  31.809  1.00  0.00     0.074 A 
ATOM     70  C   UNL A   1      38.372  30.668  32.295  1.00  0.00     0.031 C 
ATOM     71  C   UNL A   1      40.846  31.163  32.243  1.00  0.00     0.037 A 
BRANCH  58  72
ATOM     72  C   UNL A   1      44.903  27.727  33.827  1.00  0.00     0.064 A 
ATOM     73  C   UNL A   1      44.995  26.950  35.004  1.00  0.00     0.173 A 
ATOM     74  C   UNL A   1      45.849  28.753  33.680  1.00  0.00     0.173 A 
ATOM     75  F   UNL A   1      44.137  25.942  35.225  1.00  0.00    -0.203 F 
ATOM     76  C   UNL A   1      45.922  27.237  36.003  1.00  0.00     0.198 A 
ATOM     77  C   UNL A   1      46.805  29.009  34.665  1.00  0.00     0.198 A 
ATOM     78  F   UNL A   1      45.805  29.586  32.630  1.00  0.00    -0.203 F 
ATOM     79  F   UNL A   1      45.905  26.543  37.150  1.00  0.00    -0.200 F 
ATOM     80  C   UNL A   1      46.821  28.273  35.838  1.00  0.00     0.200 A 
ATOM     81  F   UNL A   1      47.670  30.021  34.502  1.00  0.00    -0.200 F 
ATOM     82  F   UNL A   1      47.679  28.587  36.818  1.00  0.00    -0.200 F 
ENDBRANCH  58  72
BRANCH  59  83
ATOM     83  C   UNL A   1      36.636  31.047  28.293  1.00  0.00     0.064 A 
ATOM     84  C   UNL A   1      35.520  30.281  27.924  1.00  0.00     0.173 A 
ATOM     85  C   UNL A   1      36.393  32.451  28.297  1.00  0.00     0.173 A 
ATOM     86  F   UNL A   1      35.582  28.954  27.809  1.00  0.00    -0.203 F 
ATOM     87  C   UNL A   1      34.261  30.853  27.670  1.00  0.00     0.198 A 
ATOM     88  C   UNL A   1      35.132  33.015  28.090  1.00  0.00     0.198 A 
ATOM     89  F   UNL A   1      37.378  33.330  28.525  1.00  0.00    -0.203 F 
ATOM     90  F   UNL A   1      33.232  30.062  27.333  1.00  0.00    -0.200 F 
ATOM     91  C   UNL A   1      34.058  32.213  27.788  1.00  0.00     0.200 A 
ATOM     92  F   UNL A   1      34.968  34.340  28.217  1.00  0.00    -0.200 F 
ATOM     93  F   UNL A   1      32.841  32.743  27.614  1.00  0.00    -0.200 F 
ENDBRANCH  59  83
BRANCH  71  94
ATOM     94  C   UNL A   1      41.849  31.890  31.367  1.00  0.00     0.064 A 
ATOM     95  C   UNL A   1      41.957  33.288  31.423  1.00  0.00     0.173 A 
ATOM     96  C   UNL A   1      42.588  31.253  30.356  1.00  0.00     0.173 A 
ATOM     97  F   UNL A   1      41.291  33.973  32.364  1.00  0.00    -0.203 F 
ATOM     98  C   UNL A   1      42.736  33.998  30.504  1.00  0.00     0.198 A 
ATOM     99  C   UNL A   1      43.375  31.955  29.446  1.00  0.00     0.198 A 
ATOM    100  F   UNL A   1      42.562  29.928  30.233  1.00  0.00    -0.203 F 
ATOM    101  F   UNL A   1      42.803  35.333  30.577  1.00  0.00    -0.200 F 
ATOM    102  C   UNL A   1      43.441  33.331  29.513  1.00  0.00     0.200 A 
ATOM    103  F   UNL A   1      44.066  31.291  28.508  1.00  0.00    -0.200 F 
ATOM    104  F   UNL A   1      44.191  34.011  28.635  1.00  0.00    -0.200 F 
ENDBRANCH  71  94
ENDBRANCH  45  46
ENDBRANCH  38  40
ENDBRANCH  37  38
ENDBRANCH  36  37
ENDBRANCH  35  36
ENDBRANCH  34  35
ENDBRANCH  33  34
ENDBRANCH   1  33
TORSDOF 22
ENDMDL
MODEL 3
REMARK VINA RESULT:     -10.0      4.956      8.671
REMARK SMILES C=CCN1C(=O)/C(=C\c2cccn2-c2ccc(C(=O)OCCOCCOCCOC(=O)c3ccc(-c4c5nc(c(-c6c(F)c(F)c(F)c(F)c6F)c6ccc([nH]6)c(-c6c(F)c(F)c(F)c(F)c6F)c6nc(c(-c7c(F)c(F)c(F)c(F)c7F)c7ccc4[nH]7)C=C6)C=C5)cc3)cc2)C(O)=NC1=S
REMARK SMILES IDX 24 1 23 2 22 3 21 4 20 5 18 6 19 7 17 8 14 9 15 10 96 11
REMARK SMILES IDX 16 12 95 13 13 14 9 15 10 16 11 17 12 18 8 19 4 20 5 21
REMARK SMILES IDX 100 22 6 23 7 24 99 25 101 26 97 27 3 28 2 29 1 30 98 31
REMARK SMILES IDX 25 33 26 34 27 35 28 36 29 37 30 38 31 39 32 40 33 41 94 42
REMARK SMILES IDX 34 43 93 44 35 45 36 46 37 47 87 48 38 49 92 50 86 51 88 52
REMARK SMILES IDX 39 53 91 54 85 55 84 56 40 58 72 59 52 60 71 61 53 62 56 63
REMARK SMILES IDX 70 64 89 65 54 66 55 67 69 69 90 70 57 71 41 72 42 73 50 74
REMARK SMILES IDX 43 75 44 76 48 77 51 78 45 79 46 80 49 81 47 82 73 83 74 84
REMARK SMILES IDX 82 85 75 86 76 87 80 88 83 89 77 90 78 91 81 92 79 93 58 94
REMARK SMILES IDX 59 95 67 96 60 97 61 98 65 99 68 100 62 101 63 102 66 103
REMARK SMILES IDX 64 104
REMARK H PARENT 98 32 88 57 56 68
REMARK Flexibility Score: inf
ROOT
ATOM      1  C   UNL A   1      34.833  33.251  31.160  1.00  0.00     0.188 C 
ENDROOT
BRANCH   1   2
ATOM      2  O   UNL A   1      34.416  32.467  30.054  1.00  0.00    -0.376 OA
BRANCH   2   3
ATOM      3  C   UNL A   1      35.091  32.739  28.830  1.00  0.00     0.202 C 
BRANCH   3   4
ATOM      4  C   UNL A   1      35.219  31.558  27.853  1.00  0.00     0.261 C 
BRANCH   4   5
ATOM      5  O   UNL A   1      34.398  30.419  28.153  1.00  0.00    -0.460 OA
BRANCH   5   6
ATOM      6  C   UNL A   1      33.207  30.337  27.521  1.00  0.00     0.338 C 
ATOM      7  O   UNL A   1      32.459  31.262  27.258  1.00  0.00    -0.246 OA
BRANCH   6   8
ATOM      8  C   UNL A   1      33.005  28.945  27.044  1.00  0.00     0.060 A 
ATOM      9  C   UNL A   1      32.560  26.303  26.241  1.00  0.00     0.046 A 
ATOM     10  C   UNL A   1      31.558  26.998  26.929  1.00  0.00     0.027 A 
ATOM     11  C   UNL A   1      33.755  26.950  25.893  1.00  0.00     0.027 A 
ATOM     12  C   UNL A   1      31.796  28.307  27.355  1.00  0.00     0.018 A 
ATOM     13  C   UNL A   1      33.972  28.276  26.284  1.00  0.00     0.018 A 
BRANCH   9  14
ATOM     14  N   UNL A   1      32.372  24.922  25.957  1.00  0.00    -0.317 N 
ATOM     15  C   UNL A   1      31.206  24.302  25.508  1.00  0.00     0.047 A 
ATOM     16  C   UNL A   1      31.484  22.960  25.320  1.00  0.00     0.028 A 
ATOM     17  C   UNL A   1      32.844  22.749  25.630  1.00  0.00     0.020 A 
ATOM     18  C   UNL A   1      33.374  23.970  25.980  1.00  0.00     0.092 A 
BRANCH  15  19
ATOM     19  C   UNL A   1      30.046  25.062  25.193  1.00  0.00     0.046 C 
ATOM     20  N   UNL A   1      30.970  27.514  22.601  1.00  0.00    -0.279 N 
ATOM     21  C   UNL A   1      31.109  26.321  23.313  1.00  0.00     0.265 C 
ATOM     22  C   UNL A   1      29.768  28.234  22.526  1.00  0.00     0.206 C 
ATOM     23  O   UNL A   1      32.085  25.585  23.192  1.00  0.00    -0.268 OA
ATOM     24  C   UNL A   1      29.970  25.976  24.206  1.00  0.00     0.104 C 
ATOM     25  N   UNL A   1      28.662  27.755  23.180  1.00  0.00    -0.184 NA
ATOM     26  S   UNL A   1      29.578  29.673  21.648  1.00  0.00    -0.038 S 
ATOM     27  C   UNL A   1      28.745  26.732  23.945  1.00  0.00     0.226 C 
BRANCH  20  28
ATOM     28  C   UNL A   1      32.188  27.946  21.904  1.00  0.00     0.155 C 
BRANCH  28  29
ATOM     29  C   UNL A   1      32.998  28.848  22.795  1.00  0.00    -0.013 C 
ATOM     30  C   UNL A   1      34.335  28.863  22.860  1.00  0.00     0.006 C 
ENDBRANCH  28  29
ENDBRANCH  20  28
BRANCH  27  31
ATOM     31  O   UNL A   1      27.596  26.317  24.508  1.00  0.00    -0.493 OA
ATOM     32  H   UNL A   1      27.560  26.148  25.429  1.00  0.00     0.295 HD
ENDBRANCH  27  31
ENDBRANCH  15  19
ENDBRANCH   9  14
ENDBRANCH   6   8
ENDBRANCH   5   6
ENDBRANCH   4   5
ENDBRANCH   3   4
ENDBRANCH   2   3
ENDBRANCH   1   2
BRANCH   1  33
ATOM     33  C   UNL A   1      35.046  32.465  32.467  1.00  0.00     0.188 C 
BRANCH  33  34
ATOM     34  O   UNL A   1      36.309  32.397  33.112  1.00  0.00    -0.376 OA
BRANCH  34  35
ATOM     35  C   UNL A   1      37.262  31.408  32.763  1.00  0.00     0.202 C 
BRANCH  35  36
ATOM     36  C   UNL A   1      38.197  31.590  31.560  1.00  0.00     0.261 C 
BRANCH  36  37
ATOM     37  O   UNL A   1      37.728  31.125  30.298  1.00  0.00    -0.460 OA
BRANCH  37  38
ATOM     38  C   UNL A   1      37.331  29.836  30.327  1.00  0.00     0.338 C 
ATOM     39  O   UNL A   1      36.313  29.374  30.809  1.00  0.00    -0.246 OA
BRANCH  38  40
ATOM     40  C   UNL A   1      38.345  29.003  29.676  1.00  0.00     0.060 A 
ATOM     41  C   UNL A   1      39.247  28.313  30.492  1.00  0.00     0.016 A 
ATOM     42  C   UNL A   1      38.520  29.090  28.290  1.00  0.00     0.016 A 
ATOM     43  C   UNL A   1      40.395  27.785  29.927  1.00  0.00     0.010 A 
ATOM     44  C   UNL A   1      39.685  28.591  27.730  1.00  0.00     0.010 A 
ATOM     45  C   UNL A   1      40.640  27.986  28.563  1.00  0.00    -0.014 A 
BRANCH  45  46
ATOM     46  C   UNL A   1      41.983  27.658  28.044  1.00  0.00     0.031 A 
ATOM     47  C   UNL A   1      42.879  28.859  27.820  1.00  0.00     0.074 A 
ATOM     48  C   UNL A   1      42.203  26.330  27.813  1.00  0.00     0.049 A 
ATOM     49  N   UNL A   1      43.908  28.990  27.038  1.00  0.00    -0.248 NA
ATOM     50  C   UNL A   1      42.562  30.120  28.537  1.00  0.00     0.031 C 
ATOM     51  C   UNL A   1      41.218  25.275  28.120  1.00  0.00     0.029 A 
ATOM     52  N   UNL A   1      43.248  25.595  27.292  1.00  0.00    -0.354 N 
ATOM     53  C   UNL A   1      44.467  30.248  27.313  1.00  0.00     0.074 A 
ATOM     54  C   UNL A   1      43.534  30.944  28.150  1.00  0.00     0.031 C 
ATOM     55  C   UNL A   1      41.672  24.070  27.732  1.00  0.00     0.029 A 
ATOM     56  C   UNL A   1      42.984  24.210  27.137  1.00  0.00     0.049 A 
ATOM     57  H   UNL A   1      44.112  26.001  27.046  1.00  0.00     0.167 HD
ATOM     58  C   UNL A   1      45.734  30.604  26.965  1.00  0.00     0.037 A 
ATOM     59  C   UNL A   1      43.743  23.239  26.545  1.00  0.00     0.037 A 
ATOM     60  C   UNL A   1      46.390  29.584  26.218  1.00  0.00     0.049 A 
ATOM     61  C   UNL A   1      45.040  23.873  26.239  1.00  0.00     0.074 A 
ATOM     62  C   UNL A   1      46.314  29.161  24.918  1.00  0.00     0.029 A 
ATOM     63  N   UNL A   1      47.126  28.667  26.926  1.00  0.00    -0.354 N 
ATOM     64  N   UNL A   1      45.916  24.221  27.135  1.00  0.00    -0.248 NA
ATOM     65  C   UNL A   1      45.367  24.208  24.850  1.00  0.00     0.031 C 
ATOM     66  C   UNL A   1      46.732  27.809  24.945  1.00  0.00     0.029 A 
ATOM     67  C   UNL A   1      47.057  27.465  26.259  1.00  0.00     0.049 A 
ATOM     68  H   UNL A   1      47.615  28.838  27.763  1.00  0.00     0.167 HD
ATOM     69  C   UNL A   1      46.726  25.100  26.450  1.00  0.00     0.074 A 
ATOM     70  C   UNL A   1      46.522  24.839  25.044  1.00  0.00     0.031 C 
ATOM     71  C   UNL A   1      47.113  26.254  27.050  1.00  0.00     0.037 A 
BRANCH  58  72
ATOM     72  C   UNL A   1      46.558  31.759  27.449  1.00  0.00     0.064 A 
ATOM     73  C   UNL A   1      46.559  32.955  26.698  1.00  0.00     0.173 A 
ATOM     74  C   UNL A   1      47.566  31.625  28.415  1.00  0.00     0.173 A 
ATOM     75  F   UNL A   1      45.627  33.173  25.758  1.00  0.00    -0.203 F 
ATOM     76  C   UNL A   1      47.556  33.918  26.851  1.00  0.00     0.198 A 
ATOM     77  C   UNL A   1      48.538  32.612  28.594  1.00  0.00     0.198 A 
ATOM     78  F   UNL A   1      47.690  30.499  29.133  1.00  0.00    -0.203 F 
ATOM     79  F   UNL A   1      47.580  34.988  26.044  1.00  0.00    -0.200 F 
ATOM     80  C   UNL A   1      48.551  33.741  27.792  1.00  0.00     0.200 A 
ATOM     81  F   UNL A   1      49.506  32.431  29.505  1.00  0.00    -0.200 F 
ATOM     82  F   UNL A   1      49.541  34.636  27.906  1.00  0.00    -0.200 F 
ENDBRANCH  58  72
BRANCH  59  83
ATOM     83  C   UNL A   1      43.562  21.796  26.116  1.00  0.00     0.064 A 
ATOM     84  C   UNL A   1      44.586  20.876  25.849  1.00  0.00     0.173 A 
ATOM     85  C   UNL A   1      42.256  21.230  26.072  1.00  0.00     0.173 A 
ATOM     86  F   UNL A   1      45.867  21.243  25.788  1.00  0.00    -0.203 F 
ATOM     87  C   UNL A   1      44.339  19.507  25.645  1.00  0.00     0.198 A 
ATOM     88  C   UNL A   1      42.014  19.864  25.916  1.00  0.00     0.198 A 
ATOM     89  F   UNL A   1      41.160  21.990  26.202  1.00  0.00    -0.203 F 
ATOM     90  F   UNL A   1      45.366  18.678  25.406  1.00  0.00    -0.200 F 
ATOM     91  C   UNL A   1      43.059  18.996  25.715  1.00  0.00     0.200 A 
ATOM     92  F   UNL A   1      40.758  19.398  25.994  1.00  0.00    -0.200 F 
ATOM     93  F   UNL A   1      42.837  17.681  25.592  1.00  0.00    -0.200 F 
ENDBRANCH  59  83
BRANCH  71  94
ATOM     94  C   UNL A   1      47.055  26.171  28.564  1.00  0.00     0.064 A 
ATOM     95  C   UNL A   1      48.176  25.745  29.293  1.00  0.00     0.173 A 
ATOM     96  C   UNL A   1      45.871  26.345  29.297  1.00  0.00     0.173 A 
ATOM     97  F   UNL A   1      49.350  25.564  28.670  1.00  0.00    -0.203 F 
ATOM     98  C   UNL A   1      48.100  25.485  30.665  1.00  0.00     0.198 A 
ATOM     99  C   UNL A   1      45.792  26.099  30.666  1.00  0.00     0.198 A 
ATOM    100  F   UNL A   1      44.759  26.762  28.696  1.00  0.00    -0.203 F 
ATOM    101  F   UNL A   1      49.185  25.065  31.327  1.00  0.00    -0.200 F 
ATOM    102  C   UNL A   1      46.906  25.658  31.350  1.00  0.00     0.200 A 
ATOM    103  F   UNL A   1      44.634  26.292  31.315  1.00  0.00    -0.200 F 
ATOM    104  F   UNL A   1      46.834  25.413  32.665  1.00  0.00    -0.200 F 
ENDBRANCH  71  94
ENDBRANCH  45  46
ENDBRANCH  38  40
ENDBRANCH  37  38
ENDBRANCH  36  37
ENDBRANCH  35  36
ENDBRANCH  34  35
ENDBRANCH  33  34
ENDBRANCH   1  33
TORSDOF 22
ENDMDL
