MODEL 1
REMARK VINA RESULT:     -12.4      0.000      0.000
REMARK SMILES Cc1ccc(C)c(N2C(=O)S[C@H](CC(=O)Nc3ccc(C(=O)OCCOCCOCCOC(=O)c4ccc(-c5c6nc(c(-c7c(F)c(F)c(F)c(F)c7F)c7ccc([nH]7)c(-c7c(F)c(F)c(F)c(F)c7F)c7nc(c(-c8c(F)c(F)c(F)c(F)c8F)c8ccc5[nH]8)C=C7)C=C6)cc4)c(O)c3)C2=O)c1
REMARK SMILES IDX 27 1 26 2 25 3 24 4 23 5 21 6 22 7 20 8 17 9 18 10 100 11
REMARK SMILES IDX 19 12 98 13 16 14 14 15 15 16 13 18 12 19 8 20 9 21 101 22
REMARK SMILES IDX 10 23 11 24 102 25 7 26 1 27 2 28 3 29 103 30 4 31 5 32 6 33
REMARK SMILES IDX 99 34 28 36 29 37 30 38 31 39 32 40 33 41 34 42 35 43 36 44
REMARK SMILES IDX 97 45 37 46 96 47 38 48 39 49 40 50 90 51 41 52 95 53 89 54
REMARK SMILES IDX 91 55 42 56 94 57 88 58 87 59 43 61 75 62 55 63 74 64 56 65
REMARK SMILES IDX 59 66 73 67 92 68 57 69 58 70 72 72 93 73 60 74 44 75 45 76
REMARK SMILES IDX 53 77 46 78 47 79 51 80 54 81 48 82 49 83 52 84 50 85 76 86
REMARK SMILES IDX 77 87 85 88 78 89 79 90 83 91 86 92 80 93 81 94 84 95 82 96
REMARK SMILES IDX 61 97 62 98 70 99 63 100 64 101 68 102 71 103 65 104 66 105
REMARK SMILES IDX 69 106 67 107
REMARK H PARENT 16 17 99 35 91 60 59 71
REMARK Flexibility Score: inf
ROOT
ATOM      1  C   UNL A   1      35.212  32.110  31.583  1.00  0.00     0.188 C 
ENDROOT
BRANCH   1   2
ATOM      2  O   UNL A   1      35.200  32.690  30.276  1.00  0.00    -0.376 OA
BRANCH   2   3
ATOM      3  C   UNL A   1      35.136  31.765  29.189  1.00  0.00     0.202 C 
BRANCH   3   4
ATOM      4  C   UNL A   1      33.981  31.980  28.192  1.00  0.00     0.261 C 
BRANCH   4   5
ATOM      5  O   UNL A   1      33.363  30.768  27.702  1.00  0.00    -0.460 OA
BRANCH   5   6
ATOM      6  C   UNL A   1      32.372  30.962  26.791  1.00  0.00     0.341 C 
ATOM      7  O   UNL A   1      31.554  31.867  26.807  1.00  0.00    -0.246 OA
BRANCH   6   8
ATOM      8  C   UNL A   1      32.447  29.997  25.666  1.00  0.00     0.101 A 
ATOM      9  C   UNL A   1      32.403  28.371  23.364  1.00  0.00     0.044 A 
ATOM     10  C   UNL A   1      31.228  28.865  23.917  1.00  0.00     0.027 A 
ATOM     11  C   UNL A   1      33.574  28.489  24.094  1.00  0.00     0.073 A 
ATOM     12  C   UNL A   1      31.247  29.715  25.025  1.00  0.00     0.022 A 
ATOM     13  C   UNL A   1      33.578  29.274  25.261  1.00  0.00     0.132 A 
BRANCH   9  14
ATOM     14  N   UNL A   1      32.367  27.703  22.130  1.00  0.00    -0.326 N 
ATOM     15  C   UNL A   1      32.750  26.391  21.919  1.00  0.00     0.226 C 
ATOM     16  O   UNL A   1      33.233  26.037  20.846  1.00  0.00    -0.275 OA
ATOM     17  H   UNL A   1      32.043  28.211  21.352  1.00  0.00     0.169 HD
BRANCH  15  18
ATOM     18  C   UNL A   1      32.318  25.371  22.970  1.00  0.00     0.125 C 
BRANCH  18  19
ATOM     19  C   UNL A   1      33.379  24.883  23.953  1.00  0.00     0.156 C 
ATOM     20  N   UNL A   1      33.058  22.512  24.118  1.00  0.00    -0.240 N 
ATOM     21  C   UNL A   1      32.212  22.936  25.115  1.00  0.00     0.293 C 
ATOM     22  C   UNL A   1      33.853  23.490  23.535  1.00  0.00     0.248 C 
ATOM     23  O   UNL A   1      31.278  22.357  25.618  1.00  0.00    -0.261 OA
ATOM     24  S   UNL A   1      32.722  24.545  25.611  1.00  0.00    -0.050 SA
ATOM     25  O   UNL A   1      34.811  23.309  22.793  1.00  0.00    -0.273 OA
BRANCH  20  26
ATOM     26  C   UNL A   1      33.378  21.138  24.068  1.00  0.00     0.056 A 
ATOM     27  C   UNL A   1      32.073  17.921  22.457  1.00  0.00     0.044 C 
ATOM     28  C   UNL A   1      32.847  18.888  23.303  1.00  0.00    -0.049 A 
ATOM     29  C   UNL A   1      33.797  18.378  24.194  1.00  0.00     0.004 A 
ATOM     30  C   UNL A   1      32.637  20.276  23.243  1.00  0.00     0.030 A 
ATOM     31  C   UNL A   1      34.534  19.231  25.010  1.00  0.00     0.006 A 
ATOM     32  C   UNL A   1      34.331  20.616  24.968  1.00  0.00    -0.027 A 
ATOM     33  C   UNL A   1      35.145  21.456  25.915  1.00  0.00     0.046 C 
ENDBRANCH  20  26
ENDBRANCH  18  19
ENDBRANCH  15  18
ENDBRANCH   9  14
BRANCH  13  34
ATOM     34  O   UNL A   1      34.729  29.204  25.982  1.00  0.00    -0.507 OA
ATOM     35  H   UNL A   1      35.395  29.853  25.866  1.00  0.00     0.293 HD
ENDBRANCH  13  34
ENDBRANCH   6   8
ENDBRANCH   5   6
ENDBRANCH   4   5
ENDBRANCH   3   4
ENDBRANCH   2   3
ENDBRANCH   1   2
BRANCH   1  36
ATOM     36  C   UNL A   1      35.498  33.113  32.716  1.00  0.00     0.188 C 
BRANCH  36  37
ATOM     37  O   UNL A   1      36.889  33.191  32.980  1.00  0.00    -0.376 OA
BRANCH  37  38
ATOM     38  C   UNL A   1      37.515  34.428  32.708  1.00  0.00     0.202 C 
BRANCH  38  39
ATOM     39  C   UNL A   1      38.184  34.609  31.339  1.00  0.00     0.261 C 
BRANCH  39  40
ATOM     40  O   UNL A   1      39.081  33.611  30.776  1.00  0.00    -0.460 OA
BRANCH  40  41
ATOM     41  C   UNL A   1      38.901  32.663  29.833  1.00  0.00     0.338 C 
ATOM     42  O   UNL A   1      38.173  32.835  28.863  1.00  0.00    -0.246 OA
BRANCH  41  43
ATOM     43  C   UNL A   1      39.465  31.341  30.103  1.00  0.00     0.060 A 
ATOM     44  C   UNL A   1      40.835  31.323  30.284  1.00  0.00     0.016 A 
ATOM     45  C   UNL A   1      38.729  30.154  29.981  1.00  0.00     0.016 A 
ATOM     46  C   UNL A   1      41.480  30.123  30.088  1.00  0.00     0.010 A 
ATOM     47  C   UNL A   1      39.409  28.935  29.831  1.00  0.00     0.010 A 
ATOM     48  C   UNL A   1      40.801  28.939  29.799  1.00  0.00    -0.014 A 
BRANCH  48  49
ATOM     49  C   UNL A   1      41.684  27.773  29.654  1.00  0.00     0.031 A 
ATOM     50  C   UNL A   1      42.567  27.562  30.834  1.00  0.00     0.074 A 
ATOM     51  C   UNL A   1      41.803  27.000  28.553  1.00  0.00     0.049 A 
ATOM     52  N   UNL A   1      43.866  27.543  30.873  1.00  0.00    -0.248 NA
ATOM     53  C   UNL A   1      41.917  27.538  32.155  1.00  0.00     0.031 C 
ATOM     54  C   UNL A   1      40.951  27.009  27.366  1.00  0.00     0.029 A 
ATOM     55  N   UNL A   1      42.682  25.975  28.295  1.00  0.00    -0.354 N 
ATOM     56  C   UNL A   1      44.180  27.281  32.202  1.00  0.00     0.074 A 
ATOM     57  C   UNL A   1      42.970  27.453  32.964  1.00  0.00     0.031 C 
ATOM     58  C   UNL A   1      41.201  25.902  26.632  1.00  0.00     0.029 A 
ATOM     59  C   UNL A   1      42.280  25.146  27.251  1.00  0.00     0.049 A 
ATOM     60  H   UNL A   1      43.517  25.839  28.799  1.00  0.00     0.167 HD
ATOM     61  C   UNL A   1      45.351  26.714  32.587  1.00  0.00     0.037 A 
ATOM     62  C   UNL A   1      42.711  23.888  26.976  1.00  0.00     0.037 A 
ATOM     63  C   UNL A   1      46.412  26.877  31.643  1.00  0.00     0.049 A 
ATOM     64  C   UNL A   1      44.029  23.691  27.620  1.00  0.00     0.074 A 
ATOM     65  C   UNL A   1      47.114  27.947  31.128  1.00  0.00     0.029 A 
ATOM     66  N   UNL A   1      46.769  25.799  30.878  1.00  0.00    -0.354 N 
ATOM     67  N   UNL A   1      45.146  24.216  27.203  1.00  0.00    -0.248 NA
ATOM     68  C   UNL A   1      44.050  23.167  28.976  1.00  0.00     0.031 C 
ATOM     69  C   UNL A   1      47.515  27.546  29.819  1.00  0.00     0.029 A 
ATOM     70  C   UNL A   1      47.043  26.253  29.615  1.00  0.00     0.049 A 
ATOM     71  H   UNL A   1      46.819  24.864  31.180  1.00  0.00     0.167 HD
ATOM     72  C   UNL A   1      45.853  24.485  28.363  1.00  0.00     0.074 A 
ATOM     73  C   UNL A   1      45.182  23.724  29.408  1.00  0.00     0.031 C 
ATOM     74  C   UNL A   1      46.745  25.513  28.415  1.00  0.00     0.037 A 
BRANCH  61  75
ATOM     75  C   UNL A   1      45.367  25.711  33.702  1.00  0.00     0.064 A 
ATOM     76  C   UNL A   1      44.747  24.461  33.566  1.00  0.00     0.173 A 
ATOM     77  C   UNL A   1      45.800  26.053  35.004  1.00  0.00     0.173 A 
ATOM     78  F   UNL A   1      44.216  24.088  32.393  1.00  0.00    -0.203 F 
ATOM     79  C   UNL A   1      44.601  23.603  34.660  1.00  0.00     0.198 A 
ATOM     80  C   UNL A   1      45.720  25.170  36.071  1.00  0.00     0.198 A 
ATOM     81  F   UNL A   1      46.220  27.292  35.300  1.00  0.00    -0.203 F 
ATOM     82  F   UNL A   1      43.925  22.456  34.520  1.00  0.00    -0.200 F 
ATOM     83  C   UNL A   1      45.107  23.949  35.904  1.00  0.00     0.200 A 
ATOM     84  F   UNL A   1      46.186  25.544  37.271  1.00  0.00    -0.200 F 
ATOM     85  F   UNL A   1      44.954  23.132  36.954  1.00  0.00    -0.200 F 
ENDBRANCH  61  75
BRANCH  62  86
ATOM     86  C   UNL A   1      41.925  22.733  26.458  1.00  0.00     0.064 A 
ATOM     87  C   UNL A   1      42.551  21.537  26.057  1.00  0.00     0.173 A 
ATOM     88  C   UNL A   1      40.525  22.673  26.609  1.00  0.00     0.173 A 
ATOM     89  F   UNL A   1      43.886  21.478  25.942  1.00  0.00    -0.203 F 
ATOM     90  C   UNL A   1      41.825  20.359  25.844  1.00  0.00     0.198 A 
ATOM     91  C   UNL A   1      39.801  21.503  26.380  1.00  0.00     0.198 A 
ATOM     92  F   UNL A   1      39.834  23.720  27.080  1.00  0.00    -0.203 F 
ATOM     93  F   UNL A   1      42.465  19.224  25.531  1.00  0.00    -0.200 F 
ATOM     94  C   UNL A   1      40.450  20.341  26.012  1.00  0.00     0.200 A 
ATOM     95  F   UNL A   1      38.476  21.496  26.584  1.00  0.00    -0.200 F 
ATOM     96  F   UNL A   1      39.760  19.204  25.864  1.00  0.00    -0.200 F 
ENDBRANCH  62  86
BRANCH  74  97
ATOM     97  C   UNL A   1      47.260  26.065  27.118  1.00  0.00     0.064 A 
ATOM     98  C   UNL A   1      48.480  25.700  26.525  1.00  0.00     0.173 A 
ATOM     99  C   UNL A   1      46.420  26.929  26.400  1.00  0.00     0.173 A 
ATOM    100  F   UNL A   1      49.298  24.810  27.109  1.00  0.00    -0.203 F 
ATOM    101  C   UNL A   1      48.855  26.218  25.284  1.00  0.00     0.198 A 
ATOM    102  C   UNL A   1      46.782  27.414  25.147  1.00  0.00     0.198 A 
ATOM    103  F   UNL A   1      45.228  27.282  26.905  1.00  0.00    -0.203 F 
ATOM    104  F   UNL A   1      50.037  25.881  24.746  1.00  0.00    -0.200 F 
ATOM    105  C   UNL A   1      48.004  27.068  24.595  1.00  0.00     0.200 A 
ATOM    106  F   UNL A   1      45.939  28.206  24.469  1.00  0.00    -0.200 F 
ATOM    107  F   UNL A   1      48.353  27.541  23.390  1.00  0.00    -0.200 F 
ENDBRANCH  74  97
ENDBRANCH  48  49
ENDBRANCH  41  43
ENDBRANCH  40  41
ENDBRANCH  39  40
ENDBRANCH  38  39
ENDBRANCH  37  38
ENDBRANCH  36  37
ENDBRANCH   1  36
TORSDOF 22
ENDMDL
MODEL 2
REMARK VINA RESULT:     -12.1      5.115     10.676
REMARK SMILES Cc1ccc(C)c(N2C(=O)S[C@H](CC(=O)Nc3ccc(C(=O)OCCOCCOCCOC(=O)c4ccc(-c5c6nc(c(-c7c(F)c(F)c(F)c(F)c7F)c7ccc([nH]7)c(-c7c(F)c(F)c(F)c(F)c7F)c7nc(c(-c8c(F)c(F)c(F)c(F)c8F)c8ccc5[nH]8)C=C7)C=C6)cc4)c(O)c3)C2=O)c1
REMARK SMILES IDX 27 1 26 2 25 3 24 4 23 5 21 6 22 7 20 8 17 9 18 10 100 11
REMARK SMILES IDX 19 12 98 13 16 14 14 15 15 16 13 18 12 19 8 20 9 21 101 22
REMARK SMILES IDX 10 23 11 24 102 25 7 26 1 27 2 28 3 29 103 30 4 31 5 32 6 33
REMARK SMILES IDX 99 34 28 36 29 37 30 38 31 39 32 40 33 41 34 42 35 43 36 44
REMARK SMILES IDX 97 45 37 46 96 47 38 48 39 49 40 50 90 51 41 52 95 53 89 54
REMARK SMILES IDX 91 55 42 56 94 57 88 58 87 59 43 61 75 62 55 63 74 64 56 65
REMARK SMILES IDX 59 66 73 67 92 68 57 69 58 70 72 72 93 73 60 74 44 75 45 76
REMARK SMILES IDX 53 77 46 78 47 79 51 80 54 81 48 82 49 83 52 84 50 85 76 86
REMARK SMILES IDX 77 87 85 88 78 89 79 90 83 91 86 92 80 93 81 94 84 95 82 96
REMARK SMILES IDX 61 97 62 98 70 99 63 100 64 101 68 102 71 103 65 104 66 105
REMARK SMILES IDX 69 106 67 107
REMARK H PARENT 16 17 99 35 91 60 59 71
REMARK Flexibility Score: inf
ROOT
ATOM      1  C   UNL A   1      44.486  22.560  24.107  1.00  0.00     0.188 C 
ENDROOT
BRANCH   1   2
ATOM      2  O   UNL A   1      43.806  22.149  25.297  1.00  0.00    -0.376 OA
BRANCH   2   3
ATOM      3  C   UNL A   1      42.539  22.765  25.530  1.00  0.00     0.202 C 
BRANCH   3   4
ATOM      4  C   UNL A   1      41.554  21.965  26.405  1.00  0.00     0.261 C 
BRANCH   4   5
ATOM      5  O   UNL A   1      40.275  21.691  25.790  1.00  0.00    -0.460 OA
BRANCH   5   6
ATOM      6  C   UNL A   1      39.238  22.420  26.283  1.00  0.00     0.341 C 
ATOM      7  O   UNL A   1      39.332  23.405  26.996  1.00  0.00    -0.246 OA
BRANCH   6   8
ATOM      8  C   UNL A   1      37.928  21.956  25.761  1.00  0.00     0.101 A 
ATOM      9  C   UNL A   1      35.494  20.802  24.933  1.00  0.00     0.044 A 
ATOM     10  C   UNL A   1      36.696  20.120  24.794  1.00  0.00     0.027 A 
ATOM     11  C   UNL A   1      35.534  22.146  25.263  1.00  0.00     0.073 A 
ATOM     12  C   UNL A   1      37.898  20.665  25.251  1.00  0.00     0.022 A 
ATOM     13  C   UNL A   1      36.760  22.723  25.641  1.00  0.00     0.132 A 
BRANCH   9  14
ATOM     14  N   UNL A   1      34.283  20.144  24.666  1.00  0.00    -0.326 N 
ATOM     15  C   UNL A   1      33.099  20.338  25.353  1.00  0.00     0.226 C 
ATOM     16  O   UNL A   1      32.291  19.423  25.493  1.00  0.00    -0.275 OA
ATOM     17  H   UNL A   1      34.277  19.492  23.929  1.00  0.00     0.169 HD
BRANCH  15  18
ATOM     18  C   UNL A   1      32.734  21.780  25.703  1.00  0.00     0.125 C 
BRANCH  18  19
ATOM     19  C   UNL A   1      31.341  22.266  25.311  1.00  0.00     0.156 C 
ATOM     20  N   UNL A   1      31.554  24.634  24.997  1.00  0.00    -0.240 N 
ATOM     21  C   UNL A   1      31.254  24.598  26.339  1.00  0.00     0.293 C 
ATOM     22  C   UNL A   1      31.470  23.424  24.321  1.00  0.00     0.248 C 
ATOM     23  O   UNL A   1      31.461  25.433  27.188  1.00  0.00    -0.261 OA
ATOM     24  S   UNL A   1      30.451  23.070  26.674  1.00  0.00    -0.050 SA
ATOM     25  O   UNL A   1      31.485  23.262  23.106  1.00  0.00    -0.273 OA
BRANCH  20  26
ATOM     26  C   UNL A   1      31.485  25.882  24.342  1.00  0.00     0.056 A 
ATOM     27  C   UNL A   1      28.842  28.286  22.969  1.00  0.00     0.044 C 
ATOM     28  C   UNL A   1      30.151  27.630  23.294  1.00  0.00    -0.049 A 
ATOM     29  C   UNL A   1      31.323  28.193  22.778  1.00  0.00     0.004 A 
ATOM     30  C   UNL A   1      30.235  26.467  24.079  1.00  0.00     0.030 A 
ATOM     31  C   UNL A   1      32.562  27.616  23.040  1.00  0.00     0.006 A 
ATOM     32  C   UNL A   1      32.662  26.453  23.814  1.00  0.00    -0.027 A 
ATOM     33  C   UNL A   1      34.039  25.879  24.011  1.00  0.00     0.046 C 
ENDBRANCH  20  26
ENDBRANCH  18  19
ENDBRANCH  15  18
ENDBRANCH   9  14
BRANCH  13  34
ATOM     34  O   UNL A   1      36.722  24.073  25.799  1.00  0.00    -0.507 OA
ATOM     35  H   UNL A   1      35.933  24.489  26.086  1.00  0.00     0.293 HD
ENDBRANCH  13  34
ENDBRANCH   6   8
ENDBRANCH   5   6
ENDBRANCH   4   5
ENDBRANCH   3   4
ENDBRANCH   2   3
ENDBRANCH   1   2
BRANCH   1  36
ATOM     36  C   UNL A   1      46.015  22.652  24.253  1.00  0.00     0.188 C 
BRANCH  36  37
ATOM     37  O   UNL A   1      46.457  23.989  24.094  1.00  0.00    -0.376 OA
BRANCH  37  38
ATOM     38  C   UNL A   1      45.938  24.939  25.002  1.00  0.00     0.202 C 
BRANCH  38  39
ATOM     39  C   UNL A   1      46.648  25.102  26.353  1.00  0.00     0.261 C 
BRANCH  39  40
ATOM     40  O   UNL A   1      45.926  25.417  27.576  1.00  0.00    -0.460 OA
BRANCH  40  41
ATOM     41  C   UNL A   1      44.825  24.879  28.141  1.00  0.00     0.338 C 
ATOM     42  O   UNL A   1      44.593  23.677  28.105  1.00  0.00    -0.246 OA
BRANCH  41  43
ATOM     43  C   UNL A   1      43.813  25.807  28.643  1.00  0.00     0.060 A 
ATOM     44  C   UNL A   1      43.014  26.374  27.668  1.00  0.00     0.016 A 
ATOM     45  C   UNL A   1      43.778  26.260  29.970  1.00  0.00     0.016 A 
ATOM     46  C   UNL A   1      42.377  27.553  27.984  1.00  0.00     0.010 A 
ATOM     47  C   UNL A   1      43.081  27.439  30.277  1.00  0.00     0.010 A 
ATOM     48  C   UNL A   1      42.447  28.133  29.250  1.00  0.00    -0.014 A 
BRANCH  48  49
ATOM     49  C   UNL A   1      41.671  29.376  29.372  1.00  0.00     0.031 A 
ATOM     50  C   UNL A   1      42.523  30.597  29.345  1.00  0.00     0.074 A 
ATOM     51  C   UNL A   1      40.342  29.463  29.591  1.00  0.00     0.049 A 
ATOM     52  N   UNL A   1      42.638  31.517  30.257  1.00  0.00    -0.248 NA
ATOM     53  C   UNL A   1      43.486  30.714  28.238  1.00  0.00     0.031 C 
ATOM     54  C   UNL A   1      39.361  28.382  29.541  1.00  0.00     0.029 A 
ATOM     55  N   UNL A   1      39.566  30.573  29.834  1.00  0.00    -0.354 N 
ATOM     56  C   UNL A   1      43.531  32.439  29.724  1.00  0.00     0.074 A 
ATOM     57  C   UNL A   1      44.140  31.821  28.574  1.00  0.00     0.031 C 
ATOM     58  C   UNL A   1      38.118  28.912  29.513  1.00  0.00     0.029 A 
ATOM     59  C   UNL A   1      38.207  30.360  29.621  1.00  0.00     0.049 A 
ATOM     60  H   UNL A   1      39.936  31.436  30.131  1.00  0.00     0.167 HD
ATOM     61  C   UNL A   1      43.564  33.741  30.104  1.00  0.00     0.037 A 
ATOM     62  C   UNL A   1      37.240  31.295  29.431  1.00  0.00     0.037 A 
ATOM     63  C   UNL A   1      43.012  33.981  31.400  1.00  0.00     0.049 A 
ATOM     64  C   UNL A   1      37.716  32.583  29.981  1.00  0.00     0.074 A 
ATOM     65  C   UNL A   1      43.332  33.610  32.689  1.00  0.00     0.029 A 
ATOM     66  N   UNL A   1      41.770  34.554  31.479  1.00  0.00    -0.354 N 
ATOM     67  N   UNL A   1      37.803  32.863  31.250  1.00  0.00    -0.248 NA
ATOM     68  C   UNL A   1      38.445  33.472  29.091  1.00  0.00     0.031 C 
ATOM     69  C   UNL A   1      42.095  33.582  33.398  1.00  0.00     0.029 A 
ATOM     70  C   UNL A   1      41.093  33.947  32.504  1.00  0.00     0.049 A 
ATOM     71  H   UNL A   1      41.425  35.272  30.902  1.00  0.00     0.167 HD
ATOM     72  C   UNL A   1      38.926  33.668  31.347  1.00  0.00     0.074 A 
ATOM     73  C   UNL A   1      39.213  34.095  29.984  1.00  0.00     0.031 C 
ATOM     74  C   UNL A   1      39.676  33.688  32.484  1.00  0.00     0.037 A 
BRANCH  61  75
ATOM     75  C   UNL A   1      43.805  34.814  29.084  1.00  0.00     0.064 A 
ATOM     76  C   UNL A   1      45.042  35.465  28.988  1.00  0.00     0.173 A 
ATOM     77  C   UNL A   1      42.747  35.375  28.332  1.00  0.00     0.173 A 
ATOM     78  F   UNL A   1      46.080  35.067  29.738  1.00  0.00    -0.203 F 
ATOM     79  C   UNL A   1      45.210  36.585  28.169  1.00  0.00     0.198 A 
ATOM     80  C   UNL A   1      42.934  36.441  27.464  1.00  0.00     0.198 A 
ATOM     81  F   UNL A   1      41.479  34.970  28.495  1.00  0.00    -0.203 F 
ATOM     82  F   UNL A   1      46.379  37.239  28.167  1.00  0.00    -0.200 F 
ATOM     83  C   UNL A   1      44.163  37.057  27.392  1.00  0.00     0.200 A 
ATOM     84  F   UNL A   1      41.896  36.900  26.750  1.00  0.00    -0.200 F 
ATOM     85  F   UNL A   1      44.322  38.138  26.617  1.00  0.00    -0.200 F 
ENDBRANCH  61  75
BRANCH  62  86
ATOM     86  C   UNL A   1      36.057  31.230  28.527  1.00  0.00     0.064 A 
ATOM     87  C   UNL A   1      35.740  30.061  27.811  1.00  0.00     0.173 A 
ATOM     88  C   UNL A   1      35.053  32.220  28.563  1.00  0.00     0.173 A 
ATOM     89  F   UNL A   1      36.608  29.038  27.768  1.00  0.00    -0.203 F 
ATOM     90  C   UNL A   1      34.496  29.887  27.192  1.00  0.00     0.198 A 
ATOM     91  C   UNL A   1      33.820  32.052  27.932  1.00  0.00     0.198 A 
ATOM     92  F   UNL A   1      35.203  33.332  29.294  1.00  0.00    -0.203 F 
ATOM     93  F   UNL A   1      34.207  28.730  26.580  1.00  0.00    -0.200 F 
ATOM     94  C   UNL A   1      33.535  30.881  27.259  1.00  0.00     0.200 A 
ATOM     95  F   UNL A   1      32.889  33.010  28.039  1.00  0.00    -0.200 F 
ATOM     96  F   UNL A   1      32.324  30.696  26.718  1.00  0.00    -0.200 F 
ENDBRANCH  62  86
BRANCH  74  97
ATOM     97  C   UNL A   1      39.051  33.174  33.748  1.00  0.00     0.064 A 
ATOM     98  C   UNL A   1      38.866  31.814  34.051  1.00  0.00     0.173 A 
ATOM     99  C   UNL A   1      38.721  34.111  34.739  1.00  0.00     0.173 A 
ATOM    100  F   UNL A   1      39.239  30.855  33.189  1.00  0.00    -0.203 F 
ATOM    101  C   UNL A   1      38.330  31.421  35.278  1.00  0.00     0.198 A 
ATOM    102  C   UNL A   1      38.223  33.712  35.975  1.00  0.00     0.198 A 
ATOM    103  F   UNL A   1      38.912  35.421  34.515  1.00  0.00    -0.203 F 
ATOM    104  F   UNL A   1      38.133  30.119  35.537  1.00  0.00    -0.200 F 
ATOM    105  C   UNL A   1      38.016  32.368  36.240  1.00  0.00     0.200 A 
ATOM    106  F   UNL A   1      37.955  34.631  36.914  1.00  0.00    -0.200 F 
ATOM    107  F   UNL A   1      37.529  31.987  37.429  1.00  0.00    -0.200 F 
ENDBRANCH  74  97
ENDBRANCH  48  49
ENDBRANCH  41  43
ENDBRANCH  40  41
ENDBRANCH  39  40
ENDBRANCH  38  39
ENDBRANCH  37  38
ENDBRANCH  36  37
ENDBRANCH   1  36
TORSDOF 22
ENDMDL
MODEL 3
REMARK VINA RESULT:     -12.1      0.922      1.922
REMARK SMILES Cc1ccc(C)c(N2C(=O)S[C@H](CC(=O)Nc3ccc(C(=O)OCCOCCOCCOC(=O)c4ccc(-c5c6nc(c(-c7c(F)c(F)c(F)c(F)c7F)c7ccc([nH]7)c(-c7c(F)c(F)c(F)c(F)c7F)c7nc(c(-c8c(F)c(F)c(F)c(F)c8F)c8ccc5[nH]8)C=C7)C=C6)cc4)c(O)c3)C2=O)c1
REMARK SMILES IDX 27 1 26 2 25 3 24 4 23 5 21 6 22 7 20 8 17 9 18 10 100 11
REMARK SMILES IDX 19 12 98 13 16 14 14 15 15 16 13 18 12 19 8 20 9 21 101 22
REMARK SMILES IDX 10 23 11 24 102 25 7 26 1 27 2 28 3 29 103 30 4 31 5 32 6 33
REMARK SMILES IDX 99 34 28 36 29 37 30 38 31 39 32 40 33 41 34 42 35 43 36 44
REMARK SMILES IDX 97 45 37 46 96 47 38 48 39 49 40 50 90 51 41 52 95 53 89 54
REMARK SMILES IDX 91 55 42 56 94 57 88 58 87 59 43 61 75 62 55 63 74 64 56 65
REMARK SMILES IDX 59 66 73 67 92 68 57 69 58 70 72 72 93 73 60 74 44 75 45 76
REMARK SMILES IDX 53 77 46 78 47 79 51 80 54 81 48 82 49 83 52 84 50 85 76 86
REMARK SMILES IDX 77 87 85 88 78 89 79 90 83 91 86 92 80 93 81 94 84 95 82 96
REMARK SMILES IDX 61 97 62 98 70 99 63 100 64 101 68 102 71 103 65 104 66 105
REMARK SMILES IDX 69 106 67 107
REMARK H PARENT 16 17 99 35 91 60 59 71
REMARK Flexibility Score: inf
ROOT
ATOM      1  C   UNL A   1      34.782  32.288  31.006  1.00  0.00     0.188 C 
ENDROOT
BRANCH   1   2
ATOM      2  O   UNL A   1      34.844  33.088  29.822  1.00  0.00    -0.376 OA
BRANCH   2   3
ATOM      3  C   UNL A   1      34.930  32.366  28.592  1.00  0.00     0.202 C 
BRANCH   3   4
ATOM      4  C   UNL A   1      33.671  32.400  27.705  1.00  0.00     0.261 C 
BRANCH   4   5
ATOM      5  O   UNL A   1      33.118  31.103  27.380  1.00  0.00    -0.460 OA
BRANCH   5   6
ATOM      6  C   UNL A   1      32.081  31.130  26.502  1.00  0.00     0.341 C 
ATOM      7  O   UNL A   1      31.204  31.977  26.457  1.00  0.00    -0.246 OA
BRANCH   6   8
ATOM      8  C   UNL A   1      32.178  30.052  25.486  1.00  0.00     0.101 A 
ATOM      9  C   UNL A   1      32.172  28.189  23.371  1.00  0.00     0.044 A 
ATOM     10  C   UNL A   1      30.986  28.715  23.868  1.00  0.00     0.027 A 
ATOM     11  C   UNL A   1      33.339  28.410  24.082  1.00  0.00     0.073 A 
ATOM     12  C   UNL A   1      30.985  29.678  24.880  1.00  0.00     0.022 A 
ATOM     13  C   UNL A   1      33.325  29.315  25.159  1.00  0.00     0.132 A 
BRANCH   9  14
ATOM     14  N   UNL A   1      32.152  27.393  22.215  1.00  0.00    -0.326 N 
ATOM     15  C   UNL A   1      32.886  26.236  22.029  1.00  0.00     0.226 C 
ATOM     16  O   UNL A   1      33.280  25.909  20.911  1.00  0.00    -0.275 OA
ATOM     17  H   UNL A   1      31.568  27.683  21.477  1.00  0.00     0.169 HD
BRANCH  15  18
ATOM     18  C   UNL A   1      32.963  25.272  23.211  1.00  0.00     0.125 C 
BRANCH  18  19
ATOM     19  C   UNL A   1      34.346  24.973  23.783  1.00  0.00     0.156 C 
ATOM     20  N   UNL A   1      34.241  22.708  24.562  1.00  0.00    -0.240 N 
ATOM     21  C   UNL A   1      33.825  23.368  25.694  1.00  0.00     0.293 C 
ATOM     22  C   UNL A   1      34.695  23.507  23.522  1.00  0.00     0.248 C 
ATOM     23  O   UNL A   1      33.190  22.944  26.632  1.00  0.00    -0.261 OA
ATOM     24  S   UNL A   1      34.399  25.026  25.597  1.00  0.00    -0.050 SA
ATOM     25  O   UNL A   1      35.301  23.136  22.523  1.00  0.00    -0.273 OA
BRANCH  20  26
ATOM     26  C   UNL A   1      34.590  21.345  24.687  1.00  0.00     0.056 A 
ATOM     27  C   UNL A   1      37.730  19.180  25.007  1.00  0.00     0.044 C 
ATOM     28  C   UNL A   1      36.307  19.625  24.838  1.00  0.00    -0.049 A 
ATOM     29  C   UNL A   1      35.328  18.650  24.626  1.00  0.00     0.004 A 
ATOM     30  C   UNL A   1      35.935  20.980  24.866  1.00  0.00     0.030 A 
ATOM     31  C   UNL A   1      33.995  19.011  24.450  1.00  0.00     0.006 A 
ATOM     32  C   UNL A   1      33.608  20.356  24.469  1.00  0.00    -0.027 A 
ATOM     33  C   UNL A   1      32.151  20.653  24.230  1.00  0.00     0.046 C 
ENDBRANCH  20  26
ENDBRANCH  18  19
ENDBRANCH  15  18
ENDBRANCH   9  14
BRANCH  13  34
ATOM     34  O   UNL A   1      34.476  29.347  25.883  1.00  0.00    -0.507 OA
ATOM     35  H   UNL A   1      35.260  29.691  25.501  1.00  0.00     0.293 HD
ENDBRANCH  13  34
ENDBRANCH   6   8
ENDBRANCH   5   6
ENDBRANCH   4   5
ENDBRANCH   3   4
ENDBRANCH   2   3
ENDBRANCH   1   2
BRANCH   1  36
ATOM     36  C   UNL A   1      34.923  33.085  32.315  1.00  0.00     0.188 C 
BRANCH  36  37
ATOM     37  O   UNL A   1      36.284  33.202  32.690  1.00  0.00    -0.376 OA
BRANCH  37  38
ATOM     38  C   UNL A   1      36.875  34.476  32.538  1.00  0.00     0.202 C 
BRANCH  38  39
ATOM     39  C   UNL A   1      37.760  34.714  31.307  1.00  0.00     0.261 C 
BRANCH  39  40
ATOM     40  O   UNL A   1      38.744  33.740  30.858  1.00  0.00    -0.460 OA
BRANCH  40  41
ATOM     41  C   UNL A   1      38.710  32.800  29.890  1.00  0.00     0.338 C 
ATOM     42  O   UNL A   1      38.100  32.965  28.841  1.00  0.00    -0.246 OA
BRANCH  41  43
ATOM     43  C   UNL A   1      39.279  31.493  30.211  1.00  0.00     0.060 A 
ATOM     44  C   UNL A   1      40.622  31.511  30.539  1.00  0.00     0.016 A 
ATOM     45  C   UNL A   1      38.595  30.287  30.005  1.00  0.00     0.016 A 
ATOM     46  C   UNL A   1      41.317  30.331  30.407  1.00  0.00     0.010 A 
ATOM     47  C   UNL A   1      39.321  29.088  29.922  1.00  0.00     0.010 A 
ATOM     48  C   UNL A   1      40.707  29.131  30.041  1.00  0.00    -0.014 A 
BRANCH  48  49
ATOM     49  C   UNL A   1      41.634  27.992  29.985  1.00  0.00     0.031 A 
ATOM     50  C   UNL A   1      42.380  27.786  31.257  1.00  0.00     0.074 A 
ATOM     51  C   UNL A   1      41.900  27.238  28.896  1.00  0.00     0.049 A 
ATOM     52  N   UNL A   1      43.667  27.801  31.445  1.00  0.00    -0.248 NA
ATOM     53  C   UNL A   1      41.584  27.726  32.494  1.00  0.00     0.031 C 
ATOM     54  C   UNL A   1      41.190  27.241  27.619  1.00  0.00     0.029 A 
ATOM     55  N   UNL A   1      42.832  26.240  28.730  1.00  0.00    -0.354 N 
ATOM     56  C   UNL A   1      43.833  27.528  32.798  1.00  0.00     0.074 A 
ATOM     57  C   UNL A   1      42.539  27.658  33.417  1.00  0.00     0.031 C 
ATOM     58  C   UNL A   1      41.554  26.152  26.907  1.00  0.00     0.029 A 
ATOM     59  C   UNL A   1      42.575  25.416  27.637  1.00  0.00     0.049 A 
ATOM     60  H   UNL A   1      43.606  26.119  29.326  1.00  0.00     0.167 HD
ATOM     61  C   UNL A   1      44.967  26.988  33.309  1.00  0.00     0.037 A 
ATOM     62  C   UNL A   1      43.071  24.173  27.400  1.00  0.00     0.037 A 
ATOM     63  C   UNL A   1      46.125  27.192  32.497  1.00  0.00     0.049 A 
ATOM     64  C   UNL A   1      44.311  24.003  28.189  1.00  0.00     0.074 A 
ATOM     65  C   UNL A   1      46.852  28.288  32.078  1.00  0.00     0.029 A 
ATOM     66  N   UNL A   1      46.598  26.135  31.765  1.00  0.00    -0.354 N 
ATOM     67  N   UNL A   1      45.453  24.563  27.910  1.00  0.00    -0.248 NA
ATOM     68  C   UNL A   1      44.190  23.460  29.533  1.00  0.00     0.031 C 
ATOM     69  C   UNL A   1      47.411  27.917  30.820  1.00  0.00     0.029 A 
ATOM     70  C   UNL A   1      47.002  26.615  30.547  1.00  0.00     0.049 A 
ATOM     71  H   UNL A   1      46.639  25.197  32.061  1.00  0.00     0.167 HD
ATOM     72  C   UNL A   1      46.014  24.834  29.146  1.00  0.00     0.074 A 
ATOM     73  C   UNL A   1      45.249  24.040  30.098  1.00  0.00     0.031 C 
ATOM     74  C   UNL A   1      46.865  25.885  29.313  1.00  0.00     0.037 A 
BRANCH  61  75
ATOM     75  C   UNL A   1      44.883  25.969  34.407  1.00  0.00     0.064 A 
ATOM     76  C   UNL A   1      45.553  26.152  35.624  1.00  0.00     0.173 A 
ATOM     77  C   UNL A   1      44.324  24.688  34.191  1.00  0.00     0.173 A 
ATOM     78  F   UNL A   1      46.199  27.299  35.880  1.00  0.00    -0.203 F 
ATOM     79  C   UNL A   1      45.628  25.127  36.572  1.00  0.00     0.198 A 
ATOM     80  C   UNL A   1      44.336  23.697  35.162  1.00  0.00     0.198 A 
ATOM     81  F   UNL A   1      43.839  24.328  32.993  1.00  0.00    -0.203 F 
ATOM     82  F   UNL A   1      46.350  25.301  37.685  1.00  0.00    -0.200 F 
ATOM     83  C   UNL A   1      45.001  23.910  36.349  1.00  0.00     0.200 A 
ATOM     84  F   UNL A   1      43.752  22.518  34.906  1.00  0.00    -0.200 F 
ATOM     85  F   UNL A   1      45.084  22.924  37.251  1.00  0.00    -0.200 F 
ENDBRANCH  61  75
BRANCH  62  86
ATOM     86  C   UNL A   1      42.382  23.006  26.782  1.00  0.00     0.064 A 
ATOM     87  C   UNL A   1      43.106  21.932  26.230  1.00  0.00     0.173 A 
ATOM     88  C   UNL A   1      41.003  22.785  26.970  1.00  0.00     0.173 A 
ATOM     89  F   UNL A   1      44.434  22.025  26.065  1.00  0.00    -0.203 F 
ATOM     90  C   UNL A   1      42.493  20.714  25.909  1.00  0.00     0.198 A 
ATOM     91  C   UNL A   1      40.390  21.577  26.635  1.00  0.00     0.198 A 
ATOM     92  F   UNL A   1      40.232  23.697  27.577  1.00  0.00    -0.203 F 
ATOM     93  F   UNL A   1      43.229  19.693  25.451  1.00  0.00    -0.200 F 
ATOM     94  C   UNL A   1      41.136  20.536  26.118  1.00  0.00     0.200 A 
ATOM     95  F   UNL A   1      39.083  21.410  26.880  1.00  0.00    -0.200 F 
ATOM     96  F   UNL A   1      40.556  19.355  25.867  1.00  0.00    -0.200 F 
ENDBRANCH  62  86
BRANCH  74  97
ATOM     97  C   UNL A   1      47.510  26.469  28.091  1.00  0.00     0.064 A 
ATOM     98  C   UNL A   1      47.007  27.565  27.370  1.00  0.00     0.173 A 
ATOM     99  C   UNL A   1      48.752  25.948  27.698  1.00  0.00     0.173 A 
ATOM    100  F   UNL A   1      45.868  28.174  27.738  1.00  0.00    -0.203 F 
ATOM    101  C   UNL A   1      47.703  28.083  26.277  1.00  0.00     0.198 A 
ATOM    102  C   UNL A   1      49.461  26.492  26.632  1.00  0.00     0.198 A 
ATOM    103  F   UNL A   1      49.296  24.923  28.374  1.00  0.00    -0.203 F 
ATOM    104  F   UNL A   1      47.193  29.112  25.584  1.00  0.00    -0.200 F 
ATOM    105  C   UNL A   1      48.931  27.552  25.914  1.00  0.00     0.200 A 
ATOM    106  F   UNL A   1      50.664  25.996  26.309  1.00  0.00    -0.200 F 
ATOM    107  F   UNL A   1      49.612  28.069  24.882  1.00  0.00    -0.200 F 
ENDBRANCH  74  97
ENDBRANCH  48  49
ENDBRANCH  41  43
ENDBRANCH  40  41
ENDBRANCH  39  40
ENDBRANCH  38  39
ENDBRANCH  37  38
ENDBRANCH  36  37
ENDBRANCH   1  36
TORSDOF 22
ENDMDL
