MODEL 1
REMARK VINA RESULT:     -11.3      0.000      0.000
REMARK SMILES Cc1c(Cl)cccc1NC(=O)C[C@](C)(C(=O)OCCOCCOCCOC(=O)c1ccc(-c2c3nc(c(-c4c(F)c(F)c(F)c(F)c4F)c4ccc([nH]4)c(-c4c(F)c(F)c(F)c(F)c4F)c4nc(c(-c5c(F)c(F)c(F)c(F)c5F)c5ccc2[nH]5)C=C4)C=C3)cc1)c1ccccc1
REMARK SMILES IDX 21 1 20 2 19 3 18 4 17 5 15 6 16 7 13 8 14 9 12 10 10 11
REMARK SMILES IDX 9 12 11 14 8 15 1 16 2 17 3 18 4 19 5 20 7 21 6 22 92 23
REMARK SMILES IDX 93 24 97 25 94 26 96 27 95 28 22 29 23 30 24 31 25 32 26 33
REMARK SMILES IDX 27 34 28 35 29 36 30 37 91 38 31 39 90 40 32 41 33 42 34 43
REMARK SMILES IDX 84 44 35 45 89 46 83 47 85 48 36 49 88 50 82 51 81 52 37 54
REMARK SMILES IDX 69 55 49 56 68 57 50 58 53 59 67 60 86 61 51 62 52 63 66 65
REMARK SMILES IDX 87 66 54 67 38 68 39 69 47 70 40 71 41 72 45 73 48 74 42 75
REMARK SMILES IDX 43 76 46 77 44 78 70 79 71 80 79 81 72 82 73 83 77 84 80 85
REMARK SMILES IDX 74 86 75 87 78 88 76 89 55 90 56 91 64 92 57 93 58 94 62 95
REMARK SMILES IDX 65 96 59 97 60 98 63 99 61 100
REMARK H PARENT 9 13 85 53 53 64
REMARK Flexibility Score: inf
ROOT
ATOM      1  C   UNL A   1      39.654  22.009  26.510  1.00  0.00     0.188 C 
ENDROOT
BRANCH   1   2
ATOM      2  O   UNL A   1      38.590  22.776  25.956  1.00  0.00    -0.376 OA
BRANCH   2   3
ATOM      3  C   UNL A   1      37.265  22.267  26.074  1.00  0.00     0.202 C 
BRANCH   3   4
ATOM      4  C   UNL A   1      36.223  22.798  25.086  1.00  0.00     0.261 C 
BRANCH   4   5
ATOM      5  O   UNL A   1      34.852  22.670  25.525  1.00  0.00    -0.463 OA
BRANCH   5   6
ATOM      6  C   UNL A   1      33.927  22.562  24.537  1.00  0.00     0.316 C 
ATOM      7  O   UNL A   1      34.011  21.722  23.644  1.00  0.00    -0.251 OA
BRANCH   6   8
ATOM      8  C   UNL A   1      32.745  23.576  24.612  1.00  0.00     0.099 C 
ATOM      9  C   UNL A   1      31.364  23.062  24.121  1.00  0.00     0.029 C 
BRANCH   8  10
ATOM     10  C   UNL A   1      32.587  23.973  26.119  1.00  0.00     0.123 C 
BRANCH  10  11
ATOM     11  C   UNL A   1      31.186  24.231  26.678  1.00  0.00     0.225 C 
ATOM     12  N   UNL A   1      30.441  25.351  26.453  1.00  0.00    -0.326 N 
ATOM     13  H   UNL A   1      29.509  25.250  26.755  1.00  0.00     0.169 HD
ATOM     14  O   UNL A   1      30.654  23.356  27.373  1.00  0.00    -0.275 OA
BRANCH  12  15
ATOM     15  C   UNL A   1      30.689  26.618  25.891  1.00  0.00     0.045 A 
ATOM     16  C   UNL A   1      29.152  26.063  23.900  1.00  0.00     0.048 C 
ATOM     17  C   UNL A   1      30.116  26.962  24.638  1.00  0.00    -0.009 A 
ATOM     18  C   UNL A   1      30.467  28.201  24.053  1.00  0.00     0.046 A 
ATOM     19  Cl  UNL A   1      29.872  28.685  22.499  1.00  0.00    -0.084 Cl
ATOM     20  C   UNL A   1      31.325  29.090  24.700  1.00  0.00     0.021 A 
ATOM     21  C   UNL A   1      31.469  27.564  26.561  1.00  0.00     0.026 A 
ATOM     22  C   UNL A   1      31.801  28.783  25.965  1.00  0.00     0.004 A 
ENDBRANCH  12  15
ENDBRANCH  10  11
ENDBRANCH   8  10
BRANCH   8  23
ATOM     23  C   UNL A   1      33.027  24.823  23.701  1.00  0.00    -0.030 A 
ATOM     24  C   UNL A   1      33.858  25.872  24.153  1.00  0.00     0.005 A 
ATOM     25  C   UNL A   1      32.389  25.010  22.459  1.00  0.00     0.005 A 
ATOM     26  C   UNL A   1      34.007  27.055  23.417  1.00  0.00     0.000 A 
ATOM     27  C   UNL A   1      32.562  26.181  21.714  1.00  0.00     0.000 A 
ATOM     28  C   UNL A   1      33.357  27.211  22.199  1.00  0.00     0.000 A 
ENDBRANCH   8  23
ENDBRANCH   6   8
ENDBRANCH   5   6
ENDBRANCH   4   5
ENDBRANCH   3   4
ENDBRANCH   2   3
ENDBRANCH   1   2
BRANCH   1  29
ATOM     29  C   UNL A   1      39.854  20.573  26.003  1.00  0.00     0.188 C 
BRANCH  29  30
ATOM     30  O   UNL A   1      41.178  20.256  25.645  1.00  0.00    -0.376 OA
BRANCH  30  31
ATOM     31  C   UNL A   1      42.225  20.840  26.394  1.00  0.00     0.202 C 
BRANCH  31  32
ATOM     32  C   UNL A   1      43.195  21.797  25.684  1.00  0.00     0.261 C 
BRANCH  32  33
ATOM     33  O   UNL A   1      42.672  23.079  25.297  1.00  0.00    -0.460 OA
BRANCH  33  34
ATOM     34  C   UNL A   1      43.516  24.137  25.263  1.00  0.00     0.338 C 
ATOM     35  O   UNL A   1      44.383  24.360  24.436  1.00  0.00    -0.246 OA
BRANCH  34  36
ATOM     36  C   UNL A   1      43.013  25.112  26.263  1.00  0.00     0.060 A 
ATOM     37  C   UNL A   1      43.362  26.467  26.136  1.00  0.00     0.016 A 
ATOM     38  C   UNL A   1      42.109  24.710  27.250  1.00  0.00     0.016 A 
ATOM     39  C   UNL A   1      42.801  27.420  26.992  1.00  0.00     0.010 A 
ATOM     40  C   UNL A   1      41.577  25.658  28.126  1.00  0.00     0.010 A 
ATOM     41  C   UNL A   1      41.930  27.014  28.013  1.00  0.00    -0.014 A 
BRANCH  41  42
ATOM     42  C   UNL A   1      41.540  27.947  29.096  1.00  0.00     0.031 A 
ATOM     43  C   UNL A   1      42.347  27.928  30.361  1.00  0.00     0.074 A 
ATOM     44  C   UNL A   1      40.472  28.756  28.988  1.00  0.00     0.049 A 
ATOM     45  N   UNL A   1      42.130  28.531  31.501  1.00  0.00    -0.248 NA
ATOM     46  C   UNL A   1      43.563  27.098  30.337  1.00  0.00     0.031 C 
ATOM     47  C   UNL A   1      39.636  28.899  27.802  1.00  0.00     0.029 A 
ATOM     48  N   UNL A   1      39.902  29.603  29.908  1.00  0.00    -0.354 N 
ATOM     49  C   UNL A   1      43.172  28.145  32.332  1.00  0.00     0.074 A 
ATOM     50  C   UNL A   1      44.011  27.242  31.573  1.00  0.00     0.031 C 
ATOM     51  C   UNL A   1      38.657  29.784  28.062  1.00  0.00     0.029 A 
ATOM     52  C   UNL A   1      38.767  30.228  29.452  1.00  0.00     0.049 A 
ATOM     53  H   UNL A   1      40.271  29.748  30.808  1.00  0.00     0.167 HD
ATOM     54  C   UNL A   1      43.406  28.507  33.615  1.00  0.00     0.037 A 
ATOM     55  C   UNL A   1      37.902  31.036  30.098  1.00  0.00     0.037 A 
ATOM     56  C   UNL A   1      42.556  29.381  34.374  1.00  0.00     0.049 A 
ATOM     57  C   UNL A   1      38.123  31.334  31.562  1.00  0.00     0.074 A 
ATOM     58  C   UNL A   1      42.702  29.805  35.682  1.00  0.00     0.029 A 
ATOM     59  N   UNL A   1      41.386  29.952  33.896  1.00  0.00    -0.354 N 
ATOM     60  N   UNL A   1      39.113  30.976  32.343  1.00  0.00    -0.248 NA
ATOM     61  C   UNL A   1      37.088  32.131  32.239  1.00  0.00     0.031 C 
ATOM     62  C   UNL A   1      41.593  30.592  36.012  1.00  0.00     0.029 A 
ATOM     63  C   UNL A   1      40.783  30.700  34.892  1.00  0.00     0.049 A 
ATOM     64  H   UNL A   1      41.037  29.842  32.981  1.00  0.00     0.167 HD
ATOM     65  C   UNL A   1      38.834  31.518  33.592  1.00  0.00     0.074 A 
ATOM     66  C   UNL A   1      37.587  32.243  33.463  1.00  0.00     0.031 C 
ATOM     67  C   UNL A   1      39.543  31.421  34.744  1.00  0.00     0.037 A 
BRANCH  54  68
ATOM     68  C   UNL A   1      44.610  27.910  34.281  1.00  0.00     0.064 A 
ATOM     69  C   UNL A   1      44.543  26.686  34.965  1.00  0.00     0.173 A 
ATOM     70  C   UNL A   1      45.843  28.578  34.246  1.00  0.00     0.173 A 
ATOM     71  F   UNL A   1      43.381  26.020  35.046  1.00  0.00    -0.203 F 
ATOM     72  C   UNL A   1      45.658  26.172  35.621  1.00  0.00     0.198 A 
ATOM     73  C   UNL A   1      46.964  28.044  34.877  1.00  0.00     0.198 A 
ATOM     74  F   UNL A   1      45.960  29.751  33.608  1.00  0.00    -0.203 F 
ATOM     75  F   UNL A   1      45.556  25.035  36.321  1.00  0.00    -0.200 F 
ATOM     76  C   UNL A   1      46.868  26.849  35.573  1.00  0.00     0.200 A 
ATOM     77  F   UNL A   1      48.134  28.696  34.823  1.00  0.00    -0.200 F 
ATOM     78  F   UNL A   1      47.939  26.354  36.208  1.00  0.00    -0.200 F 
ENDBRANCH  54  68
BRANCH  55  79
ATOM     79  C   UNL A   1      36.730  31.610  29.384  1.00  0.00     0.064 A 
ATOM     80  C   UNL A   1      35.651  30.796  29.012  1.00  0.00     0.173 A 
ATOM     81  C   UNL A   1      36.674  32.965  29.031  1.00  0.00     0.173 A 
ATOM     82  F   UNL A   1      35.673  29.485  29.294  1.00  0.00    -0.203 F 
ATOM     83  C   UNL A   1      34.567  31.313  28.305  1.00  0.00     0.198 A 
ATOM     84  C   UNL A   1      35.576  33.488  28.350  1.00  0.00     0.198 A 
ATOM     85  F   UNL A   1      37.685  33.785  29.350  1.00  0.00    -0.203 F 
ATOM     86  F   UNL A   1      33.572  30.502  27.919  1.00  0.00    -0.200 F 
ATOM     87  C   UNL A   1      34.527  32.660  27.980  1.00  0.00     0.200 A 
ATOM     88  F   UNL A   1      35.540  34.792  28.042  1.00  0.00    -0.200 F 
ATOM     89  F   UNL A   1      33.484  33.158  27.301  1.00  0.00    -0.200 F 
ENDBRANCH  55  79
BRANCH  67  90
ATOM     90  C   UNL A   1      39.010  32.134  35.954  1.00  0.00     0.064 A 
ATOM     91  C   UNL A   1      38.173  31.489  36.876  1.00  0.00     0.173 A 
ATOM     92  C   UNL A   1      39.398  33.453  36.229  1.00  0.00     0.173 A 
ATOM     93  F   UNL A   1      37.761  30.232  36.652  1.00  0.00    -0.203 F 
ATOM     94  C   UNL A   1      37.735  32.145  38.025  1.00  0.00     0.198 A 
ATOM     95  C   UNL A   1      38.982  34.096  37.391  1.00  0.00     0.198 A 
ATOM     96  F   UNL A   1      40.203  34.112  35.382  1.00  0.00    -0.203 F 
ATOM     97  F   UNL A   1      36.909  31.522  38.877  1.00  0.00    -0.200 F 
ATOM     98  C   UNL A   1      38.148  33.443  38.286  1.00  0.00     0.200 A 
ATOM     99  F   UNL A   1      39.395  35.345  37.650  1.00  0.00    -0.200 F 
ATOM    100  F   UNL A   1      37.739  34.067  39.399  1.00  0.00    -0.200 F 
ENDBRANCH  67  90
ENDBRANCH  41  42
ENDBRANCH  34  36
ENDBRANCH  33  34
ENDBRANCH  32  33
ENDBRANCH  31  32
ENDBRANCH  30  31
ENDBRANCH  29  30
ENDBRANCH   1  29
TORSDOF 21
ENDMDL
MODEL 2
REMARK VINA RESULT:     -11.3      4.798      7.272
REMARK SMILES Cc1c(Cl)cccc1NC(=O)C[C@](C)(C(=O)OCCOCCOCCOC(=O)c1ccc(-c2c3nc(c(-c4c(F)c(F)c(F)c(F)c4F)c4ccc([nH]4)c(-c4c(F)c(F)c(F)c(F)c4F)c4nc(c(-c5c(F)c(F)c(F)c(F)c5F)c5ccc2[nH]5)C=C4)C=C3)cc1)c1ccccc1
REMARK SMILES IDX 21 1 20 2 19 3 18 4 17 5 15 6 16 7 13 8 14 9 12 10 10 11
REMARK SMILES IDX 9 12 11 14 8 15 1 16 2 17 3 18 4 19 5 20 7 21 6 22 92 23
REMARK SMILES IDX 93 24 97 25 94 26 96 27 95 28 22 29 23 30 24 31 25 32 26 33
REMARK SMILES IDX 27 34 28 35 29 36 30 37 91 38 31 39 90 40 32 41 33 42 34 43
REMARK SMILES IDX 84 44 35 45 89 46 83 47 85 48 36 49 88 50 82 51 81 52 37 54
REMARK SMILES IDX 69 55 49 56 68 57 50 58 53 59 67 60 86 61 51 62 52 63 66 65
REMARK SMILES IDX 87 66 54 67 38 68 39 69 47 70 40 71 41 72 45 73 48 74 42 75
REMARK SMILES IDX 43 76 46 77 44 78 70 79 71 80 79 81 72 82 73 83 77 84 80 85
REMARK SMILES IDX 74 86 75 87 78 88 76 89 55 90 56 91 64 92 57 93 58 94 62 95
REMARK SMILES IDX 65 96 59 97 60 98 63 99 61 100
REMARK H PARENT 9 13 85 53 53 64
REMARK Flexibility Score: inf
ROOT
ATOM      1  C   UNL A   1      40.141  21.887  26.467  1.00  0.00     0.188 C 
ENDROOT
BRANCH   1   2
ATOM      2  O   UNL A   1      39.037  21.654  25.599  1.00  0.00    -0.376 OA
BRANCH   2   3
ATOM      3  C   UNL A   1      37.815  22.334  25.873  1.00  0.00     0.202 C 
BRANCH   3   4
ATOM      4  C   UNL A   1      37.037  22.881  24.672  1.00  0.00     0.261 C 
BRANCH   4   5
ATOM      5  O   UNL A   1      35.813  23.570  25.009  1.00  0.00    -0.463 OA
BRANCH   5   6
ATOM      6  C   UNL A   1      34.665  22.926  24.671  1.00  0.00     0.316 C 
ATOM      7  O   UNL A   1      34.645  21.740  24.352  1.00  0.00    -0.251 OA
BRANCH   6   8
ATOM      8  C   UNL A   1      33.371  23.794  24.721  1.00  0.00     0.099 C 
ATOM      9  C   UNL A   1      32.056  23.098  24.273  1.00  0.00     0.029 C 
BRANCH   8  10
ATOM     10  C   UNL A   1      33.180  24.236  26.211  1.00  0.00     0.123 C 
BRANCH  10  11
ATOM     11  C   UNL A   1      31.766  24.316  26.789  1.00  0.00     0.225 C 
ATOM     12  N   UNL A   1      30.884  25.335  26.579  1.00  0.00    -0.326 N 
ATOM     13  H   UNL A   1      29.976  25.118  26.892  1.00  0.00     0.169 HD
ATOM     14  O   UNL A   1      31.356  23.379  27.488  1.00  0.00    -0.275 OA
BRANCH  12  15
ATOM     15  C   UNL A   1      30.965  26.623  26.018  1.00  0.00     0.045 A 
ATOM     16  C   UNL A   1      29.643  25.835  23.952  1.00  0.00     0.048 C 
ATOM     17  C   UNL A   1      30.415  26.873  24.733  1.00  0.00    -0.009 A 
ATOM     18  C   UNL A   1      30.603  28.150  24.155  1.00  0.00     0.046 A 
ATOM     19  Cl  UNL A   1      30.027  28.534  22.566  1.00  0.00    -0.084 Cl
ATOM     20  C   UNL A   1      31.277  29.162  24.838  1.00  0.00     0.021 A 
ATOM     21  C   UNL A   1      31.551  27.679  26.720  1.00  0.00     0.026 A 
ATOM     22  C   UNL A   1      31.724  28.935  26.131  1.00  0.00     0.004 A 
ENDBRANCH  12  15
ENDBRANCH  10  11
ENDBRANCH   8  10
BRANCH   8  23
ATOM     23  C   UNL A   1      33.492  25.024  23.754  1.00  0.00    -0.030 A 
ATOM     24  C   UNL A   1      34.002  26.258  24.217  1.00  0.00     0.005 A 
ATOM     25  C   UNL A   1      33.005  24.997  22.432  1.00  0.00     0.005 A 
ATOM     26  C   UNL A   1      33.985  27.404  23.412  1.00  0.00     0.000 A 
ATOM     27  C   UNL A   1      33.016  26.137  21.622  1.00  0.00     0.000 A 
ATOM     28  C   UNL A   1      33.490  27.344  22.115  1.00  0.00     0.000 A 
ENDBRANCH   8  23
ENDBRANCH   6   8
ENDBRANCH   5   6
ENDBRANCH   4   5
ENDBRANCH   3   4
ENDBRANCH   2   3
ENDBRANCH   1   2
BRANCH   1  29
ATOM     29  C   UNL A   1      41.460  21.156  26.175  1.00  0.00     0.188 C 
BRANCH  29  30
ATOM     30  O   UNL A   1      41.893  20.293  27.200  1.00  0.00    -0.376 OA
BRANCH  30  31
ATOM     31  C   UNL A   1      42.437  19.043  26.828  1.00  0.00     0.202 C 
BRANCH  31  32
ATOM     32  C   UNL A   1      42.974  18.868  25.399  1.00  0.00     0.261 C 
BRANCH  32  33
ATOM     33  O   UNL A   1      44.382  18.608  25.264  1.00  0.00    -0.460 OA
BRANCH  33  34
ATOM     34  C   UNL A   1      45.075  19.288  24.321  1.00  0.00     0.338 C 
ATOM     35  O   UNL A   1      45.455  18.869  23.242  1.00  0.00    -0.246 OA
BRANCH  34  36
ATOM     36  C   UNL A   1      45.053  20.716  24.726  1.00  0.00     0.060 A 
ATOM     37  C   UNL A   1      44.599  21.682  23.812  1.00  0.00     0.016 A 
ATOM     38  C   UNL A   1      45.367  21.085  26.037  1.00  0.00     0.016 A 
ATOM     39  C   UNL A   1      44.453  23.014  24.212  1.00  0.00     0.010 A 
ATOM     40  C   UNL A   1      45.253  22.421  26.425  1.00  0.00     0.010 A 
ATOM     41  C   UNL A   1      44.811  23.395  25.513  1.00  0.00    -0.014 A 
BRANCH  41  42
ATOM     42  C   UNL A   1      44.930  24.826  25.881  1.00  0.00     0.031 A 
ATOM     43  C   UNL A   1      46.276  25.474  25.744  1.00  0.00     0.074 A 
ATOM     44  C   UNL A   1      43.891  25.523  26.371  1.00  0.00     0.049 A 
ATOM     45  N   UNL A   1      46.679  26.657  26.131  1.00  0.00    -0.248 NA
ATOM     46  C   UNL A   1      47.318  24.665  25.088  1.00  0.00     0.031 C 
ATOM     47  C   UNL A   1      42.529  25.023  26.512  1.00  0.00     0.029 A 
ATOM     48  N   UNL A   1      43.832  26.808  26.856  1.00  0.00    -0.354 N 
ATOM     49  C   UNL A   1      48.019  26.729  25.778  1.00  0.00     0.074 A 
ATOM     50  C   UNL A   1      48.368  25.466  25.163  1.00  0.00     0.031 C 
ATOM     51  C   UNL A   1      41.763  25.991  27.048  1.00  0.00     0.029 A 
ATOM     52  C   UNL A   1      42.594  27.159  27.336  1.00  0.00     0.049 A 
ATOM     53  H   UNL A   1      44.604  27.419  26.859  1.00  0.00     0.167 HD
ATOM     54  C   UNL A   1      48.884  27.754  25.956  1.00  0.00     0.037 A 
ATOM     55  C   UNL A   1      42.195  28.283  27.966  1.00  0.00     0.037 A 
ATOM     56  C   UNL A   1      48.543  28.996  26.593  1.00  0.00     0.049 A 
ATOM     57  C   UNL A   1      43.206  29.367  28.254  1.00  0.00     0.074 A 
ATOM     58  C   UNL A   1      49.347  30.097  26.827  1.00  0.00     0.029 A 
ATOM     59  N   UNL A   1      47.293  29.295  27.115  1.00  0.00    -0.354 N 
ATOM     60  N   UNL A   1      44.470  29.438  27.912  1.00  0.00    -0.248 NA
ATOM     61  C   UNL A   1      42.736  30.519  29.040  1.00  0.00     0.031 C 
ATOM     62  C   UNL A   1      48.598  31.041  27.537  1.00  0.00     0.029 A 
ATOM     63  C   UNL A   1      47.312  30.550  27.699  1.00  0.00     0.049 A 
ATOM     64  H   UNL A   1      46.507  28.702  27.075  1.00  0.00     0.167 HD
ATOM     65  C   UNL A   1      44.939  30.643  28.420  1.00  0.00     0.074 A 
ATOM     66  C   UNL A   1      43.821  31.281  29.082  1.00  0.00     0.031 C 
ATOM     67  C   UNL A   1      46.185  31.173  28.349  1.00  0.00     0.037 A 
BRANCH  54  68
ATOM     68  C   UNL A   1      50.294  27.543  25.494  1.00  0.00     0.064 A 
ATOM     69  C   UNL A   1      50.668  27.733  24.154  1.00  0.00     0.173 A 
ATOM     70  C   UNL A   1      51.283  27.129  26.399  1.00  0.00     0.173 A 
ATOM     71  F   UNL A   1      49.754  28.106  23.245  1.00  0.00    -0.203 F 
ATOM     72  C   UNL A   1      51.970  27.482  23.732  1.00  0.00     0.198 A 
ATOM     73  C   UNL A   1      52.592  26.909  25.979  1.00  0.00     0.198 A 
ATOM     74  F   UNL A   1      50.978  26.930  27.690  1.00  0.00    -0.203 F 
ATOM     75  F   UNL A   1      52.289  27.609  22.437  1.00  0.00    -0.200 F 
ATOM     76  C   UNL A   1      52.932  27.075  24.645  1.00  0.00     0.200 A 
ATOM     77  F   UNL A   1      53.522  26.523  26.864  1.00  0.00    -0.200 F 
ATOM     78  F   UNL A   1      54.184  26.830  24.236  1.00  0.00    -0.200 F 
ENDBRANCH  54  68
BRANCH  55  79
ATOM     79  C   UNL A   1      40.779  28.444  28.393  1.00  0.00     0.064 A 
ATOM     80  C   UNL A   1      39.827  28.992  27.523  1.00  0.00     0.173 A 
ATOM     81  C   UNL A   1      40.353  28.085  29.680  1.00  0.00     0.173 A 
ATOM     82  F   UNL A   1      40.192  29.384  26.293  1.00  0.00    -0.203 F 
ATOM     83  C   UNL A   1      38.507  29.186  27.926  1.00  0.00     0.198 A 
ATOM     84  C   UNL A   1      39.027  28.253  30.073  1.00  0.00     0.198 A 
ATOM     85  F   UNL A   1      41.226  27.569  30.557  1.00  0.00    -0.203 F 
ATOM     86  F   UNL A   1      37.630  29.758  27.090  1.00  0.00    -0.200 F 
ATOM     87  C   UNL A   1      38.106  28.811  29.199  1.00  0.00     0.200 A 
ATOM     88  F   UNL A   1      38.643  27.885  31.303  1.00  0.00    -0.200 F 
ATOM     89  F   UNL A   1      36.837  28.997  29.588  1.00  0.00    -0.200 F 
ENDBRANCH  55  79
BRANCH  67  90
ATOM     90  C   UNL A   1      46.408  32.519  28.977  1.00  0.00     0.064 A 
ATOM     91  C   UNL A   1      46.869  32.647  30.295  1.00  0.00     0.173 A 
ATOM     92  C   UNL A   1      46.226  33.691  28.227  1.00  0.00     0.173 A 
ATOM     93  F   UNL A   1      47.045  31.559  31.058  1.00  0.00    -0.203 F 
ATOM     94  C   UNL A   1      47.128  33.902  30.843  1.00  0.00     0.198 A 
ATOM     95  C   UNL A   1      46.513  34.940  28.768  1.00  0.00     0.198 A 
ATOM     96  F   UNL A   1      45.794  33.622  26.959  1.00  0.00    -0.203 F 
ATOM     97  F   UNL A   1      47.536  34.004  32.116  1.00  0.00    -0.200 F 
ATOM     98  C   UNL A   1      46.959  35.046  30.077  1.00  0.00     0.200 A 
ATOM     99  F   UNL A   1      46.365  36.043  28.021  1.00  0.00    -0.200 F 
ATOM    100  F   UNL A   1      47.225  36.250  30.600  1.00  0.00    -0.200 F 
ENDBRANCH  67  90
ENDBRANCH  41  42
ENDBRANCH  34  36
ENDBRANCH  33  34
ENDBRANCH  32  33
ENDBRANCH  31  32
ENDBRANCH  30  31
ENDBRANCH  29  30
ENDBRANCH   1  29
TORSDOF 21
ENDMDL
MODEL 3
REMARK VINA RESULT:     -11.2      5.070     10.125
REMARK SMILES Cc1c(Cl)cccc1NC(=O)C[C@](C)(C(=O)OCCOCCOCCOC(=O)c1ccc(-c2c3nc(c(-c4c(F)c(F)c(F)c(F)c4F)c4ccc([nH]4)c(-c4c(F)c(F)c(F)c(F)c4F)c4nc(c(-c5c(F)c(F)c(F)c(F)c5F)c5ccc2[nH]5)C=C4)C=C3)cc1)c1ccccc1
REMARK SMILES IDX 21 1 20 2 19 3 18 4 17 5 15 6 16 7 13 8 14 9 12 10 10 11
REMARK SMILES IDX 9 12 11 14 8 15 1 16 2 17 3 18 4 19 5 20 7 21 6 22 92 23
REMARK SMILES IDX 93 24 97 25 94 26 96 27 95 28 22 29 23 30 24 31 25 32 26 33
REMARK SMILES IDX 27 34 28 35 29 36 30 37 91 38 31 39 90 40 32 41 33 42 34 43
REMARK SMILES IDX 84 44 35 45 89 46 83 47 85 48 36 49 88 50 82 51 81 52 37 54
REMARK SMILES IDX 69 55 49 56 68 57 50 58 53 59 67 60 86 61 51 62 52 63 66 65
REMARK SMILES IDX 87 66 54 67 38 68 39 69 47 70 40 71 41 72 45 73 48 74 42 75
REMARK SMILES IDX 43 76 46 77 44 78 70 79 71 80 79 81 72 82 73 83 77 84 80 85
REMARK SMILES IDX 74 86 75 87 78 88 76 89 55 90 56 91 64 92 57 93 58 94 62 95
REMARK SMILES IDX 65 96 59 97 60 98 63 99 61 100
REMARK H PARENT 9 13 85 53 53 64
REMARK Flexibility Score: inf
ROOT
ATOM      1  C   UNL A   1      33.573  32.034  28.094  1.00  0.00     0.188 C 
ENDROOT
BRANCH   1   2
ATOM      2  O   UNL A   1      33.156  31.090  27.113  1.00  0.00    -0.376 OA
BRANCH   2   3
ATOM      3  C   UNL A   1      33.846  29.845  27.046  1.00  0.00     0.202 C 
BRANCH   3   4
ATOM      4  C   UNL A   1      33.689  29.029  25.759  1.00  0.00     0.261 C 
BRANCH   4   5
ATOM      5  O   UNL A   1      33.164  27.697  25.949  1.00  0.00    -0.463 OA
BRANCH   5   6
ATOM      6  C   UNL A   1      32.114  27.362  25.154  1.00  0.00     0.316 C 
ATOM      7  O   UNL A   1      31.173  28.125  24.950  1.00  0.00    -0.251 OA
BRANCH   6   8
ATOM      8  C   UNL A   1      32.186  25.942  24.514  1.00  0.00     0.099 C 
ATOM      9  C   UNL A   1      30.984  25.527  23.620  1.00  0.00     0.029 C 
BRANCH   8  10
ATOM     10  C   UNL A   1      33.467  25.916  23.614  1.00  0.00     0.123 C 
BRANCH  10  11
ATOM     11  C   UNL A   1      33.433  25.151  22.290  1.00  0.00     0.225 C 
ATOM     12  N   UNL A   1      33.336  23.796  22.164  1.00  0.00    -0.326 N 
ATOM     13  H   UNL A   1      33.156  23.516  21.237  1.00  0.00     0.169 HD
ATOM     14  O   UNL A   1      33.468  25.793  21.232  1.00  0.00    -0.275 OA
BRANCH  12  15
ATOM     15  C   UNL A   1      33.432  22.704  23.046  1.00  0.00     0.045 A 
ATOM     16  C   UNL A   1      35.925  23.215  23.446  1.00  0.00     0.048 C 
ATOM     17  C   UNL A   1      34.681  22.379  23.637  1.00  0.00    -0.009 A 
ATOM     18  C   UNL A   1      34.767  21.216  24.438  1.00  0.00     0.046 A 
ATOM     19  Cl  UNL A   1      36.259  20.698  25.151  1.00  0.00    -0.084 Cl
ATOM     20  C   UNL A   1      33.648  20.420  24.681  1.00  0.00     0.021 A 
ATOM     21  C   UNL A   1      32.307  21.946  23.381  1.00  0.00     0.026 A 
ATOM     22  C   UNL A   1      32.414  20.802  24.176  1.00  0.00     0.004 A 
ENDBRANCH  12  15
ENDBRANCH  10  11
ENDBRANCH   8  10
BRANCH   8  23
ATOM     23  C   UNL A   1      32.225  24.835  25.626  1.00  0.00    -0.030 A 
ATOM     24  C   UNL A   1      33.451  24.436  26.203  1.00  0.00     0.005 A 
ATOM     25  C   UNL A   1      31.077  24.117  26.018  1.00  0.00     0.005 A 
ATOM     26  C   UNL A   1      33.524  23.354  27.090  1.00  0.00     0.000 A 
ATOM     27  C   UNL A   1      31.150  23.055  26.925  1.00  0.00     0.000 A 
ATOM     28  C   UNL A   1      32.374  22.661  27.449  1.00  0.00     0.000 A 
ENDBRANCH   8  23
ENDBRANCH   6   8
ENDBRANCH   5   6
ENDBRANCH   4   5
ENDBRANCH   3   4
ENDBRANCH   2   3
ENDBRANCH   1   2
BRANCH   1  29
ATOM     29  C   UNL A   1      33.512  33.526  27.737  1.00  0.00     0.188 C 
BRANCH  29  30
ATOM     30  O   UNL A   1      32.717  34.304  28.601  1.00  0.00    -0.376 OA
BRANCH  30  31
ATOM     31  C   UNL A   1      33.366  35.255  29.422  1.00  0.00     0.202 C 
BRANCH  31  32
ATOM     32  C   UNL A   1      33.912  34.802  30.786  1.00  0.00     0.261 C 
BRANCH  32  33
ATOM     33  O   UNL A   1      35.128  34.036  30.773  1.00  0.00    -0.460 OA
BRANCH  33  34
ATOM     34  C   UNL A   1      35.161  32.869  31.460  1.00  0.00     0.338 C 
ATOM     35  O   UNL A   1      34.264  32.380  32.123  1.00  0.00    -0.246 OA
BRANCH  34  36
ATOM     36  C   UNL A   1      36.397  32.164  31.036  1.00  0.00     0.060 A 
ATOM     37  C   UNL A   1      37.087  31.370  31.966  1.00  0.00     0.016 A 
ATOM     38  C   UNL A   1      36.806  32.194  29.700  1.00  0.00     0.016 A 
ATOM     39  C   UNL A   1      38.182  30.600  31.558  1.00  0.00     0.010 A 
ATOM     40  C   UNL A   1      37.920  31.452  29.302  1.00  0.00     0.010 A 
ATOM     41  C   UNL A   1      38.622  30.664  30.230  1.00  0.00    -0.014 A 
BRANCH  41  42
ATOM     42  C   UNL A   1      39.928  30.085  29.832  1.00  0.00     0.031 A 
ATOM     43  C   UNL A   1      41.128  30.985  29.853  1.00  0.00     0.074 A 
ATOM     44  C   UNL A   1      40.045  28.813  29.415  1.00  0.00     0.049 A 
ATOM     45  N   UNL A   1      42.342  30.771  29.418  1.00  0.00    -0.248 NA
ATOM     46  C   UNL A   1      40.922  32.322  30.437  1.00  0.00     0.031 C 
ATOM     47  C   UNL A   1      38.968  27.829  29.389  1.00  0.00     0.029 A 
ATOM     48  N   UNL A   1      41.133  28.137  28.918  1.00  0.00    -0.354 N 
ATOM     49  C   UNL A   1      43.040  31.946  29.663  1.00  0.00     0.074 A 
ATOM     50  C   UNL A   1      42.111  32.876  30.267  1.00  0.00     0.031 C 
ATOM     51  C   UNL A   1      39.448  26.671  28.902  1.00  0.00     0.029 A 
ATOM     52  C   UNL A   1      40.852  26.849  28.531  1.00  0.00     0.049 A 
ATOM     53  H   UNL A   1      42.029  28.537  28.845  1.00  0.00     0.167 HD
ATOM     54  C   UNL A   1      44.338  32.226  29.402  1.00  0.00     0.037 A 
ATOM     55  C   UNL A   1      41.634  25.937  27.919  1.00  0.00     0.037 A 
ATOM     56  C   UNL A   1      45.251  31.310  28.776  1.00  0.00     0.049 A 
ATOM     57  C   UNL A   1      43.045  26.312  27.536  1.00  0.00     0.074 A 
ATOM     58  C   UNL A   1      46.585  31.498  28.463  1.00  0.00     0.029 A 
ATOM     59  N   UNL A   1      44.916  30.033  28.350  1.00  0.00    -0.354 N 
ATOM     60  N   UNL A   1      43.706  27.419  27.776  1.00  0.00    -0.248 NA
ATOM     61  C   UNL A   1      43.812  25.315  26.772  1.00  0.00     0.031 C 
ATOM     62  C   UNL A   1      47.043  30.355  27.801  1.00  0.00     0.029 A 
ATOM     63  C   UNL A   1      46.009  29.433  27.748  1.00  0.00     0.049 A 
ATOM     64  H   UNL A   1      44.030  29.615  28.460  1.00  0.00     0.167 HD
ATOM     65  C   UNL A   1      44.966  27.246  27.215  1.00  0.00     0.074 A 
ATOM     66  C   UNL A   1      44.984  25.920  26.634  1.00  0.00     0.031 C 
ATOM     67  C   UNL A   1      46.011  28.108  27.180  1.00  0.00     0.037 A 
BRANCH  54  68
ATOM     68  C   UNL A   1      44.821  33.600  29.755  1.00  0.00     0.064 A 
ATOM     69  C   UNL A   1      45.373  33.888  31.013  1.00  0.00     0.173 A 
ATOM     70  C   UNL A   1      44.717  34.648  28.828  1.00  0.00     0.173 A 
ATOM     71  F   UNL A   1      45.472  32.925  31.942  1.00  0.00    -0.203 F 
ATOM     72  C   UNL A   1      45.768  35.182  31.342  1.00  0.00     0.198 A 
ATOM     73  C   UNL A   1      45.143  35.934  29.150  1.00  0.00     0.198 A 
ATOM     74  F   UNL A   1      44.195  34.427  27.612  1.00  0.00    -0.203 F 
ATOM     75  F   UNL A   1      46.233  35.446  32.570  1.00  0.00    -0.200 F 
ATOM     76  C   UNL A   1      45.658  36.202  30.409  1.00  0.00     0.200 A 
ATOM     77  F   UNL A   1      45.043  36.917  28.244  1.00  0.00    -0.200 F 
ATOM     78  F   UNL A   1      46.036  37.447  30.728  1.00  0.00    -0.200 F 
ENDBRANCH  54  68
BRANCH  55  79
ATOM     79  C   UNL A   1      41.104  24.583  27.602  1.00  0.00     0.064 A 
ATOM     80  C   UNL A   1      40.096  24.416  26.643  1.00  0.00     0.173 A 
ATOM     81  C   UNL A   1      41.567  23.438  28.266  1.00  0.00     0.173 A 
ATOM     82  F   UNL A   1      39.595  25.485  26.006  1.00  0.00    -0.203 F 
ATOM     83  C   UNL A   1      39.563  23.158  26.368  1.00  0.00     0.198 A 
ATOM     84  C   UNL A   1      41.053  22.176  27.970  1.00  0.00     0.198 A 
ATOM     85  F   UNL A   1      42.521  23.543  29.202  1.00  0.00    -0.203 F 
ATOM     86  F   UNL A   1      38.565  23.034  25.482  1.00  0.00    -0.200 F 
ATOM     87  C   UNL A   1      40.046  22.038  27.027  1.00  0.00     0.200 A 
ATOM     88  F   UNL A   1      41.527  21.096  28.606  1.00  0.00    -0.200 F 
ATOM     89  F   UNL A   1      39.534  20.828  26.763  1.00  0.00    -0.200 F 
ENDBRANCH  55  79
BRANCH  67  90
ATOM     90  C   UNL A   1      47.276  27.644  26.516  1.00  0.00     0.064 A 
ATOM     91  C   UNL A   1      48.278  26.973  27.233  1.00  0.00     0.173 A 
ATOM     92  C   UNL A   1      47.455  27.809  25.135  1.00  0.00     0.173 A 
ATOM     93  F   UNL A   1      48.162  26.803  28.558  1.00  0.00    -0.203 F 
ATOM     94  C   UNL A   1      49.419  26.496  26.590  1.00  0.00     0.198 A 
ATOM     95  C   UNL A   1      48.582  27.306  24.492  1.00  0.00     0.198 A 
ATOM     96  F   UNL A   1      46.522  28.437  24.403  1.00  0.00    -0.203 F 
ATOM     97  F   UNL A   1      50.379  25.887  27.300  1.00  0.00    -0.200 F 
ATOM     98  C   UNL A   1      49.565  26.653  25.220  1.00  0.00     0.200 A 
ATOM     99  F   UNL A   1      48.713  27.445  23.165  1.00  0.00    -0.200 F 
ATOM    100  F   UNL A   1      50.654  26.179  24.602  1.00  0.00    -0.200 F 
ENDBRANCH  67  90
ENDBRANCH  41  42
ENDBRANCH  34  36
ENDBRANCH  33  34
ENDBRANCH  32  33
ENDBRANCH  31  32
ENDBRANCH  30  31
ENDBRANCH  29  30
ENDBRANCH   1  29
TORSDOF 21
ENDMDL
