MODEL 1
REMARK VINA RESULT:     -11.9      0.000      0.000
REMARK SMILES Cc1ncc(CO)c([C@H]2[NH2+][C@@H](C(=O)OCCOCCOCCOC(=O)c3ccc(-c4c5nc(c(-c6c(F)c(F)c(F)c(F)c6F)c6ccc([nH]6)c(-c6c(F)c(F)c(F)c(F)c6F)c6nc(c(-c7c(F)c(F)c(F)c(F)c7F)c7ccc4[nH]7)C=C6)C=C5)cc3)Cc3[nH]cnc32)c1O
REMARK SMILES IDX 18 1 17 2 16 3 15 4 14 5 12 6 13 7 11 8 9 9 10 10 94 11
REMARK SMILES IDX 90 14 93 15 89 16 91 17 92 18 8 20 1 21 2 22 3 23 95 24 4 25
REMARK SMILES IDX 5 26 96 27 6 29 7 30 19 32 20 33 21 34 22 35 23 36 24 37
REMARK SMILES IDX 25 38 26 39 27 40 88 41 28 42 87 43 29 44 30 45 31 46 81 47
REMARK SMILES IDX 32 48 86 49 80 50 82 51 33 52 85 53 79 54 78 55 34 57 66 58
REMARK SMILES IDX 46 59 65 60 47 61 50 62 64 63 83 64 48 65 49 66 63 68 84 69
REMARK SMILES IDX 51 70 35 71 36 72 44 73 37 74 38 75 42 76 45 77 39 78 40 79
REMARK SMILES IDX 43 80 41 81 67 82 68 83 76 84 69 85 70 86 74 87 77 88 71 89
REMARK SMILES IDX 72 90 75 91 73 92 52 93 53 94 61 95 54 96 55 97 59 98 62 99
REMARK SMILES IDX 56 100 57 101 60 102 58 103
REMARK H PARENT 10 12 10 13 91 19 96 28 7 31 82 56 50 67
REMARK Flexibility Score: inf
ROOT
ATOM      1  C   UNL A   1      41.393  19.979  27.278  1.00  0.00     0.188 C 
ENDROOT
BRANCH   1   2
ATOM      2  O   UNL A   1      40.813  21.059  27.998  1.00  0.00    -0.376 OA
BRANCH   2   3
ATOM      3  C   UNL A   1      40.161  22.095  27.284  1.00  0.00     0.202 C 
BRANCH   3   4
ATOM      4  C   UNL A   1      39.441  21.718  25.985  1.00  0.00     0.261 C 
BRANCH   4   5
ATOM      5  O   UNL A   1      38.008  21.682  26.097  1.00  0.00    -0.459 OA
BRANCH   5   6
ATOM      6  C   UNL A   1      37.311  22.685  25.478  1.00  0.00     0.365 C 
ATOM      7  O   UNL A   1      37.609  23.871  25.515  1.00  0.00    -0.245 OA
BRANCH   6   8
ATOM      8  C   UNL A   1      36.105  22.100  24.725  1.00  0.00     0.300 C 
ATOM      9  C   UNL A   1      33.812  22.488  24.000  1.00  0.00     0.270 C 
ATOM     10  N   UNL A   1      34.885  22.957  24.913  1.00  0.00    -0.323 N 
ATOM     11  C   UNL A   1      33.491  21.068  24.347  1.00  0.00     0.124 A 
ATOM     12  H   UNL A   1      34.564  22.888  25.879  1.00  0.00     0.347 HD
ATOM     13  H   UNL A   1      35.113  23.929  24.702  1.00  0.00     0.347 HD
ATOM     14  C   UNL A   1      34.470  20.225  24.842  1.00  0.00     0.051 A 
ATOM     15  N   UNL A   1      32.332  20.370  24.136  1.00  0.00    -0.235 NA
ATOM     16  C   UNL A   1      35.868  20.625  25.173  1.00  0.00     0.133 C 
ATOM     17  N   UNL A   1      33.881  19.008  24.993  1.00  0.00    -0.348 N 
ATOM     18  C   UNL A   1      32.588  19.147  24.559  1.00  0.00     0.197 A 
ATOM     19  H   UNL A   1      34.301  18.190  25.344  1.00  0.00     0.167 HD
BRANCH   9  20
ATOM     20  C   UNL A   1      32.648  23.461  23.953  1.00  0.00     0.066 A 
ATOM     21  C   UNL A   1      31.497  26.157  21.464  1.00  0.00     0.071 C 
ATOM     22  C   UNL A   1      31.605  25.299  22.691  1.00  0.00     0.079 A 
ATOM     23  N   UNL A   1      30.670  25.492  23.640  1.00  0.00    -0.257 NA
ATOM     24  C   UNL A   1      32.581  24.307  22.815  1.00  0.00     0.146 A 
ATOM     25  C   UNL A   1      30.741  24.704  24.738  1.00  0.00     0.118 A 
ATOM     26  C   UNL A   1      31.707  23.712  24.973  1.00  0.00     0.009 A 
BRANCH  24  27
ATOM     27  O   UNL A   1      33.531  24.213  21.826  1.00  0.00    -0.505 OA
ATOM     28  H   UNL A   1      33.494  23.511  21.207  1.00  0.00     0.293 HD
ENDBRANCH  24  27
BRANCH  26  29
ATOM     29  C   UNL A   1      31.623  22.974  26.281  1.00  0.00     0.194 C 
BRANCH  29  30
ATOM     30  O   UNL A   1      31.433  23.894  27.358  1.00  0.00    -0.392 OA
ATOM     31  H   UNL A   1      31.404  23.407  28.198  1.00  0.00     0.211 HD
ENDBRANCH  29  30
ENDBRANCH  26  29
ENDBRANCH   9  20
ENDBRANCH   6   8
ENDBRANCH   5   6
ENDBRANCH   4   5
ENDBRANCH   3   4
ENDBRANCH   2   3
ENDBRANCH   1   2
BRANCH   1  32
ATOM     32  C   UNL A   1      42.432  20.228  26.157  1.00  0.00     0.188 C 
BRANCH  32  33
ATOM     33  O   UNL A   1      43.341  21.297  26.386  1.00  0.00    -0.376 OA
BRANCH  33  34
ATOM     34  C   UNL A   1      43.267  22.363  25.447  1.00  0.00     0.202 C 
BRANCH  34  35
ATOM     35  C   UNL A   1      43.234  23.714  26.156  1.00  0.00     0.261 C 
BRANCH  35  36
ATOM     36  O   UNL A   1      42.049  24.463  25.887  1.00  0.00    -0.460 OA
BRANCH  36  37
ATOM     37  C   UNL A   1      42.245  25.730  25.469  1.00  0.00     0.338 C 
ATOM     38  O   UNL A   1      43.130  26.131  24.734  1.00  0.00    -0.246 OA
BRANCH  37  39
ATOM     39  C   UNL A   1      41.246  26.608  26.092  1.00  0.00     0.060 A 
ATOM     40  C   UNL A   1      41.297  27.965  25.768  1.00  0.00     0.016 A 
ATOM     41  C   UNL A   1      40.467  26.138  27.156  1.00  0.00     0.016 A 
ATOM     42  C   UNL A   1      40.776  28.884  26.654  1.00  0.00     0.010 A 
ATOM     43  C   UNL A   1      39.944  27.053  28.046  1.00  0.00     0.010 A 
ATOM     44  C   UNL A   1      40.213  28.410  27.840  1.00  0.00    -0.014 A 
BRANCH  44  45
ATOM     45  C   UNL A   1      40.167  29.326  28.968  1.00  0.00     0.031 A 
ATOM     46  C   UNL A   1      39.045  30.281  29.059  1.00  0.00     0.074 A 
ATOM     47  C   UNL A   1      41.065  29.182  29.966  1.00  0.00     0.049 A 
ATOM     48  N   UNL A   1      39.101  31.548  29.325  1.00  0.00    -0.248 NA
ATOM     49  C   UNL A   1      37.688  29.770  28.827  1.00  0.00     0.031 C 
ATOM     50  C   UNL A   1      42.048  28.104  30.129  1.00  0.00     0.029 A 
ATOM     51  N   UNL A   1      41.192  29.896  31.121  1.00  0.00    -0.354 N 
ATOM     52  C   UNL A   1      37.784  31.971  29.433  1.00  0.00     0.074 A 
ATOM     53  C   UNL A   1      36.952  30.856  29.053  1.00  0.00     0.031 C 
ATOM     54  C   UNL A   1      42.499  28.108  31.401  1.00  0.00     0.029 A 
ATOM     55  C   UNL A   1      41.915  29.238  32.102  1.00  0.00     0.049 A 
ATOM     56  H   UNL A   1      40.805  30.793  31.244  1.00  0.00     0.167 HD
ATOM     57  C   UNL A   1      37.444  33.163  29.991  1.00  0.00     0.037 A 
ATOM     58  C   UNL A   1      41.960  29.543  33.421  1.00  0.00     0.037 A 
ATOM     59  C   UNL A   1      38.531  34.099  30.012  1.00  0.00     0.049 A 
ATOM     60  C   UNL A   1      41.489  30.938  33.586  1.00  0.00     0.074 A 
ATOM     61  C   UNL A   1      39.322  34.674  29.035  1.00  0.00     0.029 A 
ATOM     62  N   UNL A   1      39.156  34.379  31.200  1.00  0.00    -0.354 N 
ATOM     63  N   UNL A   1      42.166  31.996  33.235  1.00  0.00    -0.248 NA
ATOM     64  C   UNL A   1      40.068  31.156  33.815  1.00  0.00     0.031 C 
ATOM     65  C   UNL A   1      40.600  34.851  29.638  1.00  0.00     0.029 A 
ATOM     66  C   UNL A   1      40.504  34.373  30.945  1.00  0.00     0.049 A 
ATOM     67  H   UNL A   1      38.721  34.551  32.067  1.00  0.00     0.167 HD
ATOM     68  C   UNL A   1      41.207  32.899  32.802  1.00  0.00     0.074 A 
ATOM     69  C   UNL A   1      39.938  32.378  33.295  1.00  0.00     0.031 C 
ATOM     70  C   UNL A   1      41.491  33.826  31.843  1.00  0.00     0.037 A 
BRANCH  57  71
ATOM     71  C   UNL A   1      36.168  33.374  30.743  1.00  0.00     0.064 A 
ATOM     72  C   UNL A   1      35.143  34.167  30.202  1.00  0.00     0.173 A 
ATOM     73  C   UNL A   1      36.026  33.014  32.101  1.00  0.00     0.173 A 
ATOM     74  F   UNL A   1      35.218  34.606  28.936  1.00  0.00    -0.203 F 
ATOM     75  C   UNL A   1      34.057  34.584  30.974  1.00  0.00     0.198 A 
ATOM     76  C   UNL A   1      34.917  33.388  32.854  1.00  0.00     0.198 A 
ATOM     77  F   UNL A   1      37.003  32.374  32.760  1.00  0.00    -0.203 F 
ATOM     78  F   UNL A   1      33.146  35.414  30.448  1.00  0.00    -0.200 F 
ATOM     79  C   UNL A   1      33.942  34.189  32.297  1.00  0.00     0.200 A 
ATOM     80  F   UNL A   1      34.835  33.019  34.140  1.00  0.00    -0.200 F 
ATOM     81  F   UNL A   1      32.918  34.618  33.047  1.00  0.00    -0.200 F 
ENDBRANCH  57  71
BRANCH  58  82
ATOM     82  C   UNL A   1      42.178  28.626  34.564  1.00  0.00     0.064 A 
ATOM     83  C   UNL A   1      41.461  27.425  34.678  1.00  0.00     0.173 A 
ATOM     84  C   UNL A   1      43.252  28.798  35.462  1.00  0.00     0.173 A 
ATOM     85  F   UNL A   1      40.462  27.151  33.826  1.00  0.00    -0.203 F 
ATOM     86  C   UNL A   1      41.794  26.459  35.633  1.00  0.00     0.198 A 
ATOM     87  C   UNL A   1      43.569  27.844  36.428  1.00  0.00     0.198 A 
ATOM     88  F   UNL A   1      44.072  29.854  35.367  1.00  0.00    -0.203 F 
ATOM     89  F   UNL A   1      41.121  25.301  35.674  1.00  0.00    -0.200 F 
ATOM     90  C   UNL A   1      42.847  26.669  36.508  1.00  0.00     0.200 A 
ATOM     91  F   UNL A   1      44.613  28.049  37.246  1.00  0.00    -0.200 F 
ATOM     92  F   UNL A   1      43.190  25.729  37.398  1.00  0.00    -0.200 F 
ENDBRANCH  58  82
BRANCH  70  93
ATOM     93  C   UNL A   1      42.932  34.049  31.489  1.00  0.00     0.064 A 
ATOM     94  C   UNL A   1      43.629  33.261  30.557  1.00  0.00     0.173 A 
ATOM     95  C   UNL A   1      43.585  35.180  31.998  1.00  0.00     0.173 A 
ATOM     96  F   UNL A   1      43.033  32.229  29.945  1.00  0.00    -0.203 F 
ATOM     97  C   UNL A   1      44.940  33.562  30.197  1.00  0.00     0.198 A 
ATOM     98  C   UNL A   1      44.884  35.499  31.608  1.00  0.00     0.198 A 
ATOM     99  F   UNL A   1      42.945  36.004  32.842  1.00  0.00    -0.203 F 
ATOM    100  F   UNL A   1      45.592  32.784  29.318  1.00  0.00    -0.200 F 
ATOM    101  C   UNL A   1      45.565  34.683  30.717  1.00  0.00     0.200 A 
ATOM    102  F   UNL A   1      45.467  36.611  32.076  1.00  0.00    -0.200 F 
ATOM    103  F   UNL A   1      46.814  34.993  30.342  1.00  0.00    -0.200 F 
ENDBRANCH  70  93
ENDBRANCH  44  45
ENDBRANCH  37  39
ENDBRANCH  36  37
ENDBRANCH  35  36
ENDBRANCH  34  35
ENDBRANCH  33  34
ENDBRANCH  32  33
ENDBRANCH   1  32
TORSDOF 21
ENDMDL
MODEL 2
REMARK VINA RESULT:     -11.9      4.032      8.567
REMARK SMILES Cc1ncc(CO)c([C@H]2[NH2+][C@@H](C(=O)OCCOCCOCCOC(=O)c3ccc(-c4c5nc(c(-c6c(F)c(F)c(F)c(F)c6F)c6ccc([nH]6)c(-c6c(F)c(F)c(F)c(F)c6F)c6nc(c(-c7c(F)c(F)c(F)c(F)c7F)c7ccc4[nH]7)C=C6)C=C5)cc3)Cc3[nH]cnc32)c1O
REMARK SMILES IDX 18 1 17 2 16 3 15 4 14 5 12 6 13 7 11 8 9 9 10 10 94 11
REMARK SMILES IDX 90 14 93 15 89 16 91 17 92 18 8 20 1 21 2 22 3 23 95 24 4 25
REMARK SMILES IDX 5 26 96 27 6 29 7 30 19 32 20 33 21 34 22 35 23 36 24 37
REMARK SMILES IDX 25 38 26 39 27 40 88 41 28 42 87 43 29 44 30 45 31 46 81 47
REMARK SMILES IDX 32 48 86 49 80 50 82 51 33 52 85 53 79 54 78 55 34 57 66 58
REMARK SMILES IDX 46 59 65 60 47 61 50 62 64 63 83 64 48 65 49 66 63 68 84 69
REMARK SMILES IDX 51 70 35 71 36 72 44 73 37 74 38 75 42 76 45 77 39 78 40 79
REMARK SMILES IDX 43 80 41 81 67 82 68 83 76 84 69 85 70 86 74 87 77 88 71 89
REMARK SMILES IDX 72 90 75 91 73 92 52 93 53 94 61 95 54 96 55 97 59 98 62 99
REMARK SMILES IDX 56 100 57 101 60 102 58 103
REMARK H PARENT 10 12 10 13 91 19 96 28 7 31 82 56 50 67
REMARK Flexibility Score: inf
ROOT
ATOM      1  C   UNL A   1      34.688  33.425  28.391  1.00  0.00     0.188 C 
ENDROOT
BRANCH   1   2
ATOM      2  O   UNL A   1      35.218  32.166  27.997  1.00  0.00    -0.376 OA
BRANCH   2   3
ATOM      3  C   UNL A   1      34.330  31.129  27.618  1.00  0.00     0.202 C 
BRANCH   3   4
ATOM      4  C   UNL A   1      34.882  29.700  27.581  1.00  0.00     0.261 C 
BRANCH   4   5
ATOM      5  O   UNL A   1      34.705  29.035  26.318  1.00  0.00    -0.459 OA
BRANCH   5   6
ATOM      6  C   UNL A   1      33.617  28.213  26.196  1.00  0.00     0.365 C 
ATOM      7  O   UNL A   1      33.022  27.696  27.131  1.00  0.00    -0.245 OA
BRANCH   6   8
ATOM      8  C   UNL A   1      33.250  28.042  24.713  1.00  0.00     0.300 C 
ATOM      9  C   UNL A   1      31.470  28.189  23.057  1.00  0.00     0.270 C 
ATOM     10  N   UNL A   1      31.764  28.135  24.512  1.00  0.00    -0.323 N 
ATOM     11  C   UNL A   1      31.988  26.934  22.429  1.00  0.00     0.124 A 
ATOM     12  H   UNL A   1      31.312  27.316  24.920  1.00  0.00     0.347 HD
ATOM     13  H   UNL A   1      31.408  28.977  24.965  1.00  0.00     0.347 HD
ATOM     14  C   UNL A   1      33.107  26.300  22.939  1.00  0.00     0.051 A 
ATOM     15  N   UNL A   1      31.584  26.318  21.275  1.00  0.00    -0.235 NA
ATOM     16  C   UNL A   1      33.839  26.703  24.174  1.00  0.00     0.133 C 
ATOM     17  N   UNL A   1      33.351  25.244  22.117  1.00  0.00    -0.348 N 
ATOM     18  C   UNL A   1      32.402  25.293  21.130  1.00  0.00     0.197 A 
ATOM     19  H   UNL A   1      34.069  24.577  22.213  1.00  0.00     0.167 HD
BRANCH   9  20
ATOM     20  C   UNL A   1      30.017  28.539  22.790  1.00  0.00     0.066 A 
ATOM     21  C   UNL A   1      28.239  31.386  20.912  1.00  0.00     0.071 C 
ATOM     22  C   UNL A   1      28.492  30.182  21.773  1.00  0.00     0.079 A 
ATOM     23  N   UNL A   1      27.404  29.542  22.241  1.00  0.00    -0.257 NA
ATOM     24  C   UNL A   1      29.783  29.709  22.020  1.00  0.00     0.146 A 
ATOM     25  C   UNL A   1      27.620  28.439  22.994  1.00  0.00     0.118 A 
ATOM     26  C   UNL A   1      28.877  27.911  23.333  1.00  0.00     0.009 A 
BRANCH  24  27
ATOM     27  O   UNL A   1      30.840  30.452  21.552  1.00  0.00    -0.505 OA
ATOM     28  H   UNL A   1      31.593  30.022  21.197  1.00  0.00     0.293 HD
ENDBRANCH  24  27
BRANCH  26  29
ATOM     29  C   UNL A   1      28.890  26.692  24.214  1.00  0.00     0.194 C 
BRANCH  29  30
ATOM     30  O   UNL A   1      27.690  25.938  24.036  1.00  0.00    -0.392 OA
ATOM     31  H   UNL A   1      27.664  25.215  24.683  1.00  0.00     0.211 HD
ENDBRANCH  29  30
ENDBRANCH  26  29
ENDBRANCH   9  20
ENDBRANCH   6   8
ENDBRANCH   5   6
ENDBRANCH   4   5
ENDBRANCH   3   4
ENDBRANCH   2   3
ENDBRANCH   1   2
BRANCH   1  32
ATOM     32  C   UNL A   1      33.276  33.876  27.943  1.00  0.00     0.188 C 
BRANCH  32  33
ATOM     33  O   UNL A   1      32.609  34.774  28.820  1.00  0.00    -0.376 OA
BRANCH  33  34
ATOM     34  C   UNL A   1      33.231  36.044  28.971  1.00  0.00     0.202 C 
BRANCH  34  35
ATOM     35  C   UNL A   1      33.329  36.432  30.443  1.00  0.00     0.261 C 
BRANCH  35  36
ATOM     36  O   UNL A   1      34.199  35.583  31.193  1.00  0.00    -0.460 OA
BRANCH  36  37
ATOM     37  C   UNL A   1      33.613  34.876  32.180  1.00  0.00     0.338 C 
ATOM     38  O   UNL A   1      32.496  35.044  32.639  1.00  0.00    -0.246 OA
BRANCH  37  39
ATOM     39  C   UNL A   1      34.559  33.876  32.691  1.00  0.00     0.060 A 
ATOM     40  C   UNL A   1      35.528  34.317  33.594  1.00  0.00     0.016 A 
ATOM     41  C   UNL A   1      34.640  32.616  32.087  1.00  0.00     0.016 A 
ATOM     42  C   UNL A   1      36.707  33.610  33.707  1.00  0.00     0.010 A 
ATOM     43  C   UNL A   1      35.817  31.905  32.196  1.00  0.00     0.010 A 
ATOM     44  C   UNL A   1      36.876  32.478  32.910  1.00  0.00    -0.014 A 
BRANCH  44  45
ATOM     45  C   UNL A   1      38.239  32.065  32.616  1.00  0.00     0.031 A 
ATOM     46  C   UNL A   1      39.202  31.964  33.731  1.00  0.00     0.074 A 
ATOM     47  C   UNL A   1      38.545  31.653  31.368  1.00  0.00     0.049 A 
ATOM     48  N   UNL A   1      40.417  32.413  33.773  1.00  0.00    -0.248 NA
ATOM     49  C   UNL A   1      38.767  31.276  34.954  1.00  0.00     0.031 C 
ATOM     50  C   UNL A   1      37.618  31.442  30.249  1.00  0.00     0.029 A 
ATOM     51  N   UNL A   1      39.733  31.199  30.878  1.00  0.00    -0.354 N 
ATOM     52  C   UNL A   1      40.951  31.950  34.967  1.00  0.00     0.074 A 
ATOM     53  C   UNL A   1      39.878  31.312  35.688  1.00  0.00     0.031 C 
ATOM     54  C   UNL A   1      38.230  30.698  29.305  1.00  0.00     0.029 A 
ATOM     55  C   UNL A   1      39.607  30.468  29.707  1.00  0.00     0.049 A 
ATOM     56  H   UNL A   1      40.598  31.375  31.314  1.00  0.00     0.167 HD
ATOM     57  C   UNL A   1      42.286  31.967  35.223  1.00  0.00     0.037 A 
ATOM     58  C   UNL A   1      40.536  29.654  29.153  1.00  0.00     0.037 A 
ATOM     59  C   UNL A   1      43.001  32.899  34.400  1.00  0.00     0.049 A 
ATOM     60  C   UNL A   1      41.856  30.006  29.728  1.00  0.00     0.074 A 
ATOM     61  C   UNL A   1      42.923  34.266  34.208  1.00  0.00     0.029 A 
ATOM     62  N   UNL A   1      43.791  32.431  33.382  1.00  0.00    -0.354 N 
ATOM     63  N   UNL A   1      42.521  31.091  29.447  1.00  0.00    -0.248 NA
ATOM     64  C   UNL A   1      42.286  29.304  30.929  1.00  0.00     0.031 C 
ATOM     65  C   UNL A   1      43.268  34.477  32.842  1.00  0.00     0.029 A 
ATOM     66  C   UNL A   1      43.535  33.224  32.291  1.00  0.00     0.049 A 
ATOM     67  H   UNL A   1      44.418  31.674  33.425  1.00  0.00     0.167 HD
ATOM     68  C   UNL A   1      43.158  31.428  30.632  1.00  0.00     0.074 A 
ATOM     69  C   UNL A   1      43.077  30.235  31.465  1.00  0.00     0.031 C 
ATOM     70  C   UNL A   1      43.437  32.728  30.941  1.00  0.00     0.037 A 
BRANCH  57  71
ATOM     71  C   UNL A   1      42.964  30.937  36.071  1.00  0.00     0.064 A 
ATOM     72  C   UNL A   1      43.632  31.309  37.249  1.00  0.00     0.173 A 
ATOM     73  C   UNL A   1      43.184  29.617  35.619  1.00  0.00     0.173 A 
ATOM     74  F   UNL A   1      43.529  32.558  37.725  1.00  0.00    -0.203 F 
ATOM     75  C   UNL A   1      44.476  30.421  37.921  1.00  0.00     0.198 A 
ATOM     76  C   UNL A   1      43.986  28.719  36.319  1.00  0.00     0.198 A 
ATOM     77  F   UNL A   1      42.709  29.194  34.439  1.00  0.00    -0.203 F 
ATOM     78  F   UNL A   1      45.165  30.841  38.991  1.00  0.00    -0.200 F 
ATOM     79  C   UNL A   1      44.647  29.127  37.459  1.00  0.00     0.200 A 
ATOM     80  F   UNL A   1      44.161  27.479  35.843  1.00  0.00    -0.200 F 
ATOM     81  F   UNL A   1      45.484  28.288  38.084  1.00  0.00    -0.200 F 
ENDBRANCH  57  71
BRANCH  58  82
ATOM     82  C   UNL A   1      40.315  28.448  28.322  1.00  0.00     0.064 A 
ATOM     83  C   UNL A   1      40.916  28.316  27.061  1.00  0.00     0.173 A 
ATOM     84  C   UNL A   1      39.684  27.296  28.834  1.00  0.00     0.173 A 
ATOM     85  F   UNL A   1      41.591  29.343  26.523  1.00  0.00    -0.203 F 
ATOM     86  C   UNL A   1      40.884  27.109  26.355  1.00  0.00     0.198 A 
ATOM     87  C   UNL A   1      39.633  26.099  28.120  1.00  0.00     0.198 A 
ATOM     88  F   UNL A   1      39.178  27.277  30.075  1.00  0.00    -0.203 F 
ATOM     89  F   UNL A   1      41.517  27.007  25.178  1.00  0.00    -0.200 F 
ATOM     90  C   UNL A   1      40.242  26.002  26.884  1.00  0.00     0.200 A 
ATOM     91  F   UNL A   1      39.036  25.027  28.662  1.00  0.00    -0.200 F 
ATOM     92  F   UNL A   1      40.243  24.836  26.225  1.00  0.00    -0.200 F 
ENDBRANCH  58  82
BRANCH  70  93
ATOM     93  C   UNL A   1      43.318  33.748  29.847  1.00  0.00     0.064 A 
ATOM     94  C   UNL A   1      42.110  34.380  29.508  1.00  0.00     0.173 A 
ATOM     95  C   UNL A   1      44.486  34.205  29.221  1.00  0.00     0.173 A 
ATOM     96  F   UNL A   1      40.970  34.073  30.144  1.00  0.00    -0.203 F 
ATOM     97  C   UNL A   1      42.067  35.385  28.545  1.00  0.00     0.198 A 
ATOM     98  C   UNL A   1      44.445  35.235  28.284  1.00  0.00     0.198 A 
ATOM     99  F   UNL A   1      45.677  33.682  29.552  1.00  0.00    -0.203 F 
ATOM    100  F   UNL A   1      40.898  35.961  28.225  1.00  0.00    -0.200 F 
ATOM    101  C   UNL A   1      43.235  35.816  27.938  1.00  0.00     0.200 A 
ATOM    102  F   UNL A   1      45.583  35.683  27.735  1.00  0.00    -0.200 F 
ATOM    103  F   UNL A   1      43.199  36.808  27.037  1.00  0.00    -0.200 F 
ENDBRANCH  70  93
ENDBRANCH  44  45
ENDBRANCH  37  39
ENDBRANCH  36  37
ENDBRANCH  35  36
ENDBRANCH  34  35
ENDBRANCH  33  34
ENDBRANCH  32  33
ENDBRANCH   1  32
TORSDOF 21
ENDMDL
MODEL 3
REMARK VINA RESULT:     -11.7      3.914      8.409
REMARK SMILES Cc1ncc(CO)c([C@H]2[NH2+][C@@H](C(=O)OCCOCCOCCOC(=O)c3ccc(-c4c5nc(c(-c6c(F)c(F)c(F)c(F)c6F)c6ccc([nH]6)c(-c6c(F)c(F)c(F)c(F)c6F)c6nc(c(-c7c(F)c(F)c(F)c(F)c7F)c7ccc4[nH]7)C=C6)C=C5)cc3)Cc3[nH]cnc32)c1O
REMARK SMILES IDX 18 1 17 2 16 3 15 4 14 5 12 6 13 7 11 8 9 9 10 10 94 11
REMARK SMILES IDX 90 14 93 15 89 16 91 17 92 18 8 20 1 21 2 22 3 23 95 24 4 25
REMARK SMILES IDX 5 26 96 27 6 29 7 30 19 32 20 33 21 34 22 35 23 36 24 37
REMARK SMILES IDX 25 38 26 39 27 40 88 41 28 42 87 43 29 44 30 45 31 46 81 47
REMARK SMILES IDX 32 48 86 49 80 50 82 51 33 52 85 53 79 54 78 55 34 57 66 58
REMARK SMILES IDX 46 59 65 60 47 61 50 62 64 63 83 64 48 65 49 66 63 68 84 69
REMARK SMILES IDX 51 70 35 71 36 72 44 73 37 74 38 75 42 76 45 77 39 78 40 79
REMARK SMILES IDX 43 80 41 81 67 82 68 83 76 84 69 85 70 86 74 87 77 88 71 89
REMARK SMILES IDX 72 90 75 91 73 92 52 93 53 94 61 95 54 96 55 97 59 98 62 99
REMARK SMILES IDX 56 100 57 101 60 102 58 103
REMARK H PARENT 10 12 10 13 91 19 96 28 7 31 82 56 50 67
REMARK Flexibility Score: inf
ROOT
ATOM      1  C   UNL A   1      40.216  21.279  26.168  1.00  0.00     0.188 C 
ENDROOT
BRANCH   1   2
ATOM      2  O   UNL A   1      38.919  21.857  26.098  1.00  0.00    -0.376 OA
BRANCH   2   3
ATOM      3  C   UNL A   1      38.736  23.199  26.518  1.00  0.00     0.202 C 
BRANCH   3   4
ATOM      4  C   UNL A   1      37.727  24.053  25.743  1.00  0.00     0.261 C 
BRANCH   4   5
ATOM      5  O   UNL A   1      36.457  23.413  25.531  1.00  0.00    -0.459 OA
BRANCH   5   6
ATOM      6  C   UNL A   1      35.341  24.202  25.616  1.00  0.00     0.365 C 
ATOM      7  O   UNL A   1      35.302  25.391  25.331  1.00  0.00    -0.245 OA
BRANCH   6   8
ATOM      8  C   UNL A   1      34.147  23.372  26.112  1.00  0.00     0.300 C 
ATOM      9  C   UNL A   1      32.759  21.411  25.707  1.00  0.00     0.270 C 
ATOM     10  N   UNL A   1      33.760  22.327  25.103  1.00  0.00    -0.323 N 
ATOM     11  C   UNL A   1      31.557  22.217  26.087  1.00  0.00     0.124 A 
ATOM     12  H   UNL A   1      33.355  22.779  24.283  1.00  0.00     0.347 HD
ATOM     13  H   UNL A   1      34.585  21.797  24.824  1.00  0.00     0.347 HD
ATOM     14  C   UNL A   1      31.689  23.537  26.478  1.00  0.00     0.051 A 
ATOM     15  N   UNL A   1      30.259  21.809  26.239  1.00  0.00    -0.235 NA
ATOM     16  C   UNL A   1      32.960  24.318  26.472  1.00  0.00     0.133 C 
ATOM     17  N   UNL A   1      30.440  23.960  26.814  1.00  0.00    -0.348 N 
ATOM     18  C   UNL A   1      29.609  22.882  26.647  1.00  0.00     0.197 A 
ATOM     19  H   UNL A   1      30.184  24.861  27.117  1.00  0.00     0.167 HD
BRANCH   9  20
ATOM     20  C   UNL A   1      32.518  20.191  24.837  1.00  0.00     0.066 A 
ATOM     21  C   UNL A   1      32.639  16.394  25.439  1.00  0.00     0.071 C 
ATOM     22  C   UNL A   1      32.544  17.730  24.762  1.00  0.00     0.079 A 
ATOM     23  N   UNL A   1      32.274  17.715  23.443  1.00  0.00    -0.257 NA
ATOM     24  C   UNL A   1      32.661  18.928  25.471  1.00  0.00     0.146 A 
ATOM     25  C   UNL A   1      32.158  18.914  22.828  1.00  0.00     0.118 A 
ATOM     26  C   UNL A   1      32.301  20.168  23.444  1.00  0.00     0.009 A 
BRANCH  24  27
ATOM     27  O   UNL A   1      32.992  18.856  26.803  1.00  0.00    -0.505 OA
ATOM     28  H   UNL A   1      33.548  18.169  27.111  1.00  0.00     0.293 HD
ENDBRANCH  24  27
BRANCH  26  29
ATOM     29  C   UNL A   1      32.168  21.380  22.563  1.00  0.00     0.194 C 
BRANCH  29  30
ATOM     30  O   UNL A   1      31.726  21.000  21.258  1.00  0.00    -0.392 OA
ATOM     31  H   UNL A   1      30.911  20.478  21.332  1.00  0.00     0.211 HD
ENDBRANCH  29  30
ENDBRANCH  26  29
ENDBRANCH   9  20
ENDBRANCH   6   8
ENDBRANCH   5   6
ENDBRANCH   4   5
ENDBRANCH   3   4
ENDBRANCH   2   3
ENDBRANCH   1   2
BRANCH   1  32
ATOM     32  C   UNL A   1      41.034  21.297  27.483  1.00  0.00     0.188 C 
BRANCH  32  33
ATOM     33  O   UNL A   1      42.248  20.559  27.463  1.00  0.00    -0.376 OA
BRANCH  33  34
ATOM     34  C   UNL A   1      42.123  19.203  27.051  1.00  0.00     0.202 C 
BRANCH  34  35
ATOM     35  C   UNL A   1      43.138  18.869  25.961  1.00  0.00     0.261 C 
BRANCH  35  36
ATOM     36  O   UNL A   1      43.287  19.906  24.992  1.00  0.00    -0.460 OA
BRANCH  36  37
ATOM     37  C   UNL A   1      44.557  20.260  24.711  1.00  0.00     0.338 C 
ATOM     38  O   UNL A   1      45.512  19.516  24.569  1.00  0.00    -0.246 OA
BRANCH  37  39
ATOM     39  C   UNL A   1      44.653  21.725  24.656  1.00  0.00     0.060 A 
ATOM     40  C   UNL A   1      45.891  22.296  24.960  1.00  0.00     0.016 A 
ATOM     41  C   UNL A   1      43.491  22.500  24.569  1.00  0.00     0.016 A 
ATOM     42  C   UNL A   1      45.933  23.594  25.423  1.00  0.00     0.010 A 
ATOM     43  C   UNL A   1      43.527  23.799  25.032  1.00  0.00     0.010 A 
ATOM     44  C   UNL A   1      44.727  24.282  25.565  1.00  0.00    -0.014 A 
BRANCH  44  45
ATOM     45  C   UNL A   1      44.694  25.380  26.517  1.00  0.00     0.031 A 
ATOM     46  C   UNL A   1      45.756  26.404  26.454  1.00  0.00     0.074 A 
ATOM     47  C   UNL A   1      43.626  25.509  27.332  1.00  0.00     0.049 A 
ATOM     48  N   UNL A   1      46.439  26.899  27.437  1.00  0.00    -0.248 NA
ATOM     49  C   UNL A   1      46.105  26.950  25.136  1.00  0.00     0.031 C 
ATOM     50  C   UNL A   1      42.384  24.725  27.301  1.00  0.00     0.029 A 
ATOM     51  N   UNL A   1      43.367  26.464  28.270  1.00  0.00    -0.354 N 
ATOM     52  C   UNL A   1      47.208  27.918  26.889  1.00  0.00     0.074 A 
ATOM     53  C   UNL A   1      47.016  27.866  25.461  1.00  0.00     0.031 C 
ATOM     54  C   UNL A   1      41.436  25.374  28.009  1.00  0.00     0.029 A 
ATOM     55  C   UNL A   1      42.029  26.553  28.616  1.00  0.00     0.049 A 
ATOM     56  H   UNL A   1      44.066  27.035  28.664  1.00  0.00     0.167 HD
ATOM     57  C   UNL A   1      47.827  28.855  27.653  1.00  0.00     0.037 A 
ATOM     58  C   UNL A   1      41.425  27.571  29.274  1.00  0.00     0.037 A 
ATOM     59  C   UNL A   1      48.007  28.437  29.014  1.00  0.00     0.049 A 
ATOM     60  C   UNL A   1      42.475  28.358  29.964  1.00  0.00     0.074 A 
ATOM     61  C   UNL A   1      48.662  27.378  29.614  1.00  0.00     0.029 A 
ATOM     62  N   UNL A   1      47.227  28.989  29.997  1.00  0.00    -0.354 N 
ATOM     63  N   UNL A   1      43.130  27.957  31.017  1.00  0.00    -0.248 NA
ATOM     64  C   UNL A   1      43.072  29.475  29.246  1.00  0.00     0.031 C 
ATOM     65  C   UNL A   1      47.893  27.064  30.771  1.00  0.00     0.029 A 
ATOM     66  C   UNL A   1      46.820  27.954  30.801  1.00  0.00     0.049 A 
ATOM     67  H   UNL A   1      47.002  29.941  30.104  1.00  0.00     0.167 HD
ATOM     68  C   UNL A   1      44.404  28.481  30.858  1.00  0.00     0.074 A 
ATOM     69  C   UNL A   1      44.274  29.500  29.824  1.00  0.00     0.031 C 
ATOM     70  C   UNL A   1      45.499  27.847  31.369  1.00  0.00     0.037 A 
BRANCH  57  71
ATOM     71  C   UNL A   1      48.046  30.263  27.194  1.00  0.00     0.064 A 
ATOM     72  C   UNL A   1      49.337  30.814  27.171  1.00  0.00     0.173 A 
ATOM     73  C   UNL A   1      46.978  31.169  27.010  1.00  0.00     0.173 A 
ATOM     74  F   UNL A   1      50.411  30.041  27.392  1.00  0.00    -0.203 F 
ATOM     75  C   UNL A   1      49.544  32.183  26.990  1.00  0.00     0.198 A 
ATOM     76  C   UNL A   1      47.189  32.525  26.780  1.00  0.00     0.198 A 
ATOM     77  F   UNL A   1      45.702  30.781  27.147  1.00  0.00    -0.203 F 
ATOM     78  F   UNL A   1      50.784  32.684  27.063  1.00  0.00    -0.200 F 
ATOM     79  C   UNL A   1      48.471  33.036  26.789  1.00  0.00     0.200 A 
ATOM     80  F   UNL A   1      46.138  33.340  26.613  1.00  0.00    -0.200 F 
ATOM     81  F   UNL A   1      48.667  34.354  26.651  1.00  0.00    -0.200 F 
ENDBRANCH  57  71
BRANCH  58  82
ATOM     82  C   UNL A   1      40.020  28.028  29.161  1.00  0.00     0.064 A 
ATOM     83  C   UNL A   1      39.161  28.013  30.270  1.00  0.00     0.173 A 
ATOM     84  C   UNL A   1      39.546  28.697  28.013  1.00  0.00     0.173 A 
ATOM     85  F   UNL A   1      39.555  27.453  31.423  1.00  0.00    -0.203 F 
ATOM     86  C   UNL A   1      37.904  28.625  30.232  1.00  0.00     0.198 A 
ATOM     87  C   UNL A   1      38.283  29.287  27.969  1.00  0.00     0.198 A 
ATOM     88  F   UNL A   1      40.327  28.869  26.938  1.00  0.00    -0.203 F 
ATOM     89  F   UNL A   1      37.135  28.637  31.329  1.00  0.00    -0.200 F 
ATOM     90  C   UNL A   1      37.465  29.260  29.082  1.00  0.00     0.200 A 
ATOM     91  F   UNL A   1      37.887  29.926  26.859  1.00  0.00    -0.200 F 
ATOM     92  F   UNL A   1      36.277  29.877  29.058  1.00  0.00    -0.200 F 
ENDBRANCH  58  82
BRANCH  70  93
ATOM     93  C   UNL A   1      45.270  26.742  32.358  1.00  0.00     0.064 A 
ATOM     94  C   UNL A   1      44.956  25.424  31.986  1.00  0.00     0.173 A 
ATOM     95  C   UNL A   1      45.518  26.990  33.715  1.00  0.00     0.173 A 
ATOM     96  F   UNL A   1      44.814  25.088  30.696  1.00  0.00    -0.203 F 
ATOM     97  C   UNL A   1      44.839  24.414  32.938  1.00  0.00     0.198 A 
ATOM     98  C   UNL A   1      45.436  25.970  34.661  1.00  0.00     0.198 A 
ATOM     99  F   UNL A   1      45.884  28.216  34.121  1.00  0.00    -0.203 F 
ATOM    100  F   UNL A   1      44.521  23.167  32.559  1.00  0.00    -0.200 F 
ATOM    101  C   UNL A   1      45.085  24.686  34.273  1.00  0.00     0.200 A 
ATOM    102  F   UNL A   1      45.722  26.226  35.945  1.00  0.00    -0.200 F 
ATOM    103  F   UNL A   1      45.008  23.706  35.185  1.00  0.00    -0.200 F 
ENDBRANCH  70  93
ENDBRANCH  44  45
ENDBRANCH  37  39
ENDBRANCH  36  37
ENDBRANCH  35  36
ENDBRANCH  34  35
ENDBRANCH  33  34
ENDBRANCH  32  33
ENDBRANCH   1  32
TORSDOF 21
ENDMDL
