MODEL 1
REMARK VINA RESULT:     -11.6      0.000      0.000
REMARK SMILES C[C@]1(C(=O)N2CCC(CC(=O)OCCOCCOCCOC(=O)c3ccc(-c4c5nc(c(-c6c(F)c(F)c(F)c(F)c6F)c6ccc([nH]6)c(-c6c(F)c(F)c(F)c(F)c6F)c6nc(c(-c7c(F)c(F)c(F)c(F)c7F)c7ccc4[nH]7)C=C6)C=C5)cc3)CC2)CCC[NH2+]C1
REMARK SMILES IDX 16 1 15 2 14 3 13 4 12 5 10 6 11 7 9 8 8 9 3 10 4 11 5 12
REMARK SMILES IDX 6 13 88 14 7 15 87 16 2 17 1 18 89 19 93 20 90 21 92 22
REMARK SMILES IDX 91 23 17 26 18 27 19 28 20 29 21 30 22 31 23 32 24 33 25 34
REMARK SMILES IDX 86 35 26 36 85 37 27 38 28 39 29 40 79 41 30 42 84 43 78 44
REMARK SMILES IDX 80 45 31 46 83 47 77 48 76 49 32 51 64 52 44 53 63 54 45 55
REMARK SMILES IDX 48 56 62 57 81 58 46 59 47 60 61 62 82 63 49 64 33 65 34 66
REMARK SMILES IDX 42 67 35 68 36 69 40 70 43 71 37 72 38 73 41 74 39 75 65 76
REMARK SMILES IDX 66 77 74 78 67 79 68 80 72 81 75 82 69 83 70 84 73 85 71 86
REMARK SMILES IDX 50 87 51 88 59 89 52 90 53 91 57 92 60 93 54 94 55 95 58 96
REMARK SMILES IDX 56 97
REMARK H PARENT 92 24 92 25 80 50 48 61
REMARK Flexibility Score: inf
ROOT
ATOM      1  C   UNL A   1      39.434  21.509  26.126  1.00  0.00     0.188 C 
ENDROOT
BRANCH   1   2
ATOM      2  O   UNL A   1      38.242  21.338  25.374  1.00  0.00    -0.376 OA
BRANCH   2   3
ATOM      3  C   UNL A   1      37.374  22.466  25.290  1.00  0.00     0.202 C 
BRANCH   3   4
ATOM      4  C   UNL A   1      35.925  22.262  25.759  1.00  0.00     0.261 C 
BRANCH   4   5
ATOM      5  O   UNL A   1      35.000  23.257  25.274  1.00  0.00    -0.463 OA
BRANCH   5   6
ATOM      6  C   UNL A   1      33.985  23.581  26.114  1.00  0.00     0.306 C 
ATOM      7  O   UNL A   1      33.838  23.110  27.238  1.00  0.00    -0.252 OA
BRANCH   6   8
ATOM      8  C   UNL A   1      33.024  24.632  25.587  1.00  0.00     0.126 C 
BRANCH   8   9
ATOM      9  C   UNL A   1      33.169  26.148  25.877  1.00  0.00     0.003 C 
ATOM     10  C   UNL A   1      30.898  29.303  24.181  1.00  0.00     0.234 C 
ATOM     11  O   UNL A   1      30.653  30.408  24.670  1.00  0.00    -0.274 OA
ATOM     12  N   UNL A   1      31.750  28.434  24.834  1.00  0.00    -0.342 N 
ATOM     13  C   UNL A   1      31.479  28.100  26.216  1.00  0.00     0.120 C 
ATOM     14  C   UNL A   1      33.154  28.359  24.502  1.00  0.00     0.120 C 
ATOM     15  C   UNL A   1      31.798  26.630  26.441  1.00  0.00     0.026 C 
ATOM     16  C   UNL A   1      33.658  26.925  24.641  1.00  0.00     0.026 C 
BRANCH  10  17
ATOM     17  C   UNL A   1      30.141  28.763  22.924  1.00  0.00     0.095 C 
ATOM     18  C   UNL A   1      30.797  27.399  22.572  1.00  0.00     0.028 C 
ATOM     19  C   UNL A   1      28.638  28.481  23.126  1.00  0.00     0.028 C 
ATOM     20  C   UNL A   1      30.361  29.704  21.720  1.00  0.00     0.277 C 
ATOM     21  C   UNL A   1      27.705  29.666  22.901  1.00  0.00     0.063 C 
ATOM     22  N   UNL A   1      29.528  30.909  21.742  1.00  0.00    -0.345 N 
ATOM     23  C   UNL A   1      28.108  30.582  21.750  1.00  0.00     0.260 C 
ATOM     24  H   UNL A   1      29.747  31.447  22.580  1.00  0.00     0.346 HD
ATOM     25  H   UNL A   1      29.726  31.447  20.899  1.00  0.00     0.346 HD
ENDBRANCH  10  17
ENDBRANCH   8   9
ENDBRANCH   6   8
ENDBRANCH   5   6
ENDBRANCH   4   5
ENDBRANCH   3   4
ENDBRANCH   2   3
ENDBRANCH   1   2
BRANCH   1  26
ATOM     26  C   UNL A   1      40.419  20.340  26.146  1.00  0.00     0.188 C 
BRANCH  26  27
ATOM     27  O   UNL A   1      41.744  20.617  26.578  1.00  0.00    -0.376 OA
BRANCH  27  28
ATOM     28  C   UNL A   1      42.790  20.064  25.770  1.00  0.00     0.202 C 
BRANCH  28  29
ATOM     29  C   UNL A   1      43.984  20.986  25.438  1.00  0.00     0.261 C 
BRANCH  29  30
ATOM     30  O   UNL A   1      44.010  22.257  26.127  1.00  0.00    -0.460 OA
BRANCH  30  31
ATOM     31  C   UNL A   1      43.738  23.377  25.418  1.00  0.00     0.338 C 
ATOM     32  O   UNL A   1      43.765  23.491  24.204  1.00  0.00    -0.246 OA
BRANCH  31  33
ATOM     33  C   UNL A   1      43.117  24.379  26.335  1.00  0.00     0.060 A 
ATOM     34  C   UNL A   1      43.679  25.665  26.393  1.00  0.00     0.016 A 
ATOM     35  C   UNL A   1      41.956  24.103  27.065  1.00  0.00     0.016 A 
ATOM     36  C   UNL A   1      43.115  26.652  27.209  1.00  0.00     0.010 A 
ATOM     37  C   UNL A   1      41.399  25.089  27.892  1.00  0.00     0.010 A 
ATOM     38  C   UNL A   1      41.996  26.359  27.998  1.00  0.00    -0.014 A 
BRANCH  38  39
ATOM     39  C   UNL A   1      41.584  27.288  29.087  1.00  0.00     0.031 A 
ATOM     40  C   UNL A   1      42.350  27.241  30.384  1.00  0.00     0.074 A 
ATOM     41  C   UNL A   1      40.581  28.175  28.943  1.00  0.00     0.049 A 
ATOM     42  N   UNL A   1      42.151  27.898  31.500  1.00  0.00    -0.248 NA
ATOM     43  C   UNL A   1      43.502  26.325  30.426  1.00  0.00     0.031 C 
ATOM     44  C   UNL A   1      39.789  28.374  27.733  1.00  0.00     0.029 A 
ATOM     45  N   UNL A   1      40.056  29.077  29.840  1.00  0.00    -0.354 N 
ATOM     46  C   UNL A   1      43.147  27.474  32.370  1.00  0.00     0.074 A 
ATOM     47  C   UNL A   1      43.928  26.478  31.669  1.00  0.00     0.031 C 
ATOM     48  C   UNL A   1      38.870  29.330  27.965  1.00  0.00     0.029 A 
ATOM     49  C   UNL A   1      38.984  29.785  29.352  1.00  0.00     0.049 A 
ATOM     50  H   UNL A   1      40.414  29.203  30.749  1.00  0.00     0.167 HD
ATOM     51  C   UNL A   1      43.402  27.885  33.635  1.00  0.00     0.037 A 
ATOM     52  C   UNL A   1      38.176  30.678  29.962  1.00  0.00     0.037 A 
ATOM     53  C   UNL A   1      42.631  28.871  34.343  1.00  0.00     0.049 A 
ATOM     54  C   UNL A   1      38.418  31.041  31.409  1.00  0.00     0.074 A 
ATOM     55  C   UNL A   1      42.813  29.345  35.631  1.00  0.00     0.029 A 
ATOM     56  N   UNL A   1      41.528  29.532  33.826  1.00  0.00    -0.354 N 
ATOM     57  N   UNL A   1      39.370  30.646  32.219  1.00  0.00    -0.248 NA
ATOM     58  C   UNL A   1      37.466  31.980  32.027  1.00  0.00     0.031 C 
ATOM     59  C   UNL A   1      41.788  30.253  35.913  1.00  0.00     0.029 A 
ATOM     60  C   UNL A   1      41.006  30.394  34.779  1.00  0.00     0.049 A 
ATOM     61  H   UNL A   1      41.170  29.408  32.918  1.00  0.00     0.167 HD
ATOM     62  C   UNL A   1      39.156  31.316  33.420  1.00  0.00     0.074 A 
ATOM     63  C   UNL A   1      37.992  32.153  33.231  1.00  0.00     0.031 C 
ATOM     64  C   UNL A   1      39.862  31.243  34.575  1.00  0.00     0.037 A 
BRANCH  51  65
ATOM     65  C   UNL A   1      44.559  27.250  34.350  1.00  0.00     0.064 A 
ATOM     66  C   UNL A   1      45.846  27.809  34.306  1.00  0.00     0.173 A 
ATOM     67  C   UNL A   1      44.370  26.097  35.125  1.00  0.00     0.173 A 
ATOM     68  F   UNL A   1      46.083  28.903  33.566  1.00  0.00    -0.203 F 
ATOM     69  C   UNL A   1      46.904  27.224  34.997  1.00  0.00     0.198 A 
ATOM     70  C   UNL A   1      45.422  25.533  35.839  1.00  0.00     0.198 A 
ATOM     71  F   UNL A   1      43.158  25.525  35.201  1.00  0.00    -0.203 F 
ATOM     72  F   UNL A   1      48.133  27.749  34.907  1.00  0.00    -0.200 F 
ATOM     73  C   UNL A   1      46.689  26.092  35.770  1.00  0.00     0.200 A 
ATOM     74  F   UNL A   1      45.210  24.448  36.597  1.00  0.00    -0.200 F 
ATOM     75  F   UNL A   1      47.705  25.538  36.446  1.00  0.00    -0.200 F 
ENDBRANCH  51  65
BRANCH  52  76
ATOM     76  C   UNL A   1      37.031  31.288  29.228  1.00  0.00     0.064 A 
ATOM     77  C   UNL A   1      37.027  32.651  28.893  1.00  0.00     0.173 A 
ATOM     78  C   UNL A   1      35.886  30.540  28.914  1.00  0.00     0.173 A 
ATOM     79  F   UNL A   1      38.082  33.419  29.203  1.00  0.00    -0.203 F 
ATOM     80  C   UNL A   1      35.912  33.247  28.304  1.00  0.00     0.198 A 
ATOM     81  C   UNL A   1      34.785  31.130  28.295  1.00  0.00     0.198 A 
ATOM     82  F   UNL A   1      35.830  29.237  29.223  1.00  0.00    -0.203 F 
ATOM     83  F   UNL A   1      35.910  34.565  28.063  1.00  0.00    -0.200 F 
ATOM     84  C   UNL A   1      34.794  32.485  28.001  1.00  0.00     0.200 A 
ATOM     85  F   UNL A   1      33.709  30.389  27.998  1.00  0.00    -0.200 F 
ATOM     86  F   UNL A   1      33.719  33.061  27.446  1.00  0.00    -0.200 F 
ENDBRANCH  52  76
BRANCH  64  87
ATOM     87  C   UNL A   1      39.441  32.134  35.712  1.00  0.00     0.064 A 
ATOM     88  C   UNL A   1      39.933  33.440  35.854  1.00  0.00     0.173 A 
ATOM     89  C   UNL A   1      38.490  31.689  36.644  1.00  0.00     0.173 A 
ATOM     90  F   UNL A   1      40.851  33.913  34.998  1.00  0.00    -0.203 F 
ATOM     91  C   UNL A   1      39.513  34.254  36.904  1.00  0.00     0.198 A 
ATOM     92  C   UNL A   1      38.046  32.516  37.671  1.00  0.00     0.198 A 
ATOM     93  F   UNL A   1      37.977  30.453  36.550  1.00  0.00    -0.203 F 
ATOM     94  F   UNL A   1      40.034  35.480  37.050  1.00  0.00    -0.200 F 
ATOM     95  C   UNL A   1      38.563  33.796  37.806  1.00  0.00     0.200 A 
ATOM     96  F   UNL A   1      37.115  32.077  38.530  1.00  0.00    -0.200 F 
ATOM     97  F   UNL A   1      38.152  34.584  38.808  1.00  0.00    -0.200 F 
ENDBRANCH  64  87
ENDBRANCH  38  39
ENDBRANCH  31  33
ENDBRANCH  30  31
ENDBRANCH  29  30
ENDBRANCH  28  29
ENDBRANCH  27  28
ENDBRANCH  26  27
ENDBRANCH   1  26
TORSDOF 19
ENDMDL
MODEL 2
REMARK VINA RESULT:     -11.2      3.428      9.733
REMARK SMILES C[C@]1(C(=O)N2CCC(CC(=O)OCCOCCOCCOC(=O)c3ccc(-c4c5nc(c(-c6c(F)c(F)c(F)c(F)c6F)c6ccc([nH]6)c(-c6c(F)c(F)c(F)c(F)c6F)c6nc(c(-c7c(F)c(F)c(F)c(F)c7F)c7ccc4[nH]7)C=C6)C=C5)cc3)CC2)CCC[NH2+]C1
REMARK SMILES IDX 16 1 15 2 14 3 13 4 12 5 10 6 11 7 9 8 8 9 3 10 4 11 5 12
REMARK SMILES IDX 6 13 88 14 7 15 87 16 2 17 1 18 89 19 93 20 90 21 92 22
REMARK SMILES IDX 91 23 17 26 18 27 19 28 20 29 21 30 22 31 23 32 24 33 25 34
REMARK SMILES IDX 86 35 26 36 85 37 27 38 28 39 29 40 79 41 30 42 84 43 78 44
REMARK SMILES IDX 80 45 31 46 83 47 77 48 76 49 32 51 64 52 44 53 63 54 45 55
REMARK SMILES IDX 48 56 62 57 81 58 46 59 47 60 61 62 82 63 49 64 33 65 34 66
REMARK SMILES IDX 42 67 35 68 36 69 40 70 43 71 37 72 38 73 41 74 39 75 65 76
REMARK SMILES IDX 66 77 74 78 67 79 68 80 72 81 75 82 69 83 70 84 73 85 71 86
REMARK SMILES IDX 50 87 51 88 59 89 52 90 53 91 57 92 60 93 54 94 55 95 58 96
REMARK SMILES IDX 56 97
REMARK H PARENT 92 24 92 25 80 50 48 61
REMARK Flexibility Score: inf
ROOT
ATOM      1  C   UNL A   1      31.403  29.424  25.070  1.00  0.00     0.188 C 
ENDROOT
BRANCH   1   2
ATOM      2  O   UNL A   1      31.496  28.316  24.187  1.00  0.00    -0.376 OA
BRANCH   2   3
ATOM      3  C   UNL A   1      30.265  27.769  23.719  1.00  0.00     0.202 C 
BRANCH   3   4
ATOM      4  C   UNL A   1      30.089  26.247  23.847  1.00  0.00     0.261 C 
BRANCH   4   5
ATOM      5  O   UNL A   1      29.835  25.791  25.192  1.00  0.00    -0.463 OA
BRANCH   5   6
ATOM      6  C   UNL A   1      30.904  25.288  25.857  1.00  0.00     0.306 C 
ATOM      7  O   UNL A   1      31.382  25.780  26.876  1.00  0.00    -0.252 OA
BRANCH   6   8
ATOM      8  C   UNL A   1      31.478  24.006  25.280  1.00  0.00     0.126 C 
BRANCH   8   9
ATOM      9  C   UNL A   1      32.871  23.442  25.662  1.00  0.00     0.003 C 
ATOM     10  C   UNL A   1      34.404  19.593  24.756  1.00  0.00     0.234 C 
ATOM     11  O   UNL A   1      35.584  19.259  24.626  1.00  0.00    -0.274 OA
ATOM     12  N   UNL A   1      34.092  20.876  25.161  1.00  0.00    -0.342 N 
ATOM     13  C   UNL A   1      34.643  21.993  24.423  1.00  0.00     0.120 C 
ATOM     14  C   UNL A   1      33.834  21.190  26.547  1.00  0.00     0.120 C 
ATOM     15  C   UNL A   1      33.593  23.089  24.327  1.00  0.00     0.026 C 
ATOM     16  C   UNL A   1      32.763  22.272  26.657  1.00  0.00     0.026 C 
BRANCH  10  17
ATOM     17  C   UNL A   1      33.224  18.670  24.310  1.00  0.00     0.095 C 
ATOM     18  C   UNL A   1      32.190  19.593  23.608  1.00  0.00     0.028 C 
ATOM     19  C   UNL A   1      33.589  17.573  23.289  1.00  0.00     0.028 C 
ATOM     20  C   UNL A   1      32.528  18.055  25.544  1.00  0.00     0.277 C 
ATOM     21  C   UNL A   1      34.096  16.261  23.878  1.00  0.00     0.063 C 
ATOM     22  N   UNL A   1      33.240  16.914  26.125  1.00  0.00    -0.345 N 
ATOM     23  C   UNL A   1      33.398  15.831  25.164  1.00  0.00     0.260 C 
ATOM     24  H   UNL A   1      34.163  17.222  26.431  1.00  0.00     0.346 HD
ATOM     25  H   UNL A   1      32.691  16.565  26.911  1.00  0.00     0.346 HD
ENDBRANCH  10  17
ENDBRANCH   8   9
ENDBRANCH   6   8
ENDBRANCH   5   6
ENDBRANCH   4   5
ENDBRANCH   3   4
ENDBRANCH   2   3
ENDBRANCH   1   2
BRANCH   1  26
ATOM     26  C   UNL A   1      32.366  29.451  26.257  1.00  0.00     0.188 C 
BRANCH  26  27
ATOM     27  O   UNL A   1      32.451  30.662  26.994  1.00  0.00    -0.376 OA
BRANCH  27  28
ATOM     28  C   UNL A   1      31.425  31.626  26.728  1.00  0.00     0.202 C 
BRANCH  28  29
ATOM     29  C   UNL A   1      31.800  33.115  26.891  1.00  0.00     0.261 C 
BRANCH  29  30
ATOM     30  O   UNL A   1      33.137  33.380  27.376  1.00  0.00    -0.460 OA
BRANCH  30  31
ATOM     31  C   UNL A   1      33.294  34.303  28.353  1.00  0.00     0.338 C 
ATOM     32  O   UNL A   1      32.526  35.211  28.622  1.00  0.00    -0.246 OA
BRANCH  31  33
ATOM     33  C   UNL A   1      34.412  33.867  29.242  1.00  0.00     0.060 A 
ATOM     34  C   UNL A   1      35.724  34.203  28.873  1.00  0.00     0.016 A 
ATOM     35  C   UNL A   1      34.186  33.213  30.458  1.00  0.00     0.016 A 
ATOM     36  C   UNL A   1      36.806  33.849  29.688  1.00  0.00     0.010 A 
ATOM     37  C   UNL A   1      35.271  32.848  31.267  1.00  0.00     0.010 A 
ATOM     38  C   UNL A   1      36.591  33.131  30.871  1.00  0.00    -0.014 A 
BRANCH  38  39
ATOM     39  C   UNL A   1      37.736  32.487  31.573  1.00  0.00     0.031 A 
ATOM     40  C   UNL A   1      38.444  31.352  30.878  1.00  0.00     0.074 A 
ATOM     41  C   UNL A   1      38.170  32.897  32.780  1.00  0.00     0.049 A 
ATOM     42  N   UNL A   1      39.422  30.590  31.300  1.00  0.00    -0.248 NA
ATOM     43  C   UNL A   1      37.984  31.036  29.516  1.00  0.00     0.031 C 
ATOM     44  C   UNL A   1      37.622  34.012  33.546  1.00  0.00     0.029 A 
ATOM     45  N   UNL A   1      39.180  32.406  33.575  1.00  0.00    -0.354 N 
ATOM     46  C   UNL A   1      39.689  29.709  30.260  1.00  0.00     0.074 A 
ATOM     47  C   UNL A   1      38.749  30.004  29.201  1.00  0.00     0.031 C 
ATOM     48  C   UNL A   1      38.295  34.115  34.708  1.00  0.00     0.029 A 
ATOM     49  C   UNL A   1      39.297  33.051  34.783  1.00  0.00     0.049 A 
ATOM     50  H   UNL A   1      39.765  31.662  33.305  1.00  0.00     0.167 HD
ATOM     51  C   UNL A   1      40.641  28.748  30.184  1.00  0.00     0.037 A 
ATOM     52  C   UNL A   1      40.102  32.794  35.836  1.00  0.00     0.037 A 
ATOM     53  C   UNL A   1      41.578  28.444  31.231  1.00  0.00     0.049 A 
ATOM     54  C   UNL A   1      41.085  31.647  35.766  1.00  0.00     0.074 A 
ATOM     55  C   UNL A   1      42.574  27.482  31.243  1.00  0.00     0.029 A 
ATOM     56  N   UNL A   1      41.635  29.092  32.454  1.00  0.00    -0.354 N 
ATOM     57  N   UNL A   1      41.340  30.829  34.774  1.00  0.00    -0.248 NA
ATOM     58  C   UNL A   1      41.894  31.391  36.969  1.00  0.00     0.031 C 
ATOM     59  C   UNL A   1      43.197  27.512  32.494  1.00  0.00     0.029 A 
ATOM     60  C   UNL A   1      42.633  28.535  33.238  1.00  0.00     0.049 A 
ATOM     61  H   UNL A   1      41.051  29.837  32.726  1.00  0.00     0.167 HD
ATOM     62  C   UNL A   1      42.361  29.994  35.218  1.00  0.00     0.074 A 
ATOM     63  C   UNL A   1      42.688  30.410  36.563  1.00  0.00     0.031 C 
ATOM     64  C   UNL A   1      42.971  28.973  34.567  1.00  0.00     0.037 A 
BRANCH  51  65
ATOM     65  C   UNL A   1      40.705  27.936  28.923  1.00  0.00     0.064 A 
ATOM     66  C   UNL A   1      39.935  26.775  28.757  1.00  0.00     0.173 A 
ATOM     67  C   UNL A   1      41.512  28.349  27.853  1.00  0.00     0.173 A 
ATOM     68  F   UNL A   1      39.160  26.329  29.757  1.00  0.00    -0.203 F 
ATOM     69  C   UNL A   1      39.985  26.048  27.570  1.00  0.00     0.198 A 
ATOM     70  C   UNL A   1      41.536  27.637  26.657  1.00  0.00     0.198 A 
ATOM     71  F   UNL A   1      42.266  29.454  27.961  1.00  0.00    -0.203 F 
ATOM     72  F   UNL A   1      39.274  24.919  27.448  1.00  0.00    -0.200 F 
ATOM     73  C   UNL A   1      40.778  26.485  26.519  1.00  0.00     0.200 A 
ATOM     74  F   UNL A   1      42.291  28.068  25.637  1.00  0.00    -0.200 F 
ATOM     75  F   UNL A   1      40.815  25.791  25.372  1.00  0.00    -0.200 F 
ENDBRANCH  51  65
BRANCH  52  76
ATOM     76  C   UNL A   1      40.012  33.615  37.077  1.00  0.00     0.064 A 
ATOM     77  C   UNL A   1      39.069  33.324  38.074  1.00  0.00     0.173 A 
ATOM     78  C   UNL A   1      40.814  34.753  37.256  1.00  0.00     0.173 A 
ATOM     79  F   UNL A   1      38.253  32.268  37.935  1.00  0.00    -0.203 F 
ATOM     80  C   UNL A   1      38.909  34.155  39.183  1.00  0.00     0.198 A 
ATOM     81  C   UNL A   1      40.676  35.564  38.381  1.00  0.00     0.198 A 
ATOM     82  F   UNL A   1      41.722  35.087  36.328  1.00  0.00    -0.203 F 
ATOM     83  F   UNL A   1      37.950  33.891  40.081  1.00  0.00    -0.200 F 
ATOM     84  C   UNL A   1      39.716  35.271  39.338  1.00  0.00     0.200 A 
ATOM     85  F   UNL A   1      41.462  36.639  38.530  1.00  0.00    -0.200 F 
ATOM     86  F   UNL A   1      39.554  36.076  40.397  1.00  0.00    -0.200 F 
ENDBRANCH  52  76
BRANCH  64  87
ATOM     87  C   UNL A   1      44.100  28.268  35.269  1.00  0.00     0.064 A 
ATOM     88  C   UNL A   1      43.891  27.115  36.040  1.00  0.00     0.173 A 
ATOM     89  C   UNL A   1      45.419  28.728  35.125  1.00  0.00     0.173 A 
ATOM     90  F   UNL A   1      42.651  26.639  36.220  1.00  0.00    -0.203 F 
ATOM     91  C   UNL A   1      44.955  26.468  36.665  1.00  0.00     0.198 A 
ATOM     92  C   UNL A   1      46.484  28.059  35.722  1.00  0.00     0.198 A 
ATOM     93  F   UNL A   1      45.679  29.820  34.389  1.00  0.00    -0.203 F 
ATOM     94  F   UNL A   1      44.726  25.398  37.438  1.00  0.00    -0.200 F 
ATOM     95  C   UNL A   1      46.251  26.934  36.499  1.00  0.00     0.200 A 
ATOM     96  F   UNL A   1      47.737  28.502  35.544  1.00  0.00    -0.200 F 
ATOM     97  F   UNL A   1      47.275  26.304  37.091  1.00  0.00    -0.200 F 
ENDBRANCH  64  87
ENDBRANCH  38  39
ENDBRANCH  31  33
ENDBRANCH  30  31
ENDBRANCH  29  30
ENDBRANCH  28  29
ENDBRANCH  27  28
ENDBRANCH  26  27
ENDBRANCH   1  26
TORSDOF 19
ENDMDL
MODEL 3
REMARK VINA RESULT:     -11.2      1.339      2.154
REMARK SMILES C[C@]1(C(=O)N2CCC(CC(=O)OCCOCCOCCOC(=O)c3ccc(-c4c5nc(c(-c6c(F)c(F)c(F)c(F)c6F)c6ccc([nH]6)c(-c6c(F)c(F)c(F)c(F)c6F)c6nc(c(-c7c(F)c(F)c(F)c(F)c7F)c7ccc4[nH]7)C=C6)C=C5)cc3)CC2)CCC[NH2+]C1
REMARK SMILES IDX 16 1 15 2 14 3 13 4 12 5 10 6 11 7 9 8 8 9 3 10 4 11 5 12
REMARK SMILES IDX 6 13 88 14 7 15 87 16 2 17 1 18 89 19 93 20 90 21 92 22
REMARK SMILES IDX 91 23 17 26 18 27 19 28 20 29 21 30 22 31 23 32 24 33 25 34
REMARK SMILES IDX 86 35 26 36 85 37 27 38 28 39 29 40 79 41 30 42 84 43 78 44
REMARK SMILES IDX 80 45 31 46 83 47 77 48 76 49 32 51 64 52 44 53 63 54 45 55
REMARK SMILES IDX 48 56 62 57 81 58 46 59 47 60 61 62 82 63 49 64 33 65 34 66
REMARK SMILES IDX 42 67 35 68 36 69 40 70 43 71 37 72 38 73 41 74 39 75 65 76
REMARK SMILES IDX 66 77 74 78 67 79 68 80 72 81 75 82 69 83 70 84 73 85 71 86
REMARK SMILES IDX 50 87 51 88 59 89 52 90 53 91 57 92 60 93 54 94 55 95 58 96
REMARK SMILES IDX 56 97
REMARK H PARENT 92 24 92 25 80 50 48 61
REMARK Flexibility Score: inf
ROOT
ATOM      1  C   UNL A   1      39.181  20.968  25.892  1.00  0.00     0.188 C 
ENDROOT
BRANCH   1   2
ATOM      2  O   UNL A   1      38.178  20.429  25.046  1.00  0.00    -0.376 OA
BRANCH   2   3
ATOM      3  C   UNL A   1      37.111  21.303  24.684  1.00  0.00     0.202 C 
BRANCH   3   4
ATOM      4  C   UNL A   1      35.684  20.826  25.002  1.00  0.00     0.261 C 
BRANCH   4   5
ATOM      5  O   UNL A   1      34.649  21.747  24.601  1.00  0.00    -0.463 OA
BRANCH   5   6
ATOM      6  C   UNL A   1      33.376  21.351  24.850  1.00  0.00     0.306 C 
ATOM      7  O   UNL A   1      33.054  20.571  25.742  1.00  0.00    -0.252 OA
BRANCH   6   8
ATOM      8  C   UNL A   1      32.319  21.982  23.961  1.00  0.00     0.126 C 
BRANCH   8   9
ATOM      9  C   UNL A   1      31.182  22.892  24.494  1.00  0.00     0.003 C 
ATOM     10  C   UNL A   1      31.314  27.096  25.037  1.00  0.00     0.234 C 
ATOM     11  O   UNL A   1      30.373  27.893  25.013  1.00  0.00    -0.274 OA
ATOM     12  N   UNL A   1      31.071  25.739  24.947  1.00  0.00    -0.342 N 
ATOM     13  C   UNL A   1      30.283  25.245  23.838  1.00  0.00     0.120 C 
ATOM     14  C   UNL A   1      30.965  24.910  26.125  1.00  0.00     0.120 C 
ATOM     15  C   UNL A   1      30.866  23.921  23.368  1.00  0.00     0.026 C 
ATOM     16  C   UNL A   1      31.540  23.522  25.853  1.00  0.00     0.026 C 
BRANCH  10  17
ATOM     17  C   UNL A   1      32.804  27.565  24.987  1.00  0.00     0.095 C 
ATOM     18  C   UNL A   1      33.347  27.452  26.439  1.00  0.00     0.028 C 
ATOM     19  C   UNL A   1      33.740  26.712  24.107  1.00  0.00     0.028 C 
ATOM     20  C   UNL A   1      32.884  29.053  24.581  1.00  0.00     0.277 C 
ATOM     21  C   UNL A   1      33.802  27.100  22.633  1.00  0.00     0.063 C 
ATOM     22  N   UNL A   1      32.729  29.291  23.144  1.00  0.00    -0.345 N 
ATOM     23  C   UNL A   1      33.753  28.602  22.370  1.00  0.00     0.260 C 
ATOM     24  H   UNL A   1      31.812  28.954  22.850  1.00  0.00     0.346 HD
ATOM     25  H   UNL A   1      32.823  30.292  22.976  1.00  0.00     0.346 HD
ENDBRANCH  10  17
ENDBRANCH   8   9
ENDBRANCH   6   8
ENDBRANCH   5   6
ENDBRANCH   4   5
ENDBRANCH   3   4
ENDBRANCH   2   3
ENDBRANCH   1   2
BRANCH   1  26
ATOM     26  C   UNL A   1      40.411  20.100  26.156  1.00  0.00     0.188 C 
BRANCH  26  27
ATOM     27  O   UNL A   1      41.639  20.772  26.399  1.00  0.00    -0.376 OA
BRANCH  27  28
ATOM     28  C   UNL A   1      42.790  20.217  25.752  1.00  0.00     0.202 C 
BRANCH  28  29
ATOM     29  C   UNL A   1      43.949  21.185  25.427  1.00  0.00     0.261 C 
BRANCH  29  30
ATOM     30  O   UNL A   1      43.951  22.434  26.156  1.00  0.00    -0.460 OA
BRANCH  30  31
ATOM     31  C   UNL A   1      43.731  23.578  25.468  1.00  0.00     0.338 C 
ATOM     32  O   UNL A   1      43.815  23.725  24.260  1.00  0.00    -0.246 OA
BRANCH  31  33
ATOM     33  C   UNL A   1      43.088  24.566  26.384  1.00  0.00     0.060 A 
ATOM     34  C   UNL A   1      43.613  25.868  26.433  1.00  0.00     0.016 A 
ATOM     35  C   UNL A   1      41.940  24.261  27.123  1.00  0.00     0.016 A 
ATOM     36  C   UNL A   1      43.027  26.843  27.248  1.00  0.00     0.010 A 
ATOM     37  C   UNL A   1      41.361  25.234  27.949  1.00  0.00     0.010 A 
ATOM     38  C   UNL A   1      41.921  26.521  28.046  1.00  0.00    -0.014 A 
BRANCH  38  39
ATOM     39  C   UNL A   1      41.490  27.443  29.133  1.00  0.00     0.031 A 
ATOM     40  C   UNL A   1      42.247  27.402  30.437  1.00  0.00     0.074 A 
ATOM     41  C   UNL A   1      40.478  28.318  28.983  1.00  0.00     0.049 A 
ATOM     42  N   UNL A   1      42.031  28.054  31.552  1.00  0.00    -0.248 NA
ATOM     43  C   UNL A   1      43.409  26.500  30.485  1.00  0.00     0.031 C 
ATOM     44  C   UNL A   1      39.693  28.511  27.768  1.00  0.00     0.029 A 
ATOM     45  N   UNL A   1      39.936  29.212  29.879  1.00  0.00    -0.354 N 
ATOM     46  C   UNL A   1      43.025  27.640  32.429  1.00  0.00     0.074 A 
ATOM     47  C   UNL A   1      43.823  26.654  31.732  1.00  0.00     0.031 C 
ATOM     48  C   UNL A   1      38.762  29.455  27.995  1.00  0.00     0.029 A 
ATOM     49  C   UNL A   1      38.860  29.909  29.383  1.00  0.00     0.049 A 
ATOM     50  H   UNL A   1      40.285  29.340  30.790  1.00  0.00     0.167 HD
ATOM     51  C   UNL A   1      43.265  28.051  33.697  1.00  0.00     0.037 A 
ATOM     52  C   UNL A   1      38.036  30.791  29.988  1.00  0.00     0.037 A 
ATOM     53  C   UNL A   1      42.478  29.026  34.401  1.00  0.00     0.049 A 
ATOM     54  C   UNL A   1      38.262  31.154  31.438  1.00  0.00     0.074 A 
ATOM     55  C   UNL A   1      42.644  29.500  35.691  1.00  0.00     0.029 A 
ATOM     56  N   UNL A   1      41.371  29.676  33.877  1.00  0.00    -0.354 N 
ATOM     57  N   UNL A   1      39.212  30.768  32.254  1.00  0.00    -0.248 NA
ATOM     58  C   UNL A   1      37.295  32.081  32.050  1.00  0.00     0.031 C 
ATOM     59  C   UNL A   1      41.606  30.396  35.967  1.00  0.00     0.029 A 
ATOM     60  C   UNL A   1      40.831  30.529  34.827  1.00  0.00     0.049 A 
ATOM     61  H   UNL A   1      41.021  29.550  32.965  1.00  0.00     0.167 HD
ATOM     62  C   UNL A   1      38.982  31.433  33.455  1.00  0.00     0.074 A 
ATOM     63  C   UNL A   1      37.809  32.256  33.259  1.00  0.00     0.031 C 
ATOM     64  C   UNL A   1      39.680  31.366  34.616  1.00  0.00     0.037 A 
BRANCH  51  65
ATOM     65  C   UNL A   1      44.425  27.429  34.419  1.00  0.00     0.064 A 
ATOM     66  C   UNL A   1      45.693  28.028  34.427  1.00  0.00     0.173 A 
ATOM     67  C   UNL A   1      44.253  26.244  35.150  1.00  0.00     0.173 A 
ATOM     68  F   UNL A   1      45.914  29.153  33.730  1.00  0.00    -0.203 F 
ATOM     69  C   UNL A   1      46.752  27.452  35.125  1.00  0.00     0.198 A 
ATOM     70  C   UNL A   1      45.305  25.689  35.872  1.00  0.00     0.198 A 
ATOM     71  F   UNL A   1      43.058  25.633  35.177  1.00  0.00    -0.203 F 
ATOM     72  F   UNL A   1      47.965  28.018  35.084  1.00  0.00    -0.200 F 
ATOM     73  C   UNL A   1      46.554  26.289  35.854  1.00  0.00     0.200 A 
ATOM     74  F   UNL A   1      45.109  24.572  36.588  1.00  0.00    -0.200 F 
ATOM     75  F   UNL A   1      47.570  25.743  36.537  1.00  0.00    -0.200 F 
ENDBRANCH  51  65
BRANCH  52  76
ATOM     76  C   UNL A   1      36.890  31.389  29.246  1.00  0.00     0.064 A 
ATOM     77  C   UNL A   1      36.874  32.751  28.911  1.00  0.00     0.173 A 
ATOM     78  C   UNL A   1      35.754  30.630  28.926  1.00  0.00     0.173 A 
ATOM     79  F   UNL A   1      37.920  33.530  29.226  1.00  0.00    -0.203 F 
ATOM     80  C   UNL A   1      35.758  33.336  28.314  1.00  0.00     0.198 A 
ATOM     81  C   UNL A   1      34.652  31.209  28.299  1.00  0.00     0.198 A 
ATOM     82  F   UNL A   1      35.709  29.327  29.236  1.00  0.00    -0.203 F 
ATOM     83  F   UNL A   1      35.744  34.654  28.072  1.00  0.00    -0.200 F 
ATOM     84  C   UNL A   1      34.649  32.564  28.005  1.00  0.00     0.200 A 
ATOM     85  F   UNL A   1      33.585  30.457  27.997  1.00  0.00    -0.200 F 
ATOM     86  F   UNL A   1      33.572  33.128  27.443  1.00  0.00    -0.200 F 
ENDBRANCH  52  76
BRANCH  64  87
ATOM     87  C   UNL A   1      39.239  32.249  35.751  1.00  0.00     0.064 A 
ATOM     88  C   UNL A   1      38.334  31.808  36.728  1.00  0.00     0.173 A 
ATOM     89  C   UNL A   1      39.772  33.541  35.890  1.00  0.00     0.173 A 
ATOM     90  F   UNL A   1      37.786  30.588  36.638  1.00  0.00    -0.203 F 
ATOM     91  C   UNL A   1      37.956  32.637  37.782  1.00  0.00     0.198 A 
ATOM     92  C   UNL A   1      39.420  34.354  36.963  1.00  0.00     0.198 A 
ATOM     93  F   UNL A   1      40.651  34.011  34.992  1.00  0.00    -0.203 F 
ATOM     94  F   UNL A   1      37.051  32.213  38.675  1.00  0.00    -0.200 F 
ATOM     95  C   UNL A   1      38.505  33.906  37.905  1.00  0.00     0.200 A 
ATOM     96  F   UNL A   1      39.966  35.572  37.088  1.00  0.00    -0.200 F 
ATOM     97  F   UNL A   1      38.149  34.697  38.925  1.00  0.00    -0.200 F 
ENDBRANCH  64  87
ENDBRANCH  38  39
ENDBRANCH  31  33
ENDBRANCH  30  31
ENDBRANCH  29  30
ENDBRANCH  28  29
ENDBRANCH  27  28
ENDBRANCH  26  27
ENDBRANCH   1  26
TORSDOF 19
ENDMDL
