MODEL 1
REMARK VINA RESULT:      -8.9      0.000      0.000
REMARK SMILES COc1cccc(NC2=[NH+]C(=O)/C(=C\c3cccc(O[C@@H](C)C(=O)OCCOCCOCCOC(=O)c4ccc(-c5c6nc(c(-c7c(F)c(F)c(F)c(F)c7F)c7ccc([nH]7)c(-c7c(F)c(F)c(F)c(F)c7F)c7nc(c(-c8c(F)c(F)c(F)c(F)c8F)c8ccc5[nH]8)C=C7)C=C6)cc4)c3)S2)c1
REMARK SMILES IDX 28 1 27 2 26 3 25 4 23 5 24 6 21 7 22 8 20 9 19 10 15 11
REMARK SMILES IDX 16 12 100 13 17 14 18 15 14 16 8 17 9 18 10 20 101 21 11 22
REMARK SMILES IDX 13 24 12 25 7 26 3 27 4 28 102 29 5 30 6 31 2 32 1 33 29 34
REMARK SMILES IDX 30 35 31 36 32 37 33 38 34 39 35 40 36 41 37 42 38 43 99 44
REMARK SMILES IDX 39 45 98 46 40 47 41 48 42 49 92 50 43 51 97 52 91 53 93 54
REMARK SMILES IDX 44 55 96 56 90 57 89 58 45 60 77 61 57 62 76 63 58 64 61 65
REMARK SMILES IDX 75 66 94 67 59 68 60 69 74 71 95 72 62 73 46 74 47 75 55 76
REMARK SMILES IDX 48 77 49 78 53 79 56 80 50 81 51 82 54 83 52 84 78 85 79 86
REMARK SMILES IDX 87 87 80 88 81 89 85 90 88 91 82 92 83 93 86 94 84 95 63 96
REMARK SMILES IDX 64 97 72 98 65 99 66 100 70 101 73 102 67 103 68 104 71 105
REMARK SMILES IDX 69 106
REMARK H PARENT 8 19 10 23 93 59 61 70
REMARK Flexibility Score: inf
ROOT
ATOM      1  O   UNL A   1      33.533  35.913  31.524  1.00  0.00    -0.376 OA
ENDROOT
BRANCH   1   2
ATOM      2  C   UNL A   1      34.087  36.531  32.682  1.00  0.00     0.202 C 
BRANCH   2   3
ATOM      3  C   UNL A   1      34.530  35.588  33.804  1.00  0.00     0.261 C 
BRANCH   3   4
ATOM      4  O   UNL A   1      35.779  34.943  33.499  1.00  0.00    -0.461 OA
BRANCH   4   5
ATOM      5  C   UNL A   1      35.740  33.608  33.256  1.00  0.00     0.347 C 
ATOM      6  O   UNL A   1      34.700  32.982  33.077  1.00  0.00    -0.248 OA
BRANCH   5   7
ATOM      7  C   UNL A   1      37.154  32.956  33.168  1.00  0.00     0.279 C 
ATOM      8  C   UNL A   1      37.439  32.551  31.721  1.00  0.00     0.066 C 
BRANCH   7   9
ATOM      9  O   UNL A   1      37.703  31.987  34.058  1.00  0.00    -0.479 OA
BRANCH   9  10
ATOM     10  C   UNL A   1      38.999  31.575  33.976  1.00  0.00     0.121 A 
ATOM     11  C   UNL A   1      40.766  29.926  33.677  1.00  0.00    -0.021 A 
ATOM     12  C   UNL A   1      41.725  30.862  34.056  1.00  0.00     0.008 A 
ATOM     13  C   UNL A   1      39.410  30.295  33.646  1.00  0.00     0.054 A 
ATOM     14  C   UNL A   1      41.326  32.165  34.363  1.00  0.00     0.004 A 
ATOM     15  C   UNL A   1      39.971  32.518  34.321  1.00  0.00     0.046 A 
BRANCH  11  16
ATOM     16  C   UNL A   1      41.085  28.521  33.392  1.00  0.00     0.032 C 
ATOM     17  N   UNL A   1      43.777  25.203  36.104  1.00  0.00    -0.234 N 
ATOM     18  C   UNL A   1      42.915  26.153  35.653  1.00  0.00     0.322 C 
ATOM     19  H   UNL A   1      43.435  24.634  36.831  1.00  0.00     0.313 HD
ATOM     20  N   UNL A   1      42.364  27.002  36.456  1.00  0.00    -0.199 N 
ATOM     21  S   UNL A   1      42.402  26.229  33.980  1.00  0.00     0.006 SA
ATOM     22  C   UNL A   1      41.528  27.887  35.820  1.00  0.00     0.346 C 
ATOM     23  H   UNL A   1      42.527  27.015  37.427  1.00  0.00     0.316 HD
ATOM     24  C   UNL A   1      41.531  27.675  34.333  1.00  0.00     0.110 C 
ATOM     25  O   UNL A   1      40.863  28.728  36.400  1.00  0.00    -0.240 OA
BRANCH  17  26
ATOM     26  C   UNL A   1      45.088  24.917  35.675  1.00  0.00     0.129 A 
ATOM     27  C   UNL A   1      46.822  23.214  35.411  1.00  0.00     0.123 A 
ATOM     28  C   UNL A   1      47.704  24.190  34.953  1.00  0.00     0.047 A 
ATOM     29  C   UNL A   1      45.523  23.582  35.766  1.00  0.00     0.098 A 
ATOM     30  C   UNL A   1      47.281  25.512  34.819  1.00  0.00     0.008 A 
ATOM     31  C   UNL A   1      45.975  25.871  35.168  1.00  0.00     0.052 A 
BRANCH  27  32
ATOM     32  O   UNL A   1      47.344  21.954  35.504  1.00  0.00    -0.497 OA
ATOM     33  C   UNL A   1      46.573  20.907  34.924  1.00  0.00     0.278 C 
ENDBRANCH  27  32
ENDBRANCH  17  26
ENDBRANCH  11  16
ENDBRANCH   9  10
ENDBRANCH   7   9
ENDBRANCH   5   7
ENDBRANCH   4   5
ENDBRANCH   3   4
ENDBRANCH   2   3
ENDBRANCH   1   2
BRANCH   1  34
ATOM     34  C   UNL A   1      33.262  36.722  30.381  1.00  0.00     0.188 C 
BRANCH  34  35
ATOM     35  C   UNL A   1      33.414  36.111  28.978  1.00  0.00     0.188 C 
BRANCH  35  36
ATOM     36  O   UNL A   1      33.098  34.732  28.905  1.00  0.00    -0.376 OA
BRANCH  36  37
ATOM     37  C   UNL A   1      34.169  33.887  28.520  1.00  0.00     0.202 C 
BRANCH  37  38
ATOM     38  C   UNL A   1      34.034  32.485  29.122  1.00  0.00     0.261 C 
BRANCH  38  39
ATOM     39  O   UNL A   1      35.250  31.715  29.117  1.00  0.00    -0.460 OA
BRANCH  39  40
ATOM     40  C   UNL A   1      35.287  30.634  28.303  1.00  0.00     0.338 C 
ATOM     41  O   UNL A   1      34.470  30.319  27.459  1.00  0.00    -0.246 OA
BRANCH  40  42
ATOM     42  C   UNL A   1      36.613  29.996  28.466  1.00  0.00     0.060 A 
ATOM     43  C   UNL A   1      36.953  29.436  29.706  1.00  0.00     0.016 A 
ATOM     44  C   UNL A   1      37.502  29.925  27.392  1.00  0.00     0.016 A 
ATOM     45  C   UNL A   1      38.195  28.817  29.877  1.00  0.00     0.010 A 
ATOM     46  C   UNL A   1      38.751  29.326  27.571  1.00  0.00     0.010 A 
ATOM     47  C   UNL A   1      39.113  28.789  28.819  1.00  0.00    -0.014 A 
BRANCH  47  48
ATOM     48  C   UNL A   1      40.517  28.364  29.043  1.00  0.00     0.031 A 
ATOM     49  C   UNL A   1      41.478  29.361  29.628  1.00  0.00     0.074 A 
ATOM     50  C   UNL A   1      40.948  27.139  28.696  1.00  0.00     0.049 A 
ATOM     51  N   UNL A   1      42.772  29.273  29.795  1.00  0.00    -0.248 NA
ATOM     52  C   UNL A   1      40.896  30.636  30.079  1.00  0.00     0.031 C 
ATOM     53  C   UNL A   1      40.114  26.070  28.154  1.00  0.00     0.029 A 
ATOM     54  N   UNL A   1      42.211  26.599  28.729  1.00  0.00    -0.354 N 
ATOM     55  C   UNL A   1      43.160  30.481  30.357  1.00  0.00     0.074 A 
ATOM     56  C   UNL A   1      41.970  31.294  30.487  1.00  0.00     0.031 C 
ATOM     57  C   UNL A   1      40.893  25.009  27.878  1.00  0.00     0.029 A 
ATOM     58  C   UNL A   1      42.283  25.339  28.188  1.00  0.00     0.049 A 
ATOM     59  H   UNL A   1      42.989  27.070  29.105  1.00  0.00     0.167 HD
ATOM     60  C   UNL A   1      44.399  30.879  30.734  1.00  0.00     0.037 A 
ATOM     61  C   UNL A   1      43.356  24.560  27.937  1.00  0.00     0.037 A 
ATOM     62  C   UNL A   1      45.584  30.074  30.602  1.00  0.00     0.049 A 
ATOM     63  C   UNL A   1      44.737  25.057  28.288  1.00  0.00     0.074 A 
ATOM     64  C   UNL A   1      46.877  30.374  30.991  1.00  0.00     0.029 A 
ATOM     65  N   UNL A   1      45.620  28.814  30.025  1.00  0.00    -0.354 N 
ATOM     66  N   UNL A   1      45.094  26.185  28.852  1.00  0.00    -0.248 NA
ATOM     67  C   UNL A   1      45.866  24.173  27.956  1.00  0.00     0.031 C 
ATOM     68  C   UNL A   1      47.707  29.319  30.599  1.00  0.00     0.029 A 
ATOM     69  C   UNL A   1      46.921  28.339  30.012  1.00  0.00     0.049 A 
ATOM     70  H   UNL A   1      44.838  28.330  29.675  1.00  0.00     0.167 HD
ATOM     71  C   UNL A   1      46.478  26.138  28.962  1.00  0.00     0.074 A 
ATOM     72  C   UNL A   1      46.899  24.865  28.417  1.00  0.00     0.031 C 
ATOM     73  C   UNL A   1      47.325  27.068  29.468  1.00  0.00     0.037 A 
BRANCH  60  74
ATOM     74  C   UNL A   1      44.539  32.263  31.293  1.00  0.00     0.064 A 
ATOM     75  C   UNL A   1      44.723  32.489  32.665  1.00  0.00     0.173 A 
ATOM     76  C   UNL A   1      44.513  33.376  30.440  1.00  0.00     0.173 A 
ATOM     77  F   UNL A   1      44.738  31.457  33.523  1.00  0.00    -0.203 F 
ATOM     78  C   UNL A   1      44.853  33.781  33.165  1.00  0.00     0.198 A 
ATOM     79  C   UNL A   1      44.671  34.664  30.940  1.00  0.00     0.198 A 
ATOM     80  F   UNL A   1      44.341  33.212  29.119  1.00  0.00    -0.203 F 
ATOM     81  F   UNL A   1      44.983  33.978  34.485  1.00  0.00    -0.200 F 
ATOM     82  C   UNL A   1      44.834  34.867  32.302  1.00  0.00     0.200 A 
ATOM     83  F   UNL A   1      44.662  35.712  30.104  1.00  0.00    -0.200 F 
ATOM     84  F   UNL A   1      44.964  36.111  32.785  1.00  0.00    -0.200 F 
ENDBRANCH  60  74
BRANCH  61  85
ATOM     85  C   UNL A   1      43.176  23.236  27.285  1.00  0.00     0.064 A 
ATOM     86  C   UNL A   1      43.624  23.006  25.977  1.00  0.00     0.173 A 
ATOM     87  C   UNL A   1      42.529  22.182  27.947  1.00  0.00     0.173 A 
ATOM     88  F   UNL A   1      44.219  23.993  25.290  1.00  0.00    -0.203 F 
ATOM     89  C   UNL A   1      43.419  21.778  25.352  1.00  0.00     0.198 A 
ATOM     90  C   UNL A   1      42.348  20.946  27.330  1.00  0.00     0.198 A 
ATOM     91  F   UNL A   1      42.071  22.354  29.196  1.00  0.00    -0.203 F 
ATOM     92  F   UNL A   1      43.815  21.599  24.084  1.00  0.00    -0.200 F 
ATOM     93  C   UNL A   1      42.787  20.747  26.031  1.00  0.00     0.200 A 
ATOM     94  F   UNL A   1      41.742  19.951  27.993  1.00  0.00    -0.200 F 
ATOM     95  F   UNL A   1      42.591  19.566  25.429  1.00  0.00    -0.200 F 
ENDBRANCH  61  85
BRANCH  73  96
ATOM     96  C   UNL A   1      48.791  26.744  29.480  1.00  0.00     0.064 A 
ATOM     97  C   UNL A   1      49.648  27.178  28.459  1.00  0.00     0.173 A 
ATOM     98  C   UNL A   1      49.357  26.048  30.560  1.00  0.00     0.173 A 
ATOM     99  F   UNL A   1      49.154  27.834  27.398  1.00  0.00    -0.203 F 
ATOM    100  C   UNL A   1      51.015  26.917  28.510  1.00  0.00     0.198 A 
ATOM    101  C   UNL A   1      50.727  25.812  30.623  1.00  0.00     0.198 A 
ATOM    102  F   UNL A   1      48.583  25.617  31.567  1.00  0.00    -0.203 F 
ATOM    103  F   UNL A   1      51.810  27.312  27.507  1.00  0.00    -0.200 F 
ATOM    104  C   UNL A   1      51.555  26.243  29.596  1.00  0.00     0.200 A 
ATOM    105  F   UNL A   1      51.250  25.175  31.679  1.00  0.00    -0.200 F 
ATOM    106  F   UNL A   1      52.872  26.006  29.652  1.00  0.00    -0.200 F 
ENDBRANCH  73  96
ENDBRANCH  47  48
ENDBRANCH  40  42
ENDBRANCH  39  40
ENDBRANCH  38  39
ENDBRANCH  37  38
ENDBRANCH  36  37
ENDBRANCH  35  36
ENDBRANCH  34  35
ENDBRANCH   1  34
TORSDOF 22
ENDMDL
MODEL 2
REMARK VINA RESULT:      -8.8      1.886      2.583
REMARK SMILES COc1cccc(NC2=[NH+]C(=O)/C(=C\c3cccc(O[C@@H](C)C(=O)OCCOCCOCCOC(=O)c4ccc(-c5c6nc(c(-c7c(F)c(F)c(F)c(F)c7F)c7ccc([nH]7)c(-c7c(F)c(F)c(F)c(F)c7F)c7nc(c(-c8c(F)c(F)c(F)c(F)c8F)c8ccc5[nH]8)C=C7)C=C6)cc4)c3)S2)c1
REMARK SMILES IDX 28 1 27 2 26 3 25 4 23 5 24 6 21 7 22 8 20 9 19 10 15 11
REMARK SMILES IDX 16 12 100 13 17 14 18 15 14 16 8 17 9 18 10 20 101 21 11 22
REMARK SMILES IDX 13 24 12 25 7 26 3 27 4 28 102 29 5 30 6 31 2 32 1 33 29 34
REMARK SMILES IDX 30 35 31 36 32 37 33 38 34 39 35 40 36 41 37 42 38 43 99 44
REMARK SMILES IDX 39 45 98 46 40 47 41 48 42 49 92 50 43 51 97 52 91 53 93 54
REMARK SMILES IDX 44 55 96 56 90 57 89 58 45 60 77 61 57 62 76 63 58 64 61 65
REMARK SMILES IDX 75 66 94 67 59 68 60 69 74 71 95 72 62 73 46 74 47 75 55 76
REMARK SMILES IDX 48 77 49 78 53 79 56 80 50 81 51 82 54 83 52 84 78 85 79 86
REMARK SMILES IDX 87 87 80 88 81 89 85 90 88 91 82 92 83 93 86 94 84 95 63 96
REMARK SMILES IDX 64 97 72 98 65 99 66 100 70 101 73 102 67 103 68 104 71 105
REMARK SMILES IDX 69 106
REMARK H PARENT 8 19 10 23 93 59 61 70
REMARK Flexibility Score: inf
ROOT
ATOM      1  O   UNL A   1      35.108  33.810  32.928  1.00  0.00    -0.376 OA
ENDROOT
BRANCH   1   2
ATOM      2  C   UNL A   1      35.592  32.474  33.040  1.00  0.00     0.202 C 
BRANCH   2   3
ATOM      3  C   UNL A   1      36.804  32.269  33.952  1.00  0.00     0.261 C 
BRANCH   3   4
ATOM      4  O   UNL A   1      37.599  33.462  34.062  1.00  0.00    -0.461 OA
BRANCH   4   5
ATOM      5  C   UNL A   1      38.676  33.411  34.886  1.00  0.00     0.347 C 
ATOM      6  O   UNL A   1      39.161  34.399  35.429  1.00  0.00    -0.248 OA
BRANCH   5   7
ATOM      7  C   UNL A   1      39.204  31.963  35.123  1.00  0.00     0.279 C 
ATOM      8  C   UNL A   1      39.153  31.641  36.618  1.00  0.00     0.066 C 
BRANCH   7   9
ATOM      9  O   UNL A   1      40.363  31.372  34.541  1.00  0.00    -0.479 OA
BRANCH   9  10
ATOM     10  C   UNL A   1      40.388  30.072  34.131  1.00  0.00     0.121 A 
ATOM     11  C   UNL A   1      41.431  27.900  33.776  1.00  0.00    -0.021 A 
ATOM     12  C   UNL A   1      40.333  27.478  33.029  1.00  0.00     0.008 A 
ATOM     13  C   UNL A   1      41.445  29.198  34.315  1.00  0.00     0.054 A 
ATOM     14  C   UNL A   1      39.248  28.341  32.861  1.00  0.00     0.004 A 
ATOM     15  C   UNL A   1      39.276  29.629  33.410  1.00  0.00     0.046 A 
BRANCH  11  16
ATOM     16  C   UNL A   1      42.638  27.084  33.958  1.00  0.00     0.032 C 
ATOM     17  N   UNL A   1      44.171  24.428  37.983  1.00  0.00    -0.234 N 
ATOM     18  C   UNL A   1      43.483  24.998  36.959  1.00  0.00     0.322 C 
ATOM     19  H   UNL A   1      43.912  23.504  38.202  1.00  0.00     0.313 HD
ATOM     20  N   UNL A   1      42.192  25.045  36.953  1.00  0.00    -0.199 N 
ATOM     21  S   UNL A   1      44.283  25.610  35.524  1.00  0.00     0.006 SA
ATOM     22  C   UNL A   1      41.676  25.661  35.839  1.00  0.00     0.346 C 
ATOM     23  H   UNL A   1      41.633  24.675  37.674  1.00  0.00     0.316 HD
ATOM     24  C   UNL A   1      42.763  26.187  34.948  1.00  0.00     0.110 C 
ATOM     25  O   UNL A   1      40.482  25.755  35.608  1.00  0.00    -0.240 OA
BRANCH  17  26
ATOM     26  C   UNL A   1      45.201  24.974  38.775  1.00  0.00     0.129 A 
ATOM     27  C   UNL A   1      45.878  26.773  40.285  1.00  0.00     0.123 A 
ATOM     28  C   UNL A   1      47.166  26.245  40.328  1.00  0.00     0.047 A 
ATOM     29  C   UNL A   1      44.906  26.134  39.512  1.00  0.00     0.098 A 
ATOM     30  C   UNL A   1      47.469  25.074  39.635  1.00  0.00     0.008 A 
ATOM     31  C   UNL A   1      46.487  24.435  38.871  1.00  0.00     0.052 A 
BRANCH  27  32
ATOM     32  O   UNL A   1      45.694  27.923  41.000  1.00  0.00    -0.497 OA
ATOM     33  C   UNL A   1      44.770  27.855  42.080  1.00  0.00     0.278 C 
ENDBRANCH  27  32
ENDBRANCH  17  26
ENDBRANCH  11  16
ENDBRANCH   9  10
ENDBRANCH   7   9
ENDBRANCH   5   7
ENDBRANCH   4   5
ENDBRANCH   3   4
ENDBRANCH   2   3
ENDBRANCH   1   2
BRANCH   1  34
ATOM     34  C   UNL A   1      35.203  34.469  31.668  1.00  0.00     0.188 C 
BRANCH  34  35
ATOM     35  C   UNL A   1      34.521  33.841  30.440  1.00  0.00     0.188 C 
BRANCH  35  36
ATOM     36  O   UNL A   1      35.418  33.276  29.500  1.00  0.00    -0.376 OA
BRANCH  36  37
ATOM     37  C   UNL A   1      35.060  33.458  28.140  1.00  0.00     0.202 C 
BRANCH  37  38
ATOM     38  C   UNL A   1      34.113  32.358  27.649  1.00  0.00     0.261 C 
BRANCH  38  39
ATOM     39  O   UNL A   1      34.219  31.116  28.371  1.00  0.00    -0.460 OA
BRANCH  39  40
ATOM     40  C   UNL A   1      34.672  30.043  27.681  1.00  0.00     0.338 C 
ATOM     41  O   UNL A   1      34.127  29.484  26.749  1.00  0.00    -0.246 OA
BRANCH  40  42
ATOM     42  C   UNL A   1      36.062  29.784  28.119  1.00  0.00     0.060 A 
ATOM     43  C   UNL A   1      37.112  29.983  27.213  1.00  0.00     0.016 A 
ATOM     44  C   UNL A   1      36.327  29.376  29.428  1.00  0.00     0.016 A 
ATOM     45  C   UNL A   1      38.433  29.756  27.610  1.00  0.00     0.010 A 
ATOM     46  C   UNL A   1      37.646  29.129  29.818  1.00  0.00     0.010 A 
ATOM     47  C   UNL A   1      38.704  29.296  28.906  1.00  0.00    -0.014 A 
BRANCH  47  48
ATOM     48  C   UNL A   1      40.058  28.815  29.274  1.00  0.00     0.031 A 
ATOM     49  C   UNL A   1      40.958  29.742  30.042  1.00  0.00     0.074 A 
ATOM     50  C   UNL A   1      40.501  27.602  28.902  1.00  0.00     0.049 A 
ATOM     51  N   UNL A   1      42.219  29.603  30.363  1.00  0.00    -0.248 NA
ATOM     52  C   UNL A   1      40.352  31.002  30.502  1.00  0.00     0.031 C 
ATOM     53  C   UNL A   1      39.719  26.597  28.187  1.00  0.00     0.029 A 
ATOM     54  N   UNL A   1      41.738  27.022  29.056  1.00  0.00    -0.354 N 
ATOM     55  C   UNL A   1      42.559  30.760  31.050  1.00  0.00     0.074 A 
ATOM     56  C   UNL A   1      41.381  31.599  31.085  1.00  0.00     0.031 C 
ATOM     57  C   UNL A   1      40.502  25.532  27.940  1.00  0.00     0.029 A 
ATOM     58  C   UNL A   1      41.850  25.798  28.442  1.00  0.00     0.049 A 
ATOM     59  H   UNL A   1      42.472  27.444  29.557  1.00  0.00     0.167 HD
ATOM     60  C   UNL A   1      43.749  31.094  31.605  1.00  0.00     0.037 A 
ATOM     61  C   UNL A   1      42.928  25.005  28.276  1.00  0.00     0.037 A 
ATOM     62  C   UNL A   1      44.923  30.263  31.568  1.00  0.00     0.049 A 
ATOM     63  C   UNL A   1      44.264  25.435  28.829  1.00  0.00     0.074 A 
ATOM     64  C   UNL A   1      46.162  30.498  32.135  1.00  0.00     0.029 A 
ATOM     65  N   UNL A   1      45.003  29.043  30.915  1.00  0.00    -0.354 N 
ATOM     66  N   UNL A   1      44.572  26.512  29.509  1.00  0.00    -0.248 NA
ATOM     67  C   UNL A   1      45.405  24.540  28.582  1.00  0.00     0.031 C 
ATOM     68  C   UNL A   1      47.011  29.445  31.778  1.00  0.00     0.029 A 
ATOM     69  C   UNL A   1      46.284  28.530  31.033  1.00  0.00     0.049 A 
ATOM     70  H   UNL A   1      44.261  28.607  30.438  1.00  0.00     0.167 HD
ATOM     71  C   UNL A   1      45.930  26.416  29.788  1.00  0.00     0.074 A 
ATOM     72  C   UNL A   1      46.387  25.169  29.215  1.00  0.00     0.031 C 
ATOM     73  C   UNL A   1      46.726  27.285  30.458  1.00  0.00     0.037 A 
BRANCH  60  74
ATOM     74  C   UNL A   1      43.848  32.434  32.271  1.00  0.00     0.064 A 
ATOM     75  C   UNL A   1      43.746  32.575  33.662  1.00  0.00     0.173 A 
ATOM     76  C   UNL A   1      44.072  33.588  31.506  1.00  0.00     0.173 A 
ATOM     77  F   UNL A   1      43.515  31.502  34.435  1.00  0.00    -0.203 F 
ATOM     78  C   UNL A   1      43.843  33.827  34.261  1.00  0.00     0.198 A 
ATOM     79  C   UNL A   1      44.195  34.834  32.111  1.00  0.00     0.198 A 
ATOM     80  F   UNL A   1      44.178  33.505  30.170  1.00  0.00    -0.203 F 
ATOM     81  F   UNL A   1      43.698  33.947  35.589  1.00  0.00    -0.200 F 
ATOM     82  C   UNL A   1      44.074  34.955  33.487  1.00  0.00     0.200 A 
ATOM     83  F   UNL A   1      44.429  35.921  31.362  1.00  0.00    -0.200 F 
ATOM     84  F   UNL A   1      44.171  36.159  34.066  1.00  0.00    -0.200 F 
ENDBRANCH  60  74
BRANCH  61  85
ATOM     85  C   UNL A   1      42.802  23.732  27.517  1.00  0.00     0.064 A 
ATOM     86  C   UNL A   1      43.135  23.663  26.158  1.00  0.00     0.173 A 
ATOM     87  C   UNL A   1      42.323  22.565  28.131  1.00  0.00     0.173 A 
ATOM     88  F   UNL A   1      43.565  24.761  25.517  1.00  0.00    -0.203 F 
ATOM     89  C   UNL A   1      42.978  22.481  25.437  1.00  0.00     0.198 A 
ATOM     90  C   UNL A   1      42.192  21.376  27.416  1.00  0.00     0.198 A 
ATOM     91  F   UNL A   1      41.980  22.580  29.428  1.00  0.00    -0.203 F 
ATOM     92  F   UNL A   1      43.258  22.454  24.127  1.00  0.00    -0.200 F 
ATOM     93  C   UNL A   1      42.514  21.336  26.069  1.00  0.00     0.200 A 
ATOM     94  F   UNL A   1      41.749  20.272  28.032  1.00  0.00    -0.200 F 
ATOM     95  F   UNL A   1      42.364  20.199  25.376  1.00  0.00    -0.200 F 
ENDBRANCH  61  85
BRANCH  73  96
ATOM     96  C   UNL A   1      48.171  26.915  30.631  1.00  0.00     0.064 A 
ATOM     97  C   UNL A   1      49.166  27.428  29.787  1.00  0.00     0.173 A 
ATOM     98  C   UNL A   1      48.572  26.092  31.695  1.00  0.00     0.173 A 
ATOM     99  F   UNL A   1      48.833  28.208  28.748  1.00  0.00    -0.203 F 
ATOM    100  C   UNL A   1      50.509  27.120  29.993  1.00  0.00     0.198 A 
ATOM    101  C   UNL A   1      49.917  25.808  31.915  1.00  0.00     0.198 A 
ATOM    102  F   UNL A   1      47.661  25.582  32.536  1.00  0.00    -0.203 F 
ATOM    103  F   UNL A   1      51.440  27.595  29.154  1.00  0.00    -0.200 F 
ATOM    104  C   UNL A   1      50.884  26.319  31.062  1.00  0.00     0.200 A 
ATOM    105  F   UNL A   1      50.279  25.047  32.956  1.00  0.00    -0.200 F 
ATOM    106  F   UNL A   1      52.177  26.036  31.267  1.00  0.00    -0.200 F 
ENDBRANCH  73  96
ENDBRANCH  47  48
ENDBRANCH  40  42
ENDBRANCH  39  40
ENDBRANCH  38  39
ENDBRANCH  37  38
ENDBRANCH  36  37
ENDBRANCH  35  36
ENDBRANCH  34  35
ENDBRANCH   1  34
TORSDOF 22
ENDMDL
MODEL 3
REMARK VINA RESULT:      -8.8      6.099     10.589
REMARK SMILES COc1cccc(NC2=[NH+]C(=O)/C(=C\c3cccc(O[C@@H](C)C(=O)OCCOCCOCCOC(=O)c4ccc(-c5c6nc(c(-c7c(F)c(F)c(F)c(F)c7F)c7ccc([nH]7)c(-c7c(F)c(F)c(F)c(F)c7F)c7nc(c(-c8c(F)c(F)c(F)c(F)c8F)c8ccc5[nH]8)C=C7)C=C6)cc4)c3)S2)c1
REMARK SMILES IDX 28 1 27 2 26 3 25 4 23 5 24 6 21 7 22 8 20 9 19 10 15 11
REMARK SMILES IDX 16 12 100 13 17 14 18 15 14 16 8 17 9 18 10 20 101 21 11 22
REMARK SMILES IDX 13 24 12 25 7 26 3 27 4 28 102 29 5 30 6 31 2 32 1 33 29 34
REMARK SMILES IDX 30 35 31 36 32 37 33 38 34 39 35 40 36 41 37 42 38 43 99 44
REMARK SMILES IDX 39 45 98 46 40 47 41 48 42 49 92 50 43 51 97 52 91 53 93 54
REMARK SMILES IDX 44 55 96 56 90 57 89 58 45 60 77 61 57 62 76 63 58 64 61 65
REMARK SMILES IDX 75 66 94 67 59 68 60 69 74 71 95 72 62 73 46 74 47 75 55 76
REMARK SMILES IDX 48 77 49 78 53 79 56 80 50 81 51 82 54 83 52 84 78 85 79 86
REMARK SMILES IDX 87 87 80 88 81 89 85 90 88 91 82 92 83 93 86 94 84 95 63 96
REMARK SMILES IDX 64 97 72 98 65 99 66 100 70 101 73 102 67 103 68 104 71 105
REMARK SMILES IDX 69 106
REMARK H PARENT 8 19 10 23 93 59 61 70
REMARK Flexibility Score: inf
ROOT
ATOM      1  O   UNL A   1      38.995  28.421  27.710  1.00  0.00    -0.376 OA
ENDROOT
BRANCH   1   2
ATOM      2  C   UNL A   1      37.948  28.940  28.525  1.00  0.00     0.202 C 
BRANCH   2   3
ATOM      3  C   UNL A   1      37.030  29.974  27.867  1.00  0.00     0.261 C 
BRANCH   3   4
ATOM      4  O   UNL A   1      35.680  29.491  27.748  1.00  0.00    -0.461 OA
BRANCH   4   5
ATOM      5  C   UNL A   1      34.725  30.403  27.433  1.00  0.00     0.347 C 
ATOM      6  O   UNL A   1      34.840  31.606  27.647  1.00  0.00    -0.248 OA
BRANCH   5   7
ATOM      7  C   UNL A   1      33.488  29.778  26.718  1.00  0.00     0.279 C 
ATOM      8  C   UNL A   1      32.896  28.674  27.596  1.00  0.00     0.066 C 
BRANCH   7   9
ATOM      9  O   UNL A   1      33.394  29.406  25.345  1.00  0.00    -0.479 OA
BRANCH   9  10
ATOM     10  C   UNL A   1      32.230  28.968  24.788  1.00  0.00     0.121 A 
ATOM     11  C   UNL A   1      30.794  27.325  23.707  1.00  0.00    -0.021 A 
ATOM     12  C   UNL A   1      29.828  28.301  23.473  1.00  0.00     0.008 A 
ATOM     13  C   UNL A   1      31.988  27.674  24.360  1.00  0.00     0.054 A 
ATOM     14  C   UNL A   1      30.048  29.604  23.926  1.00  0.00     0.004 A 
ATOM     15  C   UNL A   1      31.241  29.933  24.581  1.00  0.00     0.046 A 
BRANCH  11  16
ATOM     16  C   UNL A   1      30.675  25.946  23.219  1.00  0.00     0.032 C 
ATOM     17  N   UNL A   1      31.572  21.578  25.611  1.00  0.00    -0.234 N 
ATOM     18  C   UNL A   1      31.172  22.820  25.233  1.00  0.00     0.322 C 
ATOM     19  H   UNL A   1      30.934  21.083  26.176  1.00  0.00     0.313 HD
ATOM     20  N   UNL A   1      30.798  23.704  26.098  1.00  0.00    -0.199 N 
ATOM     21  S   UNL A   1      31.025  23.280  23.548  1.00  0.00     0.006 SA
ATOM     22  C   UNL A   1      30.433  24.900  25.529  1.00  0.00     0.346 C 
ATOM     23  H   UNL A   1      30.777  23.538  27.068  1.00  0.00     0.316 HD
ATOM     24  C   UNL A   1      30.636  24.886  24.041  1.00  0.00     0.110 C 
ATOM     25  O   UNL A   1      29.992  25.845  26.161  1.00  0.00    -0.240 OA
BRANCH  17  26
ATOM     26  C   UNL A   1      32.769  20.898  25.308  1.00  0.00     0.129 A 
ATOM     27  C   UNL A   1      33.822  18.753  24.795  1.00  0.00     0.123 A 
ATOM     28  C   UNL A   1      35.069  19.374  24.784  1.00  0.00     0.047 A 
ATOM     29  C   UNL A   1      32.683  19.517  25.055  1.00  0.00     0.098 A 
ATOM     30  C   UNL A   1      35.171  20.748  24.994  1.00  0.00     0.008 A 
ATOM     31  C   UNL A   1      34.024  21.509  25.245  1.00  0.00     0.052 A 
BRANCH  27  32
ATOM     32  O   UNL A   1      33.840  17.404  24.578  1.00  0.00    -0.497 OA
ATOM     33  C   UNL A   1      33.995  16.982  23.227  1.00  0.00     0.278 C 
ENDBRANCH  27  32
ENDBRANCH  17  26
ENDBRANCH  11  16
ENDBRANCH   9  10
ENDBRANCH   7   9
ENDBRANCH   5   7
ENDBRANCH   4   5
ENDBRANCH   3   4
ENDBRANCH   2   3
ENDBRANCH   1   2
BRANCH   1  34
ATOM     34  C   UNL A   1      40.192  27.970  28.341  1.00  0.00     0.188 C 
BRANCH  34  35
ATOM     35  C   UNL A   1      40.528  26.468  28.326  1.00  0.00     0.188 C 
BRANCH  35  36
ATOM     36  O   UNL A   1      40.160  25.801  27.132  1.00  0.00    -0.376 OA
BRANCH  36  37
ATOM     37  C   UNL A   1      39.398  24.619  27.313  1.00  0.00     0.202 C 
BRANCH  37  38
ATOM     38  C   UNL A   1      40.152  23.376  26.832  1.00  0.00     0.261 C 
BRANCH  38  39
ATOM     39  O   UNL A   1      41.553  23.364  27.166  1.00  0.00    -0.460 OA
BRANCH  39  40
ATOM     40  C   UNL A   1      42.429  23.378  26.135  1.00  0.00     0.338 C 
ATOM     41  O   UNL A   1      42.414  22.671  25.146  1.00  0.00    -0.246 OA
BRANCH  40  42
ATOM     42  C   UNL A   1      43.306  24.558  26.309  1.00  0.00     0.060 A 
ATOM     43  C   UNL A   1      43.617  25.349  25.194  1.00  0.00     0.016 A 
ATOM     44  C   UNL A   1      43.794  24.897  27.573  1.00  0.00     0.016 A 
ATOM     45  C   UNL A   1      44.433  26.475  25.340  1.00  0.00     0.010 A 
ATOM     46  C   UNL A   1      44.627  26.010  27.713  1.00  0.00     0.010 A 
ATOM     47  C   UNL A   1      44.969  26.791  26.595  1.00  0.00    -0.014 A 
BRANCH  47  48
ATOM     48  C   UNL A   1      46.026  27.824  26.731  1.00  0.00     0.031 A 
ATOM     49  C   UNL A   1      45.604  29.247  26.969  1.00  0.00     0.074 A 
ATOM     50  C   UNL A   1      47.329  27.520  26.604  1.00  0.00     0.049 A 
ATOM     51  N   UNL A   1      46.326  30.338  26.992  1.00  0.00    -0.248 NA
ATOM     52  C   UNL A   1      44.168  29.468  27.205  1.00  0.00     0.031 C 
ATOM     53  C   UNL A   1      47.871  26.179  26.408  1.00  0.00     0.029 A 
ATOM     54  N   UNL A   1      48.435  28.337  26.597  1.00  0.00    -0.354 N 
ATOM     55  C   UNL A   1      45.434  31.372  27.232  1.00  0.00     0.074 A 
ATOM     56  C   UNL A   1      44.115  30.785  27.330  1.00  0.00     0.031 C 
ATOM     57  C   UNL A   1      49.207  26.266  26.272  1.00  0.00     0.029 A 
ATOM     58  C   UNL A   1      49.607  27.671  26.332  1.00  0.00     0.049 A 
ATOM     59  H   UNL A   1      48.391  29.305  26.766  1.00  0.00     0.167 HD
ATOM     60  C   UNL A   1      45.690  32.696  27.361  1.00  0.00     0.037 A 
ATOM     61  C   UNL A   1      50.851  28.150  26.124  1.00  0.00     0.037 A 
ATOM     62  C   UNL A   1      46.999  33.283  27.260  1.00  0.00     0.049 A 
ATOM     63  C   UNL A   1      51.099  29.636  26.190  1.00  0.00     0.074 A 
ATOM     64  C   UNL A   1      47.364  34.607  27.416  1.00  0.00     0.029 A 
ATOM     65  N   UNL A   1      48.157  32.579  26.965  1.00  0.00    -0.354 N 
ATOM     66  N   UNL A   1      50.258  30.607  26.453  1.00  0.00    -0.248 NA
ATOM     67  C   UNL A   1      52.471  30.094  25.919  1.00  0.00     0.031 C 
ATOM     68  C   UNL A   1      48.735  34.716  27.159  1.00  0.00     0.029 A 
ATOM     69  C   UNL A   1      49.232  33.449  26.895  1.00  0.00     0.049 A 
ATOM     70  H   UNL A   1      48.206  31.606  26.824  1.00  0.00     0.167 HD
ATOM     71  C   UNL A   1      50.998  31.782  26.400  1.00  0.00     0.074 A 
ATOM     72  C   UNL A   1      52.361  31.404  26.093  1.00  0.00     0.031 C 
ATOM     73  C   UNL A   1      50.585  33.059  26.589  1.00  0.00     0.037 A 
BRANCH  60  74
ATOM     74  C   UNL A   1      44.520  33.606  27.591  1.00  0.00     0.064 A 
ATOM     75  C   UNL A   1      43.939  34.339  26.547  1.00  0.00     0.173 A 
ATOM     76  C   UNL A   1      43.959  33.724  28.871  1.00  0.00     0.173 A 
ATOM     77  F   UNL A   1      44.451  34.271  25.308  1.00  0.00    -0.203 F 
ATOM     78  C   UNL A   1      42.853  35.176  26.780  1.00  0.00     0.198 A 
ATOM     79  C   UNL A   1      42.855  34.541  29.096  1.00  0.00     0.198 A 
ATOM     80  F   UNL A   1      44.477  33.042  29.904  1.00  0.00    -0.203 F 
ATOM     81  F   UNL A   1      42.341  35.903  25.777  1.00  0.00    -0.200 F 
ATOM     82  C   UNL A   1      42.307  35.272  28.052  1.00  0.00     0.200 A 
ATOM     83  F   UNL A   1      42.324  34.625  30.323  1.00  0.00    -0.200 F 
ATOM     84  F   UNL A   1      41.258  36.075  28.274  1.00  0.00    -0.200 F 
ENDBRANCH  60  74
BRANCH  61  85
ATOM     85  C   UNL A   1      51.960  27.216  25.796  1.00  0.00     0.064 A 
ATOM     86  C   UNL A   1      52.696  26.581  26.807  1.00  0.00     0.173 A 
ATOM     87  C   UNL A   1      52.323  26.959  24.466  1.00  0.00     0.173 A 
ATOM     88  F   UNL A   1      52.408  26.822  28.095  1.00  0.00    -0.203 F 
ATOM     89  C   UNL A   1      53.761  25.738  26.499  1.00  0.00     0.198 A 
ATOM     90  C   UNL A   1      53.373  26.094  24.159  1.00  0.00     0.198 A 
ATOM     91  F   UNL A   1      51.659  27.549  23.462  1.00  0.00    -0.203 F 
ATOM     92  F   UNL A   1      54.479  25.182  27.485  1.00  0.00    -0.200 F 
ATOM     93  C   UNL A   1      54.095  25.490  25.176  1.00  0.00     0.200 A 
ATOM     94  F   UNL A   1      53.686  25.853  22.879  1.00  0.00    -0.200 F 
ATOM     95  F   UNL A   1      55.119  24.678  24.881  1.00  0.00    -0.200 F 
ENDBRANCH  61  85
BRANCH  73  96
ATOM     96  C   UNL A   1      51.614  34.147  26.491  1.00  0.00     0.064 A 
ATOM     97  C   UNL A   1      51.869  34.810  25.282  1.00  0.00     0.173 A 
ATOM     98  C   UNL A   1      52.306  34.577  27.635  1.00  0.00     0.173 A 
ATOM     99  F   UNL A   1      51.245  34.427  24.158  1.00  0.00    -0.203 F 
ATOM    100  C   UNL A   1      52.788  35.855  25.218  1.00  0.00     0.198 A 
ATOM    101  C   UNL A   1      53.203  35.640  27.573  1.00  0.00     0.198 A 
ATOM    102  F   UNL A   1      52.093  33.982  28.818  1.00  0.00    -0.203 F 
ATOM    103  F   UNL A   1      53.040  36.453  24.045  1.00  0.00    -0.200 F 
ATOM    104  C   UNL A   1      53.446  36.275  26.364  1.00  0.00     0.200 A 
ATOM    105  F   UNL A   1      53.827  36.054  28.684  1.00  0.00    -0.200 F 
ATOM    106  F   UNL A   1      54.319  37.290  26.304  1.00  0.00    -0.200 F 
ENDBRANCH  73  96
ENDBRANCH  47  48
ENDBRANCH  40  42
ENDBRANCH  39  40
ENDBRANCH  38  39
ENDBRANCH  37  38
ENDBRANCH  36  37
ENDBRANCH  35  36
ENDBRANCH  34  35
ENDBRANCH   1  34
TORSDOF 22
ENDMDL
