MODEL 1
REMARK VINA RESULT:     -11.7      0.000      0.000
REMARK SMILES Cn1ccc(-c2n[nH]c(=O)n2-c2ccc(C(=O)OCCOCCOCCOC(=O)c3ccc(-c4c5nc(c(-c6c(F)c(F)c(F)c(F)c6F)c6ccc([nH]6)c(-c6c(F)c(F)c(F)c(F)c6F)c6nc(c(-c7c(F)c(F)c(F)c(F)c7F)c7ccc4[nH]7)C=C6)C=C5)cc3)cc2)n1
REMARK SMILES IDX 22 1 21 2 20 3 19 4 18 5 16 6 17 7 15 8 12 9 13 10 94 11
REMARK SMILES IDX 14 12 93 13 11 14 6 15 7 16 8 17 9 18 10 20 5 21 1 22 2 23
REMARK SMILES IDX 3 24 95 25 4 26 23 27 24 28 25 29 26 30 27 31 28 32 29 33
REMARK SMILES IDX 30 34 31 35 92 36 32 37 91 38 33 39 34 40 35 41 85 42 36 43
REMARK SMILES IDX 90 44 84 45 86 46 37 47 89 48 83 49 82 50 38 52 70 53 50 54
REMARK SMILES IDX 69 55 51 56 54 57 68 58 87 59 52 60 53 61 67 63 88 64 55 65
REMARK SMILES IDX 39 66 40 67 48 68 41 69 42 70 46 71 49 72 43 73 44 74 47 75
REMARK SMILES IDX 45 76 71 77 72 78 80 79 73 80 74 81 78 82 81 83 75 84 76 85
REMARK SMILES IDX 79 86 77 87 56 88 57 89 65 90 58 91 59 92 63 93 66 94 60 95
REMARK SMILES IDX 61 96 64 97 62 98
REMARK H PARENT 8 19 86 51 54 62
REMARK Flexibility Score: inf
ROOT
ATOM      1  C   UNL A   1      40.820  19.772  26.697  1.00  0.00     0.188 C 
ENDROOT
BRANCH   1   2
ATOM      2  O   UNL A   1      39.794  20.009  25.758  1.00  0.00    -0.376 OA
BRANCH   2   3
ATOM      3  C   UNL A   1      39.053  21.216  25.869  1.00  0.00     0.202 C 
BRANCH   3   4
ATOM      4  C   UNL A   1      37.775  21.474  25.041  1.00  0.00     0.261 C 
BRANCH   4   5
ATOM      5  O   UNL A   1      37.364  22.834  24.867  1.00  0.00    -0.460 OA
BRANCH   5   6
ATOM      6  C   UNL A   1      36.495  23.095  23.863  1.00  0.00     0.338 C 
ATOM      7  O   UNL A   1      36.698  22.956  22.670  1.00  0.00    -0.246 OA
BRANCH   6   8
ATOM      8  C   UNL A   1      35.168  23.406  24.448  1.00  0.00     0.060 A 
ATOM      9  C   UNL A   1      32.610  23.979  25.440  1.00  0.00     0.052 A 
ATOM     10  C   UNL A   1      32.800  22.881  24.598  1.00  0.00     0.028 A 
ATOM     11  C   UNL A   1      33.727  24.716  25.869  1.00  0.00     0.028 A 
ATOM     12  C   UNL A   1      34.070  22.620  24.072  1.00  0.00     0.018 A 
ATOM     13  C   UNL A   1      35.006  24.426  25.387  1.00  0.00     0.018 A 
BRANCH   9  14
ATOM     14  N   UNL A   1      31.313  24.394  25.786  1.00  0.00    -0.242 N 
ATOM     15  C   UNL A   1      30.600  25.437  25.265  1.00  0.00     0.189 A 
ATOM     16  N   UNL A   1      29.445  25.657  25.831  1.00  0.00    -0.150 NA
ATOM     17  N   UNL A   1      29.346  24.644  26.752  1.00  0.00    -0.226 N 
ATOM     18  C   UNL A   1      30.476  23.822  26.711  1.00  0.00     0.348 A 
ATOM     19  H   UNL A   1      28.584  24.514  27.359  1.00  0.00     0.195 HD
ATOM     20  O   UNL A   1      30.642  22.826  27.404  1.00  0.00    -0.246 OA
BRANCH  15  21
ATOM     21  C   UNL A   1      31.032  26.170  24.087  1.00  0.00     0.130 A 
ATOM     22  C   UNL A   1      32.372  29.090  22.702  1.00  0.00     0.173 C 
ATOM     23  N   UNL A   1      31.798  27.788  22.940  1.00  0.00    -0.275 N 
ATOM     24  C   UNL A   1      31.505  26.828  22.020  1.00  0.00     0.109 A 
ATOM     25  N   UNL A   1      31.512  27.423  24.198  1.00  0.00    -0.170 NA
ATOM     26  C   UNL A   1      31.039  25.747  22.736  1.00  0.00     0.054 A 
ENDBRANCH  15  21
ENDBRANCH   9  14
ENDBRANCH   6   8
ENDBRANCH   5   6
ENDBRANCH   4   5
ENDBRANCH   3   4
ENDBRANCH   2   3
ENDBRANCH   1   2
BRANCH   1  27
ATOM     27  C   UNL A   1      42.234  20.078  26.155  1.00  0.00     0.188 C 
BRANCH  27  28
ATOM     28  O   UNL A   1      42.769  19.406  25.018  1.00  0.00    -0.376 OA
BRANCH  28  29
ATOM     29  C   UNL A   1      44.131  19.002  24.942  1.00  0.00     0.202 C 
BRANCH  29  30
ATOM     30  C   UNL A   1      45.170  19.822  24.181  1.00  0.00     0.261 C 
BRANCH  30  31
ATOM     31  O   UNL A   1      44.675  21.038  23.657  1.00  0.00    -0.460 OA
BRANCH  31  32
ATOM     32  C   UNL A   1      45.265  22.133  24.169  1.00  0.00     0.338 C 
ATOM     33  O   UNL A   1      46.383  22.558  23.938  1.00  0.00    -0.246 OA
BRANCH  32  34
ATOM     34  C   UNL A   1      44.365  22.715  25.165  1.00  0.00     0.060 A 
ATOM     35  C   UNL A   1      43.426  23.632  24.687  1.00  0.00     0.016 A 
ATOM     36  C   UNL A   1      44.729  22.633  26.514  1.00  0.00     0.016 A 
ATOM     37  C   UNL A   1      43.062  24.667  25.514  1.00  0.00     0.010 A 
ATOM     38  C   UNL A   1      44.402  23.686  27.323  1.00  0.00     0.010 A 
ATOM     39  C   UNL A   1      43.658  24.730  26.775  1.00  0.00    -0.014 A 
BRANCH  39  40
ATOM     40  C   UNL A   1      43.533  25.956  27.526  1.00  0.00     0.031 A 
ATOM     41  C   UNL A   1      44.571  26.956  27.211  1.00  0.00     0.074 A 
ATOM     42  C   UNL A   1      42.444  26.161  28.294  1.00  0.00     0.049 A 
ATOM     43  N   UNL A   1      45.398  27.535  28.016  1.00  0.00    -0.248 NA
ATOM     44  C   UNL A   1      44.807  27.255  25.787  1.00  0.00     0.031 C 
ATOM     45  C   UNL A   1      41.243  25.319  28.377  1.00  0.00     0.029 A 
ATOM     46  N   UNL A   1      42.116  27.236  29.054  1.00  0.00    -0.354 N 
ATOM     47  C   UNL A   1      46.128  28.411  27.220  1.00  0.00     0.074 A 
ATOM     48  C   UNL A   1      45.869  28.052  25.855  1.00  0.00     0.031 C 
ATOM     49  C   UNL A   1      40.245  26.029  28.948  1.00  0.00     0.029 A 
ATOM     50  C   UNL A   1      40.764  27.324  29.352  1.00  0.00     0.049 A 
ATOM     51  H   UNL A   1      42.778  27.895  29.366  1.00  0.00     0.167 HD
ATOM     52  C   UNL A   1      46.645  29.554  27.741  1.00  0.00     0.037 A 
ATOM     53  C   UNL A   1      40.114  28.430  29.792  1.00  0.00     0.037 A 
ATOM     54  C   UNL A   1      46.806  29.448  29.169  1.00  0.00     0.049 A 
ATOM     55  C   UNL A   1      41.140  29.391  30.276  1.00  0.00     0.074 A 
ATOM     56  C   UNL A   1      47.503  28.594  30.002  1.00  0.00     0.029 A 
ATOM     57  N   UNL A   1      45.905  30.100  29.974  1.00  0.00    -0.354 N 
ATOM     58  N   UNL A   1      41.862  29.221  31.348  1.00  0.00    -0.248 NA
ATOM     59  C   UNL A   1      41.667  30.355  29.318  1.00  0.00     0.031 C 
ATOM     60  C   UNL A   1      46.687  28.449  31.161  1.00  0.00     0.029 A 
ATOM     61  C   UNL A   1      45.557  29.248  30.988  1.00  0.00     0.049 A 
ATOM     62  H   UNL A   1      45.569  31.016  29.845  1.00  0.00     0.167 HD
ATOM     63  C   UNL A   1      43.115  29.719  31.014  1.00  0.00     0.074 A 
ATOM     64  C   UNL A   1      42.905  30.499  29.799  1.00  0.00     0.031 C 
ATOM     65  C   UNL A   1      44.244  29.210  31.588  1.00  0.00     0.037 A 
BRANCH  52  66
ATOM     66  C   UNL A   1      46.595  30.882  27.018  1.00  0.00     0.064 A 
ATOM     67  C   UNL A   1      47.761  31.669  26.986  1.00  0.00     0.173 A 
ATOM     68  C   UNL A   1      45.406  31.547  26.638  1.00  0.00     0.173 A 
ATOM     69  F   UNL A   1      48.948  31.146  27.328  1.00  0.00    -0.203 F 
ATOM     70  C   UNL A   1      47.720  33.038  26.706  1.00  0.00     0.198 A 
ATOM     71  C   UNL A   1      45.379  32.899  26.304  1.00  0.00     0.198 A 
ATOM     72  F   UNL A   1      44.203  30.965  26.678  1.00  0.00    -0.203 F 
ATOM     73  F   UNL A   1      48.832  33.772  26.835  1.00  0.00    -0.200 F 
ATOM     74  C   UNL A   1      46.527  33.653  26.378  1.00  0.00     0.200 A 
ATOM     75  F   UNL A   1      44.208  33.477  25.998  1.00  0.00    -0.200 F 
ATOM     76  F   UNL A   1      46.472  34.977  26.183  1.00  0.00    -0.200 F 
ENDBRANCH  52  66
BRANCH  53  77
ATOM     77  C   UNL A   1      38.712  28.834  29.523  1.00  0.00     0.064 A 
ATOM     78  C   UNL A   1      37.846  29.175  30.575  1.00  0.00     0.173 A 
ATOM     79  C   UNL A   1      38.261  29.137  28.222  1.00  0.00     0.173 A 
ATOM     80  F   UNL A   1      38.217  28.968  31.847  1.00  0.00    -0.203 F 
ATOM     81  C   UNL A   1      36.613  29.795  30.341  1.00  0.00     0.198 A 
ATOM     82  C   UNL A   1      37.025  29.741  27.988  1.00  0.00     0.198 A 
ATOM     83  F   UNL A   1      39.048  28.943  27.154  1.00  0.00    -0.203 F 
ATOM     84  F   UNL A   1      35.842  30.162  31.373  1.00  0.00    -0.200 F 
ATOM     85  C   UNL A   1      36.207  30.082  29.048  1.00  0.00     0.200 A 
ATOM     86  F   UNL A   1      36.661  30.044  26.734  1.00  0.00    -0.200 F 
ATOM     87  F   UNL A   1      35.051  30.724  28.825  1.00  0.00    -0.200 F 
ENDBRANCH  53  77
BRANCH  65  88
ATOM     88  C   UNL A   1      44.077  28.333  32.794  1.00  0.00     0.064 A 
ATOM     89  C   UNL A   1      43.874  26.944  32.730  1.00  0.00     0.173 A 
ATOM     90  C   UNL A   1      44.267  28.901  34.061  1.00  0.00     0.173 A 
ATOM     91  F   UNL A   1      43.789  26.315  31.552  1.00  0.00    -0.203 F 
ATOM     92  C   UNL A   1      43.813  26.170  33.886  1.00  0.00     0.198 A 
ATOM     93  C   UNL A   1      44.245  28.119  35.212  1.00  0.00     0.198 A 
ATOM     94  F   UNL A   1      44.524  30.214  34.178  1.00  0.00    -0.203 F 
ATOM     95  F   UNL A   1      43.600  24.849  33.801  1.00  0.00    -0.200 F 
ATOM     96  C   UNL A   1      44.006  26.757  35.126  1.00  0.00     0.200 A 
ATOM     97  F   UNL A   1      44.484  28.683  36.405  1.00  0.00    -0.200 F 
ATOM     98  F   UNL A   1      43.989  26.007  36.236  1.00  0.00    -0.200 F 
ENDBRANCH  65  88
ENDBRANCH  39  40
ENDBRANCH  32  34
ENDBRANCH  31  32
ENDBRANCH  30  31
ENDBRANCH  29  30
ENDBRANCH  28  29
ENDBRANCH  27  28
ENDBRANCH   1  27
TORSDOF 19
ENDMDL
MODEL 2
REMARK VINA RESULT:     -11.5      1.823      2.453
REMARK SMILES Cn1ccc(-c2n[nH]c(=O)n2-c2ccc(C(=O)OCCOCCOCCOC(=O)c3ccc(-c4c5nc(c(-c6c(F)c(F)c(F)c(F)c6F)c6ccc([nH]6)c(-c6c(F)c(F)c(F)c(F)c6F)c6nc(c(-c7c(F)c(F)c(F)c(F)c7F)c7ccc4[nH]7)C=C6)C=C5)cc3)cc2)n1
REMARK SMILES IDX 22 1 21 2 20 3 19 4 18 5 16 6 17 7 15 8 12 9 13 10 94 11
REMARK SMILES IDX 14 12 93 13 11 14 6 15 7 16 8 17 9 18 10 20 5 21 1 22 2 23
REMARK SMILES IDX 3 24 95 25 4 26 23 27 24 28 25 29 26 30 27 31 28 32 29 33
REMARK SMILES IDX 30 34 31 35 92 36 32 37 91 38 33 39 34 40 35 41 85 42 36 43
REMARK SMILES IDX 90 44 84 45 86 46 37 47 89 48 83 49 82 50 38 52 70 53 50 54
REMARK SMILES IDX 69 55 51 56 54 57 68 58 87 59 52 60 53 61 67 63 88 64 55 65
REMARK SMILES IDX 39 66 40 67 48 68 41 69 42 70 46 71 49 72 43 73 44 74 47 75
REMARK SMILES IDX 45 76 71 77 72 78 80 79 73 80 74 81 78 82 81 83 75 84 76 85
REMARK SMILES IDX 79 86 77 87 56 88 57 89 65 90 58 91 59 92 63 93 66 94 60 95
REMARK SMILES IDX 61 96 64 97 62 98
REMARK H PARENT 8 19 86 51 54 62
REMARK Flexibility Score: inf
ROOT
ATOM      1  C   UNL A   1      42.191  19.238  27.553  1.00  0.00     0.188 C 
ENDROOT
BRANCH   1   2
ATOM      2  O   UNL A   1      40.988  19.973  27.628  1.00  0.00    -0.376 OA
BRANCH   2   3
ATOM      3  C   UNL A   1      40.367  20.362  26.411  1.00  0.00     0.202 C 
BRANCH   3   4
ATOM      4  C   UNL A   1      39.981  21.829  26.119  1.00  0.00     0.261 C 
BRANCH   4   5
ATOM      5  O   UNL A   1      38.618  22.097  25.771  1.00  0.00    -0.460 OA
BRANCH   5   6
ATOM      6  C   UNL A   1      38.131  23.322  26.076  1.00  0.00     0.338 C 
ATOM      7  O   UNL A   1      38.709  24.204  26.686  1.00  0.00    -0.246 OA
BRANCH   6   8
ATOM      8  C   UNL A   1      36.831  23.505  25.385  1.00  0.00     0.060 A 
ATOM      9  C   UNL A   1      34.317  23.807  24.184  1.00  0.00     0.052 A 
ATOM     10  C   UNL A   1      34.521  24.252  25.492  1.00  0.00     0.028 A 
ATOM     11  C   UNL A   1      35.409  23.315  23.448  1.00  0.00     0.028 A 
ATOM     12  C   UNL A   1      35.765  24.065  26.104  1.00  0.00     0.018 A 
ATOM     13  C   UNL A   1      36.667  23.174  24.040  1.00  0.00     0.018 A 
BRANCH   9  14
ATOM     14  N   UNL A   1      33.022  23.772  23.638  1.00  0.00    -0.242 N 
ATOM     15  C   UNL A   1      32.229  24.830  23.296  1.00  0.00     0.189 A 
ATOM     16  N   UNL A   1      31.030  24.515  22.888  1.00  0.00    -0.150 NA
ATOM     17  N   UNL A   1      31.045  23.144  22.891  1.00  0.00    -0.226 N 
ATOM     18  C   UNL A   1      32.288  22.660  23.311  1.00  0.00     0.348 A 
ATOM     19  H   UNL A   1      30.285  22.576  22.632  1.00  0.00     0.195 HD
ATOM     20  O   UNL A   1      32.591  21.476  23.382  1.00  0.00    -0.246 OA
BRANCH  15  21
ATOM     21  C   UNL A   1      32.717  26.199  23.265  1.00  0.00     0.130 A 
ATOM     22  C   UNL A   1      32.772  29.393  24.694  1.00  0.00     0.173 C 
ATOM     23  N   UNL A   1      32.951  28.225  23.864  1.00  0.00    -0.275 N 
ATOM     24  C   UNL A   1      33.713  28.113  22.741  1.00  0.00     0.109 A 
ATOM     25  N   UNL A   1      32.328  27.087  24.199  1.00  0.00    -0.170 NA
ATOM     26  C   UNL A   1      33.613  26.797  22.346  1.00  0.00     0.054 A 
ENDBRANCH  15  21
ENDBRANCH   9  14
ENDBRANCH   6   8
ENDBRANCH   5   6
ENDBRANCH   4   5
ENDBRANCH   3   4
ENDBRANCH   2   3
ENDBRANCH   1   2
BRANCH   1  27
ATOM     27  C   UNL A   1      42.505  18.714  26.134  1.00  0.00     0.188 C 
BRANCH  27  28
ATOM     28  O   UNL A   1      43.825  18.727  25.600  1.00  0.00    -0.376 OA
BRANCH  28  29
ATOM     29  C   UNL A   1      44.286  19.753  24.729  1.00  0.00     0.202 C 
BRANCH  29  30
ATOM     30  C   UNL A   1      44.483  21.188  25.213  1.00  0.00     0.261 C 
BRANCH  30  31
ATOM     31  O   UNL A   1      43.343  22.009  25.062  1.00  0.00    -0.460 OA
BRANCH  31  32
ATOM     32  C   UNL A   1      43.619  23.325  25.036  1.00  0.00     0.338 C 
ATOM     33  O   UNL A   1      44.484  23.897  24.397  1.00  0.00    -0.246 OA
BRANCH  32  34
ATOM     34  C   UNL A   1      42.751  23.994  26.006  1.00  0.00     0.060 A 
ATOM     35  C   UNL A   1      41.945  25.021  25.509  1.00  0.00     0.016 A 
ATOM     36  C   UNL A   1      43.046  23.852  27.367  1.00  0.00     0.016 A 
ATOM     37  C   UNL A   1      41.668  26.079  26.340  1.00  0.00     0.010 A 
ATOM     38  C   UNL A   1      42.810  24.924  28.182  1.00  0.00     0.010 A 
ATOM     39  C   UNL A   1      42.215  26.055  27.625  1.00  0.00    -0.014 A 
BRANCH  39  40
ATOM     40  C   UNL A   1      42.200  27.276  28.393  1.00  0.00     0.031 A 
ATOM     41  C   UNL A   1      43.341  28.170  28.111  1.00  0.00     0.074 A 
ATOM     42  C   UNL A   1      41.124  27.580  29.145  1.00  0.00     0.049 A 
ATOM     43  N   UNL A   1      44.206  28.651  28.940  1.00  0.00    -0.248 NA
ATOM     44  C   UNL A   1      43.632  28.464  26.697  1.00  0.00     0.031 C 
ATOM     45  C   UNL A   1      39.842  26.864  29.195  1.00  0.00     0.029 A 
ATOM     46  N   UNL A   1      40.892  28.672  29.917  1.00  0.00    -0.354 N 
ATOM     47  C   UNL A   1      45.037  29.459  28.170  1.00  0.00     0.074 A 
ATOM     48  C   UNL A   1      44.768  29.148  26.796  1.00  0.00     0.031 C 
ATOM     49  C   UNL A   1      38.911  27.663  29.759  1.00  0.00     0.029 A 
ATOM     50  C   UNL A   1      39.551  28.893  30.194  1.00  0.00     0.049 A 
ATOM     51  H   UNL A   1      41.612  29.256  30.251  1.00  0.00     0.167 HD
ATOM     52  C   UNL A   1      45.657  30.536  28.718  1.00  0.00     0.037 A 
ATOM     53  C   UNL A   1      39.008  30.053  30.640  1.00  0.00     0.037 A 
ATOM     54  C   UNL A   1      45.780  30.394  30.147  1.00  0.00     0.049 A 
ATOM     55  C   UNL A   1      40.117  30.898  31.156  1.00  0.00     0.074 A 
ATOM     56  C   UNL A   1      46.371  29.462  30.978  1.00  0.00     0.029 A 
ATOM     57  N   UNL A   1      44.935  31.122  30.946  1.00  0.00    -0.354 N 
ATOM     58  N   UNL A   1      40.799  30.640  32.237  1.00  0.00    -0.248 NA
ATOM     59  C   UNL A   1      40.758  31.816  30.223  1.00  0.00     0.031 C 
ATOM     60  C   UNL A   1      45.523  29.384  32.121  1.00  0.00     0.029 A 
ATOM     61  C   UNL A   1      44.484  30.296  31.941  1.00  0.00     0.049 A 
ATOM     62  H   UNL A   1      44.696  32.070  30.827  1.00  0.00     0.167 HD
ATOM     63  C   UNL A   1      42.101  31.013  31.933  1.00  0.00     0.074 A 
ATOM     64  C   UNL A   1      41.994  31.827  30.728  1.00  0.00     0.031 C 
ATOM     65  C   UNL A   1      43.163  30.384  32.518  1.00  0.00     0.037 A 
BRANCH  52  66
ATOM     66  C   UNL A   1      45.755  31.873  28.015  1.00  0.00     0.064 A 
ATOM     67  C   UNL A   1      44.566  32.492  27.588  1.00  0.00     0.173 A 
ATOM     68  C   UNL A   1      46.946  32.409  27.472  1.00  0.00     0.173 A 
ATOM     69  F   UNL A   1      43.375  32.066  28.035  1.00  0.00    -0.203 F 
ATOM     70  C   UNL A   1      44.565  33.491  26.611  1.00  0.00     0.198 A 
ATOM     71  C   UNL A   1      46.943  33.445  26.541  1.00  0.00     0.198 A 
ATOM     72  F   UNL A   1      48.155  31.894  27.720  1.00  0.00    -0.203 F 
ATOM     73  F   UNL A   1      43.400  33.943  26.131  1.00  0.00    -0.200 F 
ATOM     74  C   UNL A   1      45.752  33.957  26.080  1.00  0.00     0.200 A 
ATOM     75  F   UNL A   1      48.107  33.874  26.031  1.00  0.00    -0.200 F 
ATOM     76  F   UNL A   1      45.749  34.861  25.091  1.00  0.00    -0.200 F 
ENDBRANCH  52  66
BRANCH  53  77
ATOM     77  C   UNL A   1      37.660  30.601  30.353  1.00  0.00     0.064 A 
ATOM     78  C   UNL A   1      36.817  31.020  31.395  1.00  0.00     0.173 A 
ATOM     79  C   UNL A   1      37.264  30.960  29.049  1.00  0.00     0.173 A 
ATOM     80  F   UNL A   1      37.143  30.765  32.671  1.00  0.00    -0.203 F 
ATOM     81  C   UNL A   1      35.658  31.765  31.148  1.00  0.00     0.198 A 
ATOM     82  C   UNL A   1      36.100  31.689  28.802  1.00  0.00     0.198 A 
ATOM     83  F   UNL A   1      38.044  30.696  27.991  1.00  0.00    -0.203 F 
ATOM     84  F   UNL A   1      34.912  32.201  32.173  1.00  0.00    -0.200 F 
ATOM     85  C   UNL A   1      35.304  32.104  29.853  1.00  0.00     0.200 A 
ATOM     86  F   UNL A   1      35.790  32.040  27.546  1.00  0.00    -0.200 F 
ATOM     87  F   UNL A   1      34.224  32.863  29.619  1.00  0.00    -0.200 F 
ENDBRANCH  53  77
BRANCH  65  88
ATOM     88  C   UNL A   1      42.884  29.511  33.707  1.00  0.00     0.064 A 
ATOM     89  C   UNL A   1      42.467  28.172  33.615  1.00  0.00     0.173 A 
ATOM     90  C   UNL A   1      43.186  30.009  34.982  1.00  0.00     0.173 A 
ATOM     91  F   UNL A   1      42.262  27.595  32.425  1.00  0.00    -0.203 F 
ATOM     92  C   UNL A   1      42.309  27.386  34.754  1.00  0.00     0.198 A 
ATOM     93  C   UNL A   1      43.065  29.209  36.114  1.00  0.00     0.198 A 
ATOM     94  F   UNL A   1      43.646  31.262  35.124  1.00  0.00    -0.203 F 
ATOM     95  F   UNL A   1      41.892  26.117  34.642  1.00  0.00    -0.200 F 
ATOM     96  C   UNL A   1      42.616  27.903  36.002  1.00  0.00     0.200 A 
ATOM     97  F   UNL A   1      43.412  29.697  37.314  1.00  0.00    -0.200 F 
ATOM     98  F   UNL A   1      42.505  27.135  37.095  1.00  0.00    -0.200 F 
ENDBRANCH  65  88
ENDBRANCH  39  40
ENDBRANCH  32  34
ENDBRANCH  31  32
ENDBRANCH  30  31
ENDBRANCH  29  30
ENDBRANCH  28  29
ENDBRANCH  27  28
ENDBRANCH   1  27
TORSDOF 19
ENDMDL
MODEL 3
REMARK VINA RESULT:     -11.4      1.612      1.934
REMARK SMILES Cn1ccc(-c2n[nH]c(=O)n2-c2ccc(C(=O)OCCOCCOCCOC(=O)c3ccc(-c4c5nc(c(-c6c(F)c(F)c(F)c(F)c6F)c6ccc([nH]6)c(-c6c(F)c(F)c(F)c(F)c6F)c6nc(c(-c7c(F)c(F)c(F)c(F)c7F)c7ccc4[nH]7)C=C6)C=C5)cc3)cc2)n1
REMARK SMILES IDX 22 1 21 2 20 3 19 4 18 5 16 6 17 7 15 8 12 9 13 10 94 11
REMARK SMILES IDX 14 12 93 13 11 14 6 15 7 16 8 17 9 18 10 20 5 21 1 22 2 23
REMARK SMILES IDX 3 24 95 25 4 26 23 27 24 28 25 29 26 30 27 31 28 32 29 33
REMARK SMILES IDX 30 34 31 35 92 36 32 37 91 38 33 39 34 40 35 41 85 42 36 43
REMARK SMILES IDX 90 44 84 45 86 46 37 47 89 48 83 49 82 50 38 52 70 53 50 54
REMARK SMILES IDX 69 55 51 56 54 57 68 58 87 59 52 60 53 61 67 63 88 64 55 65
REMARK SMILES IDX 39 66 40 67 48 68 41 69 42 70 46 71 49 72 43 73 44 74 47 75
REMARK SMILES IDX 45 76 71 77 72 78 80 79 73 80 74 81 78 82 81 83 75 84 76 85
REMARK SMILES IDX 79 86 77 87 56 88 57 89 65 90 58 91 59 92 63 93 66 94 60 95
REMARK SMILES IDX 61 96 64 97 62 98
REMARK H PARENT 8 19 86 51 54 62
REMARK Flexibility Score: inf
ROOT
ATOM      1  C   UNL A   1      41.647  20.226  26.534  1.00  0.00     0.188 C 
ENDROOT
BRANCH   1   2
ATOM      2  O   UNL A   1      40.284  20.167  26.170  1.00  0.00    -0.376 OA
BRANCH   2   3
ATOM      3  C   UNL A   1      39.595  21.392  25.967  1.00  0.00     0.202 C 
BRANCH   3   4
ATOM      4  C   UNL A   1      38.175  21.444  25.358  1.00  0.00     0.261 C 
BRANCH   4   5
ATOM      5  O   UNL A   1      37.498  22.705  25.368  1.00  0.00    -0.460 OA
BRANCH   5   6
ATOM      6  C   UNL A   1      36.704  22.990  24.310  1.00  0.00     0.338 C 
ATOM      7  O   UNL A   1      37.015  22.939  23.133  1.00  0.00    -0.246 OA
BRANCH   6   8
ATOM      8  C   UNL A   1      35.319  23.201  24.794  1.00  0.00     0.060 A 
ATOM      9  C   UNL A   1      32.682  23.681  25.615  1.00  0.00     0.052 A 
ATOM     10  C   UNL A   1      32.958  23.434  24.268  1.00  0.00     0.028 A 
ATOM     11  C   UNL A   1      33.719  23.573  26.558  1.00  0.00     0.028 A 
ATOM     12  C   UNL A   1      34.279  23.235  23.854  1.00  0.00     0.018 A 
ATOM     13  C   UNL A   1      35.033  23.322  26.155  1.00  0.00     0.018 A 
BRANCH   9  14
ATOM     14  N   UNL A   1      31.405  24.113  26.012  1.00  0.00    -0.242 N 
ATOM     15  C   UNL A   1      30.965  25.399  26.156  1.00  0.00     0.189 A 
ATOM     16  N   UNL A   1      29.752  25.519  26.624  1.00  0.00    -0.150 NA
ATOM     17  N   UNL A   1      29.325  24.220  26.736  1.00  0.00    -0.226 N 
ATOM     18  C   UNL A   1      30.321  23.331  26.319  1.00  0.00     0.348 A 
ATOM     19  H   UNL A   1      28.439  23.950  27.065  1.00  0.00     0.195 HD
ATOM     20  O   UNL A   1      30.202  22.113  26.286  1.00  0.00    -0.246 OA
BRANCH  15  21
ATOM     21  C   UNL A   1      31.733  26.547  25.706  1.00  0.00     0.130 A 
ATOM     22  C   UNL A   1      34.145  28.990  26.383  1.00  0.00     0.173 C 
ATOM     23  N   UNL A   1      33.125  28.151  25.800  1.00  0.00    -0.275 N 
ATOM     24  C   UNL A   1      32.593  28.236  24.550  1.00  0.00     0.109 A 
ATOM     25  N   UNL A   1      32.616  27.145  26.526  1.00  0.00    -0.170 NA
ATOM     26  C   UNL A   1      31.710  27.185  24.441  1.00  0.00     0.054 A 
ENDBRANCH  15  21
ENDBRANCH   9  14
ENDBRANCH   6   8
ENDBRANCH   5   6
ENDBRANCH   4   5
ENDBRANCH   3   4
ENDBRANCH   2   3
ENDBRANCH   1   2
BRANCH   1  27
ATOM     27  C   UNL A   1      42.535  19.225  25.762  1.00  0.00     0.188 C 
BRANCH  27  28
ATOM     28  O   UNL A   1      43.523  19.654  24.830  1.00  0.00    -0.376 OA
BRANCH  28  29
ATOM     29  C   UNL A   1      44.809  20.108  25.237  1.00  0.00     0.202 C 
BRANCH  29  30
ATOM     30  C   UNL A   1      45.188  21.587  25.197  1.00  0.00     0.261 C 
BRANCH  30  31
ATOM     31  O   UNL A   1      44.358  22.417  25.983  1.00  0.00    -0.460 OA
BRANCH  31  32
ATOM     32  C   UNL A   1      43.407  23.059  25.281  1.00  0.00     0.338 C 
ATOM     33  O   UNL A   1      43.291  23.132  24.071  1.00  0.00    -0.246 OA
BRANCH  32  34
ATOM     34  C   UNL A   1      42.544  23.771  26.224  1.00  0.00     0.060 A 
ATOM     35  C   UNL A   1      41.768  24.804  25.693  1.00  0.00     0.016 A 
ATOM     36  C   UNL A   1      42.821  23.656  27.592  1.00  0.00     0.016 A 
ATOM     37  C   UNL A   1      41.508  25.888  26.495  1.00  0.00     0.010 A 
ATOM     38  C   UNL A   1      42.602  24.753  28.377  1.00  0.00     0.010 A 
ATOM     39  C   UNL A   1      42.040  25.883  27.786  1.00  0.00    -0.014 A 
BRANCH  39  40
ATOM     40  C   UNL A   1      42.046  27.123  28.524  1.00  0.00     0.031 A 
ATOM     41  C   UNL A   1      43.210  27.983  28.233  1.00  0.00     0.074 A 
ATOM     42  C   UNL A   1      40.970  27.470  29.257  1.00  0.00     0.049 A 
ATOM     43  N   UNL A   1      44.078  28.464  29.059  1.00  0.00    -0.248 NA
ATOM     44  C   UNL A   1      43.522  28.235  26.815  1.00  0.00     0.031 C 
ATOM     45  C   UNL A   1      39.671  26.784  29.311  1.00  0.00     0.029 A 
ATOM     46  N   UNL A   1      40.755  28.586  30.000  1.00  0.00    -0.354 N 
ATOM     47  C   UNL A   1      44.934  29.234  28.279  1.00  0.00     0.074 A 
ATOM     48  C   UNL A   1      44.672  28.895  26.909  1.00  0.00     0.031 C 
ATOM     49  C   UNL A   1      38.753  27.619  29.846  1.00  0.00     0.029 A 
ATOM     50  C   UNL A   1      39.417  28.844  30.257  1.00  0.00     0.049 A 
ATOM     51  H   UNL A   1      41.485  29.160  30.327  1.00  0.00     0.167 HD
ATOM     52  C   UNL A   1      45.574  30.310  28.807  1.00  0.00     0.037 A 
ATOM     53  C   UNL A   1      38.897  30.027  30.668  1.00  0.00     0.037 A 
ATOM     54  C   UNL A   1      45.679  30.200  30.240  1.00  0.00     0.049 A 
ATOM     55  C   UNL A   1      40.020  30.858  31.176  1.00  0.00     0.074 A 
ATOM     56  C   UNL A   1      46.240  29.275  31.099  1.00  0.00     0.029 A 
ATOM     57  N   UNL A   1      44.843  30.967  31.012  1.00  0.00    -0.354 N 
ATOM     58  N   UNL A   1      40.684  30.611  32.270  1.00  0.00    -0.248 NA
ATOM     59  C   UNL A   1      40.691  31.739  30.228  1.00  0.00     0.031 C 
ATOM     60  C   UNL A   1      45.379  29.244  32.234  1.00  0.00     0.029 A 
ATOM     61  C   UNL A   1      44.363  30.176  32.021  1.00  0.00     0.049 A 
ATOM     62  H   UNL A   1      44.627  31.916  30.867  1.00  0.00     0.167 HD
ATOM     63  C   UNL A   1      41.998  30.946  31.971  1.00  0.00     0.074 A 
ATOM     64  C   UNL A   1      41.922  31.733  30.745  1.00  0.00     0.031 C 
ATOM     65  C   UNL A   1      43.039  30.308  32.582  1.00  0.00     0.037 A 
BRANCH  52  66
ATOM     66  C   UNL A   1      45.710  31.626  28.072  1.00  0.00     0.064 A 
ATOM     67  C   UNL A   1      46.980  32.231  28.017  1.00  0.00     0.173 A 
ATOM     68  C   UNL A   1      44.627  32.458  27.705  1.00  0.00     0.173 A 
ATOM     69  F   UNL A   1      48.081  31.539  28.346  1.00  0.00    -0.203 F 
ATOM     70  C   UNL A   1      47.138  33.588  27.726  1.00  0.00     0.198 A 
ATOM     71  C   UNL A   1      44.796  33.796  27.360  1.00  0.00     0.198 A 
ATOM     72  F   UNL A   1      43.352  32.061  27.768  1.00  0.00    -0.203 F 
ATOM     73  F   UNL A   1      48.348  34.150  27.832  1.00  0.00    -0.200 F 
ATOM     74  C   UNL A   1      46.044  34.372  27.410  1.00  0.00     0.200 A 
ATOM     75  F   UNL A   1      43.719  34.540  27.066  1.00  0.00    -0.200 F 
ATOM     76  F   UNL A   1      46.184  35.688  27.204  1.00  0.00    -0.200 F 
ENDBRANCH  52  66
BRANCH  53  77
ATOM     77  C   UNL A   1      37.564  30.599  30.354  1.00  0.00     0.064 A 
ATOM     78  C   UNL A   1      36.698  31.011  31.380  1.00  0.00     0.173 A 
ATOM     79  C   UNL A   1      37.210  30.985  29.046  1.00  0.00     0.173 A 
ATOM     80  F   UNL A   1      36.986  30.731  32.659  1.00  0.00    -0.203 F 
ATOM     81  C   UNL A   1      35.557  31.777  31.114  1.00  0.00     0.198 A 
ATOM     82  C   UNL A   1      36.063  31.734  28.780  1.00  0.00     0.198 A 
ATOM     83  F   UNL A   1      38.015  30.727  28.006  1.00  0.00    -0.203 F 
ATOM     84  F   UNL A   1      34.789  32.206  32.125  1.00  0.00    -0.200 F 
ATOM     85  C   UNL A   1      35.244  32.142  29.815  1.00  0.00     0.200 A 
ATOM     86  F   UNL A   1      35.792  32.110  27.522  1.00  0.00    -0.200 F 
ATOM     87  F   UNL A   1      34.182  32.920  29.565  1.00  0.00    -0.200 F 
ENDBRANCH  53  77
BRANCH  65  88
ATOM     88  C   UNL A   1      42.728  29.471  33.789  1.00  0.00     0.064 A 
ATOM     89  C   UNL A   1      42.288  28.138  33.725  1.00  0.00     0.173 A 
ATOM     90  C   UNL A   1      43.021  29.996  35.055  1.00  0.00     0.173 A 
ATOM     91  F   UNL A   1      42.089  27.535  32.548  1.00  0.00    -0.203 F 
ATOM     92  C   UNL A   1      42.101  27.385  34.882  1.00  0.00     0.198 A 
ATOM     93  C   UNL A   1      42.871  29.228  36.205  1.00  0.00     0.198 A 
ATOM     94  F   UNL A   1      43.502  31.245  35.171  1.00  0.00    -0.203 F 
ATOM     95  F   UNL A   1      41.662  26.121  34.797  1.00  0.00    -0.200 F 
ATOM     96  C   UNL A   1      42.399  27.928  36.121  1.00  0.00     0.200 A 
ATOM     97  F   UNL A   1      43.210  29.741  37.397  1.00  0.00    -0.200 F 
ATOM     98  F   UNL A   1      42.259  27.191  37.231  1.00  0.00    -0.200 F 
ENDBRANCH  65  88
ENDBRANCH  39  40
ENDBRANCH  32  34
ENDBRANCH  31  32
ENDBRANCH  30  31
ENDBRANCH  29  30
ENDBRANCH  28  29
ENDBRANCH  27  28
ENDBRANCH   1  27
TORSDOF 19
ENDMDL
