MODEL 1
REMARK VINA RESULT:     -11.0      0.000      0.000
REMARK SMILES CCCc1c(C(=O)OCCOCCOCCOC(=O)c2ccc(-c3c4nc(c(-c5c(F)c(F)c(F)c(F)c5F)c5ccc([nH]5)c(-c5c(F)c(F)c(F)c(F)c5F)c5nc(c(-c6c(F)c(F)c(F)c(F)c6F)c6ccc3[nH]6)C=C5)C=C4)cc2)nnn1-c1cccc(C(F)(F)F)c1
REMARK SMILES IDX 12 1 11 2 10 3 9 4 8 5 6 6 7 7 5 8 4 9 85 10 83 11 84 12
REMARK SMILES IDX 3 13 2 14 1 15 86 16 87 17 95 18 88 19 90 20 89 21 91 22
REMARK SMILES IDX 92 23 93 24 94 25 13 26 14 27 15 28 16 29 17 30 18 31 19 32
REMARK SMILES IDX 20 33 21 34 82 35 22 36 81 37 23 38 24 39 25 40 75 41 26 42
REMARK SMILES IDX 80 43 74 44 76 45 27 46 79 47 73 48 72 49 28 51 60 52 40 53
REMARK SMILES IDX 59 54 41 55 44 56 58 57 77 58 42 59 43 60 57 62 78 63 45 64
REMARK SMILES IDX 29 65 30 66 38 67 31 68 32 69 36 70 39 71 33 72 34 73 37 74
REMARK SMILES IDX 35 75 61 76 62 77 70 78 63 79 64 80 68 81 71 82 65 83 66 84
REMARK SMILES IDX 69 85 67 86 46 87 47 88 55 89 48 90 49 91 53 92 56 93 50 94
REMARK SMILES IDX 51 95 54 96 52 97
REMARK H PARENT 76 50 44 61
REMARK Flexibility Score: inf
ROOT
ATOM      1  C   UNL A   1      40.412  19.881  26.101  1.00  0.00     0.188 C 
ENDROOT
BRANCH   1   2
ATOM      2  O   UNL A   1      40.322  21.258  26.384  1.00  0.00    -0.376 OA
BRANCH   2   3
ATOM      3  C   UNL A   1      39.145  21.987  26.082  1.00  0.00     0.202 C 
BRANCH   3   4
ATOM      4  C   UNL A   1      37.859  21.389  25.470  1.00  0.00     0.261 C 
BRANCH   4   5
ATOM      5  O   UNL A   1      36.728  22.258  25.332  1.00  0.00    -0.458 OA
BRANCH   5   6
ATOM      6  C   UNL A   1      35.648  21.730  24.672  1.00  0.00     0.360 C 
ATOM      7  O   UNL A   1      35.351  20.553  24.690  1.00  0.00    -0.244 OA
BRANCH   6   8
ATOM      8  C   UNL A   1      34.790  22.752  24.070  1.00  0.00     0.194 A 
ATOM      9  C   UNL A   1      33.548  23.257  24.440  1.00  0.00     0.079 A 
ATOM     10  N   UNL A   1      33.297  24.219  23.470  1.00  0.00    -0.217 N 
ATOM     11  N   UNL A   1      35.142  23.292  22.852  1.00  0.00    -0.122 NA
ATOM     12  N   UNL A   1      34.177  24.107  22.457  1.00  0.00    -0.061 NA
BRANCH   9  13
ATOM     13  C   UNL A   1      32.557  22.851  25.494  1.00  0.00     0.059 C 
BRANCH  13  14
ATOM     14  C   UNL A   1      32.885  23.303  26.918  1.00  0.00     0.003 C 
ATOM     15  C   UNL A   1      33.732  22.292  27.686  1.00  0.00     0.004 C 
ENDBRANCH  13  14
ENDBRANCH   9  13
BRANCH  10  16
ATOM     16  C   UNL A   1      32.557  25.406  23.597  1.00  0.00     0.067 A 
ATOM     17  C   UNL A   1      31.465  25.651  22.765  1.00  0.00     0.028 A 
ATOM     18  C   UNL A   1      32.942  26.326  24.579  1.00  0.00     0.041 A 
ATOM     19  C   UNL A   1      30.698  26.796  22.987  1.00  0.00     0.003 A 
ATOM     20  C   UNL A   1      32.164  27.465  24.817  1.00  0.00     0.058 A 
ATOM     21  C   UNL A   1      31.036  27.688  24.013  1.00  0.00     0.013 A 
BRANCH  20  22
ATOM     22  C   UNL A   1      32.497  28.392  25.961  1.00  0.00     0.416 C 
ATOM     23  F   UNL A   1      33.374  29.371  25.612  1.00  0.00    -0.166 F 
ATOM     24  F   UNL A   1      31.392  29.026  26.444  1.00  0.00    -0.166 F 
ATOM     25  F   UNL A   1      33.049  27.753  27.030  1.00  0.00    -0.166 F 
ENDBRANCH  20  22
ENDBRANCH  10  16
ENDBRANCH   6   8
ENDBRANCH   5   6
ENDBRANCH   4   5
ENDBRANCH   3   4
ENDBRANCH   2   3
ENDBRANCH   1   2
BRANCH   1  26
ATOM     26  C   UNL A   1      41.776  19.166  26.203  1.00  0.00     0.188 C 
BRANCH  26  27
ATOM     27  O   UNL A   1      42.982  19.883  26.370  1.00  0.00    -0.376 OA
BRANCH  27  28
ATOM     28  C   UNL A   1      43.776  20.407  25.315  1.00  0.00     0.202 C 
BRANCH  28  29
ATOM     29  C   UNL A   1      44.059  21.883  25.048  1.00  0.00     0.261 C 
BRANCH  29  30
ATOM     30  O   UNL A   1      42.913  22.673  24.859  1.00  0.00    -0.460 OA
BRANCH  30  31
ATOM     31  C   UNL A   1      43.108  23.962  25.202  1.00  0.00     0.338 C 
ATOM     32  O   UNL A   1      43.985  24.709  24.810  1.00  0.00    -0.246 OA
BRANCH  31  33
ATOM     33  C   UNL A   1      42.103  24.323  26.209  1.00  0.00     0.060 A 
ATOM     34  C   UNL A   1      41.177  25.266  25.764  1.00  0.00     0.016 A 
ATOM     35  C   UNL A   1      42.525  24.231  27.540  1.00  0.00     0.016 A 
ATOM     36  C   UNL A   1      40.998  26.371  26.550  1.00  0.00     0.010 A 
ATOM     37  C   UNL A   1      42.392  25.355  28.301  1.00  0.00     0.010 A 
ATOM     38  C   UNL A   1      41.722  26.442  27.745  1.00  0.00    -0.014 A 
BRANCH  38  39
ATOM     39  C   UNL A   1      41.675  27.676  28.486  1.00  0.00     0.031 A 
ATOM     40  C   UNL A   1      42.853  28.510  28.188  1.00  0.00     0.074 A 
ATOM     41  C   UNL A   1      40.608  28.003  29.236  1.00  0.00     0.049 A 
ATOM     42  N   UNL A   1      43.819  28.822  28.985  1.00  0.00    -0.248 NA
ATOM     43  C   UNL A   1      43.110  28.833  26.772  1.00  0.00     0.031 C 
ATOM     44  C   UNL A   1      39.322  27.301  29.333  1.00  0.00     0.029 A 
ATOM     45  N   UNL A   1      40.408  29.111  29.994  1.00  0.00    -0.354 N 
ATOM     46  C   UNL A   1      44.691  29.575  28.207  1.00  0.00     0.074 A 
ATOM     47  C   UNL A   1      44.345  29.323  26.839  1.00  0.00     0.031 C 
ATOM     48  C   UNL A   1      38.413  28.117  29.915  1.00  0.00     0.029 A 
ATOM     49  C   UNL A   1      39.078  29.340  30.329  1.00  0.00     0.049 A 
ATOM     50  H   UNL A   1      41.142  29.702  30.280  1.00  0.00     0.167 HD
ATOM     51  C   UNL A   1      45.375  30.609  28.761  1.00  0.00     0.037 A 
ATOM     52  C   UNL A   1      38.582  30.506  30.813  1.00  0.00     0.037 A 
ATOM     53  C   UNL A   1      45.446  30.454  30.195  1.00  0.00     0.049 A 
ATOM     54  C   UNL A   1      39.734  31.294  31.323  1.00  0.00     0.074 A 
ATOM     55  C   UNL A   1      45.997  29.521  31.049  1.00  0.00     0.029 A 
ATOM     56  N   UNL A   1      44.542  31.171  30.939  1.00  0.00    -0.354 N 
ATOM     57  N   UNL A   1      40.435  30.958  32.370  1.00  0.00    -0.248 NA
ATOM     58  C   UNL A   1      40.393  32.210  30.403  1.00  0.00     0.031 C 
ATOM     59  C   UNL A   1      45.111  29.458  32.164  1.00  0.00     0.029 A 
ATOM     60  C   UNL A   1      44.090  30.389  31.967  1.00  0.00     0.049 A 
ATOM     61  H   UNL A   1      44.265  32.098  30.762  1.00  0.00     0.167 HD
ATOM     62  C   UNL A   1      41.747  31.259  32.031  1.00  0.00     0.074 A 
ATOM     63  C   UNL A   1      41.646  32.122  30.858  1.00  0.00     0.031 C 
ATOM     64  C   UNL A   1      42.778  30.535  32.556  1.00  0.00     0.037 A 
BRANCH  51  65
ATOM     65  C   UNL A   1      45.528  31.958  28.084  1.00  0.00     0.064 A 
ATOM     66  C   UNL A   1      44.356  32.652  27.725  1.00  0.00     0.173 A 
ATOM     67  C   UNL A   1      46.718  32.444  27.491  1.00  0.00     0.173 A 
ATOM     68  F   UNL A   1      43.166  32.287  28.228  1.00  0.00    -0.203 F 
ATOM     69  C   UNL A   1      44.359  33.662  26.762  1.00  0.00     0.198 A 
ATOM     70  C   UNL A   1      46.724  33.486  26.567  1.00  0.00     0.198 A 
ATOM     71  F   UNL A   1      47.914  31.883  27.683  1.00  0.00    -0.203 F 
ATOM     72  F   UNL A   1      43.200  34.189  26.350  1.00  0.00    -0.200 F 
ATOM     73  C   UNL A   1      45.542  34.068  26.172  1.00  0.00     0.200 A 
ATOM     74  F   UNL A   1      47.882  33.854  26.002  1.00  0.00    -0.200 F 
ATOM     75  F   UNL A   1      45.540  34.982  25.195  1.00  0.00    -0.200 F 
ENDBRANCH  51  65
BRANCH  52  76
ATOM     76  C   UNL A   1      37.259  31.119  30.547  1.00  0.00     0.064 A 
ATOM     77  C   UNL A   1      36.373  31.417  31.598  1.00  0.00     0.173 A 
ATOM     78  C   UNL A   1      36.946  31.677  29.292  1.00  0.00     0.173 A 
ATOM     79  F   UNL A   1      36.624  30.969  32.837  1.00  0.00    -0.203 F 
ATOM     80  C   UNL A   1      35.255  32.236  31.406  1.00  0.00     0.198 A 
ATOM     81  C   UNL A   1      35.827  32.487  29.100  1.00  0.00     0.198 A 
ATOM     82  F   UNL A   1      37.773  31.527  28.248  1.00  0.00    -0.203 F 
ATOM     83  F   UNL A   1      34.467  32.545  32.445  1.00  0.00    -0.200 F 
ATOM     84  C   UNL A   1      34.988  32.777  30.159  1.00  0.00     0.200 A 
ATOM     85  F   UNL A   1      35.604  33.037  27.898  1.00  0.00    -0.200 F 
ATOM     86  F   UNL A   1      33.951  33.609  29.988  1.00  0.00    -0.200 F 
ENDBRANCH  52  76
BRANCH  64  87
ATOM     87  C   UNL A   1      42.466  29.650  33.731  1.00  0.00     0.064 A 
ATOM     88  C   UNL A   1      41.997  28.330  33.623  1.00  0.00     0.173 A 
ATOM     89  C   UNL A   1      42.779  30.123  35.012  1.00  0.00     0.173 A 
ATOM     90  F   UNL A   1      41.767  27.776  32.426  1.00  0.00    -0.203 F 
ATOM     91  C   UNL A   1      41.809  27.536  34.754  1.00  0.00     0.198 A 
ATOM     92  C   UNL A   1      42.627  29.316  36.135  1.00  0.00     0.198 A 
ATOM     93  F   UNL A   1      43.280  31.358  35.167  1.00  0.00    -0.203 F 
ATOM     94  F   UNL A   1      41.345  26.284  34.629  1.00  0.00    -0.200 F 
ATOM     95  C   UNL A   1      42.132  28.029  36.009  1.00  0.00     0.200 A 
ATOM     96  F   UNL A   1      42.988  29.780  37.340  1.00  0.00    -0.200 F 
ATOM     97  F   UNL A   1      41.992  27.254  37.092  1.00  0.00    -0.200 F 
ENDBRANCH  64  87
ENDBRANCH  38  39
ENDBRANCH  31  33
ENDBRANCH  30  31
ENDBRANCH  29  30
ENDBRANCH  28  29
ENDBRANCH  27  28
ENDBRANCH  26  27
ENDBRANCH   1  26
TORSDOF 21
ENDMDL
MODEL 2
REMARK VINA RESULT:     -10.8      0.956      1.552
REMARK SMILES CCCc1c(C(=O)OCCOCCOCCOC(=O)c2ccc(-c3c4nc(c(-c5c(F)c(F)c(F)c(F)c5F)c5ccc([nH]5)c(-c5c(F)c(F)c(F)c(F)c5F)c5nc(c(-c6c(F)c(F)c(F)c(F)c6F)c6ccc3[nH]6)C=C5)C=C4)cc2)nnn1-c1cccc(C(F)(F)F)c1
REMARK SMILES IDX 12 1 11 2 10 3 9 4 8 5 6 6 7 7 5 8 4 9 85 10 83 11 84 12
REMARK SMILES IDX 3 13 2 14 1 15 86 16 87 17 95 18 88 19 90 20 89 21 91 22
REMARK SMILES IDX 92 23 93 24 94 25 13 26 14 27 15 28 16 29 17 30 18 31 19 32
REMARK SMILES IDX 20 33 21 34 82 35 22 36 81 37 23 38 24 39 25 40 75 41 26 42
REMARK SMILES IDX 80 43 74 44 76 45 27 46 79 47 73 48 72 49 28 51 60 52 40 53
REMARK SMILES IDX 59 54 41 55 44 56 58 57 77 58 42 59 43 60 57 62 78 63 45 64
REMARK SMILES IDX 29 65 30 66 38 67 31 68 32 69 36 70 39 71 33 72 34 73 37 74
REMARK SMILES IDX 35 75 61 76 62 77 70 78 63 79 64 80 68 81 71 82 65 83 66 84
REMARK SMILES IDX 69 85 67 86 46 87 47 88 55 89 48 90 49 91 53 92 56 93 50 94
REMARK SMILES IDX 51 95 54 96 52 97
REMARK H PARENT 76 50 44 61
REMARK Flexibility Score: inf
ROOT
ATOM      1  C   UNL A   1      40.703  19.984  26.516  1.00  0.00     0.188 C 
ENDROOT
BRANCH   1   2
ATOM      2  O   UNL A   1      40.246  21.169  27.125  1.00  0.00    -0.376 OA
BRANCH   2   3
ATOM      3  C   UNL A   1      39.579  22.165  26.369  1.00  0.00     0.202 C 
BRANCH   3   4
ATOM      4  C   UNL A   1      38.407  21.910  25.396  1.00  0.00     0.261 C 
BRANCH   4   5
ATOM      5  O   UNL A   1      37.149  22.523  25.704  1.00  0.00    -0.458 OA
BRANCH   5   6
ATOM      6  C   UNL A   1      36.035  21.821  25.321  1.00  0.00     0.360 C 
ATOM      7  O   UNL A   1      35.753  20.716  25.738  1.00  0.00    -0.244 OA
BRANCH   6   8
ATOM      8  C   UNL A   1      35.128  22.602  24.479  1.00  0.00     0.194 A 
ATOM      9  C   UNL A   1      33.887  23.176  24.734  1.00  0.00     0.079 A 
ATOM     10  N   UNL A   1      33.575  23.800  23.532  1.00  0.00    -0.217 N 
ATOM     11  N   UNL A   1      35.420  22.759  23.141  1.00  0.00    -0.122 NA
ATOM     12  N   UNL A   1      34.420  23.402  22.562  1.00  0.00    -0.061 NA
BRANCH   9  13
ATOM     13  C   UNL A   1      32.946  23.091  25.902  1.00  0.00     0.059 C 
BRANCH  13  14
ATOM     14  C   UNL A   1      31.682  22.261  25.672  1.00  0.00     0.003 C 
ATOM     15  C   UNL A   1      30.457  22.827  26.386  1.00  0.00     0.004 C 
ENDBRANCH  13  14
ENDBRANCH   9  13
BRANCH  10  16
ATOM     16  C   UNL A   1      32.808  24.959  23.330  1.00  0.00     0.067 A 
ATOM     17  C   UNL A   1      31.424  24.875  23.185  1.00  0.00     0.028 A 
ATOM     18  C   UNL A   1      33.470  26.193  23.285  1.00  0.00     0.041 A 
ATOM     19  C   UNL A   1      30.688  26.058  23.084  1.00  0.00     0.003 A 
ATOM     20  C   UNL A   1      32.734  27.380  23.203  1.00  0.00     0.058 A 
ATOM     21  C   UNL A   1      31.336  27.300  23.106  1.00  0.00     0.013 A 
BRANCH  20  22
ATOM     22  C   UNL A   1      33.430  28.717  23.286  1.00  0.00     0.416 C 
ATOM     23  F   UNL A   1      34.765  28.636  23.048  1.00  0.00    -0.166 F 
ATOM     24  F   UNL A   1      32.936  29.609  22.383  1.00  0.00    -0.166 F 
ATOM     25  F   UNL A   1      33.299  29.318  24.502  1.00  0.00    -0.166 F 
ENDBRANCH  20  22
ENDBRANCH  10  16
ENDBRANCH   6   8
ENDBRANCH   5   6
ENDBRANCH   4   5
ENDBRANCH   3   4
ENDBRANCH   2   3
ENDBRANCH   1   2
BRANCH   1  26
ATOM     26  C   UNL A   1      42.219  19.717  26.399  1.00  0.00     0.188 C 
BRANCH  26  27
ATOM     27  O   UNL A   1      42.966  20.141  25.277  1.00  0.00    -0.376 OA
BRANCH  27  28
ATOM     28  C   UNL A   1      44.148  20.925  25.329  1.00  0.00     0.202 C 
BRANCH  28  29
ATOM     29  C   UNL A   1      44.256  22.414  25.013  1.00  0.00     0.261 C 
BRANCH  29  30
ATOM     30  O   UNL A   1      43.030  23.096  24.986  1.00  0.00    -0.460 OA
BRANCH  30  31
ATOM     31  C   UNL A   1      43.157  24.409  25.264  1.00  0.00     0.338 C 
ATOM     32  O   UNL A   1      44.050  25.158  24.912  1.00  0.00    -0.246 OA
BRANCH  31  33
ATOM     33  C   UNL A   1      42.051  24.799  26.145  1.00  0.00     0.060 A 
ATOM     34  C   UNL A   1      41.241  25.805  25.617  1.00  0.00     0.016 A 
ATOM     35  C   UNL A   1      42.290  24.647  27.516  1.00  0.00     0.016 A 
ATOM     36  C   UNL A   1      41.020  26.897  26.411  1.00  0.00     0.010 A 
ATOM     37  C   UNL A   1      42.119  25.756  28.291  1.00  0.00     0.010 A 
ATOM     38  C   UNL A   1      41.584  26.895  27.690  1.00  0.00    -0.014 A 
BRANCH  38  39
ATOM     39  C   UNL A   1      41.507  28.108  28.461  1.00  0.00     0.031 A 
ATOM     40  C   UNL A   1      42.667  28.976  28.190  1.00  0.00     0.074 A 
ATOM     41  C   UNL A   1      40.428  28.393  29.213  1.00  0.00     0.049 A 
ATOM     42  N   UNL A   1      43.622  29.290  28.999  1.00  0.00    -0.248 NA
ATOM     43  C   UNL A   1      42.924  29.339  26.784  1.00  0.00     0.031 C 
ATOM     44  C   UNL A   1      39.158  27.661  29.286  1.00  0.00     0.029 A 
ATOM     45  N   UNL A   1      40.200  29.478  29.996  1.00  0.00    -0.354 N 
ATOM     46  C   UNL A   1      44.480  30.081  28.245  1.00  0.00     0.074 A 
ATOM     47  C   UNL A   1      44.147  29.854  26.869  1.00  0.00     0.031 C 
ATOM     48  C   UNL A   1      38.228  28.442  29.882  1.00  0.00     0.029 A 
ATOM     49  C   UNL A   1      38.864  29.669  30.329  1.00  0.00     0.049 A 
ATOM     50  H   UNL A   1      40.919  30.078  30.301  1.00  0.00     0.167 HD
ATOM     51  C   UNL A   1      45.138  31.116  28.828  1.00  0.00     0.037 A 
ATOM     52  C   UNL A   1      38.339  30.812  30.838  1.00  0.00     0.037 A 
ATOM     53  C   UNL A   1      45.206  30.927  30.258  1.00  0.00     0.049 A 
ATOM     54  C   UNL A   1      39.471  31.612  31.374  1.00  0.00     0.074 A 
ATOM     55  C   UNL A   1      45.773  29.986  31.092  1.00  0.00     0.029 A 
ATOM     56  N   UNL A   1      44.283  31.605  31.014  1.00  0.00    -0.354 N 
ATOM     57  N   UNL A   1      40.173  31.267  32.417  1.00  0.00    -0.248 NA
ATOM     58  C   UNL A   1      40.114  32.565  30.480  1.00  0.00     0.031 C 
ATOM     59  C   UNL A   1      44.883  29.876  32.201  1.00  0.00     0.029 A 
ATOM     60  C   UNL A   1      43.843  30.789  32.020  1.00  0.00     0.049 A 
ATOM     61  H   UNL A   1      43.986  32.531  30.858  1.00  0.00     0.167 HD
ATOM     62  C   UNL A   1      41.480  31.605  32.092  1.00  0.00     0.074 A 
ATOM     63  C   UNL A   1      41.367  32.494  30.940  1.00  0.00     0.031 C 
ATOM     64  C   UNL A   1      42.525  30.891  32.606  1.00  0.00     0.037 A 
BRANCH  51  65
ATOM     65  C   UNL A   1      45.265  32.483  28.185  1.00  0.00     0.064 A 
ATOM     66  C   UNL A   1      46.560  32.982  27.946  1.00  0.00     0.173 A 
ATOM     67  C   UNL A   1      44.227  33.442  28.091  1.00  0.00     0.173 A 
ATOM     68  F   UNL A   1      47.626  32.167  28.001  1.00  0.00    -0.203 F 
ATOM     69  C   UNL A   1      46.806  34.343  27.755  1.00  0.00     0.198 A 
ATOM     70  C   UNL A   1      44.472  34.791  27.850  1.00  0.00     0.198 A 
ATOM     71  F   UNL A   1      42.944  33.157  28.327  1.00  0.00    -0.203 F 
ATOM     72  F   UNL A   1      48.067  34.784  27.679  1.00  0.00    -0.200 F 
ATOM     73  C   UNL A   1      45.763  35.248  27.722  1.00  0.00     0.200 A 
ATOM     74  F   UNL A   1      43.443  35.651  27.833  1.00  0.00    -0.200 F 
ATOM     75  F   UNL A   1      45.999  36.561  27.615  1.00  0.00    -0.200 F 
ENDBRANCH  51  65
BRANCH  52  76
ATOM     76  C   UNL A   1      37.004  31.402  30.580  1.00  0.00     0.064 A 
ATOM     77  C   UNL A   1      36.121  31.687  31.636  1.00  0.00     0.173 A 
ATOM     78  C   UNL A   1      36.674  31.951  29.326  1.00  0.00     0.173 A 
ATOM     79  F   UNL A   1      36.387  31.247  32.874  1.00  0.00    -0.203 F 
ATOM     80  C   UNL A   1      34.988  32.487  31.450  1.00  0.00     0.198 A 
ATOM     81  C   UNL A   1      35.540  32.742  29.140  1.00  0.00     0.198 A 
ATOM     82  F   UNL A   1      37.496  31.812  28.276  1.00  0.00    -0.203 F 
ATOM     83  F   UNL A   1      34.201  32.785  32.494  1.00  0.00    -0.200 F 
ATOM     84  C   UNL A   1      34.703  33.020  30.204  1.00  0.00     0.200 A 
ATOM     85  F   UNL A   1      35.299  33.285  27.938  1.00  0.00    -0.200 F 
ATOM     86  F   UNL A   1      33.651  33.834  30.037  1.00  0.00    -0.200 F 
ENDBRANCH  52  76
BRANCH  64  87
ATOM     87  C   UNL A   1      42.226  29.972  33.757  1.00  0.00     0.064 A 
ATOM     88  C   UNL A   1      41.782  28.646  33.614  1.00  0.00     0.173 A 
ATOM     89  C   UNL A   1      42.528  30.417  35.050  1.00  0.00     0.173 A 
ATOM     90  F   UNL A   1      41.564  28.119  32.403  1.00  0.00    -0.203 F 
ATOM     91  C   UNL A   1      41.606  27.821  34.724  1.00  0.00     0.198 A 
ATOM     92  C   UNL A   1      42.389  29.579  36.152  1.00  0.00     0.198 A 
ATOM     93  F   UNL A   1      43.006  31.656  35.238  1.00  0.00    -0.203 F 
ATOM     94  F   UNL A   1      41.165  26.564  34.566  1.00  0.00    -0.200 F 
ATOM     95  C   UNL A   1      41.917  28.287  35.992  1.00  0.00     0.200 A 
ATOM     96  F   UNL A   1      42.738  30.019  37.369  1.00  0.00    -0.200 F 
ATOM     97  F   UNL A   1      41.789  27.482  37.055  1.00  0.00    -0.200 F 
ENDBRANCH  64  87
ENDBRANCH  38  39
ENDBRANCH  31  33
ENDBRANCH  30  31
ENDBRANCH  29  30
ENDBRANCH  28  29
ENDBRANCH  27  28
ENDBRANCH  26  27
ENDBRANCH   1  26
TORSDOF 21
ENDMDL
MODEL 3
REMARK VINA RESULT:     -10.6      4.219      9.297
REMARK SMILES CCCc1c(C(=O)OCCOCCOCCOC(=O)c2ccc(-c3c4nc(c(-c5c(F)c(F)c(F)c(F)c5F)c5ccc([nH]5)c(-c5c(F)c(F)c(F)c(F)c5F)c5nc(c(-c6c(F)c(F)c(F)c(F)c6F)c6ccc3[nH]6)C=C5)C=C4)cc2)nnn1-c1cccc(C(F)(F)F)c1
REMARK SMILES IDX 12 1 11 2 10 3 9 4 8 5 6 6 7 7 5 8 4 9 85 10 83 11 84 12
REMARK SMILES IDX 3 13 2 14 1 15 86 16 87 17 95 18 88 19 90 20 89 21 91 22
REMARK SMILES IDX 92 23 93 24 94 25 13 26 14 27 15 28 16 29 17 30 18 31 19 32
REMARK SMILES IDX 20 33 21 34 82 35 22 36 81 37 23 38 24 39 25 40 75 41 26 42
REMARK SMILES IDX 80 43 74 44 76 45 27 46 79 47 73 48 72 49 28 51 60 52 40 53
REMARK SMILES IDX 59 54 41 55 44 56 58 57 77 58 42 59 43 60 57 62 78 63 45 64
REMARK SMILES IDX 29 65 30 66 38 67 31 68 32 69 36 70 39 71 33 72 34 73 37 74
REMARK SMILES IDX 35 75 61 76 62 77 70 78 63 79 64 80 68 81 71 82 65 83 66 84
REMARK SMILES IDX 69 85 67 86 46 87 47 88 55 89 48 90 49 91 53 92 56 93 50 94
REMARK SMILES IDX 51 95 54 96 52 97
REMARK H PARENT 76 50 44 61
REMARK Flexibility Score: inf
ROOT
ATOM      1  C   UNL A   1      33.675  30.392  27.243  1.00  0.00     0.188 C 
ENDROOT
BRANCH   1   2
ATOM      2  O   UNL A   1      33.873  29.270  26.413  1.00  0.00    -0.376 OA
BRANCH   2   3
ATOM      3  C   UNL A   1      33.156  29.128  25.199  1.00  0.00     0.202 C 
BRANCH   3   4
ATOM      4  C   UNL A   1      31.757  28.488  25.061  1.00  0.00     0.261 C 
BRANCH   4   5
ATOM      5  O   UNL A   1      31.424  27.896  23.800  1.00  0.00    -0.458 OA
BRANCH   5   6
ATOM      6  C   UNL A   1      31.122  26.559  23.831  1.00  0.00     0.360 C 
ATOM      7  O   UNL A   1      29.991  26.118  23.789  1.00  0.00    -0.244 OA
BRANCH   6   8
ATOM      8  C   UNL A   1      32.306  25.701  23.756  1.00  0.00     0.194 A 
ATOM      9  C   UNL A   1      33.026  25.023  24.734  1.00  0.00     0.079 A 
ATOM     10  N   UNL A   1      34.013  24.373  24.005  1.00  0.00    -0.217 N 
ATOM     11  N   UNL A   1      32.964  25.568  22.552  1.00  0.00    -0.122 NA
ATOM     12  N   UNL A   1      34.051  24.840  22.742  1.00  0.00    -0.061 NA
BRANCH   9  13
ATOM     13  C   UNL A   1      32.959  25.030  26.235  1.00  0.00     0.059 C 
BRANCH  13  14
ATOM     14  C   UNL A   1      32.238  23.839  26.869  1.00  0.00     0.003 C 
ATOM     15  C   UNL A   1      30.850  23.599  26.280  1.00  0.00     0.004 C 
ENDBRANCH  13  14
ENDBRANCH   9  13
BRANCH  10  16
ATOM     16  C   UNL A   1      34.644  23.152  24.295  1.00  0.00     0.067 A 
ATOM     17  C   UNL A   1      35.989  23.120  24.661  1.00  0.00     0.028 A 
ATOM     18  C   UNL A   1      33.885  21.978  24.213  1.00  0.00     0.041 A 
ATOM     19  C   UNL A   1      36.552  21.898  25.036  1.00  0.00     0.003 A 
ATOM     20  C   UNL A   1      34.441  20.755  24.606  1.00  0.00     0.058 A 
ATOM     21  C   UNL A   1      35.781  20.728  25.022  1.00  0.00     0.013 A 
BRANCH  20  22
ATOM     22  C   UNL A   1      33.592  19.508  24.646  1.00  0.00     0.416 C 
ATOM     23  F   UNL A   1      32.683  19.452  23.637  1.00  0.00    -0.166 F 
ATOM     24  F   UNL A   1      34.341  18.375  24.544  1.00  0.00    -0.166 F 
ATOM     25  F   UNL A   1      32.883  19.376  25.802  1.00  0.00    -0.166 F 
ENDBRANCH  20  22
ENDBRANCH  10  16
ENDBRANCH   6   8
ENDBRANCH   5   6
ENDBRANCH   4   5
ENDBRANCH   3   4
ENDBRANCH   2   3
ENDBRANCH   1   2
BRANCH   1  26
ATOM     26  C   UNL A   1      34.880  31.268  27.647  1.00  0.00     0.188 C 
BRANCH  26  27
ATOM     27  O   UNL A   1      34.740  32.647  27.920  1.00  0.00    -0.376 OA
BRANCH  27  28
ATOM     28  C   UNL A   1      34.436  33.204  29.190  1.00  0.00     0.202 C 
BRANCH  28  29
ATOM     29  C   UNL A   1      34.780  32.595  30.547  1.00  0.00     0.261 C 
BRANCH  29  30
ATOM     30  O   UNL A   1      36.155  32.509  30.816  1.00  0.00    -0.460 OA
BRANCH  30  31
ATOM     31  C   UNL A   1      36.541  31.264  31.160  1.00  0.00     0.338 C 
ATOM     32  O   UNL A   1      36.321  30.681  32.206  1.00  0.00    -0.246 OA
BRANCH  31  33
ATOM     33  C   UNL A   1      37.357  30.721  30.068  1.00  0.00     0.060 A 
ATOM     34  C   UNL A   1      37.151  29.360  29.838  1.00  0.00     0.016 A 
ATOM     35  C   UNL A   1      38.586  31.356  29.860  1.00  0.00     0.016 A 
ATOM     36  C   UNL A   1      38.265  28.566  29.811  1.00  0.00     0.010 A 
ATOM     37  C   UNL A   1      39.695  30.563  29.887  1.00  0.00     0.010 A 
ATOM     38  C   UNL A   1      39.509  29.185  29.971  1.00  0.00    -0.014 A 
BRANCH  38  39
ATOM     39  C   UNL A   1      40.665  28.341  30.120  1.00  0.00     0.031 A 
ATOM     40  C   UNL A   1      41.075  28.260  31.534  1.00  0.00     0.074 A 
ATOM     41  C   UNL A   1      41.173  27.656  29.080  1.00  0.00     0.049 A 
ATOM     42  N   UNL A   1      42.152  28.728  32.070  1.00  0.00    -0.248 NA
ATOM     43  C   UNL A   1      40.057  27.824  32.508  1.00  0.00     0.031 C 
ATOM     44  C   UNL A   1      40.618  27.525  27.727  1.00  0.00     0.029 A 
ATOM     45  N   UNL A   1      42.250  26.831  29.049  1.00  0.00    -0.354 N 
ATOM     46  C   UNL A   1      42.032  28.434  33.423  1.00  0.00     0.074 A 
ATOM     47  C   UNL A   1      40.649  28.134  33.658  1.00  0.00     0.031 C 
ATOM     48  C   UNL A   1      41.231  26.499  27.093  1.00  0.00     0.029 A 
ATOM     49  C   UNL A   1      42.287  25.985  27.946  1.00  0.00     0.049 A 
ATOM     50  H   UNL A   1      42.943  26.831  29.747  1.00  0.00     0.167 HD
ATOM     51  C   UNL A   1      43.133  28.113  34.149  1.00  0.00     0.037 A 
ATOM     52  C   UNL A   1      43.074  24.886  27.828  1.00  0.00     0.037 A 
ATOM     53  C   UNL A   1      44.326  28.602  33.496  1.00  0.00     0.049 A 
ATOM     54  C   UNL A   1      44.156  25.012  28.839  1.00  0.00     0.074 A 
ATOM     55  C   UNL A   1      44.809  29.849  33.155  1.00  0.00     0.029 A 
ATOM     56  N   UNL A   1      45.037  27.696  32.751  1.00  0.00    -0.354 N 
ATOM     57  N   UNL A   1      45.102  25.908  28.781  1.00  0.00    -0.248 NA
ATOM     58  C   UNL A   1      43.926  24.437  30.158  1.00  0.00     0.031 C 
ATOM     59  C   UNL A   1      45.513  29.659  31.929  1.00  0.00     0.029 A 
ATOM     60  C   UNL A   1      45.472  28.302  31.605  1.00  0.00     0.049 A 
ATOM     61  H   UNL A   1      45.209  26.760  33.003  1.00  0.00     0.167 HD
ATOM     62  C   UNL A   1      45.283  26.319  30.094  1.00  0.00     0.074 A 
ATOM     63  C   UNL A   1      44.612  25.307  30.904  1.00  0.00     0.031 C 
ATOM     64  C   UNL A   1      45.699  27.591  30.367  1.00  0.00     0.037 A 
BRANCH  51  65
ATOM     65  C   UNL A   1      43.166  26.966  35.140  1.00  0.00     0.064 A 
ATOM     66  C   UNL A   1      43.407  27.272  36.494  1.00  0.00     0.173 A 
ATOM     67  C   UNL A   1      43.295  25.597  34.803  1.00  0.00     0.173 A 
ATOM     68  F   UNL A   1      43.309  28.536  36.935  1.00  0.00    -0.203 F 
ATOM     69  C   UNL A   1      43.860  26.312  37.401  1.00  0.00     0.198 A 
ATOM     70  C   UNL A   1      43.699  24.633  35.723  1.00  0.00     0.198 A 
ATOM     71  F   UNL A   1      43.145  25.132  33.560  1.00  0.00    -0.203 F 
ATOM     72  F   UNL A   1      44.215  26.683  38.637  1.00  0.00    -0.200 F 
ATOM     73  C   UNL A   1      44.019  24.996  37.010  1.00  0.00     0.200 A 
ATOM     74  F   UNL A   1      43.856  23.365  35.317  1.00  0.00    -0.200 F 
ATOM     75  F   UNL A   1      44.524  24.088  37.854  1.00  0.00    -0.200 F 
ENDBRANCH  51  65
BRANCH  52  76
ATOM     76  C   UNL A   1      42.759  23.600  27.162  1.00  0.00     0.064 A 
ATOM     77  C   UNL A   1      43.588  23.086  26.150  1.00  0.00     0.173 A 
ATOM     78  C   UNL A   1      41.797  22.716  27.689  1.00  0.00     0.173 A 
ATOM     79  F   UNL A   1      44.564  23.842  25.629  1.00  0.00    -0.203 F 
ATOM     80  C   UNL A   1      43.470  21.763  25.706  1.00  0.00     0.198 A 
ATOM     81  C   UNL A   1      41.675  21.401  27.240  1.00  0.00     0.198 A 
ATOM     82  F   UNL A   1      41.018  23.081  28.717  1.00  0.00    -0.203 F 
ATOM     83  F   UNL A   1      44.317  21.291  24.781  1.00  0.00    -0.200 F 
ATOM     84  C   UNL A   1      42.520  20.921  26.258  1.00  0.00     0.200 A 
ATOM     85  F   UNL A   1      40.778  20.585  27.812  1.00  0.00    -0.200 F 
ATOM     86  F   UNL A   1      42.445  19.638  25.875  1.00  0.00    -0.200 F 
ENDBRANCH  52  76
BRANCH  64  87
ATOM     87  C   UNL A   1      46.253  28.391  29.222  1.00  0.00     0.064 A 
ATOM     88  C   UNL A   1      45.475  29.192  28.369  1.00  0.00     0.173 A 
ATOM     89  C   UNL A   1      47.645  28.444  29.070  1.00  0.00     0.173 A 
ATOM     90  F   UNL A   1      44.147  29.267  28.515  1.00  0.00    -0.203 F 
ATOM     91  C   UNL A   1      46.066  29.976  27.378  1.00  0.00     0.198 A 
ATOM     92  C   UNL A   1      48.234  29.257  28.106  1.00  0.00     0.198 A 
ATOM     93  F   UNL A   1      48.437  27.741  29.892  1.00  0.00    -0.203 F 
ATOM     94  F   UNL A   1      45.303  30.721  26.564  1.00  0.00    -0.200 F 
ATOM     95  C   UNL A   1      47.446  30.013  27.254  1.00  0.00     0.200 A 
ATOM     96  F   UNL A   1      49.569  29.327  28.023  1.00  0.00    -0.200 F 
ATOM     97  F   UNL A   1      48.018  30.798  26.330  1.00  0.00    -0.200 F 
ENDBRANCH  64  87
ENDBRANCH  38  39
ENDBRANCH  31  33
ENDBRANCH  30  31
ENDBRANCH  29  30
ENDBRANCH  28  29
ENDBRANCH  27  28
ENDBRANCH  26  27
ENDBRANCH   1  26
TORSDOF 21
ENDMDL
