MODEL 1
REMARK VINA RESULT:     -12.5      0.000      0.000
REMARK SMILES Cc1cccc(C[NH2+]Cc2c(C(=O)OCCOCCOCCOC(=O)c3ccc(-c4c5nc(c(-c6c(F)c(F)c(F)c(F)c6F)c6ccc([nH]6)c(-c6c(F)c(F)c(F)c(F)c6F)c6nc(c(-c7c(F)c(F)c(F)c(F)c7F)c7ccc4[nH]7)C=C6)C=C5)cc3)c(C)n(Cc3cccc(F)c3)c2C)c1
REMARK SMILES IDX 18 1 17 2 16 3 15 4 14 5 12 6 13 7 11 8 10 9 100 10 89 11
REMARK SMILES IDX 91 12 101 13 90 14 9 15 8 16 7 19 6 20 1 21 2 22 3 23 102 24
REMARK SMILES IDX 4 25 5 26 92 27 93 28 94 29 99 30 95 31 97 32 96 33 98 34
REMARK SMILES IDX 19 35 20 36 21 37 22 38 23 39 24 40 25 41 26 42 27 43 88 44
REMARK SMILES IDX 28 45 87 46 29 47 30 48 31 49 81 50 32 51 86 52 80 53 82 54
REMARK SMILES IDX 33 55 85 56 79 57 78 58 34 60 66 61 46 62 65 63 47 64 50 65
REMARK SMILES IDX 64 66 83 67 48 68 49 69 63 71 84 72 51 73 35 74 36 75 44 76
REMARK SMILES IDX 37 77 38 78 42 79 45 80 39 81 40 82 43 83 41 84 67 85 68 86
REMARK SMILES IDX 76 87 69 88 70 89 74 90 77 91 71 92 72 93 75 94 73 95 52 96
REMARK SMILES IDX 53 97 61 98 54 99 55 100 59 101 62 102 56 103 57 104 60 105
REMARK SMILES IDX 58 106
REMARK H PARENT 8 17 8 18 82 59 50 70
REMARK Flexibility Score: inf
ROOT
ATOM      1  C   UNL A   1      35.843  30.812  28.270  1.00  0.00     0.188 C 
ENDROOT
BRANCH   1   2
ATOM      2  O   UNL A   1      35.286  29.578  27.761  1.00  0.00    -0.376 OA
BRANCH   2   3
ATOM      3  C   UNL A   1      34.135  29.475  26.907  1.00  0.00     0.202 C 
BRANCH   3   4
ATOM      4  C   UNL A   1      33.647  28.096  26.045  1.00  0.00     0.261 C 
BRANCH   4   5
ATOM      5  O   UNL A   1      33.491  26.432  26.513  1.00  0.00    -0.460 OA
BRANCH   5   6
ATOM      6  C   UNL A   1      32.643  25.249  26.221  1.00  0.00     0.340 C 
ATOM      7  O   UNL A   1      31.515  25.030  26.631  1.00  0.00    -0.246 OA
BRANCH   6   8
ATOM      8  C   UNL A   1      33.116  24.096  25.458  1.00  0.00     0.089 A 
ATOM      9  C   UNL A   1      33.883  24.218  24.275  1.00  0.00     0.042 A 
ATOM     10  C   UNL A   1      34.669  23.062  24.208  1.00  0.00     0.025 A 
ATOM     11  C   UNL A   1      33.357  22.830  26.023  1.00  0.00     0.030 A 
ATOM     12  N   UNL A   1      34.267  22.191  25.213  1.00  0.00    -0.343 N 
ATOM     13  C   UNL A   1      35.834  22.697  23.359  1.00  0.00     0.065 C 
ATOM     14  C   UNL A   1      32.954  22.229  27.346  1.00  0.00     0.065 C 
BRANCH   9  15
ATOM     15  C   UNL A   1      33.838  25.556  23.592  1.00  0.00     0.300 C 
BRANCH  15  16
ATOM     16  N   UNL A   1      33.182  25.579  22.323  1.00  0.00    -0.339 N 
ATOM     17  H   UNL A   1      33.853  25.310  21.602  1.00  0.00     0.346 HD
ATOM     18  H   UNL A   1      32.399  24.925  22.365  1.00  0.00     0.346 HD
BRANCH  16  19
ATOM     19  C   UNL A   1      32.649  26.891  22.000  1.00  0.00     0.297 C 
BRANCH  19  20
ATOM     20  C   UNL A   1      31.207  26.894  22.428  1.00  0.00     0.006 A 
ATOM     21  C   UNL A   1      28.558  29.534  23.029  1.00  0.00     0.044 C 
ATOM     22  C   UNL A   1      29.262  28.212  23.023  1.00  0.00    -0.051 A 
ATOM     23  C   UNL A   1      28.757  27.117  23.733  1.00  0.00     0.003 A 
ATOM     24  C   UNL A   1      30.456  28.068  22.317  1.00  0.00     0.013 A 
ATOM     25  C   UNL A   1      29.462  25.913  23.780  1.00  0.00     0.001 A 
ATOM     26  C   UNL A   1      30.690  25.805  23.141  1.00  0.00     0.009 A 
ENDBRANCH  19  20
ENDBRANCH  16  19
ENDBRANCH  15  16
ENDBRANCH   9  15
BRANCH  12  27
ATOM     27  C   UNL A   1      34.796  20.831  25.455  1.00  0.00     0.157 C 
BRANCH  27  28
ATOM     28  C   UNL A   1      34.126  19.712  24.673  1.00  0.00    -0.025 A 
ATOM     29  C   UNL A   1      32.900  19.976  24.030  1.00  0.00     0.006 A 
ATOM     30  C   UNL A   1      34.665  18.421  24.558  1.00  0.00     0.044 A 
ATOM     31  C   UNL A   1      32.273  19.009  23.236  1.00  0.00     0.003 A 
ATOM     32  C   UNL A   1      34.035  17.466  23.760  1.00  0.00     0.123 A 
ATOM     33  C   UNL A   1      32.853  17.753  23.088  1.00  0.00     0.039 A 
ATOM     34  F   UNL A   1      34.586  16.253  23.623  1.00  0.00    -0.207 F 
ENDBRANCH  27  28
ENDBRANCH  12  27
ENDBRANCH   6   8
ENDBRANCH   5   6
ENDBRANCH   4   5
ENDBRANCH   3   4
ENDBRANCH   2   3
ENDBRANCH   1   2
BRANCH   1  35
ATOM     35  C   UNL A   1      35.556  31.374  29.669  1.00  0.00     0.188 C 
BRANCH  35  36
ATOM     36  O   UNL A   1      35.509  32.787  29.641  1.00  0.00    -0.376 OA
BRANCH  36  37
ATOM     37  C   UNL A   1      34.357  33.380  30.219  1.00  0.00     0.202 C 
BRANCH  37  38
ATOM     38  C   UNL A   1      34.598  34.824  30.706  1.00  0.00     0.261 C 
BRANCH  38  39
ATOM     39  O   UNL A   1      34.418  34.932  32.140  1.00  0.00    -0.460 OA
BRANCH  39  40
ATOM     40  C   UNL A   1      34.500  33.778  32.884  1.00  0.00     0.338 C 
ATOM     41  O   UNL A   1      33.545  33.215  33.399  1.00  0.00    -0.246 OA
BRANCH  40  42
ATOM     42  C   UNL A   1      35.939  33.460  33.182  1.00  0.00     0.060 A 
ATOM     43  C   UNL A   1      37.057  34.281  32.966  1.00  0.00     0.016 A 
ATOM     44  C   UNL A   1      36.212  32.149  33.310  1.00  0.00     0.016 A 
ATOM     45  C   UNL A   1      38.387  33.727  32.672  1.00  0.00     0.010 A 
ATOM     46  C   UNL A   1      37.388  31.726  32.702  1.00  0.00     0.010 A 
ATOM     47  C   UNL A   1      38.618  32.368  32.426  1.00  0.00    -0.014 A 
BRANCH  47  48
ATOM     48  C   UNL A   1      40.024  31.654  31.776  1.00  0.00     0.031 A 
ATOM     49  C   UNL A   1      40.364  30.321  30.679  1.00  0.00     0.074 A 
ATOM     50  C   UNL A   1      41.175  32.146  32.287  1.00  0.00     0.049 A 
ATOM     51  N   UNL A   1      41.468  29.586  30.689  1.00  0.00    -0.248 NA
ATOM     52  C   UNL A   1      39.498  29.684  29.610  1.00  0.00     0.031 C 
ATOM     53  C   UNL A   1      42.543  31.858  31.870  1.00  0.00     0.029 A 
ATOM     54  N   UNL A   1      41.336  32.929  33.439  1.00  0.00    -0.354 N 
ATOM     55  C   UNL A   1      41.432  28.626  29.655  1.00  0.00     0.074 A 
ATOM     56  C   UNL A   1      40.184  28.731  29.023  1.00  0.00     0.031 C 
ATOM     57  C   UNL A   1      43.362  32.113  32.898  1.00  0.00     0.029 A 
ATOM     58  C   UNL A   1      42.537  32.492  34.029  1.00  0.00     0.049 A 
ATOM     59  H   UNL A   1      40.735  33.637  33.767  1.00  0.00     0.167 HD
ATOM     60  C   UNL A   1      42.433  27.782  29.291  1.00  0.00     0.037 A 
ATOM     61  C   UNL A   1      42.534  31.939  35.273  1.00  0.00     0.037 A 
ATOM     62  C   UNL A   1      43.544  27.912  30.176  1.00  0.00     0.049 A 
ATOM     63  C   UNL A   1      43.055  30.516  35.304  1.00  0.00     0.074 A 
ATOM     64  C   UNL A   1      44.608  28.786  30.246  1.00  0.00     0.029 A 
ATOM     65  N   UNL A   1      43.397  27.349  31.419  1.00  0.00    -0.354 N 
ATOM     66  N   UNL A   1      43.526  29.874  34.268  1.00  0.00    -0.248 NA
ATOM     67  C   UNL A   1      42.991  29.669  36.497  1.00  0.00     0.031 C 
ATOM     68  C   UNL A   1      45.017  28.834  31.610  1.00  0.00     0.029 A 
ATOM     69  C   UNL A   1      44.237  27.946  32.332  1.00  0.00     0.049 A 
ATOM     70  H   UNL A   1      42.774  26.617  31.629  1.00  0.00     0.167 HD
ATOM     71  C   UNL A   1      43.715  28.563  34.607  1.00  0.00     0.074 A 
ATOM     72  C   UNL A   1      43.387  28.482  36.015  1.00  0.00     0.031 C 
ATOM     73  C   UNL A   1      44.070  27.592  33.723  1.00  0.00     0.037 A 
BRANCH  60  74
ATOM     74  C   UNL A   1      42.406  27.016  27.981  1.00  0.00     0.064 A 
ATOM     75  C   UNL A   1      42.427  25.611  27.998  1.00  0.00     0.173 A 
ATOM     76  C   UNL A   1      42.507  27.601  26.698  1.00  0.00     0.173 A 
ATOM     77  F   UNL A   1      42.239  24.939  29.141  1.00  0.00    -0.203 F 
ATOM     78  C   UNL A   1      42.685  24.858  26.846  1.00  0.00     0.198 A 
ATOM     79  C   UNL A   1      42.846  26.855  25.562  1.00  0.00     0.198 A 
ATOM     80  F   UNL A   1      42.313  28.919  26.525  1.00  0.00    -0.203 F 
ATOM     81  F   UNL A   1      42.715  23.520  26.920  1.00  0.00    -0.200 F 
ATOM     82  C   UNL A   1      42.952  25.481  25.641  1.00  0.00     0.200 A 
ATOM     83  F   UNL A   1      43.107  27.476  24.401  1.00  0.00    -0.200 F 
ATOM     84  F   UNL A   1      43.301  24.762  24.565  1.00  0.00    -0.200 F 
ENDBRANCH  60  74
BRANCH  61  85
ATOM     85  C   UNL A   1      41.505  32.536  36.179  1.00  0.00     0.064 A 
ATOM     86  C   UNL A   1      41.855  33.706  36.897  1.00  0.00     0.173 A 
ATOM     87  C   UNL A   1      40.146  32.207  36.134  1.00  0.00     0.173 A 
ATOM     88  F   UNL A   1      43.142  34.081  36.986  1.00  0.00    -0.203 F 
ATOM     89  C   UNL A   1      40.890  34.565  37.417  1.00  0.00     0.198 A 
ATOM     90  C   UNL A   1      39.181  33.052  36.695  1.00  0.00     0.198 A 
ATOM     91  F   UNL A   1      39.718  31.154  35.424  1.00  0.00    -0.203 F 
ATOM     92  F   UNL A   1      41.257  35.741  37.947  1.00  0.00    -0.200 F 
ATOM     93  C   UNL A   1      39.552  34.244  37.302  1.00  0.00     0.200 A 
ATOM     94  F   UNL A   1      37.879  32.781  36.520  1.00  0.00    -0.200 F 
ATOM     95  F   UNL A   1      38.615  35.117  37.701  1.00  0.00    -0.200 F 
ENDBRANCH  61  85
BRANCH  73  96
ATOM     96  C   UNL A   1      44.294  26.183  34.154  1.00  0.00     0.064 A 
ATOM     97  C   UNL A   1      45.572  25.619  34.070  1.00  0.00     0.173 A 
ATOM     98  C   UNL A   1      43.232  25.325  34.497  1.00  0.00     0.173 A 
ATOM     99  F   UNL A   1      46.628  26.381  33.744  1.00  0.00    -0.203 F 
ATOM    100  C   UNL A   1      45.777  24.263  34.300  1.00  0.00     0.198 A 
ATOM    101  C   UNL A   1      43.433  23.961  34.680  1.00  0.00     0.198 A 
ATOM    102  F   UNL A   1      41.985  25.794  34.653  1.00  0.00    -0.203 F 
ATOM    103  F   UNL A   1      47.017  23.758  34.233  1.00  0.00    -0.200 F 
ATOM    104  C   UNL A   1      44.706  23.430  34.582  1.00  0.00     0.200 A 
ATOM    105  F   UNL A   1      42.386  23.162  34.935  1.00  0.00    -0.200 F 
ATOM    106  F   UNL A   1      44.900  22.117  34.761  1.00  0.00    -0.200 F 
ENDBRANCH  73  96
ENDBRANCH  47  48
ENDBRANCH  40  42
ENDBRANCH  39  40
ENDBRANCH  38  39
ENDBRANCH  37  38
ENDBRANCH  36  37
ENDBRANCH  35  36
ENDBRANCH   1  35
TORSDOF 23
ENDMDL
MODEL 2
REMARK VINA RESULT:     -11.9      6.361     10.752
REMARK SMILES Cc1cccc(C[NH2+]Cc2c(C(=O)OCCOCCOCCOC(=O)c3ccc(-c4c5nc(c(-c6c(F)c(F)c(F)c(F)c6F)c6ccc([nH]6)c(-c6c(F)c(F)c(F)c(F)c6F)c6nc(c(-c7c(F)c(F)c(F)c(F)c7F)c7ccc4[nH]7)C=C6)C=C5)cc3)c(C)n(Cc3cccc(F)c3)c2C)c1
REMARK SMILES IDX 18 1 17 2 16 3 15 4 14 5 12 6 13 7 11 8 10 9 100 10 89 11
REMARK SMILES IDX 91 12 101 13 90 14 9 15 8 16 7 19 6 20 1 21 2 22 3 23 102 24
REMARK SMILES IDX 4 25 5 26 92 27 93 28 94 29 99 30 95 31 97 32 96 33 98 34
REMARK SMILES IDX 19 35 20 36 21 37 22 38 23 39 24 40 25 41 26 42 27 43 88 44
REMARK SMILES IDX 28 45 87 46 29 47 30 48 31 49 81 50 32 51 86 52 80 53 82 54
REMARK SMILES IDX 33 55 85 56 79 57 78 58 34 60 66 61 46 62 65 63 47 64 50 65
REMARK SMILES IDX 64 66 83 67 48 68 49 69 63 71 84 72 51 73 35 74 36 75 44 76
REMARK SMILES IDX 37 77 38 78 42 79 45 80 39 81 40 82 43 83 41 84 67 85 68 86
REMARK SMILES IDX 76 87 69 88 70 89 74 90 77 91 71 92 72 93 75 94 73 95 52 96
REMARK SMILES IDX 53 97 61 98 54 99 55 100 59 101 62 102 56 103 57 104 60 105
REMARK SMILES IDX 58 106
REMARK H PARENT 8 17 8 18 82 59 50 70
REMARK Flexibility Score: inf
ROOT
ATOM      1  C   UNL A   1      50.397  30.155  28.799  1.00  0.00     0.188 C 
ENDROOT
BRANCH   1   2
ATOM      2  O   UNL A   1      50.842  28.927  29.422  1.00  0.00    -0.376 OA
BRANCH   2   3
ATOM      3  C   UNL A   1      50.655  27.608  28.885  1.00  0.00     0.202 C 
BRANCH   3   4
ATOM      4  C   UNL A   1      49.256  26.657  29.033  1.00  0.00     0.261 C 
BRANCH   4   5
ATOM      5  O   UNL A   1      48.308  25.800  27.858  1.00  0.00    -0.460 OA
BRANCH   5   6
ATOM      6  C   UNL A   1      47.083  25.983  27.040  1.00  0.00     0.340 C 
ATOM      7  O   UNL A   1      46.802  26.938  26.335  1.00  0.00    -0.246 OA
BRANCH   6   8
ATOM      8  C   UNL A   1      45.961  25.048  27.061  1.00  0.00     0.089 A 
ATOM      9  C   UNL A   1      44.847  25.202  27.921  1.00  0.00     0.042 A 
ATOM     10  C   UNL A   1      43.768  24.605  27.260  1.00  0.00     0.025 A 
ATOM     11  C   UNL A   1      45.573  24.266  25.957  1.00  0.00     0.030 A 
ATOM     12  N   UNL A   1      44.243  23.958  26.126  1.00  0.00    -0.343 N 
ATOM     13  C   UNL A   1      42.303  24.637  27.512  1.00  0.00     0.065 C 
ATOM     14  C   UNL A   1      46.281  23.929  24.669  1.00  0.00     0.065 C 
BRANCH   9  15
ATOM     15  C   UNL A   1      45.045  26.106  29.105  1.00  0.00     0.300 C 
BRANCH  15  16
ATOM     16  N   UNL A   1      44.084  27.153  29.250  1.00  0.00    -0.339 N 
ATOM     17  H   UNL A   1      43.177  26.812  28.928  1.00  0.00     0.346 HD
ATOM     18  H   UNL A   1      44.055  27.415  30.236  1.00  0.00     0.346 HD
BRANCH  16  19
ATOM     19  C   UNL A   1      44.437  28.336  28.485  1.00  0.00     0.297 C 
BRANCH  19  20
ATOM     20  C   UNL A   1      43.350  28.539  27.465  1.00  0.00     0.006 A 
ATOM     21  C   UNL A   1      39.601  29.067  27.561  1.00  0.00     0.044 C 
ATOM     22  C   UNL A   1      40.978  28.790  27.041  1.00  0.00    -0.051 A 
ATOM     23  C   UNL A   1      41.183  28.355  25.726  1.00  0.00     0.003 A 
ATOM     24  C   UNL A   1      42.078  28.943  27.883  1.00  0.00     0.013 A 
ATOM     25  C   UNL A   1      42.464  28.028  25.277  1.00  0.00     0.001 A 
ATOM     26  C   UNL A   1      43.543  28.107  26.148  1.00  0.00     0.009 A 
ENDBRANCH  19  20
ENDBRANCH  16  19
ENDBRANCH  15  16
ENDBRANCH   9  15
BRANCH  12  27
ATOM     27  C   UNL A   1      43.443  23.150  25.179  1.00  0.00     0.157 C 
BRANCH  27  28
ATOM     28  C   UNL A   1      43.383  21.659  25.469  1.00  0.00    -0.025 A 
ATOM     29  C   UNL A   1      42.257  21.146  26.143  1.00  0.00     0.006 A 
ATOM     30  C   UNL A   1      44.395  20.759  25.100  1.00  0.00     0.044 A 
ATOM     31  C   UNL A   1      42.111  19.773  26.372  1.00  0.00     0.003 A 
ATOM     32  C   UNL A   1      44.238  19.392  25.328  1.00  0.00     0.123 A 
ATOM     33  C   UNL A   1      43.100  18.891  25.948  1.00  0.00     0.039 A 
ATOM     34  F   UNL A   1      45.192  18.541  24.929  1.00  0.00    -0.207 F 
ENDBRANCH  27  28
ENDBRANCH  12  27
ENDBRANCH   6   8
ENDBRANCH   5   6
ENDBRANCH   4   5
ENDBRANCH   3   4
ENDBRANCH   2   3
ENDBRANCH   1   2
BRANCH   1  35
ATOM     35  C   UNL A   1      50.613  30.498  27.319  1.00  0.00     0.188 C 
BRANCH  35  36
ATOM     36  O   UNL A   1      49.375  30.609  26.644  1.00  0.00    -0.376 OA
BRANCH  36  37
ATOM     37  C   UNL A   1      48.273  29.962  27.261  1.00  0.00     0.202 C 
BRANCH  37  38
ATOM     38  C   UNL A   1      47.049  30.884  27.436  1.00  0.00     0.261 C 
BRANCH  38  39
ATOM     39  O   UNL A   1      47.296  31.898  28.442  1.00  0.00    -0.460 OA
BRANCH  39  40
ATOM     40  C   UNL A   1      47.082  33.211  28.095  1.00  0.00     0.338 C 
ATOM     41  O   UNL A   1      47.944  33.967  27.673  1.00  0.00    -0.246 OA
BRANCH  40  42
ATOM     42  C   UNL A   1      45.715  33.646  28.546  1.00  0.00     0.060 A 
ATOM     43  C   UNL A   1      45.304  33.947  29.854  1.00  0.00     0.016 A 
ATOM     44  C   UNL A   1      44.719  33.356  27.689  1.00  0.00     0.016 A 
ATOM     45  C   UNL A   1      43.920  33.735  30.305  1.00  0.00     0.010 A 
ATOM     46  C   UNL A   1      43.555  32.873  28.274  1.00  0.00     0.010 A 
ATOM     47  C   UNL A   1      42.951  33.078  29.537  1.00  0.00    -0.014 A 
BRANCH  47  48
ATOM     48  C   UNL A   1      41.433  32.498  30.054  1.00  0.00     0.031 A 
ATOM     49  C   UNL A   1      39.832  33.193  30.276  1.00  0.00     0.074 A 
ATOM     50  C   UNL A   1      41.457  31.223  30.503  1.00  0.00     0.049 A 
ATOM     51  N   UNL A   1      38.927  32.766  31.147  1.00  0.00    -0.248 NA
ATOM     52  C   UNL A   1      39.195  34.413  29.640  1.00  0.00     0.031 C 
ATOM     53  C   UNL A   1      40.330  30.383  30.893  1.00  0.00     0.029 A 
ATOM     54  N   UNL A   1      42.580  30.457  30.848  1.00  0.00    -0.354 N 
ATOM     55  C   UNL A   1      37.742  33.524  31.040  1.00  0.00     0.074 A 
ATOM     56  C   UNL A   1      37.968  34.533  30.093  1.00  0.00     0.031 C 
ATOM     57  C   UNL A   1      40.777  29.435  31.727  1.00  0.00     0.029 A 
ATOM     58  C   UNL A   1      42.185  29.689  31.961  1.00  0.00     0.049 A 
ATOM     59  H   UNL A   1      43.459  30.455  30.406  1.00  0.00     0.167 HD
ATOM     60  C   UNL A   1      36.569  33.299  31.688  1.00  0.00     0.037 A 
ATOM     61  C   UNL A   1      42.810  29.841  33.161  1.00  0.00     0.037 A 
ATOM     62  C   UNL A   1      36.706  32.218  32.609  1.00  0.00     0.049 A 
ATOM     63  C   UNL A   1      41.883  30.283  34.275  1.00  0.00     0.074 A 
ATOM     64  C   UNL A   1      36.642  30.846  32.483  1.00  0.00     0.029 A 
ATOM     65  N   UNL A   1      37.398  32.489  33.762  1.00  0.00    -0.354 N 
ATOM     66  N   UNL A   1      40.594  30.451  34.146  1.00  0.00    -0.248 NA
ATOM     67  C   UNL A   1      42.360  30.667  35.605  1.00  0.00     0.031 C 
ATOM     68  C   UNL A   1      37.437  30.295  33.531  1.00  0.00     0.029 A 
ATOM     69  C   UNL A   1      37.918  31.336  34.308  1.00  0.00     0.049 A 
ATOM     70  H   UNL A   1      37.508  33.387  34.148  1.00  0.00     0.167 HD
ATOM     71  C   UNL A   1      40.108  31.041  35.280  1.00  0.00     0.074 A 
ATOM     72  C   UNL A   1      41.242  31.140  36.174  1.00  0.00     0.031 C 
ATOM     73  C   UNL A   1      38.827  31.476  35.422  1.00  0.00     0.037 A 
BRANCH  60  74
ATOM     74  C   UNL A   1      35.274  33.972  31.272  1.00  0.00     0.064 A 
ATOM     75  C   UNL A   1      34.671  33.622  30.052  1.00  0.00     0.173 A 
ATOM     76  C   UNL A   1      34.670  35.055  31.950  1.00  0.00     0.173 A 
ATOM     77  F   UNL A   1      35.090  32.551  29.365  1.00  0.00    -0.203 F 
ATOM     78  C   UNL A   1      33.649  34.390  29.482  1.00  0.00     0.198 A 
ATOM     79  C   UNL A   1      33.705  35.870  31.344  1.00  0.00     0.198 A 
ATOM     80  F   UNL A   1      35.030  35.369  33.205  1.00  0.00    -0.203 F 
ATOM     81  F   UNL A   1      33.121  34.024  28.305  1.00  0.00    -0.200 F 
ATOM     82  C   UNL A   1      33.207  35.545  30.099  1.00  0.00     0.200 A 
ATOM     83  F   UNL A   1      33.290  36.991  31.954  1.00  0.00    -0.200 F 
ATOM     84  F   UNL A   1      32.301  36.333  29.501  1.00  0.00    -0.200 F 
ENDBRANCH  60  74
BRANCH  61  85
ATOM     85  C   UNL A   1      44.267  30.158  33.029  1.00  0.00     0.064 A 
ATOM     86  C   UNL A   1      45.118  29.150  32.516  1.00  0.00     0.173 A 
ATOM     87  C   UNL A   1      44.787  31.455  33.084  1.00  0.00     0.173 A 
ATOM     88  F   UNL A   1      44.686  27.880  32.437  1.00  0.00    -0.203 F 
ATOM     89  C   UNL A   1      46.361  29.449  31.964  1.00  0.00     0.198 A 
ATOM     90  C   UNL A   1      46.055  31.745  32.566  1.00  0.00     0.198 A 
ATOM     91  F   UNL A   1      44.029  32.482  33.495  1.00  0.00    -0.203 F 
ATOM     92  F   UNL A   1      47.066  28.491  31.343  1.00  0.00    -0.200 F 
ATOM     93  C   UNL A   1      46.823  30.750  31.976  1.00  0.00     0.200 A 
ATOM     94  F   UNL A   1      46.473  33.018  32.510  1.00  0.00    -0.200 F 
ATOM     95  F   UNL A   1      47.967  31.064  31.350  1.00  0.00    -0.200 F 
ENDBRANCH  61  85
BRANCH  73  96
ATOM     96  C   UNL A   1      38.342  32.084  36.694  1.00  0.00     0.064 A 
ATOM     97  C   UNL A   1      38.665  33.410  37.003  1.00  0.00     0.173 A 
ATOM     98  C   UNL A   1      37.700  31.327  37.691  1.00  0.00     0.173 A 
ATOM     99  F   UNL A   1      39.281  34.187  36.098  1.00  0.00    -0.203 F 
ATOM    100  C   UNL A   1      38.375  33.949  38.253  1.00  0.00     0.198 A 
ATOM    101  C   UNL A   1      37.454  31.853  38.955  1.00  0.00     0.198 A 
ATOM    102  F   UNL A   1      37.308  30.065  37.458  1.00  0.00    -0.203 F 
ATOM    103  F   UNL A   1      38.676  35.228  38.511  1.00  0.00    -0.200 F 
ATOM    104  C   UNL A   1      37.791  33.164  39.235  1.00  0.00     0.200 A 
ATOM    105  F   UNL A   1      36.906  31.079  39.903  1.00  0.00    -0.200 F 
ATOM    106  F   UNL A   1      37.553  33.672  40.452  1.00  0.00    -0.200 F 
ENDBRANCH  73  96
ENDBRANCH  47  48
ENDBRANCH  40  42
ENDBRANCH  39  40
ENDBRANCH  38  39
ENDBRANCH  37  38
ENDBRANCH  36  37
ENDBRANCH  35  36
ENDBRANCH   1  35
TORSDOF 23
ENDMDL
MODEL 3
REMARK VINA RESULT:     -11.0      1.937      2.913
REMARK SMILES Cc1cccc(C[NH2+]Cc2c(C(=O)OCCOCCOCCOC(=O)c3ccc(-c4c5nc(c(-c6c(F)c(F)c(F)c(F)c6F)c6ccc([nH]6)c(-c6c(F)c(F)c(F)c(F)c6F)c6nc(c(-c7c(F)c(F)c(F)c(F)c7F)c7ccc4[nH]7)C=C6)C=C5)cc3)c(C)n(Cc3cccc(F)c3)c2C)c1
REMARK SMILES IDX 18 1 17 2 16 3 15 4 14 5 12 6 13 7 11 8 10 9 100 10 89 11
REMARK SMILES IDX 91 12 101 13 90 14 9 15 8 16 7 19 6 20 1 21 2 22 3 23 102 24
REMARK SMILES IDX 4 25 5 26 92 27 93 28 94 29 99 30 95 31 97 32 96 33 98 34
REMARK SMILES IDX 19 35 20 36 21 37 22 38 23 39 24 40 25 41 26 42 27 43 88 44
REMARK SMILES IDX 28 45 87 46 29 47 30 48 31 49 81 50 32 51 86 52 80 53 82 54
REMARK SMILES IDX 33 55 85 56 79 57 78 58 34 60 66 61 46 62 65 63 47 64 50 65
REMARK SMILES IDX 64 66 83 67 48 68 49 69 63 71 84 72 51 73 35 74 36 75 44 76
REMARK SMILES IDX 37 77 38 78 42 79 45 80 39 81 40 82 43 83 41 84 67 85 68 86
REMARK SMILES IDX 76 87 69 88 70 89 74 90 77 91 71 92 72 93 75 94 73 95 52 96
REMARK SMILES IDX 53 97 61 98 54 99 55 100 59 101 62 102 56 103 57 104 60 105
REMARK SMILES IDX 58 106
REMARK H PARENT 8 17 8 18 82 59 50 70
REMARK Flexibility Score: inf
ROOT
ATOM      1  C   UNL A   1      35.920  30.626  28.353  1.00  0.00     0.188 C 
ENDROOT
BRANCH   1   2
ATOM      2  O   UNL A   1      35.309  29.460  27.752  1.00  0.00    -0.376 OA
BRANCH   2   3
ATOM      3  C   UNL A   1      34.184  29.480  26.859  1.00  0.00     0.202 C 
BRANCH   3   4
ATOM      4  C   UNL A   1      33.599  28.165  25.956  1.00  0.00     0.261 C 
BRANCH   4   5
ATOM      5  O   UNL A   1      33.455  26.476  26.328  1.00  0.00    -0.460 OA
BRANCH   5   6
ATOM      6  C   UNL A   1      32.600  25.312  25.991  1.00  0.00     0.340 C 
ATOM      7  O   UNL A   1      31.434  25.135  26.306  1.00  0.00    -0.246 OA
BRANCH   6   8
ATOM      8  C   UNL A   1      33.100  24.127  25.297  1.00  0.00     0.089 A 
ATOM      9  C   UNL A   1      33.908  24.198  24.137  1.00  0.00     0.042 A 
ATOM     10  C   UNL A   1      34.697  23.043  24.149  1.00  0.00     0.025 A 
ATOM     11  C   UNL A   1      33.323  22.888  25.926  1.00  0.00     0.030 A 
ATOM     12  N   UNL A   1      34.261  22.216  25.177  1.00  0.00    -0.343 N 
ATOM     13  C   UNL A   1      35.891  22.643  23.358  1.00  0.00     0.065 C 
ATOM     14  C   UNL A   1      32.875  22.345  27.259  1.00  0.00     0.065 C 
BRANCH   9  15
ATOM     15  C   UNL A   1      33.885  25.504  23.393  1.00  0.00     0.300 C 
BRANCH  15  16
ATOM     16  N   UNL A   1      33.190  25.492  22.146  1.00  0.00    -0.339 N 
ATOM     17  H   UNL A   1      33.755  24.991  21.460  1.00  0.00     0.346 HD
ATOM     18  H   UNL A   1      32.291  25.032  22.295  1.00  0.00     0.346 HD
BRANCH  16  19
ATOM     19  C   UNL A   1      32.926  26.830  21.647  1.00  0.00     0.297 C 
BRANCH  19  20
ATOM     20  C   UNL A   1      31.919  27.453  22.575  1.00  0.00     0.006 A 
ATOM     21  C   UNL A   1      28.497  26.512  23.896  1.00  0.00     0.044 C 
ATOM     22  C   UNL A   1      29.715  27.320  23.573  1.00  0.00    -0.051 A 
ATOM     23  C   UNL A   1      29.747  28.703  23.788  1.00  0.00     0.003 A 
ATOM     24  C   UNL A   1      30.835  26.695  23.027  1.00  0.00     0.013 A 
ATOM     25  C   UNL A   1      30.861  29.456  23.413  1.00  0.00     0.001 A 
ATOM     26  C   UNL A   1      31.940  28.836  22.796  1.00  0.00     0.009 A 
ENDBRANCH  19  20
ENDBRANCH  16  19
ENDBRANCH  15  16
ENDBRANCH   9  15
BRANCH  12  27
ATOM     27  C   UNL A   1      34.783  20.870  25.498  1.00  0.00     0.157 C 
BRANCH  27  28
ATOM     28  C   UNL A   1      34.158  19.717  24.728  1.00  0.00    -0.025 A 
ATOM     29  C   UNL A   1      32.914  19.921  24.097  1.00  0.00     0.006 A 
ATOM     30  C   UNL A   1      34.755  18.453  24.611  1.00  0.00     0.044 A 
ATOM     31  C   UNL A   1      32.324  18.922  23.314  1.00  0.00     0.003 A 
ATOM     32  C   UNL A   1      34.162  17.465  23.824  1.00  0.00     0.123 A 
ATOM     33  C   UNL A   1      32.961  17.694  23.164  1.00  0.00     0.039 A 
ATOM     34  F   UNL A   1      34.768  16.279  23.685  1.00  0.00    -0.207 F 
ENDBRANCH  27  28
ENDBRANCH  12  27
ENDBRANCH   6   8
ENDBRANCH   5   6
ENDBRANCH   4   5
ENDBRANCH   3   4
ENDBRANCH   2   3
ENDBRANCH   1   2
BRANCH   1  35
ATOM     35  C   UNL A   1      35.699  31.059  29.809  1.00  0.00     0.188 C 
BRANCH  35  36
ATOM     36  O   UNL A   1      36.381  32.268  30.080  1.00  0.00    -0.376 OA
BRANCH  36  37
ATOM     37  C   UNL A   1      35.801  33.096  31.076  1.00  0.00     0.202 C 
BRANCH  37  38
ATOM     38  C   UNL A   1      36.719  34.259  31.507  1.00  0.00     0.261 C 
BRANCH  38  39
ATOM     39  O   UNL A   1      37.176  34.089  32.871  1.00  0.00    -0.460 OA
BRANCH  39  40
ATOM     40  C   UNL A   1      37.601  32.838  33.254  1.00  0.00     0.338 C 
ATOM     41  O   UNL A   1      36.936  32.050  33.909  1.00  0.00    -0.246 OA
BRANCH  40  42
ATOM     42  C   UNL A   1      39.071  32.686  32.973  1.00  0.00     0.060 A 
ATOM     43  C   UNL A   1      39.778  33.153  31.855  1.00  0.00     0.016 A 
ATOM     44  C   UNL A   1      39.677  31.701  33.661  1.00  0.00     0.016 A 
ATOM     45  C   UNL A   1      40.973  32.464  31.344  1.00  0.00     0.010 A 
ATOM     46  C   UNL A   1      40.578  30.936  32.930  1.00  0.00     0.010 A 
ATOM     47  C   UNL A   1      41.405  31.218  31.817  1.00  0.00    -0.014 A 
BRANCH  47  48
ATOM     48  C   UNL A   1      42.563  30.184  31.112  1.00  0.00     0.031 A 
ATOM     49  C   UNL A   1      42.540  28.583  30.383  1.00  0.00     0.074 A 
ATOM     50  C   UNL A   1      43.834  30.634  31.213  1.00  0.00     0.049 A 
ATOM     51  N   UNL A   1      43.560  27.736  30.365  1.00  0.00    -0.248 NA
ATOM     52  C   UNL A   1      41.403  27.815  29.739  1.00  0.00     0.031 C 
ATOM     53  C   UNL A   1      45.040  30.072  30.616  1.00  0.00     0.029 A 
ATOM     54  N   UNL A   1      44.317  31.657  32.042  1.00  0.00    -0.354 N 
ATOM     55  C   UNL A   1      43.213  26.558  29.671  1.00  0.00     0.074 A 
ATOM     56  C   UNL A   1      41.862  26.661  29.310  1.00  0.00     0.031 C 
ATOM     57  C   UNL A   1      46.096  30.472  31.338  1.00  0.00     0.029 A 
ATOM     58  C   UNL A   1      45.591  31.231  32.465  1.00  0.00     0.049 A 
ATOM     59  H   UNL A   1      43.863  32.498  32.279  1.00  0.00     0.167 HD
ATOM     60  C   UNL A   1      44.038  25.525  29.354  1.00  0.00     0.037 A 
ATOM     61  C   UNL A   1      45.845  31.018  33.786  1.00  0.00     0.037 A 
ATOM     62  C   UNL A   1      45.333  25.729  29.916  1.00  0.00     0.049 A 
ATOM     63  C   UNL A   1      46.257  29.594  34.101  1.00  0.00     0.074 A 
ATOM     64  C   UNL A   1      46.442  26.444  29.516  1.00  0.00     0.029 A 
ATOM     65  N   UNL A   1      45.446  25.526  31.268  1.00  0.00    -0.354 N 
ATOM     66  N   UNL A   1      46.423  28.654  33.210  1.00  0.00    -0.248 NA
ATOM     67  C   UNL A   1      46.419  29.096  35.469  1.00  0.00     0.031 C 
ATOM     68  C   UNL A   1      47.165  26.784  30.695  1.00  0.00     0.029 A 
ATOM     69  C   UNL A   1      46.518  26.220  31.783  1.00  0.00     0.049 A 
ATOM     70  H   UNL A   1      44.842  24.960  31.799  1.00  0.00     0.167 HD
ATOM     71  C   UNL A   1      46.595  27.459  33.853  1.00  0.00     0.074 A 
ATOM     72  C   UNL A   1      46.606  27.784  35.264  1.00  0.00     0.031 C 
ATOM     73  C   UNL A   1      46.662  26.257  33.220  1.00  0.00     0.037 A 
BRANCH  60  74
ATOM     74  C   UNL A   1      43.648  24.461  28.345  1.00  0.00     0.064 A 
ATOM     75  C   UNL A   1      43.946  24.653  26.985  1.00  0.00     0.173 A 
ATOM     76  C   UNL A   1      42.862  23.322  28.631  1.00  0.00     0.173 A 
ATOM     77  F   UNL A   1      44.765  25.640  26.598  1.00  0.00    -0.203 F 
ATOM     78  C   UNL A   1      43.376  23.861  25.981  1.00  0.00     0.198 A 
ATOM     79  C   UNL A   1      42.226  22.582  27.625  1.00  0.00     0.198 A 
ATOM     80  F   UNL A   1      42.662  22.922  29.898  1.00  0.00    -0.203 F 
ATOM     81  F   UNL A   1      43.678  24.098  24.696  1.00  0.00    -0.200 F 
ATOM     82  C   UNL A   1      42.472  22.864  26.297  1.00  0.00     0.200 A 
ATOM     83  F   UNL A   1      41.348  21.620  27.949  1.00  0.00    -0.200 F 
ATOM     84  F   UNL A   1      41.849  22.177  25.328  1.00  0.00    -0.200 F 
ENDBRANCH  60  74
BRANCH  61  85
ATOM     85  C   UNL A   1      45.104  31.956  34.685  1.00  0.00     0.064 A 
ATOM     86  C   UNL A   1      45.643  33.251  34.878  1.00  0.00     0.173 A 
ATOM     87  C   UNL A   1      43.781  31.757  35.094  1.00  0.00     0.173 A 
ATOM     88  F   UNL A   1      46.909  33.514  34.512  1.00  0.00    -0.203 F 
ATOM     89  C   UNL A   1      44.862  34.314  35.324  1.00  0.00     0.198 A 
ATOM     90  C   UNL A   1      43.010  32.819  35.583  1.00  0.00     0.198 A 
ATOM     91  F   UNL A   1      43.169  30.582  34.890  1.00  0.00    -0.203 F 
ATOM     92  F   UNL A   1      45.367  35.556  35.340  1.00  0.00    -0.200 F 
ATOM     93  C   UNL A   1      43.540  34.100  35.663  1.00  0.00     0.200 A 
ATOM     94  F   UNL A   1      41.708  32.629  35.841  1.00  0.00    -0.200 F 
ATOM     95  F   UNL A   1      42.753  35.136  35.988  1.00  0.00    -0.200 F 
ENDBRANCH  61  85
BRANCH  73  96
ATOM     96  C   UNL A   1      46.882  24.987  33.969  1.00  0.00     0.064 A 
ATOM     97  C   UNL A   1      48.164  24.430  34.039  1.00  0.00     0.173 A 
ATOM     98  C   UNL A   1      45.818  24.224  34.482  1.00  0.00     0.173 A 
ATOM     99  F   UNL A   1      49.223  25.104  33.565  1.00  0.00    -0.203 F 
ATOM    100  C   UNL A   1      48.370  23.165  34.581  1.00  0.00     0.198 A 
ATOM    101  C   UNL A   1      46.019  22.940  34.979  1.00  0.00     0.198 A 
ATOM    102  F   UNL A   1      44.566  24.707  34.503  1.00  0.00    -0.203 F 
ATOM    103  F   UNL A   1      49.612  22.668  34.654  1.00  0.00    -0.200 F 
ATOM    104  C   UNL A   1      47.296  22.412  35.029  1.00  0.00     0.200 A 
ATOM    105  F   UNL A   1      44.971  22.214  35.393  1.00  0.00    -0.200 F 
ATOM    106  F   UNL A   1      47.492  21.177  35.510  1.00  0.00    -0.200 F 
ENDBRANCH  73  96
ENDBRANCH  47  48
ENDBRANCH  40  42
ENDBRANCH  39  40
ENDBRANCH  38  39
ENDBRANCH  37  38
ENDBRANCH  36  37
ENDBRANCH  35  36
ENDBRANCH   1  35
TORSDOF 23
ENDMDL
