MODEL 1
REMARK VINA RESULT:     -12.0      0.000      0.000
REMARK SMILES Cc1cc(C)n(C)c(=O)c1C(=O)[NH+]1CCC2(CC1)C[NH2+][C@@H](C(=O)OCCOCCOCCOC(=O)c1ccc(-c3c4nc(c(-c5c(F)c(F)c(F)c(F)c5F)c5ccc([nH]5)c(-c5c(F)c(F)c(F)c(F)c5F)c5nc(c(-c6c(F)c(F)c(F)c(F)c6F)c6ccc3[nH]6)C=C5)C=C4)cc1)C2
REMARK SMILES IDX 28 1 27 2 26 3 25 4 24 5 22 6 23 7 21 8 13 9 14 10 18 11
REMARK SMILES IDX 15 13 17 14 16 15 19 16 99 17 20 18 11 21 12 22 10 23 1 24
REMARK SMILES IDX 2 25 3 26 4 27 8 28 5 29 6 30 9 31 7 32 29 33 30 34 31 35
REMARK SMILES IDX 32 36 33 37 34 38 35 39 36 40 37 41 98 42 38 43 97 44 39 45
REMARK SMILES IDX 40 46 41 47 91 48 42 49 96 50 90 51 92 52 43 53 95 54 89 55
REMARK SMILES IDX 88 56 44 58 76 59 56 60 75 61 57 62 60 63 74 64 93 65 58 66
REMARK SMILES IDX 59 67 73 69 94 70 61 71 45 72 46 73 54 74 47 75 48 76 52 77
REMARK SMILES IDX 55 78 49 79 50 80 53 81 51 82 77 83 78 84 86 85 79 86 80 87
REMARK SMILES IDX 84 88 87 89 81 90 82 91 85 92 83 93 62 94 63 95 71 96 64 97
REMARK SMILES IDX 65 98 69 99 72 100 66 101 67 102 70 103 68 104
REMARK H PARENT 13 12 20 19 20 20 92 57 60 68
REMARK Flexibility Score: inf
ROOT
ATOM      1  C   UNL A   1      33.511  34.529  28.474  1.00  0.00     0.188 C 
ENDROOT
BRANCH   1   2
ATOM      2  O   UNL A   1      33.278  33.130  28.600  1.00  0.00    -0.376 OA
BRANCH   2   3
ATOM      3  C   UNL A   1      34.380  32.235  28.497  1.00  0.00     0.202 C 
BRANCH   3   4
ATOM      4  C   UNL A   1      34.314  31.121  27.440  1.00  0.00     0.261 C 
BRANCH   4   5
ATOM      5  O   UNL A   1      33.217  30.201  27.594  1.00  0.00    -0.459 OA
BRANCH   5   6
ATOM      6  C   UNL A   1      32.239  30.261  26.651  1.00  0.00     0.364 C 
ATOM      7  O   UNL A   1      31.597  31.273  26.379  1.00  0.00    -0.245 OA
BRANCH   6   8
ATOM      8  C   UNL A   1      31.989  28.932  25.914  1.00  0.00     0.294 C 
ATOM      9  N   UNL A   1      34.371  24.571  24.066  1.00  0.00    -0.267 N 
ATOM     10  C   UNL A   1      33.766  25.592  23.224  1.00  0.00     0.271 C 
ATOM     11  C   UNL A   1      34.884  25.086  25.328  1.00  0.00     0.271 C 
ATOM     12  H   UNL A   1      34.301  25.547  24.180  1.00  0.00     0.357 HD
ATOM     13  C   UNL A   1      32.508  26.102  23.914  1.00  0.00     0.075 C 
ATOM     14  C   UNL A   1      33.825  25.858  26.143  1.00  0.00     0.075 C 
ATOM     15  C   UNL A   1      32.752  26.660  25.337  1.00  0.00     0.036 C 
ATOM     16  C   UNL A   1      31.394  26.701  26.081  1.00  0.00     0.268 C 
ATOM     17  C   UNL A   1      33.152  28.153  25.309  1.00  0.00     0.090 C 
ATOM     18  N   UNL A   1      31.412  27.943  26.843  1.00  0.00    -0.334 N 
ATOM     19  H   UNL A   1      31.993  27.848  27.677  1.00  0.00     0.347 HD
ATOM     20  H   UNL A   1      30.484  28.212  27.171  1.00  0.00     0.347 HD
BRANCH   9  21
ATOM     21  C   UNL A   1      34.566  23.304  23.515  1.00  0.00     0.350 C 
ATOM     22  O   UNL A   1      35.108  23.203  22.410  1.00  0.00    -0.225 OA
BRANCH  21  23
ATOM     23  C   UNL A   1      33.995  22.054  24.148  1.00  0.00     0.147 A 
ATOM     24  C   UNL A   1      31.520  22.614  23.783  1.00  0.00     0.045 C 
ATOM     25  C   UNL A   1      32.674  21.766  24.210  1.00  0.00    -0.027 A 
ATOM     26  C   UNL A   1      32.208  20.465  24.640  1.00  0.00     0.026 A 
ATOM     27  C   UNL A   1      33.036  19.428  24.797  1.00  0.00     0.018 A 
ATOM     28  C   UNL A   1      34.956  20.913  24.468  1.00  0.00     0.267 A 
ATOM     29  C   UNL A   1      32.438  18.084  25.114  1.00  0.00     0.064 C 
ATOM     30  N   UNL A   1      34.403  19.631  24.672  1.00  0.00    -0.315 N 
ATOM     31  O   UNL A   1      36.168  21.116  24.546  1.00  0.00    -0.268 OA
ATOM     32  C   UNL A   1      35.321  18.503  24.794  1.00  0.00     0.153 C 
ENDBRANCH  21  23
ENDBRANCH   9  21
ENDBRANCH   6   8
ENDBRANCH   5   6
ENDBRANCH   4   5
ENDBRANCH   3   4
ENDBRANCH   2   3
ENDBRANCH   1   2
BRANCH   1  33
ATOM     33  C   UNL A   1      33.798  35.367  29.731  1.00  0.00     0.188 C 
BRANCH  33  34
ATOM     34  O   UNL A   1      33.296  34.817  30.923  1.00  0.00    -0.376 OA
BRANCH  34  35
ATOM     35  C   UNL A   1      34.224  34.572  31.957  1.00  0.00     0.202 C 
BRANCH  35  36
ATOM     36  C   UNL A   1      34.145  33.191  32.632  1.00  0.00     0.261 C 
BRANCH  36  37
ATOM     37  O   UNL A   1      35.137  32.218  32.239  1.00  0.00    -0.460 OA
BRANCH  37  38
ATOM     38  C   UNL A   1      36.252  32.118  32.999  1.00  0.00     0.338 C 
ATOM     39  O   UNL A   1      36.353  32.389  34.188  1.00  0.00    -0.246 OA
BRANCH  38  40
ATOM     40  C   UNL A   1      37.281  31.385  32.221  1.00  0.00     0.060 A 
ATOM     41  C   UNL A   1      38.366  30.799  32.895  1.00  0.00     0.016 A 
ATOM     42  C   UNL A   1      37.175  31.262  30.834  1.00  0.00     0.016 A 
ATOM     43  C   UNL A   1      39.348  30.101  32.184  1.00  0.00     0.010 A 
ATOM     44  C   UNL A   1      38.175  30.591  30.121  1.00  0.00     0.010 A 
ATOM     45  C   UNL A   1      39.280  30.026  30.786  1.00  0.00    -0.014 A 
BRANCH  45  46
ATOM     46  C   UNL A   1      40.450  29.548  30.002  1.00  0.00     0.031 A 
ATOM     47  C   UNL A   1      41.593  30.501  29.777  1.00  0.00     0.074 A 
ATOM     48  C   UNL A   1      40.518  28.299  29.507  1.00  0.00     0.049 A 
ATOM     49  N   UNL A   1      42.686  30.344  29.075  1.00  0.00    -0.248 NA
ATOM     50  C   UNL A   1      41.485  31.811  30.438  1.00  0.00     0.031 C 
ATOM     51  C   UNL A   1      39.514  27.257  29.698  1.00  0.00     0.029 A 
ATOM     52  N   UNL A   1      41.484  27.701  28.731  1.00  0.00    -0.354 N 
ATOM     53  C   UNL A   1      43.396  31.529  29.214  1.00  0.00     0.074 A 
ATOM     54  C   UNL A   1      42.591  32.413  30.029  1.00  0.00     0.031 C 
ATOM     55  C   UNL A   1      39.916  26.144  29.057  1.00  0.00     0.029 A 
ATOM     56  C   UNL A   1      41.187  26.407  28.378  1.00  0.00     0.049 A 
ATOM     57  H   UNL A   1      42.311  28.157  28.455  1.00  0.00     0.167 HD
ATOM     58  C   UNL A   1      44.616  31.849  28.723  1.00  0.00     0.037 A 
ATOM     59  C   UNL A   1      41.855  25.542  27.587  1.00  0.00     0.037 A 
ATOM     60  C   UNL A   1      45.414  30.981  27.899  1.00  0.00     0.049 A 
ATOM     61  C   UNL A   1      43.155  25.965  26.947  1.00  0.00     0.074 A 
ATOM     62  C   UNL A   1      46.657  31.224  27.343  1.00  0.00     0.029 A 
ATOM     63  N   UNL A   1      45.045  29.702  27.509  1.00  0.00    -0.354 N 
ATOM     64  N   UNL A   1      43.822  27.085  27.084  1.00  0.00    -0.248 NA
ATOM     65  C   UNL A   1      43.795  25.000  26.037  1.00  0.00     0.031 C 
ATOM     66  C   UNL A   1      47.016  30.117  26.571  1.00  0.00     0.029 A 
ATOM     67  C   UNL A   1      46.025  29.155  26.697  1.00  0.00     0.049 A 
ATOM     68  H   UNL A   1      44.210  29.250  27.771  1.00  0.00     0.167 HD
ATOM     69  C   UNL A   1      44.967  26.949  26.308  1.00  0.00     0.074 A 
ATOM     70  C   UNL A   1      44.913  25.633  25.709  1.00  0.00     0.031 C 
ATOM     71  C   UNL A   1      45.972  27.839  26.112  1.00  0.00     0.037 A 
BRANCH  58  72
ATOM     72  C   UNL A   1      45.160  33.208  29.056  1.00  0.00     0.064 A 
ATOM     73  C   UNL A   1      45.908  33.432  30.222  1.00  0.00     0.173 A 
ATOM     74  C   UNL A   1      44.972  34.288  28.181  1.00  0.00     0.173 A 
ATOM     75  F   UNL A   1      46.105  32.435  31.099  1.00  0.00    -0.203 F 
ATOM     76  C   UNL A   1      46.426  34.690  30.512  1.00  0.00     0.198 A 
ATOM     77  C   UNL A   1      45.520  35.538  28.456  1.00  0.00     0.198 A 
ATOM     78  F   UNL A   1      44.270  34.128  27.049  1.00  0.00    -0.203 F 
ATOM     79  F   UNL A   1      47.097  34.890  31.654  1.00  0.00    -0.200 F 
ATOM     80  C   UNL A   1      46.240  35.741  29.625  1.00  0.00     0.200 A 
ATOM     81  F   UNL A   1      45.354  36.547  27.590  1.00  0.00    -0.200 F 
ATOM     82  F   UNL A   1      46.750  36.949  29.898  1.00  0.00    -0.200 F 
ENDBRANCH  58  72
BRANCH  59  83
ATOM     83  C   UNL A   1      41.315  24.173  27.364  1.00  0.00     0.064 A 
ATOM     84  C   UNL A   1      41.898  23.063  27.991  1.00  0.00     0.173 A 
ATOM     85  C   UNL A   1      40.210  23.944  26.531  1.00  0.00     0.173 A 
ATOM     86  F   UNL A   1      42.976  23.225  28.771  1.00  0.00    -0.203 F 
ATOM     87  C   UNL A   1      41.398  21.777  27.793  1.00  0.00     0.198 A 
ATOM     88  C   UNL A   1      39.694  22.661  26.355  1.00  0.00     0.198 A 
ATOM     89  F   UNL A   1      39.622  24.969  25.897  1.00  0.00    -0.203 F 
ATOM     90  F   UNL A   1      41.996  20.731  28.378  1.00  0.00    -0.200 F 
ATOM     91  C   UNL A   1      40.290  21.578  26.984  1.00  0.00     0.200 A 
ATOM     92  F   UNL A   1      38.618  22.475  25.578  1.00  0.00    -0.200 F 
ATOM     93  F   UNL A   1      39.801  20.344  26.804  1.00  0.00    -0.200 F 
ENDBRANCH  59  83
BRANCH  71  94
ATOM     94  C   UNL A   1      47.122  27.428  25.234  1.00  0.00     0.064 A 
ATOM     95  C   UNL A   1      47.211  27.839  23.897  1.00  0.00     0.173 A 
ATOM     96  C   UNL A   1      48.196  26.695  25.766  1.00  0.00     0.173 A 
ATOM     97  F   UNL A   1      46.210  28.533  23.336  1.00  0.00    -0.203 F 
ATOM     98  C   UNL A   1      48.326  27.525  23.122  1.00  0.00     0.198 A 
ATOM     99  C   UNL A   1      49.322  26.409  24.999  1.00  0.00     0.198 A 
ATOM    100  F   UNL A   1      48.167  26.284  27.043  1.00  0.00    -0.203 F 
ATOM    101  F   UNL A   1      48.375  27.903  21.838  1.00  0.00    -0.200 F 
ATOM    102  C   UNL A   1      49.385  26.821  23.677  1.00  0.00     0.200 A 
ATOM    103  F   UNL A   1      50.352  25.747  25.543  1.00  0.00    -0.200 F 
ATOM    104  F   UNL A   1      50.467  26.540  22.937  1.00  0.00    -0.200 F 
ENDBRANCH  71  94
ENDBRANCH  45  46
ENDBRANCH  38  40
ENDBRANCH  37  38
ENDBRANCH  36  37
ENDBRANCH  35  36
ENDBRANCH  34  35
ENDBRANCH  33  34
ENDBRANCH   1  33
TORSDOF 19
ENDMDL
MODEL 2
REMARK VINA RESULT:     -12.0      0.578      7.008
REMARK SMILES Cc1cc(C)n(C)c(=O)c1C(=O)[NH+]1CCC2(CC1)C[NH2+][C@@H](C(=O)OCCOCCOCCOC(=O)c1ccc(-c3c4nc(c(-c5c(F)c(F)c(F)c(F)c5F)c5ccc([nH]5)c(-c5c(F)c(F)c(F)c(F)c5F)c5nc(c(-c6c(F)c(F)c(F)c(F)c6F)c6ccc3[nH]6)C=C5)C=C4)cc1)C2
REMARK SMILES IDX 28 1 27 2 26 3 25 4 24 5 22 6 23 7 21 8 13 9 14 10 18 11
REMARK SMILES IDX 15 13 17 14 16 15 19 16 99 17 20 18 11 21 12 22 10 23 1 24
REMARK SMILES IDX 2 25 3 26 4 27 8 28 5 29 6 30 9 31 7 32 29 33 30 34 31 35
REMARK SMILES IDX 32 36 33 37 34 38 35 39 36 40 37 41 98 42 38 43 97 44 39 45
REMARK SMILES IDX 40 46 41 47 91 48 42 49 96 50 90 51 92 52 43 53 95 54 89 55
REMARK SMILES IDX 88 56 44 58 76 59 56 60 75 61 57 62 60 63 74 64 93 65 58 66
REMARK SMILES IDX 59 67 73 69 94 70 61 71 45 72 46 73 54 74 47 75 48 76 52 77
REMARK SMILES IDX 55 78 49 79 50 80 53 81 51 82 77 83 78 84 86 85 79 86 80 87
REMARK SMILES IDX 84 88 87 89 81 90 82 91 85 92 83 93 62 94 63 95 71 96 64 97
REMARK SMILES IDX 65 98 69 99 72 100 66 101 67 102 70 103 68 104
REMARK H PARENT 13 12 20 19 20 20 92 57 60 68
REMARK Flexibility Score: inf
ROOT
ATOM      1  C   UNL A   1      33.512  34.666  28.926  1.00  0.00     0.188 C 
ENDROOT
BRANCH   1   2
ATOM      2  O   UNL A   1      33.348  33.258  29.057  1.00  0.00    -0.376 OA
BRANCH   2   3
ATOM      3  C   UNL A   1      34.455  32.405  28.788  1.00  0.00     0.202 C 
BRANCH   3   4
ATOM      4  C   UNL A   1      34.381  31.482  27.561  1.00  0.00     0.261 C 
BRANCH   4   5
ATOM      5  O   UNL A   1      33.414  30.418  27.660  1.00  0.00    -0.459 OA
BRANCH   5   6
ATOM      6  C   UNL A   1      32.334  30.504  26.838  1.00  0.00     0.364 C 
ATOM      7  O   UNL A   1      31.663  31.519  26.676  1.00  0.00    -0.245 OA
BRANCH   6   8
ATOM      8  C   UNL A   1      32.005  29.198  26.090  1.00  0.00     0.294 C 
ATOM      9  N   UNL A   1      34.150  24.805  24.038  1.00  0.00    -0.267 N 
ATOM     10  C   UNL A   1      33.534  25.861  23.249  1.00  0.00     0.271 C 
ATOM     11  C   UNL A   1      34.742  25.278  25.282  1.00  0.00     0.271 C 
ATOM     12  H   UNL A   1      34.116  25.780  24.174  1.00  0.00     0.357 HD
ATOM     13  C   UNL A   1      32.330  26.395  24.012  1.00  0.00     0.075 C 
ATOM     14  C   UNL A   1      33.752  26.065  26.165  1.00  0.00     0.075 C 
ATOM     15  C   UNL A   1      32.665  26.916  25.431  1.00  0.00     0.036 C 
ATOM     16  C   UNL A   1      31.349  26.983  26.246  1.00  0.00     0.268 C 
ATOM     17  C   UNL A   1      33.110  28.396  25.411  1.00  0.00     0.090 C 
ATOM     18  N   UNL A   1      31.445  28.208  27.029  1.00  0.00    -0.334 N 
ATOM     19  H   UNL A   1      32.065  28.078  27.829  1.00  0.00     0.347 HD
ATOM     20  H   UNL A   1      30.544  28.499  27.409  1.00  0.00     0.347 HD
BRANCH   9  21
ATOM     21  C   UNL A   1      34.276  23.545  23.454  1.00  0.00     0.350 C 
ATOM     22  O   UNL A   1      34.633  23.458  22.275  1.00  0.00    -0.225 OA
BRANCH  21  23
ATOM     23  C   UNL A   1      33.836  22.281  24.162  1.00  0.00     0.147 A 
ATOM     24  C   UNL A   1      31.310  22.660  23.953  1.00  0.00     0.045 C 
ATOM     25  C   UNL A   1      32.546  21.907  24.324  1.00  0.00    -0.027 A 
ATOM     26  C   UNL A   1      32.202  20.593  24.824  1.00  0.00     0.026 A 
ATOM     27  C   UNL A   1      33.108  19.621  24.954  1.00  0.00     0.018 A 
ATOM     28  C   UNL A   1      34.894  21.219  24.448  1.00  0.00     0.267 A 
ATOM     29  C   UNL A   1      32.628  18.251  25.351  1.00  0.00     0.064 C 
ATOM     30  N   UNL A   1      34.447  19.910  24.728  1.00  0.00    -0.315 N 
ATOM     31  O   UNL A   1      36.091  21.506  24.436  1.00  0.00    -0.268 OA
ATOM     32  C   UNL A   1      35.447  18.852  24.820  1.00  0.00     0.153 C 
ENDBRANCH  21  23
ENDBRANCH   9  21
ENDBRANCH   6   8
ENDBRANCH   5   6
ENDBRANCH   4   5
ENDBRANCH   3   4
ENDBRANCH   2   3
ENDBRANCH   1   2
BRANCH   1  33
ATOM     33  C   UNL A   1      33.397  35.562  30.170  1.00  0.00     0.188 C 
BRANCH  33  34
ATOM     34  O   UNL A   1      33.091  34.873  31.356  1.00  0.00    -0.376 OA
BRANCH  34  35
ATOM     35  C   UNL A   1      34.145  34.676  32.275  1.00  0.00     0.202 C 
BRANCH  35  36
ATOM     36  C   UNL A   1      34.264  33.268  32.885  1.00  0.00     0.261 C 
BRANCH  36  37
ATOM     37  O   UNL A   1      35.310  32.420  32.364  1.00  0.00    -0.460 OA
BRANCH  37  38
ATOM     38  C   UNL A   1      36.403  32.226  33.138  1.00  0.00     0.338 C 
ATOM     39  O   UNL A   1      36.466  32.335  34.355  1.00  0.00    -0.246 OA
BRANCH  38  40
ATOM     40  C   UNL A   1      37.463  31.612  32.300  1.00  0.00     0.060 A 
ATOM     41  C   UNL A   1      38.501  30.896  32.920  1.00  0.00     0.016 A 
ATOM     42  C   UNL A   1      37.430  31.727  30.910  1.00  0.00     0.016 A 
ATOM     43  C   UNL A   1      39.511  30.306  32.152  1.00  0.00     0.010 A 
ATOM     44  C   UNL A   1      38.459  31.164  30.145  1.00  0.00     0.010 A 
ATOM     45  C   UNL A   1      39.518  30.470  30.760  1.00  0.00    -0.014 A 
BRANCH  45  46
ATOM     46  C   UNL A   1      40.722  30.105  29.967  1.00  0.00     0.031 A 
ATOM     47  C   UNL A   1      40.785  28.729  29.362  1.00  0.00     0.074 A 
ATOM     48  C   UNL A   1      41.737  30.966  29.769  1.00  0.00     0.049 A 
ATOM     49  N   UNL A   1      41.751  28.155  28.690  1.00  0.00    -0.248 NA
ATOM     50  C   UNL A   1      39.592  27.887  29.540  1.00  0.00     0.031 C 
ATOM     51  C   UNL A   1      41.782  32.345  30.245  1.00  0.00     0.029 A 
ATOM     52  N   UNL A   1      42.933  30.796  29.112  1.00  0.00    -0.354 N 
ATOM     53  C   UNL A   1      41.280  26.890  28.362  1.00  0.00     0.074 A 
ATOM     54  C   UNL A   1      39.963  26.763  28.946  1.00  0.00     0.031 C 
ATOM     55  C   UNL A   1      42.947  32.898  29.864  1.00  0.00     0.029 A 
ATOM     56  C   UNL A   1      43.748  31.901  29.150  1.00  0.00     0.049 A 
ATOM     57  H   UNL A   1      43.183  29.960  28.656  1.00  0.00     0.167 HD
ATOM     58  C   UNL A   1      41.882  25.926  27.626  1.00  0.00     0.037 A 
ATOM     59  C   UNL A   1      44.999  32.080  28.678  1.00  0.00     0.037 A 
ATOM     60  C   UNL A   1      43.197  26.041  27.056  1.00  0.00     0.049 A 
ATOM     61  C   UNL A   1      45.701  30.948  27.968  1.00  0.00     0.074 A 
ATOM     62  C   UNL A   1      43.896  25.111  26.307  1.00  0.00     0.029 A 
ATOM     63  N   UNL A   1      44.017  27.154  27.176  1.00  0.00    -0.354 N 
ATOM     64  N   UNL A   1      45.250  29.757  27.659  1.00  0.00    -0.248 NA
ATOM     65  C   UNL A   1      47.090  31.186  27.544  1.00  0.00     0.031 C 
ATOM     66  C   UNL A   1      45.158  25.637  26.022  1.00  0.00     0.029 A 
ATOM     67  C   UNL A   1      45.225  26.922  26.538  1.00  0.00     0.049 A 
ATOM     68  H   UNL A   1      43.776  27.986  27.646  1.00  0.00     0.167 HD
ATOM     69  C   UNL A   1      46.282  29.118  26.981  1.00  0.00     0.074 A 
ATOM     70  C   UNL A   1      47.382  30.057  26.912  1.00  0.00     0.031 C 
ATOM     71  C   UNL A   1      46.312  27.865  26.463  1.00  0.00     0.037 A 
BRANCH  58  72
ATOM     72  C   UNL A   1      41.122  24.651  27.404  1.00  0.00     0.064 A 
ATOM     73  C   UNL A   1      40.037  24.590  26.516  1.00  0.00     0.173 A 
ATOM     74  C   UNL A   1      41.507  23.467  28.051  1.00  0.00     0.173 A 
ATOM     75  F   UNL A   1      39.621  25.697  25.882  1.00  0.00    -0.203 F 
ATOM     76  C   UNL A   1      39.353  23.398  26.301  1.00  0.00     0.198 A 
ATOM     77  C   UNL A   1      40.841  22.269  27.809  1.00  0.00     0.198 A 
ATOM     78  F   UNL A   1      42.540  23.468  28.906  1.00  0.00    -0.203 F 
ATOM     79  F   UNL A   1      38.292  23.374  25.483  1.00  0.00    -0.200 F 
ATOM     80  C   UNL A   1      39.760  22.236  26.940  1.00  0.00     0.200 A 
ATOM     81  F   UNL A   1      41.247  21.144  28.414  1.00  0.00    -0.200 F 
ATOM     82  F   UNL A   1      39.109  21.086  26.723  1.00  0.00    -0.200 F 
ENDBRANCH  58  72
BRANCH  59  83
ATOM     83  C   UNL A   1      45.672  33.398  28.845  1.00  0.00     0.064 A 
ATOM     84  C   UNL A   1      45.538  34.398  27.873  1.00  0.00     0.173 A 
ATOM     85  C   UNL A   1      46.454  33.686  29.973  1.00  0.00     0.173 A 
ATOM     86  F   UNL A   1      44.828  34.160  26.761  1.00  0.00    -0.203 F 
ATOM     87  C   UNL A   1      46.160  35.637  28.021  1.00  0.00     0.198 A 
ATOM     88  C   UNL A   1      47.053  34.935  30.134  1.00  0.00     0.198 A 
ATOM     89  F   UNL A   1      46.626  32.760  30.928  1.00  0.00    -0.203 F 
ATOM     90  F   UNL A   1      46.043  36.562  27.060  1.00  0.00    -0.200 F 
ATOM     91  C   UNL A   1      46.908  35.908  29.156  1.00  0.00     0.200 A 
ATOM     92  F   UNL A   1      47.769  35.195  31.236  1.00  0.00    -0.200 F 
ATOM     93  F   UNL A   1      47.496  37.103  29.306  1.00  0.00    -0.200 F 
ENDBRANCH  59  83
BRANCH  71  94
ATOM     94  C   UNL A   1      47.559  27.423  25.747  1.00  0.00     0.064 A 
ATOM     95  C   UNL A   1      47.699  27.562  24.359  1.00  0.00     0.173 A 
ATOM     96  C   UNL A   1      48.662  26.942  26.471  1.00  0.00     0.173 A 
ATOM     97  F   UNL A   1      46.673  28.006  23.617  1.00  0.00    -0.203 F 
ATOM     98  C   UNL A   1      48.894  27.229  23.722  1.00  0.00     0.198 A 
ATOM     99  C   UNL A   1      49.864  26.641  25.836  1.00  0.00     0.198 A 
ATOM    100  F   UNL A   1      48.585  26.797  27.803  1.00  0.00    -0.203 F 
ATOM    101  F   UNL A   1      48.994  27.344  22.390  1.00  0.00    -0.200 F 
ATOM    102  C   UNL A   1      49.977  26.781  24.462  1.00  0.00     0.200 A 
ATOM    103  F   UNL A   1      50.916  26.227  26.556  1.00  0.00    -0.200 F 
ATOM    104  F   UNL A   1      51.133  26.485  23.850  1.00  0.00    -0.200 F 
ENDBRANCH  71  94
ENDBRANCH  45  46
ENDBRANCH  38  40
ENDBRANCH  37  38
ENDBRANCH  36  37
ENDBRANCH  35  36
ENDBRANCH  34  35
ENDBRANCH  33  34
ENDBRANCH   1  33
TORSDOF 19
ENDMDL
MODEL 3
REMARK VINA RESULT:     -11.8      4.405      7.291
REMARK SMILES Cc1cc(C)n(C)c(=O)c1C(=O)[NH+]1CCC2(CC1)C[NH2+][C@@H](C(=O)OCCOCCOCCOC(=O)c1ccc(-c3c4nc(c(-c5c(F)c(F)c(F)c(F)c5F)c5ccc([nH]5)c(-c5c(F)c(F)c(F)c(F)c5F)c5nc(c(-c6c(F)c(F)c(F)c(F)c6F)c6ccc3[nH]6)C=C5)C=C4)cc1)C2
REMARK SMILES IDX 28 1 27 2 26 3 25 4 24 5 22 6 23 7 21 8 13 9 14 10 18 11
REMARK SMILES IDX 15 13 17 14 16 15 19 16 99 17 20 18 11 21 12 22 10 23 1 24
REMARK SMILES IDX 2 25 3 26 4 27 8 28 5 29 6 30 9 31 7 32 29 33 30 34 31 35
REMARK SMILES IDX 32 36 33 37 34 38 35 39 36 40 37 41 98 42 38 43 97 44 39 45
REMARK SMILES IDX 40 46 41 47 91 48 42 49 96 50 90 51 92 52 43 53 95 54 89 55
REMARK SMILES IDX 88 56 44 58 76 59 56 60 75 61 57 62 60 63 74 64 93 65 58 66
REMARK SMILES IDX 59 67 73 69 94 70 61 71 45 72 46 73 54 74 47 75 48 76 52 77
REMARK SMILES IDX 55 78 49 79 50 80 53 81 51 82 77 83 78 84 86 85 79 86 80 87
REMARK SMILES IDX 84 88 87 89 81 90 82 91 85 92 83 93 62 94 63 95 71 96 64 97
REMARK SMILES IDX 65 98 69 99 72 100 66 101 67 102 70 103 68 104
REMARK H PARENT 13 12 20 19 20 20 92 57 60 68
REMARK Flexibility Score: inf
ROOT
ATOM      1  C   UNL A   1      34.193  29.386  26.314  1.00  0.00     0.188 C 
ENDROOT
BRANCH   1   2
ATOM      2  O   UNL A   1      32.823  29.082  26.071  1.00  0.00    -0.376 OA
BRANCH   2   3
ATOM      3  C   UNL A   1      32.003  30.056  25.435  1.00  0.00     0.202 C 
BRANCH   3   4
ATOM      4  C   UNL A   1      30.887  29.565  24.498  1.00  0.00     0.261 C 
BRANCH   4   5
ATOM      5  O   UNL A   1      31.326  29.180  23.180  1.00  0.00    -0.459 OA
BRANCH   5   6
ATOM      6  C   UNL A   1      31.028  27.912  22.791  1.00  0.00     0.364 C 
ATOM      7  O   UNL A   1      30.439  27.624  21.753  1.00  0.00    -0.245 OA
BRANCH   6   8
ATOM      8  C   UNL A   1      31.507  26.822  23.770  1.00  0.00     0.294 C 
ATOM      9  N   UNL A   1      32.391  21.617  24.249  1.00  0.00    -0.267 N 
ATOM     10  C   UNL A   1      31.350  22.339  24.964  1.00  0.00     0.271 C 
ATOM     11  C   UNL A   1      32.720  22.198  22.955  1.00  0.00     0.271 C 
ATOM     12  H   UNL A   1      31.840  22.389  23.985  1.00  0.00     0.357 HD
ATOM     13  C   UNL A   1      31.888  23.713  25.341  1.00  0.00     0.075 C 
ATOM     14  C   UNL A   1      33.100  23.692  23.039  1.00  0.00     0.075 C 
ATOM     15  C   UNL A   1      32.383  24.547  24.135  1.00  0.00     0.036 C 
ATOM     16  C   UNL A   1      33.303  25.673  24.669  1.00  0.00     0.268 C 
ATOM     17  C   UNL A   1      31.236  25.350  23.479  1.00  0.00     0.090 C 
ATOM     18  N   UNL A   1      32.977  26.847  23.870  1.00  0.00    -0.334 N 
ATOM     19  H   UNL A   1      33.404  26.785  22.945  1.00  0.00     0.347 HD
ATOM     20  H   UNL A   1      33.324  27.711  24.287  1.00  0.00     0.347 HD
BRANCH   9  21
ATOM     21  C   UNL A   1      32.804  20.389  24.766  1.00  0.00     0.350 C 
ATOM     22  O   UNL A   1      31.954  19.576  25.143  1.00  0.00    -0.225 OA
BRANCH  21  23
ATOM     23  C   UNL A   1      34.261  20.075  25.033  1.00  0.00     0.147 A 
ATOM     24  C   UNL A   1      34.269  17.719  24.023  1.00  0.00     0.045 C 
ATOM     25  C   UNL A   1      34.873  18.927  24.661  1.00  0.00    -0.027 A 
ATOM     26  C   UNL A   1      36.309  18.776  24.762  1.00  0.00     0.026 A 
ATOM     27  C   UNL A   1      37.117  19.807  25.024  1.00  0.00     0.018 A 
ATOM     28  C   UNL A   1      35.167  21.219  25.475  1.00  0.00     0.267 A 
ATOM     29  C   UNL A   1      38.603  19.575  24.972  1.00  0.00     0.064 C 
ATOM     30  N   UNL A   1      36.560  21.039  25.338  1.00  0.00    -0.315 N 
ATOM     31  O   UNL A   1      34.691  22.256  25.936  1.00  0.00    -0.268 OA
ATOM     32  C   UNL A   1      37.425  22.188  25.582  1.00  0.00     0.153 C 
ENDBRANCH  21  23
ENDBRANCH   9  21
ENDBRANCH   6   8
ENDBRANCH   5   6
ENDBRANCH   4   5
ENDBRANCH   3   4
ENDBRANCH   2   3
ENDBRANCH   1   2
BRANCH   1  33
ATOM     33  C   UNL A   1      34.598  30.052  27.639  1.00  0.00     0.188 C 
BRANCH  33  34
ATOM     34  O   UNL A   1      34.497  31.453  27.640  1.00  0.00    -0.376 OA
BRANCH  34  35
ATOM     35  C   UNL A   1      33.235  32.006  27.946  1.00  0.00     0.202 C 
BRANCH  35  36
ATOM     36  C   UNL A   1      32.963  33.424  27.414  1.00  0.00     0.261 C 
BRANCH  36  37
ATOM     37  O   UNL A   1      32.355  34.358  28.331  1.00  0.00    -0.460 OA
BRANCH  37  38
ATOM     38  C   UNL A   1      33.130  35.357  28.814  1.00  0.00     0.338 C 
ATOM     39  O   UNL A   1      32.848  36.546  28.855  1.00  0.00    -0.246 OA
BRANCH  38  40
ATOM     40  C   UNL A   1      34.283  34.749  29.523  1.00  0.00     0.060 A 
ATOM     41  C   UNL A   1      35.545  34.742  28.904  1.00  0.00     0.016 A 
ATOM     42  C   UNL A   1      34.130  34.198  30.796  1.00  0.00     0.016 A 
ATOM     43  C   UNL A   1      36.648  34.177  29.553  1.00  0.00     0.010 A 
ATOM     44  C   UNL A   1      35.228  33.603  31.429  1.00  0.00     0.010 A 
ATOM     45  C   UNL A   1      36.488  33.567  30.804  1.00  0.00    -0.014 A 
BRANCH  45  46
ATOM     46  C   UNL A   1      37.570  32.716  31.368  1.00  0.00     0.031 A 
ATOM     47  C   UNL A   1      38.089  33.043  32.742  1.00  0.00     0.074 A 
ATOM     48  C   UNL A   1      38.079  31.667  30.697  1.00  0.00     0.049 A 
ATOM     49  N   UNL A   1      39.067  32.496  33.418  1.00  0.00    -0.248 NA
ATOM     50  C   UNL A   1      37.409  34.141  33.448  1.00  0.00     0.031 C 
ATOM     51  C   UNL A   1      37.631  31.201  29.389  1.00  0.00     0.029 A 
ATOM     52  N   UNL A   1      39.097  30.805  31.033  1.00  0.00    -0.354 N 
ATOM     53  C   UNL A   1      39.115  33.177  34.627  1.00  0.00     0.074 A 
ATOM     54  C   UNL A   1      38.100  34.207  34.576  1.00  0.00     0.031 C 
ATOM     55  C   UNL A   1      38.370  30.135  29.031  1.00  0.00     0.029 A 
ATOM     56  C   UNL A   1      39.369  29.867  30.068  1.00  0.00     0.049 A 
ATOM     57  H   UNL A   1      39.585  30.854  31.887  1.00  0.00     0.167 HD
ATOM     58  C   UNL A   1      39.919  32.955  35.694  1.00  0.00     0.037 A 
ATOM     59  C   UNL A   1      40.323  28.914  30.019  1.00  0.00     0.037 A 
ATOM     60  C   UNL A   1      40.940  31.943  35.745  1.00  0.00     0.049 A 
ATOM     61  C   UNL A   1      41.292  28.766  31.168  1.00  0.00     0.074 A 
ATOM     62  C   UNL A   1      41.814  31.654  36.778  1.00  0.00     0.029 A 
ATOM     63  N   UNL A   1      41.229  31.057  34.717  1.00  0.00    -0.354 N 
ATOM     64  N   UNL A   1      41.330  29.411  32.308  1.00  0.00    -0.248 NA
ATOM     65  C   UNL A   1      42.353  27.757  31.019  1.00  0.00     0.031 C 
ATOM     66  C   UNL A   1      42.667  30.631  36.356  1.00  0.00     0.029 A 
ATOM     67  C   UNL A   1      42.285  30.239  35.082  1.00  0.00     0.049 A 
ATOM     68  H   UNL A   1      40.752  31.016  33.856  1.00  0.00     0.167 HD
ATOM     69  C   UNL A   1      42.393  28.868  33.022  1.00  0.00     0.074 A 
ATOM     70  C   UNL A   1      42.969  27.832  32.191  1.00  0.00     0.031 C 
ATOM     71  C   UNL A   1      42.848  29.201  34.255  1.00  0.00     0.037 A 
BRANCH  58  72
ATOM     72  C   UNL A   1      39.734  33.837  36.895  1.00  0.00     0.064 A 
ATOM     73  C   UNL A   1      40.335  35.102  36.974  1.00  0.00     0.173 A 
ATOM     74  C   UNL A   1      38.912  33.434  37.958  1.00  0.00     0.173 A 
ATOM     75  F   UNL A   1      41.142  35.529  35.990  1.00  0.00    -0.203 F 
ATOM     76  C   UNL A   1      40.140  35.920  38.083  1.00  0.00     0.198 A 
ATOM     77  C   UNL A   1      38.692  34.268  39.050  1.00  0.00     0.198 A 
ATOM     78  F   UNL A   1      38.308  32.236  37.930  1.00  0.00    -0.203 F 
ATOM     79  F   UNL A   1      40.762  37.105  38.157  1.00  0.00    -0.200 F 
ATOM     80  C   UNL A   1      39.311  35.508  39.116  1.00  0.00     0.200 A 
ATOM     81  F   UNL A   1      37.877  33.875  40.039  1.00  0.00    -0.200 F 
ATOM     82  F   UNL A   1      39.114  36.301  40.176  1.00  0.00    -0.200 F 
ENDBRANCH  58  72
BRANCH  59  83
ATOM     83  C   UNL A   1      40.404  28.006  28.842  1.00  0.00     0.064 A 
ATOM     84  C   UNL A   1      39.729  26.778  28.839  1.00  0.00     0.173 A 
ATOM     85  C   UNL A   1      41.149  28.342  27.703  1.00  0.00     0.173 A 
ATOM     86  F   UNL A   1      39.030  26.395  29.917  1.00  0.00    -0.203 F 
ATOM     87  C   UNL A   1      39.794  25.921  27.741  1.00  0.00     0.198 A 
ATOM     88  C   UNL A   1      41.191  27.498  26.594  1.00  0.00     0.198 A 
ATOM     89  F   UNL A   1      41.825  29.500  27.658  1.00  0.00    -0.203 F 
ATOM     90  F   UNL A   1      39.166  24.739  27.778  1.00  0.00    -0.200 F 
ATOM     91  C   UNL A   1      40.516  26.287  26.616  1.00  0.00     0.200 A 
ATOM     92  F   UNL A   1      41.884  27.859  25.506  1.00  0.00    -0.200 F 
ATOM     93  F   UNL A   1      40.569  25.470  25.555  1.00  0.00    -0.200 F 
ENDBRANCH  59  83
BRANCH  71  94
ATOM     94  C   UNL A   1      44.013  28.431  34.814  1.00  0.00     0.064 A 
ATOM     95  C   UNL A   1      45.330  28.895  34.689  1.00  0.00     0.173 A 
ATOM     96  C   UNL A   1      43.798  27.264  35.567  1.00  0.00     0.173 A 
ATOM     97  F   UNL A   1      45.592  29.998  33.972  1.00  0.00    -0.203 F 
ATOM     98  C   UNL A   1      46.389  28.216  35.289  1.00  0.00     0.198 A 
ATOM     99  C   UNL A   1      44.854  26.607  36.191  1.00  0.00     0.198 A 
ATOM    100  F   UNL A   1      42.557  26.781  35.726  1.00  0.00    -0.203 F 
ATOM    101  F   UNL A   1      47.643  28.662  35.130  1.00  0.00    -0.200 F 
ATOM    102  C   UNL A   1      46.149  27.080  36.048  1.00  0.00     0.200 A 
ATOM    103  F   UNL A   1      44.618  25.521  36.941  1.00  0.00    -0.200 F 
ATOM    104  F   UNL A   1      47.167  26.443  36.644  1.00  0.00    -0.200 F 
ENDBRANCH  71  94
ENDBRANCH  45  46
ENDBRANCH  38  40
ENDBRANCH  37  38
ENDBRANCH  36  37
ENDBRANCH  35  36
ENDBRANCH  34  35
ENDBRANCH  33  34
ENDBRANCH   1  33
TORSDOF 19
ENDMDL
