MODEL 1
REMARK VINA RESULT:     -10.1      0.000      0.000
REMARK SMILES CCCc1n[nH]c(C(=O)N[C@H](C)CC(=O)OCCOCCOCCOC(=O)c2ccc(-c3c4nc(c(-c5c(F)c(F)c(F)c(F)c5F)c5ccc([nH]5)c(-c5c(F)c(F)c(F)c(F)c5F)c5nc(c(-c6c(F)c(F)c(F)c(F)c6F)c6ccc3[nH]6)C=C5)C=C4)cc2)n1
REMARK SMILES IDX 19 1 18 2 17 3 16 4 14 5 15 6 13 7 11 8 12 9 10 10 8 11 9 12
REMARK SMILES IDX 7 14 4 15 5 16 91 17 6 18 3 20 2 21 1 22 20 23 21 24 22 25
REMARK SMILES IDX 23 26 24 27 25 28 26 29 27 30 28 31 29 32 90 33 30 34 89 35
REMARK SMILES IDX 31 36 32 37 33 38 83 39 34 40 88 41 82 42 84 43 35 44 87 45
REMARK SMILES IDX 81 46 80 47 36 49 68 50 48 51 67 52 49 53 52 54 66 55 85 56
REMARK SMILES IDX 50 57 51 58 65 60 86 61 53 62 37 63 38 64 46 65 39 66 40 67
REMARK SMILES IDX 44 68 47 69 41 70 42 71 45 72 43 73 69 74 70 75 78 76 71 77
REMARK SMILES IDX 72 78 76 79 79 80 73 81 74 82 77 83 75 84 54 85 55 86 63 87
REMARK SMILES IDX 56 88 57 89 61 90 64 91 58 92 59 93 62 94 60 95
REMARK H PARENT 10 13 6 19 84 48 52 59
REMARK Flexibility Score: inf
ROOT
ATOM      1  O   UNL A   1      34.554  31.837  27.533  1.00  0.00    -0.376 OA
ENDROOT
BRANCH   1   2
ATOM      2  C   UNL A   1      33.720  30.703  27.411  1.00  0.00     0.202 C 
BRANCH   2   3
ATOM      3  C   UNL A   1      34.405  29.336  27.283  1.00  0.00     0.261 C 
BRANCH   3   4
ATOM      4  O   UNL A   1      33.544  28.213  27.012  1.00  0.00    -0.463 OA
BRANCH   4   5
ATOM      5  C   UNL A   1      33.320  27.860  25.723  1.00  0.00     0.307 C 
ATOM      6  O   UNL A   1      33.796  28.450  24.761  1.00  0.00    -0.252 OA
BRANCH   5   7
ATOM      7  C   UNL A   1      32.316  26.721  25.600  1.00  0.00     0.147 C 
BRANCH   7   8
ATOM      8  C   UNL A   1      31.596  26.577  24.250  1.00  0.00     0.090 C 
ATOM      9  C   UNL A   1      30.609  27.723  23.973  1.00  0.00     0.031 C 
BRANCH   8  10
ATOM     10  N   UNL A   1      32.536  26.595  23.118  1.00  0.00    -0.346 N 
ATOM     11  C   UNL A   1      33.096  25.574  22.399  1.00  0.00     0.288 C 
ATOM     12  O   UNL A   1      33.647  25.873  21.336  1.00  0.00    -0.266 OA
ATOM     13  H   UNL A   1      32.808  27.495  22.828  1.00  0.00     0.164 HD
BRANCH  11  14
ATOM     14  C   UNL A   1      33.060  24.213  22.860  1.00  0.00     0.214 A 
ATOM     15  C   UNL A   1      33.359  22.333  23.766  1.00  0.00     0.151 A 
ATOM     16  N   UNL A   1      32.630  22.028  22.687  1.00  0.00    -0.158 NA
ATOM     17  N   UNL A   1      33.603  23.674  23.939  1.00  0.00    -0.207 NA
ATOM     18  N   UNL A   1      32.473  23.228  22.121  1.00  0.00    -0.255 N 
ATOM     19  H   UNL A   1      31.994  23.382  21.274  1.00  0.00     0.192 HD
BRANCH  15  20
ATOM     20  C   UNL A   1      33.761  21.259  24.703  1.00  0.00     0.079 C 
BRANCH  20  21
ATOM     21  C   UNL A   1      34.706  21.607  25.844  1.00  0.00     0.005 C 
ATOM     22  C   UNL A   1      34.039  21.464  27.197  1.00  0.00     0.004 C 
ENDBRANCH  20  21
ENDBRANCH  15  20
ENDBRANCH  11  14
ENDBRANCH   8  10
ENDBRANCH   7   8
ENDBRANCH   5   7
ENDBRANCH   4   5
ENDBRANCH   3   4
ENDBRANCH   2   3
ENDBRANCH   1   2
BRANCH   1  23
ATOM     23  C   UNL A   1      34.061  32.965  28.223  1.00  0.00     0.188 C 
BRANCH  23  24
ATOM     24  C   UNL A   1      35.168  33.993  28.499  1.00  0.00     0.188 C 
BRANCH  24  25
ATOM     25  O   UNL A   1      35.377  34.436  29.832  1.00  0.00    -0.376 OA
BRANCH  25  26
ATOM     26  C   UNL A   1      34.259  34.468  30.710  1.00  0.00     0.202 C 
BRANCH  26  27
ATOM     27  C   UNL A   1      34.300  33.547  31.935  1.00  0.00     0.261 C 
BRANCH  27  28
ATOM     28  O   UNL A   1      34.835  32.223  31.699  1.00  0.00    -0.460 OA
BRANCH  28  29
ATOM     29  C   UNL A   1      35.902  31.877  32.454  1.00  0.00     0.338 C 
ATOM     30  O   UNL A   1      36.022  32.046  33.671  1.00  0.00    -0.246 OA
BRANCH  29  31
ATOM     31  C   UNL A   1      36.924  31.129  31.689  1.00  0.00     0.060 A 
ATOM     32  C   UNL A   1      37.900  30.421  32.404  1.00  0.00     0.016 A 
ATOM     33  C   UNL A   1      37.032  31.238  30.299  1.00  0.00     0.016 A 
ATOM     34  C   UNL A   1      39.003  29.870  31.740  1.00  0.00     0.010 A 
ATOM     35  C   UNL A   1      38.148  30.694  29.636  1.00  0.00     0.010 A 
ATOM     36  C   UNL A   1      39.160  30.032  30.352  1.00  0.00    -0.014 A 
BRANCH  36  37
ATOM     37  C   UNL A   1      40.464  29.657  29.721  1.00  0.00     0.031 A 
ATOM     38  C   UNL A   1      40.590  28.309  29.068  1.00  0.00     0.074 A 
ATOM     39  C   UNL A   1      41.516  30.495  29.672  1.00  0.00     0.049 A 
ATOM     40  N   UNL A   1      41.572  27.813  28.356  1.00  0.00    -0.248 NA
ATOM     41  C   UNL A   1      39.476  27.378  29.293  1.00  0.00     0.031 C 
ATOM     42  C   UNL A   1      41.585  31.789  30.330  1.00  0.00     0.029 A 
ATOM     43  N   UNL A   1      42.707  30.412  28.983  1.00  0.00    -0.354 N 
ATOM     44  C   UNL A   1      41.212  26.502  28.076  1.00  0.00     0.074 A 
ATOM     45  C   UNL A   1      39.919  26.283  28.694  1.00  0.00     0.031 C 
ATOM     46  C   UNL A   1      42.663  32.454  29.881  1.00  0.00     0.029 A 
ATOM     47  C   UNL A   1      43.420  31.590  28.978  1.00  0.00     0.049 A 
ATOM     48  H   UNL A   1      43.016  29.590  28.538  1.00  0.00     0.167 HD
ATOM     49  C   UNL A   1      41.903  25.558  27.392  1.00  0.00     0.037 A 
ATOM     50  C   UNL A   1      44.543  31.935  28.313  1.00  0.00     0.037 A 
ATOM     51  C   UNL A   1      43.210  25.754  26.817  1.00  0.00     0.049 A 
ATOM     52  C   UNL A   1      45.281  30.878  27.527  1.00  0.00     0.074 A 
ATOM     53  C   UNL A   1      44.005  24.842  26.143  1.00  0.00     0.029 A 
ATOM     54  N   UNL A   1      43.923  26.944  26.859  1.00  0.00    -0.354 N 
ATOM     55  N   UNL A   1      44.931  29.644  27.255  1.00  0.00    -0.248 NA
ATOM     56  C   UNL A   1      46.605  31.251  27.001  1.00  0.00     0.031 C 
ATOM     57  C   UNL A   1      45.218  25.464  25.826  1.00  0.00     0.029 A 
ATOM     58  C   UNL A   1      45.154  26.784  26.239  1.00  0.00     0.049 A 
ATOM     59  H   UNL A   1      43.603  27.779  27.271  1.00  0.00     0.167 HD
ATOM     60  C   UNL A   1      45.986  29.096  26.535  1.00  0.00     0.074 A 
ATOM     61  C   UNL A   1      46.970  30.145  26.369  1.00  0.00     0.031 C 
ATOM     62  C   UNL A   1      46.133  27.830  26.074  1.00  0.00     0.037 A 
BRANCH  49  63
ATOM     63  C   UNL A   1      41.274  24.196  27.305  1.00  0.00     0.064 A 
ATOM     64  C   UNL A   1      41.815  23.087  27.972  1.00  0.00     0.173 A 
ATOM     65  C   UNL A   1      40.136  23.991  26.509  1.00  0.00     0.173 A 
ATOM     66  F   UNL A   1      42.913  23.225  28.731  1.00  0.00    -0.203 F 
ATOM     67  C   UNL A   1      41.274  21.815  27.803  1.00  0.00     0.198 A 
ATOM     68  C   UNL A   1      39.575  22.725  26.372  1.00  0.00     0.198 A 
ATOM     69  F   UNL A   1      39.574  25.017  25.853  1.00  0.00    -0.203 F 
ATOM     70  F   UNL A   1      41.856  20.758  28.386  1.00  0.00    -0.200 F 
ATOM     71  C   UNL A   1      40.153  21.636  27.006  1.00  0.00     0.200 A 
ATOM     72  F   UNL A   1      38.485  22.555  25.611  1.00  0.00    -0.200 F 
ATOM     73  F   UNL A   1      39.641  20.410  26.834  1.00  0.00    -0.200 F 
ENDBRANCH  49  63
BRANCH  50  74
ATOM     74  C   UNL A   1      45.065  33.334  28.342  1.00  0.00     0.064 A 
ATOM     75  C   UNL A   1      45.968  33.739  29.341  1.00  0.00     0.173 A 
ATOM     76  C   UNL A   1      44.650  34.306  27.423  1.00  0.00     0.173 A 
ATOM     77  F   UNL A   1      46.372  32.865  30.275  1.00  0.00    -0.203 F 
ATOM     78  C   UNL A   1      46.415  35.058  29.426  1.00  0.00     0.198 A 
ATOM     79  C   UNL A   1      45.130  35.614  27.482  1.00  0.00     0.198 A 
ATOM     80  F   UNL A   1      43.772  33.990  26.460  1.00  0.00    -0.203 F 
ATOM     81  F   UNL A   1      47.222  35.427  30.430  1.00  0.00    -0.200 F 
ATOM     82  C   UNL A   1      46.004  35.992  28.489  1.00  0.00     0.200 A 
ATOM     83  F   UNL A   1      44.737  36.510  26.567  1.00  0.00    -0.200 F 
ATOM     84  F   UNL A   1      46.434  37.258  28.567  1.00  0.00    -0.200 F 
ENDBRANCH  50  74
BRANCH  62  85
ATOM     85  C   UNL A   1      47.395  27.509  25.320  1.00  0.00     0.064 A 
ATOM     86  C   UNL A   1      47.509  27.720  23.936  1.00  0.00     0.173 A 
ATOM     87  C   UNL A   1      48.517  27.004  25.996  1.00  0.00     0.173 A 
ATOM     88  F   UNL A   1      46.465  28.189  23.236  1.00  0.00    -0.203 F 
ATOM     89  C   UNL A   1      48.683  27.402  23.255  1.00  0.00     0.198 A 
ATOM     90  C   UNL A   1      49.700  26.720  25.316  1.00  0.00     0.198 A 
ATOM     91  F   UNL A   1      48.469  26.790  27.320  1.00  0.00    -0.203 F 
ATOM     92  F   UNL A   1      48.746  27.557  21.925  1.00  0.00    -0.200 F 
ATOM     93  C   UNL A   1      49.778  26.909  23.946  1.00  0.00     0.200 A 
ATOM     94  F   UNL A   1      50.762  26.257  25.989  1.00  0.00    -0.200 F 
ATOM     95  F   UNL A   1      50.906  26.606  23.290  1.00  0.00    -0.200 F 
ENDBRANCH  62  85
ENDBRANCH  36  37
ENDBRANCH  29  31
ENDBRANCH  28  29
ENDBRANCH  27  28
ENDBRANCH  26  27
ENDBRANCH  25  26
ENDBRANCH  24  25
ENDBRANCH  23  24
ENDBRANCH   1  23
TORSDOF 22
ENDMDL
MODEL 2
REMARK VINA RESULT:      -9.7      3.632      9.020
REMARK SMILES CCCc1n[nH]c(C(=O)N[C@H](C)CC(=O)OCCOCCOCCOC(=O)c2ccc(-c3c4nc(c(-c5c(F)c(F)c(F)c(F)c5F)c5ccc([nH]5)c(-c5c(F)c(F)c(F)c(F)c5F)c5nc(c(-c6c(F)c(F)c(F)c(F)c6F)c6ccc3[nH]6)C=C5)C=C4)cc2)n1
REMARK SMILES IDX 19 1 18 2 17 3 16 4 14 5 15 6 13 7 11 8 12 9 10 10 8 11 9 12
REMARK SMILES IDX 7 14 4 15 5 16 91 17 6 18 3 20 2 21 1 22 20 23 21 24 22 25
REMARK SMILES IDX 23 26 24 27 25 28 26 29 27 30 28 31 29 32 90 33 30 34 89 35
REMARK SMILES IDX 31 36 32 37 33 38 83 39 34 40 88 41 82 42 84 43 35 44 87 45
REMARK SMILES IDX 81 46 80 47 36 49 68 50 48 51 67 52 49 53 52 54 66 55 85 56
REMARK SMILES IDX 50 57 51 58 65 60 86 61 53 62 37 63 38 64 46 65 39 66 40 67
REMARK SMILES IDX 44 68 47 69 41 70 42 71 45 72 43 73 69 74 70 75 78 76 71 77
REMARK SMILES IDX 72 78 76 79 79 80 73 81 74 82 77 83 75 84 54 85 55 86 63 87
REMARK SMILES IDX 56 88 57 89 61 90 64 91 58 92 59 93 62 94 60 95
REMARK H PARENT 10 13 6 19 84 48 52 59
REMARK Flexibility Score: inf
ROOT
ATOM      1  O   UNL A   1      37.811  21.948  25.963  1.00  0.00    -0.376 OA
ENDROOT
BRANCH   1   2
ATOM      2  C   UNL A   1      37.557  23.322  25.755  1.00  0.00     0.202 C 
BRANCH   2   3
ATOM      3  C   UNL A   1      36.528  23.693  24.679  1.00  0.00     0.261 C 
BRANCH   3   4
ATOM      4  O   UNL A   1      35.494  24.614  25.075  1.00  0.00    -0.463 OA
BRANCH   4   5
ATOM      5  C   UNL A   1      34.257  24.475  24.540  1.00  0.00     0.307 C 
ATOM      6  O   UNL A   1      34.041  23.975  23.442  1.00  0.00    -0.252 OA
BRANCH   5   7
ATOM      7  C   UNL A   1      33.177  25.114  25.402  1.00  0.00     0.147 C 
BRANCH   7   8
ATOM      8  C   UNL A   1      32.968  26.628  25.239  1.00  0.00     0.090 C 
ATOM      9  C   UNL A   1      33.436  27.433  26.463  1.00  0.00     0.031 C 
BRANCH   8  10
ATOM     10  N   UNL A   1      33.733  27.172  24.105  1.00  0.00    -0.346 N 
ATOM     11  C   UNL A   1      33.395  28.098  23.156  1.00  0.00     0.288 C 
ATOM     12  O   UNL A   1      34.314  28.564  22.476  1.00  0.00    -0.266 OA
ATOM     13  H   UNL A   1      34.642  26.807  24.014  1.00  0.00     0.164 HD
BRANCH  11  14
ATOM     14  C   UNL A   1      32.034  28.507  22.946  1.00  0.00     0.214 A 
ATOM     15  C   UNL A   1      30.060  29.242  23.051  1.00  0.00     0.151 A 
ATOM     16  N   UNL A   1      30.001  28.379  22.031  1.00  0.00    -0.158 NA
ATOM     17  N   UNL A   1      31.307  29.389  23.610  1.00  0.00    -0.207 NA
ATOM     18  N   UNL A   1      31.252  27.913  21.998  1.00  0.00    -0.255 N 
ATOM     19  H   UNL A   1      31.570  27.225  21.369  1.00  0.00     0.192 HD
BRANCH  15  20
ATOM     20  C   UNL A   1      28.851  30.006  23.433  1.00  0.00     0.079 C 
BRANCH  20  21
ATOM     21  C   UNL A   1      28.401  31.150  22.535  1.00  0.00     0.005 C 
ATOM     22  C   UNL A   1      28.774  32.502  23.108  1.00  0.00     0.004 C 
ENDBRANCH  20  21
ENDBRANCH  15  20
ENDBRANCH  11  14
ENDBRANCH   8  10
ENDBRANCH   7   8
ENDBRANCH   5   7
ENDBRANCH   4   5
ENDBRANCH   3   4
ENDBRANCH   2   3
ENDBRANCH   1   2
BRANCH   1  23
ATOM     23  C   UNL A   1      39.121  21.464  25.759  1.00  0.00     0.188 C 
BRANCH  23  24
ATOM     24  C   UNL A   1      40.136  22.156  26.681  1.00  0.00     0.188 C 
BRANCH  24  25
ATOM     25  O   UNL A   1      41.266  21.424  27.129  1.00  0.00    -0.376 OA
BRANCH  25  26
ATOM     26  C   UNL A   1      41.151  20.011  27.233  1.00  0.00     0.202 C 
BRANCH  26  27
ATOM     27  C   UNL A   1      42.218  19.164  26.530  1.00  0.00     0.261 C 
BRANCH  27  28
ATOM     28  O   UNL A   1      42.584  19.605  25.201  1.00  0.00    -0.460 OA
BRANCH  28  29
ATOM     29  C   UNL A   1      43.906  19.579  24.917  1.00  0.00     0.338 C 
ATOM     30  O   UNL A   1      44.558  18.596  24.554  1.00  0.00    -0.246 OA
BRANCH  29  31
ATOM     31  C   UNL A   1      44.525  20.923  24.961  1.00  0.00     0.060 A 
ATOM     32  C   UNL A   1      45.281  21.267  26.090  1.00  0.00     0.016 A 
ATOM     33  C   UNL A   1      44.247  21.895  23.995  1.00  0.00     0.016 A 
ATOM     34  C   UNL A   1      45.713  22.587  26.276  1.00  0.00     0.010 A 
ATOM     35  C   UNL A   1      44.672  23.223  24.191  1.00  0.00     0.010 A 
ATOM     36  C   UNL A   1      45.381  23.590  25.347  1.00  0.00    -0.014 A 
BRANCH  36  37
ATOM     37  C   UNL A   1      45.637  25.020  25.702  1.00  0.00     0.031 A 
ATOM     38  C   UNL A   1      44.564  25.790  26.421  1.00  0.00     0.074 A 
ATOM     39  C   UNL A   1      46.807  25.635  25.448  1.00  0.00     0.049 A 
ATOM     40  N   UNL A   1      44.601  26.994  26.936  1.00  0.00    -0.248 NA
ATOM     41  C   UNL A   1      43.257  25.127  26.525  1.00  0.00     0.031 C 
ATOM     42  C   UNL A   1      47.905  25.061  24.687  1.00  0.00     0.029 A 
ATOM     43  N   UNL A   1      47.296  26.855  25.862  1.00  0.00    -0.354 N 
ATOM     44  C   UNL A   1      43.317  27.248  27.397  1.00  0.00     0.074 A 
ATOM     45  C   UNL A   1      42.526  26.070  27.100  1.00  0.00     0.031 C 
ATOM     46  C   UNL A   1      48.992  25.838  24.830  1.00  0.00     0.029 A 
ATOM     47  C   UNL A   1      48.640  27.020  25.612  1.00  0.00     0.049 A 
ATOM     48  H   UNL A   1      46.738  27.541  26.294  1.00  0.00     0.167 HD
ATOM     49  C   UNL A   1      42.831  28.367  27.987  1.00  0.00     0.037 A 
ATOM     50  C   UNL A   1      49.489  28.003  25.982  1.00  0.00     0.037 A 
ATOM     51  C   UNL A   1      43.599  29.560  28.241  1.00  0.00     0.049 A 
ATOM     52  C   UNL A   1      48.934  29.227  26.670  1.00  0.00     0.074 A 
ATOM     53  C   UNL A   1      43.180  30.758  28.796  1.00  0.00     0.029 A 
ATOM     54  N   UNL A   1      44.946  29.712  27.944  1.00  0.00    -0.354 N 
ATOM     55  N   UNL A   1      47.723  29.458  27.113  1.00  0.00    -0.248 NA
ATOM     56  C   UNL A   1      49.862  30.355  26.857  1.00  0.00     0.031 C 
ATOM     57  C   UNL A   1      44.258  31.650  28.784  1.00  0.00     0.029 A 
ATOM     58  C   UNL A   1      45.368  30.988  28.288  1.00  0.00     0.049 A 
ATOM     59  H   UNL A   1      45.518  29.016  27.546  1.00  0.00     0.167 HD
ATOM     60  C   UNL A   1      47.741  30.750  27.626  1.00  0.00     0.074 A 
ATOM     61  C   UNL A   1      49.097  31.238  27.482  1.00  0.00     0.031 C 
ATOM     62  C   UNL A   1      46.719  31.473  28.146  1.00  0.00     0.037 A 
BRANCH  49  63
ATOM     63  C   UNL A   1      41.366  28.367  28.324  1.00  0.00     0.064 A 
ATOM     64  C   UNL A   1      40.403  28.863  27.432  1.00  0.00     0.173 A 
ATOM     65  C   UNL A   1      40.926  27.902  29.572  1.00  0.00     0.173 A 
ATOM     66  F   UNL A   1      40.773  29.338  26.233  1.00  0.00    -0.203 F 
ATOM     67  C   UNL A   1      39.062  28.943  27.800  1.00  0.00     0.198 A 
ATOM     68  C   UNL A   1      39.580  27.949  29.921  1.00  0.00     0.198 A 
ATOM     69  F   UNL A   1      41.804  27.412  30.461  1.00  0.00    -0.203 F 
ATOM     70  F   UNL A   1      38.172  29.495  26.963  1.00  0.00    -0.200 F 
ATOM     71  C   UNL A   1      38.651  28.483  29.042  1.00  0.00     0.200 A 
ATOM     72  F   UNL A   1      39.183  27.492  31.117  1.00  0.00    -0.200 F 
ATOM     73  F   UNL A   1      37.362  28.572  29.398  1.00  0.00    -0.200 F 
ENDBRANCH  49  63
BRANCH  50  74
ATOM     74  C   UNL A   1      50.956  27.901  25.722  1.00  0.00     0.064 A 
ATOM     75  C   UNL A   1      51.480  28.203  24.453  1.00  0.00     0.173 A 
ATOM     76  C   UNL A   1      51.859  27.460  26.699  1.00  0.00     0.173 A 
ATOM     77  F   UNL A   1      50.661  28.591  23.463  1.00  0.00    -0.203 F 
ATOM     78  C   UNL A   1      52.838  28.049  24.171  1.00  0.00     0.198 A 
ATOM     79  C   UNL A   1      53.223  27.348  26.429  1.00  0.00     0.198 A 
ATOM     80  F   UNL A   1      51.419  27.135  27.923  1.00  0.00    -0.203 F 
ATOM     81  F   UNL A   1      53.294  28.280  22.932  1.00  0.00    -0.200 F 
ATOM     82  C   UNL A   1      53.710  27.632  25.164  1.00  0.00     0.200 A 
ATOM     83  F   UNL A   1      54.063  26.955  27.396  1.00  0.00    -0.200 F 
ATOM     84  F   UNL A   1      55.015  27.487  24.896  1.00  0.00    -0.200 F 
ENDBRANCH  50  74
BRANCH  62  85
ATOM     85  C   UNL A   1      47.029  32.865  28.626  1.00  0.00     0.064 A 
ATOM     86  C   UNL A   1      46.846  33.993  27.809  1.00  0.00     0.173 A 
ATOM     87  C   UNL A   1      47.497  33.077  29.933  1.00  0.00     0.173 A 
ATOM     88  F   UNL A   1      46.414  33.849  26.548  1.00  0.00    -0.203 F 
ATOM     89  C   UNL A   1      47.154  35.271  28.270  1.00  0.00     0.198 A 
ATOM     90  C   UNL A   1      47.771  34.360  30.401  1.00  0.00     0.198 A 
ATOM     91  F   UNL A   1      47.683  32.037  30.761  1.00  0.00    -0.203 F 
ATOM     92  F   UNL A   1      47.026  36.325  27.451  1.00  0.00    -0.200 F 
ATOM     93  C   UNL A   1      47.609  35.454  29.566  1.00  0.00     0.200 A 
ATOM     94  F   UNL A   1      48.197  34.536  31.659  1.00  0.00    -0.200 F 
ATOM     95  F   UNL A   1      47.903  36.685  30.008  1.00  0.00    -0.200 F 
ENDBRANCH  62  85
ENDBRANCH  36  37
ENDBRANCH  29  31
ENDBRANCH  28  29
ENDBRANCH  27  28
ENDBRANCH  26  27
ENDBRANCH  25  26
ENDBRANCH  24  25
ENDBRANCH  23  24
ENDBRANCH   1  23
TORSDOF 22
ENDMDL
MODEL 3
REMARK VINA RESULT:      -9.6      3.445      8.956
REMARK SMILES CCCc1n[nH]c(C(=O)N[C@H](C)CC(=O)OCCOCCOCCOC(=O)c2ccc(-c3c4nc(c(-c5c(F)c(F)c(F)c(F)c5F)c5ccc([nH]5)c(-c5c(F)c(F)c(F)c(F)c5F)c5nc(c(-c6c(F)c(F)c(F)c(F)c6F)c6ccc3[nH]6)C=C5)C=C4)cc2)n1
REMARK SMILES IDX 19 1 18 2 17 3 16 4 14 5 15 6 13 7 11 8 12 9 10 10 8 11 9 12
REMARK SMILES IDX 7 14 4 15 5 16 91 17 6 18 3 20 2 21 1 22 20 23 21 24 22 25
REMARK SMILES IDX 23 26 24 27 25 28 26 29 27 30 28 31 29 32 90 33 30 34 89 35
REMARK SMILES IDX 31 36 32 37 33 38 83 39 34 40 88 41 82 42 84 43 35 44 87 45
REMARK SMILES IDX 81 46 80 47 36 49 68 50 48 51 67 52 49 53 52 54 66 55 85 56
REMARK SMILES IDX 50 57 51 58 65 60 86 61 53 62 37 63 38 64 46 65 39 66 40 67
REMARK SMILES IDX 44 68 47 69 41 70 42 71 45 72 43 73 69 74 70 75 78 76 71 77
REMARK SMILES IDX 72 78 76 79 79 80 73 81 74 82 77 83 75 84 54 85 55 86 63 87
REMARK SMILES IDX 56 88 57 89 61 90 64 91 58 92 59 93 62 94 60 95
REMARK H PARENT 10 13 6 19 84 48 52 59
REMARK Flexibility Score: inf
ROOT
ATOM      1  O   UNL A   1      37.307  22.377  24.474  1.00  0.00    -0.376 OA
ENDROOT
BRANCH   1   2
ATOM      2  C   UNL A   1      35.995  22.832  24.730  1.00  0.00     0.202 C 
BRANCH   2   3
ATOM      3  C   UNL A   1      35.091  23.094  23.517  1.00  0.00     0.261 C 
BRANCH   3   4
ATOM      4  O   UNL A   1      34.954  24.467  23.107  1.00  0.00    -0.463 OA
BRANCH   4   5
ATOM      5  C   UNL A   1      33.847  24.835  22.419  1.00  0.00     0.307 C 
ATOM      6  O   UNL A   1      33.814  25.774  21.632  1.00  0.00    -0.252 OA
BRANCH   5   7
ATOM      7  C   UNL A   1      32.620  24.027  22.819  1.00  0.00     0.147 C 
BRANCH   7   8
ATOM      8  C   UNL A   1      31.585  24.736  23.707  1.00  0.00     0.090 C 
ATOM      9  C   UNL A   1      30.153  24.633  23.157  1.00  0.00     0.031 C 
BRANCH   8  10
ATOM     10  N   UNL A   1      31.523  24.151  25.056  1.00  0.00    -0.346 N 
ATOM     11  C   UNL A   1      31.605  24.733  26.292  1.00  0.00     0.288 C 
ATOM     12  O   UNL A   1      31.261  24.047  27.259  1.00  0.00    -0.266 OA
ATOM     13  H   UNL A   1      31.401  23.175  25.072  1.00  0.00     0.164 HD
BRANCH  11  14
ATOM     14  C   UNL A   1      32.080  26.078  26.467  1.00  0.00     0.214 A 
ATOM     15  C   UNL A   1      33.171  27.863  26.733  1.00  0.00     0.151 A 
ATOM     16  N   UNL A   1      31.947  28.198  27.156  1.00  0.00    -0.158 NA
ATOM     17  N   UNL A   1      33.284  26.581  26.252  1.00  0.00    -0.207 NA
ATOM     18  N   UNL A   1      31.283  27.050  26.998  1.00  0.00    -0.255 N 
ATOM     19  H   UNL A   1      30.337  26.920  27.237  1.00  0.00     0.192 HD
BRANCH  15  20
ATOM     20  C   UNL A   1      34.247  28.879  26.734  1.00  0.00     0.079 C 
BRANCH  20  21
ATOM     21  C   UNL A   1      33.928  30.275  27.253  1.00  0.00     0.005 C 
ATOM     22  C   UNL A   1      35.133  30.930  27.896  1.00  0.00     0.004 C 
ENDBRANCH  20  21
ENDBRANCH  15  20
ENDBRANCH  11  14
ENDBRANCH   8  10
ENDBRANCH   7   8
ENDBRANCH   5   7
ENDBRANCH   4   5
ENDBRANCH   3   4
ENDBRANCH   2   3
ENDBRANCH   1   2
BRANCH   1  23
ATOM     23  C   UNL A   1      37.870  21.415  25.340  1.00  0.00     0.188 C 
BRANCH  23  24
ATOM     24  C   UNL A   1      39.081  21.972  26.103  1.00  0.00     0.188 C 
BRANCH  24  25
ATOM     25  O   UNL A   1      40.348  21.358  25.921  1.00  0.00    -0.376 OA
BRANCH  25  26
ATOM     26  C   UNL A   1      40.945  20.711  27.037  1.00  0.00     0.202 C 
BRANCH  26  27
ATOM     27  C   UNL A   1      41.971  19.610  26.746  1.00  0.00     0.261 C 
BRANCH  27  28
ATOM     28  O   UNL A   1      42.348  19.464  25.355  1.00  0.00    -0.460 OA
BRANCH  28  29
ATOM     29  C   UNL A   1      43.676  19.462  25.104  1.00  0.00     0.338 C 
ATOM     30  O   UNL A   1      44.367  18.476  24.830  1.00  0.00    -0.246 OA
BRANCH  29  31
ATOM     31  C   UNL A   1      44.252  20.825  25.062  1.00  0.00     0.060 A 
ATOM     32  C   UNL A   1      45.226  21.162  26.011  1.00  0.00     0.016 A 
ATOM     33  C   UNL A   1      43.743  21.814  24.215  1.00  0.00     0.016 A 
ATOM     34  C   UNL A   1      45.651  22.489  26.147  1.00  0.00     0.010 A 
ATOM     35  C   UNL A   1      44.162  23.150  24.363  1.00  0.00     0.010 A 
ATOM     36  C   UNL A   1      45.097  23.507  25.349  1.00  0.00    -0.014 A 
BRANCH  36  37
ATOM     37  C   UNL A   1      45.383  24.934  25.693  1.00  0.00     0.031 A 
ATOM     38  C   UNL A   1      44.329  25.733  26.407  1.00  0.00     0.074 A 
ATOM     39  C   UNL A   1      46.566  25.522  25.432  1.00  0.00     0.049 A 
ATOM     40  N   UNL A   1      44.394  26.939  26.914  1.00  0.00    -0.248 NA
ATOM     41  C   UNL A   1      43.009  25.098  26.520  1.00  0.00     0.031 C 
ATOM     42  C   UNL A   1      47.649  24.919  24.672  1.00  0.00     0.029 A 
ATOM     43  N   UNL A   1      47.082  26.735  25.834  1.00  0.00    -0.354 N 
ATOM     44  C   UNL A   1      43.116  27.224  27.375  1.00  0.00     0.074 A 
ATOM     45  C   UNL A   1      42.299  26.061  27.089  1.00  0.00     0.031 C 
ATOM     46  C   UNL A   1      48.753  25.673  24.806  1.00  0.00     0.029 A 
ATOM     47  C   UNL A   1      48.429  26.869  25.580  1.00  0.00     0.049 A 
ATOM     48  H   UNL A   1      46.540  27.436  26.263  1.00  0.00     0.167 HD
ATOM     49  C   UNL A   1      42.656  28.358  27.957  1.00  0.00     0.037 A 
ATOM     50  C   UNL A   1      49.299  27.837  25.940  1.00  0.00     0.037 A 
ATOM     51  C   UNL A   1      43.449  29.536  28.200  1.00  0.00     0.049 A 
ATOM     52  C   UNL A   1      48.773  29.078  26.620  1.00  0.00     0.074 A 
ATOM     53  C   UNL A   1      43.058  30.747  28.747  1.00  0.00     0.029 A 
ATOM     54  N   UNL A   1      44.799  29.657  27.899  1.00  0.00    -0.354 N 
ATOM     55  N   UNL A   1      47.568  29.338  27.064  1.00  0.00    -0.248 NA
ATOM     56  C   UNL A   1      49.725  30.187  26.796  1.00  0.00     0.031 C 
ATOM     57  C   UNL A   1      44.154  31.617  28.725  1.00  0.00     0.029 A 
ATOM     58  C   UNL A   1      45.249  30.927  28.232  1.00  0.00     0.049 A 
ATOM     59  H   UNL A   1      45.355  28.947  27.505  1.00  0.00     0.167 HD
ATOM     60  C   UNL A   1      47.615  30.633  27.566  1.00  0.00     0.074 A 
ATOM     61  C   UNL A   1      48.980  31.091  27.416  1.00  0.00     0.031 C 
ATOM     62  C   UNL A   1      46.609  31.382  28.083  1.00  0.00     0.037 A 
BRANCH  49  63
ATOM     63  C   UNL A   1      41.192  28.393  28.297  1.00  0.00     0.064 A 
ATOM     64  C   UNL A   1      40.235  28.887  27.397  1.00  0.00     0.173 A 
ATOM     65  C   UNL A   1      40.746  27.963  29.556  1.00  0.00     0.173 A 
ATOM     66  F   UNL A   1      40.611  29.329  26.187  1.00  0.00    -0.203 F 
ATOM     67  C   UNL A   1      38.897  28.999  27.766  1.00  0.00     0.198 A 
ATOM     68  C   UNL A   1      39.402  28.041  29.907  1.00  0.00     0.198 A 
ATOM     69  F   UNL A   1      41.618  27.476  30.453  1.00  0.00    -0.203 F 
ATOM     70  F   UNL A   1      38.015  29.549  26.920  1.00  0.00    -0.200 F 
ATOM     71  C   UNL A   1      38.481  28.574  29.019  1.00  0.00     0.200 A 
ATOM     72  F   UNL A   1      39.000  27.618  31.114  1.00  0.00    -0.200 F 
ATOM     73  F   UNL A   1      37.195  28.694  29.376  1.00  0.00    -0.200 F 
ENDBRANCH  49  63
BRANCH  50  74
ATOM     74  C   UNL A   1      50.763  27.701  25.678  1.00  0.00     0.064 A 
ATOM     75  C   UNL A   1      51.285  27.940  24.394  1.00  0.00     0.173 A 
ATOM     76  C   UNL A   1      51.665  27.288  26.668  1.00  0.00     0.173 A 
ATOM     77  F   UNL A   1      50.466  28.299  23.394  1.00  0.00    -0.203 F 
ATOM     78  C   UNL A   1      52.639  27.755  24.113  1.00  0.00     0.198 A 
ATOM     79  C   UNL A   1      53.025  27.144  26.397  1.00  0.00     0.198 A 
ATOM     80  F   UNL A   1      51.227  27.022  27.908  1.00  0.00    -0.203 F 
ATOM     81  F   UNL A   1      53.092  27.925  22.863  1.00  0.00    -0.200 F 
ATOM     82  C   UNL A   1      53.510  27.367  25.118  1.00  0.00     0.200 A 
ATOM     83  F   UNL A   1      53.864  26.780  27.376  1.00  0.00    -0.200 F 
ATOM     84  F   UNL A   1      54.811  27.191  24.851  1.00  0.00    -0.200 F 
ENDBRANCH  50  74
BRANCH  62  85
ATOM     85  C   UNL A   1      46.950  32.770  28.551  1.00  0.00     0.064 A 
ATOM     86  C   UNL A   1      47.371  33.030  29.866  1.00  0.00     0.173 A 
ATOM     87  C   UNL A   1      46.876  33.857  27.665  1.00  0.00     0.173 A 
ATOM     88  F   UNL A   1      47.449  32.032  30.759  1.00  0.00    -0.203 F 
ATOM     89  C   UNL A   1      47.668  34.326  30.283  1.00  0.00     0.198 A 
ATOM     90  C   UNL A   1      47.207  35.146  28.078  1.00  0.00     0.198 A 
ATOM     91  F   UNL A   1      46.488  33.668  26.395  1.00  0.00    -0.203 F 
ATOM     92  F   UNL A   1      48.010  34.555  31.559  1.00  0.00    -0.200 F 
ATOM     93  C   UNL A   1      47.591  35.381  29.388  1.00  0.00     0.200 A 
ATOM     94  F   UNL A   1      47.146  36.162  27.206  1.00  0.00    -0.200 F 
ATOM     95  F   UNL A   1      47.879  36.626  29.790  1.00  0.00    -0.200 F 
ENDBRANCH  62  85
ENDBRANCH  36  37
ENDBRANCH  29  31
ENDBRANCH  28  29
ENDBRANCH  27  28
ENDBRANCH  26  27
ENDBRANCH  25  26
ENDBRANCH  24  25
ENDBRANCH  23  24
ENDBRANCH   1  23
TORSDOF 22
ENDMDL
