MODEL 1
REMARK VINA RESULT:     -10.5      0.000      0.000
REMARK SMILES C[C@@H](O)[C@@H](NC(=O)c1csc(-c2ccsc2)n1)C(=O)OCCOCCOCCOC(=O)c1ccc(-c2c3nc(c(-c4c(F)c(F)c(F)c(F)c4F)c4ccc([nH]4)c(-c4c(F)c(F)c(F)c(F)c4F)c4nc(c(-c5c(F)c(F)c(F)c(F)c5F)c5ccc2[nH]5)C=C4)C=C3)cc1
REMARK SMILES IDX 24 1 23 2 22 3 21 4 20 5 18 6 19 7 4 8 2 9 1 10 3 11 5 13
REMARK SMILES IDX 6 14 7 16 8 17 9 18 17 19 10 20 11 21 12 22 13 23 16 24
REMARK SMILES IDX 14 25 15 26 25 27 26 28 27 29 28 30 29 31 30 32 31 33 32 34
REMARK SMILES IDX 33 35 94 36 34 37 93 38 35 39 36 40 37 41 87 42 38 43 92 44
REMARK SMILES IDX 86 45 88 46 39 47 91 48 85 49 84 50 40 52 72 53 52 54 71 55
REMARK SMILES IDX 53 56 56 57 70 58 89 59 54 60 55 61 69 63 90 64 57 65 41 66
REMARK SMILES IDX 42 67 50 68 43 69 44 70 48 71 51 72 45 73 46 74 49 75 47 76
REMARK SMILES IDX 73 77 74 78 82 79 75 80 76 81 80 82 83 83 77 84 78 85 81 86
REMARK SMILES IDX 79 87 58 88 59 89 67 90 60 91 61 92 65 93 68 94 62 95 63 96
REMARK SMILES IDX 66 97 64 98
REMARK H PARENT 3 12 5 15 88 51 56 62
REMARK Flexibility Score: inf
ROOT
ATOM      1  C   UNL A   1      36.630  22.986  23.259  1.00  0.00     0.188 C 
ENDROOT
BRANCH   1   2
ATOM      2  O   UNL A   1      35.311  23.512  23.228  1.00  0.00    -0.376 OA
BRANCH   2   3
ATOM      3  C   UNL A   1      34.827  24.271  24.320  1.00  0.00     0.202 C 
BRANCH   3   4
ATOM      4  C   UNL A   1      33.585  25.140  24.092  1.00  0.00     0.261 C 
BRANCH   4   5
ATOM      5  O   UNL A   1      32.550  24.825  23.141  1.00  0.00    -0.462 OA
BRANCH   5   6
ATOM      6  C   UNL A   1      31.261  24.838  23.601  1.00  0.00     0.331 C 
ATOM      7  O   UNL A   1      30.286  24.460  22.960  1.00  0.00    -0.250 OA
BRANCH   6   8
ATOM      8  C   UNL A   1      31.121  25.432  25.006  1.00  0.00     0.221 C 
BRANCH   8   9
ATOM      9  C   UNL A   1      30.553  26.894  24.944  1.00  0.00     0.145 C 
ATOM     10  C   UNL A   1      31.415  27.944  25.650  1.00  0.00     0.041 C 
BRANCH   9  11
ATOM     11  O   UNL A   1      30.475  27.364  23.590  1.00  0.00    -0.391 OA
ATOM     12  H   UNL A   1      30.656  28.317  23.567  1.00  0.00     0.211 HD
ENDBRANCH   9  11
ENDBRANCH   8   9
BRANCH   8  13
ATOM     13  N   UNL A   1      30.358  24.585  25.947  1.00  0.00    -0.335 N 
ATOM     14  C   UNL A   1      30.637  23.447  26.668  1.00  0.00     0.271 C 
ATOM     15  H   UNL A   1      29.441  24.910  26.091  1.00  0.00     0.164 HD
ATOM     16  O   UNL A   1      29.809  23.138  27.528  1.00  0.00    -0.267 OA
BRANCH  14  17
ATOM     17  C   UNL A   1      31.729  22.531  26.326  1.00  0.00     0.139 A 
ATOM     18  C   UNL A   1      32.849  22.423  27.133  1.00  0.00     0.101 A 
ATOM     19  N   UNL A   1      31.795  21.756  25.165  1.00  0.00    -0.231 NA
ATOM     20  S   UNL A   1      33.960  21.297  26.485  1.00  0.00    -0.122 S 
ATOM     21  C   UNL A   1      32.841  20.944  25.215  1.00  0.00     0.125 A 
BRANCH  21  22
ATOM     22  C   UNL A   1      32.929  19.680  24.376  1.00  0.00     0.021 A 
ATOM     23  C   UNL A   1      32.267  19.477  23.126  1.00  0.00     0.023 A 
ATOM     24  C   UNL A   1      33.544  18.518  24.807  1.00  0.00     0.076 A 
ATOM     25  C   UNL A   1      32.416  18.190  22.652  1.00  0.00     0.065 A 
ATOM     26  S   UNL A   1      33.324  17.212  23.720  1.00  0.00    -0.152 S 
ENDBRANCH  21  22
ENDBRANCH  14  17
ENDBRANCH   8  13
ENDBRANCH   6   8
ENDBRANCH   5   6
ENDBRANCH   4   5
ENDBRANCH   3   4
ENDBRANCH   2   3
ENDBRANCH   1   2
BRANCH   1  27
ATOM     27  C   UNL A   1      36.969  21.827  24.204  1.00  0.00     0.188 C 
BRANCH  27  28
ATOM     28  O   UNL A   1      37.421  22.172  25.495  1.00  0.00    -0.376 OA
BRANCH  28  29
ATOM     29  C   UNL A   1      38.768  21.876  25.823  1.00  0.00     0.202 C 
BRANCH  29  30
ATOM     30  C   UNL A   1      39.249  20.439  25.577  1.00  0.00     0.261 C 
BRANCH  30  31
ATOM     31  O   UNL A   1      40.169  19.895  26.548  1.00  0.00    -0.460 OA
BRANCH  31  32
ATOM     32  C   UNL A   1      41.466  19.706  26.195  1.00  0.00     0.338 C 
ATOM     33  O   UNL A   1      41.915  18.829  25.494  1.00  0.00    -0.246 OA
BRANCH  32  34
ATOM     34  C   UNL A   1      42.201  20.945  26.582  1.00  0.00     0.060 A 
ATOM     35  C   UNL A   1      42.337  21.263  27.944  1.00  0.00     0.016 A 
ATOM     36  C   UNL A   1      42.814  21.742  25.616  1.00  0.00     0.016 A 
ATOM     37  C   UNL A   1      43.066  22.388  28.340  1.00  0.00     0.010 A 
ATOM     38  C   UNL A   1      43.514  22.887  26.010  1.00  0.00     0.010 A 
ATOM     39  C   UNL A   1      43.615  23.234  27.370  1.00  0.00    -0.014 A 
BRANCH  39  40
ATOM     40  C   UNL A   1      44.068  24.599  27.738  1.00  0.00     0.031 A 
ATOM     41  C   UNL A   1      43.010  25.606  28.101  1.00  0.00     0.074 A 
ATOM     42  C   UNL A   1      45.364  24.957  27.742  1.00  0.00     0.049 A 
ATOM     43  N   UNL A   1      43.117  26.890  28.328  1.00  0.00    -0.248 NA
ATOM     44  C   UNL A   1      41.636  25.087  28.216  1.00  0.00     0.031 C 
ATOM     45  C   UNL A   1      46.492  24.072  27.473  1.00  0.00     0.029 A 
ATOM     46  N   UNL A   1      45.942  26.185  27.966  1.00  0.00    -0.354 N 
ATOM     47  C   UNL A   1      41.828  27.332  28.591  1.00  0.00     0.074 A 
ATOM     48  C   UNL A   1      40.951  26.189  28.475  1.00  0.00     0.031 C 
ATOM     49  C   UNL A   1      47.628  24.791  27.521  1.00  0.00     0.029 A 
ATOM     50  C   UNL A   1      47.303  26.193  27.782  1.00  0.00     0.049 A 
ATOM     51  H   UNL A   1      45.428  26.982  28.233  1.00  0.00     0.167 HD
ATOM     52  C   UNL A   1      41.412  28.581  28.906  1.00  0.00     0.037 A 
ATOM     53  C   UNL A   1      48.175  27.223  27.787  1.00  0.00     0.037 A 
ATOM     54  C   UNL A   1      42.282  29.718  29.024  1.00  0.00     0.049 A 
ATOM     55  C   UNL A   1      47.674  28.625  28.048  1.00  0.00     0.074 A 
ATOM     56  C   UNL A   1      41.957  31.019  29.362  1.00  0.00     0.029 A 
ATOM     57  N   UNL A   1      43.650  29.692  28.799  1.00  0.00    -0.354 N 
ATOM     58  N   UNL A   1      46.459  29.037  28.316  1.00  0.00    -0.248 NA
ATOM     59  C   UNL A   1      48.669  29.708  28.001  1.00  0.00     0.031 C 
ATOM     60  C   UNL A   1      43.117  31.796  29.275  1.00  0.00     0.029 A 
ATOM     61  C   UNL A   1      44.177  30.965  28.953  1.00  0.00     0.049 A 
ATOM     62  H   UNL A   1      44.169  28.889  28.563  1.00  0.00     0.167 HD
ATOM     63  C   UNL A   1      46.549  30.413  28.501  1.00  0.00     0.074 A 
ATOM     64  C   UNL A   1      47.941  30.766  28.326  1.00  0.00     0.031 C 
ATOM     65  C   UNL A   1      45.567  31.303  28.790  1.00  0.00     0.037 A 
BRANCH  52  66
ATOM     66  C   UNL A   1      39.940  28.790  29.108  1.00  0.00     0.064 A 
ATOM     67  C   UNL A   1      39.329  28.604  30.357  1.00  0.00     0.173 A 
ATOM     68  C   UNL A   1      39.135  29.213  28.039  1.00  0.00     0.173 A 
ATOM     69  F   UNL A   1      40.051  28.182  31.407  1.00  0.00    -0.203 F 
ATOM     70  C   UNL A   1      37.962  28.812  30.523  1.00  0.00     0.198 A 
ATOM     71  C   UNL A   1      37.776  29.452  28.216  1.00  0.00     0.198 A 
ATOM     72  F   UNL A   1      39.670  29.405  26.824  1.00  0.00    -0.203 F 
ATOM     73  F   UNL A   1      37.390  28.580  31.712  1.00  0.00    -0.200 F 
ATOM     74  C   UNL A   1      37.189  29.244  29.456  1.00  0.00     0.200 A 
ATOM     75  F   UNL A   1      37.033  29.883  27.188  1.00  0.00    -0.200 F 
ATOM     76  F   UNL A   1      35.876  29.454  29.619  1.00  0.00    -0.200 F 
ENDBRANCH  52  66
BRANCH  53  77
ATOM     77  C   UNL A   1      49.617  26.984  27.503  1.00  0.00     0.064 A 
ATOM     78  C   UNL A   1      50.534  26.762  28.541  1.00  0.00     0.173 A 
ATOM     79  C   UNL A   1      50.116  27.017  26.192  1.00  0.00     0.173 A 
ATOM     80  F   UNL A   1      50.114  26.758  29.815  1.00  0.00    -0.203 F 
ATOM     81  C   UNL A   1      51.894  26.605  28.281  1.00  0.00     0.198 A 
ATOM     82  C   UNL A   1      51.472  26.826  25.930  1.00  0.00     0.198 A 
ATOM     83  F   UNL A   1      49.285  27.238  25.162  1.00  0.00    -0.203 F 
ATOM     84  F   UNL A   1      52.755  26.455  29.297  1.00  0.00    -0.200 F 
ATOM     85  C   UNL A   1      52.361  26.629  26.975  1.00  0.00     0.200 A 
ATOM     86  F   UNL A   1      51.917  26.845  24.667  1.00  0.00    -0.200 F 
ATOM     87  F   UNL A   1      53.669  26.481  26.726  1.00  0.00    -0.200 F 
ENDBRANCH  53  77
BRANCH  65  88
ATOM     88  C   UNL A   1      45.958  32.743  28.982  1.00  0.00     0.064 A 
ATOM     89  C   UNL A   1      46.390  33.234  30.221  1.00  0.00     0.173 A 
ATOM     90  C   UNL A   1      45.964  33.625  27.889  1.00  0.00     0.173 A 
ATOM     91  F   UNL A   1      46.394  32.436  31.300  1.00  0.00    -0.203 F 
ATOM     92  C   UNL A   1      46.794  34.560  30.366  1.00  0.00     0.198 A 
ATOM     93  C   UNL A   1      46.400  34.941  28.030  1.00  0.00     0.198 A 
ATOM     94  F   UNL A   1      45.571  33.205  26.677  1.00  0.00    -0.203 F 
ATOM     95  F   UNL A   1      47.163  35.019  31.570  1.00  0.00    -0.200 F 
ATOM     96  C   UNL A   1      46.807  35.409  29.268  1.00  0.00     0.200 A 
ATOM     97  F   UNL A   1      46.431  35.752  26.964  1.00  0.00    -0.200 F 
ATOM     98  F   UNL A   1      47.211  36.679  29.407  1.00  0.00    -0.200 F 
ENDBRANCH  65  88
ENDBRANCH  39  40
ENDBRANCH  32  34
ENDBRANCH  31  32
ENDBRANCH  30  31
ENDBRANCH  29  30
ENDBRANCH  28  29
ENDBRANCH  27  28
ENDBRANCH   1  27
TORSDOF 22
ENDMDL
MODEL 2
REMARK VINA RESULT:     -10.4      4.782      9.565
REMARK SMILES C[C@@H](O)[C@@H](NC(=O)c1csc(-c2ccsc2)n1)C(=O)OCCOCCOCCOC(=O)c1ccc(-c2c3nc(c(-c4c(F)c(F)c(F)c(F)c4F)c4ccc([nH]4)c(-c4c(F)c(F)c(F)c(F)c4F)c4nc(c(-c5c(F)c(F)c(F)c(F)c5F)c5ccc2[nH]5)C=C4)C=C3)cc1
REMARK SMILES IDX 24 1 23 2 22 3 21 4 20 5 18 6 19 7 4 8 2 9 1 10 3 11 5 13
REMARK SMILES IDX 6 14 7 16 8 17 9 18 17 19 10 20 11 21 12 22 13 23 16 24
REMARK SMILES IDX 14 25 15 26 25 27 26 28 27 29 28 30 29 31 30 32 31 33 32 34
REMARK SMILES IDX 33 35 94 36 34 37 93 38 35 39 36 40 37 41 87 42 38 43 92 44
REMARK SMILES IDX 86 45 88 46 39 47 91 48 85 49 84 50 40 52 72 53 52 54 71 55
REMARK SMILES IDX 53 56 56 57 70 58 89 59 54 60 55 61 69 63 90 64 57 65 41 66
REMARK SMILES IDX 42 67 50 68 43 69 44 70 48 71 51 72 45 73 46 74 49 75 47 76
REMARK SMILES IDX 73 77 74 78 82 79 75 80 76 81 80 82 83 83 77 84 78 85 81 86
REMARK SMILES IDX 79 87 58 88 59 89 67 90 60 91 61 92 65 93 68 94 62 95 63 96
REMARK SMILES IDX 66 97 64 98
REMARK H PARENT 3 12 5 15 88 51 56 62
REMARK Flexibility Score: inf
ROOT
ATOM      1  C   UNL A   1      39.379  21.190  25.800  1.00  0.00     0.188 C 
ENDROOT
BRANCH   1   2
ATOM      2  O   UNL A   1      37.981  21.428  25.875  1.00  0.00    -0.376 OA
BRANCH   2   3
ATOM      3  C   UNL A   1      37.106  20.789  24.966  1.00  0.00     0.202 C 
BRANCH   3   4
ATOM      4  C   UNL A   1      35.599  21.010  25.147  1.00  0.00     0.261 C 
BRANCH   4   5
ATOM      5  O   UNL A   1      34.907  22.200  24.724  1.00  0.00    -0.462 OA
BRANCH   5   6
ATOM      6  C   UNL A   1      34.734  23.182  25.662  1.00  0.00     0.331 C 
ATOM      7  O   UNL A   1      35.497  23.399  26.597  1.00  0.00    -0.250 OA
BRANCH   6   8
ATOM      8  C   UNL A   1      33.440  23.981  25.476  1.00  0.00     0.221 C 
BRANCH   8   9
ATOM      9  C   UNL A   1      32.188  23.124  25.876  1.00  0.00     0.145 C 
ATOM     10  C   UNL A   1      31.546  22.354  24.719  1.00  0.00     0.041 C 
BRANCH   9  11
ATOM     11  O   UNL A   1      32.539  22.101  26.820  1.00  0.00    -0.391 OA
ATOM     12  H   UNL A   1      32.045  21.291  26.618  1.00  0.00     0.211 HD
ENDBRANCH   9  11
ENDBRANCH   8   9
BRANCH   8  13
ATOM     13  N   UNL A   1      33.442  25.298  26.146  1.00  0.00    -0.335 N 
ATOM     14  C   UNL A   1      32.797  26.495  25.932  1.00  0.00     0.271 C 
ATOM     15  H   UNL A   1      34.042  25.326  26.927  1.00  0.00     0.164 HD
ATOM     16  O   UNL A   1      32.886  27.325  26.840  1.00  0.00    -0.267 OA
BRANCH  14  17
ATOM     17  C   UNL A   1      32.208  26.865  24.642  1.00  0.00     0.139 A 
ATOM     18  C   UNL A   1      32.418  26.090  23.513  1.00  0.00     0.101 A 
ATOM     19  N   UNL A   1      31.465  28.023  24.399  1.00  0.00    -0.231 NA
ATOM     20  S   UNL A   1      31.628  26.765  22.156  1.00  0.00    -0.122 S 
ATOM     21  C   UNL A   1      30.968  28.000  23.171  1.00  0.00     0.125 A 
BRANCH  21  22
ATOM     22  C   UNL A   1      29.765  28.835  22.765  1.00  0.00     0.021 A 
ATOM     23  C   UNL A   1      28.428  28.623  23.221  1.00  0.00     0.023 A 
ATOM     24  C   UNL A   1      29.807  29.809  21.784  1.00  0.00     0.076 A 
ATOM     25  C   UNL A   1      27.518  29.444  22.589  1.00  0.00     0.065 A 
ATOM     26  S   UNL A   1      28.259  30.450  21.423  1.00  0.00    -0.152 S 
ENDBRANCH  21  22
ENDBRANCH  14  17
ENDBRANCH   8  13
ENDBRANCH   6   8
ENDBRANCH   5   6
ENDBRANCH   4   5
ENDBRANCH   3   4
ENDBRANCH   2   3
ENDBRANCH   1   2
BRANCH   1  27
ATOM     27  C   UNL A   1      39.913  19.754  25.834  1.00  0.00     0.188 C 
BRANCH  27  28
ATOM     28  O   UNL A   1      41.299  19.596  26.046  1.00  0.00    -0.376 OA
BRANCH  28  29
ATOM     29  C   UNL A   1      42.006  20.681  26.623  1.00  0.00     0.202 C 
BRANCH  29  30
ATOM     30  C   UNL A   1      43.030  21.402  25.736  1.00  0.00     0.261 C 
BRANCH  30  31
ATOM     31  O   UNL A   1      42.592  22.629  25.115  1.00  0.00    -0.460 OA
BRANCH  31  32
ATOM     32  C   UNL A   1      43.435  23.693  25.087  1.00  0.00     0.338 C 
ATOM     33  O   UNL A   1      44.352  23.881  24.321  1.00  0.00    -0.246 OA
BRANCH  32  34
ATOM     34  C   UNL A   1      42.845  24.733  25.979  1.00  0.00     0.060 A 
ATOM     35  C   UNL A   1      43.377  26.033  25.959  1.00  0.00     0.016 A 
ATOM     36  C   UNL A   1      41.731  24.448  26.767  1.00  0.00     0.016 A 
ATOM     37  C   UNL A   1      42.812  27.043  26.743  1.00  0.00     0.010 A 
ATOM     38  C   UNL A   1      41.187  25.449  27.578  1.00  0.00     0.010 A 
ATOM     39  C   UNL A   1      41.744  26.741  27.595  1.00  0.00    -0.014 A 
BRANCH  39  40
ATOM     40  C   UNL A   1      41.369  27.678  28.685  1.00  0.00     0.031 A 
ATOM     41  C   UNL A   1      42.173  27.620  29.955  1.00  0.00     0.074 A 
ATOM     42  C   UNL A   1      40.347  28.545  28.576  1.00  0.00     0.049 A 
ATOM     43  N   UNL A   1      41.977  28.224  31.099  1.00  0.00    -0.248 NA
ATOM     44  C   UNL A   1      43.362  26.751  29.929  1.00  0.00     0.031 C 
ATOM     45  C   UNL A   1      39.528  28.750  27.386  1.00  0.00     0.029 A 
ATOM     46  N   UNL A   1      39.816  29.407  29.507  1.00  0.00    -0.354 N 
ATOM     47  C   UNL A   1      43.002  27.793  31.930  1.00  0.00     0.074 A 
ATOM     48  C   UNL A   1      43.806  26.861  31.171  1.00  0.00     0.031 C 
ATOM     49  C   UNL A   1      38.577  29.660  27.667  1.00  0.00     0.029 A 
ATOM     50  C   UNL A   1      38.697  30.069  29.066  1.00  0.00     0.049 A 
ATOM     51  H   UNL A   1      40.201  29.536  30.404  1.00  0.00     0.167 HD
ATOM     52  C   UNL A   1      43.254  28.145  33.212  1.00  0.00     0.037 A 
ATOM     53  C   UNL A   1      37.848  30.881  29.731  1.00  0.00     0.037 A 
ATOM     54  C   UNL A   1      42.458  29.073  33.968  1.00  0.00     0.049 A 
ATOM     55  C   UNL A   1      38.096  31.187  31.191  1.00  0.00     0.074 A 
ATOM     56  C   UNL A   1      42.648  29.511  35.266  1.00  0.00     0.029 A 
ATOM     57  N   UNL A   1      41.315  29.698  33.497  1.00  0.00    -0.354 N 
ATOM     58  N   UNL A   1      39.076  30.794  31.967  1.00  0.00    -0.248 NA
ATOM     59  C   UNL A   1      37.112  32.047  31.867  1.00  0.00     0.031 C 
ATOM     60  C   UNL A   1      41.581  30.350  35.604  1.00  0.00     0.029 A 
ATOM     61  C   UNL A   1      40.766  30.490  34.493  1.00  0.00     0.049 A 
ATOM     62  H   UNL A   1      40.946  29.594  32.589  1.00  0.00     0.167 HD
ATOM     63  C   UNL A   1      38.846  31.383  33.207  1.00  0.00     0.074 A 
ATOM     64  C   UNL A   1      37.639  32.169  33.077  1.00  0.00     0.031 C 
ATOM     65  C   UNL A   1      39.570  31.281  34.349  1.00  0.00     0.037 A 
BRANCH  52  66
ATOM     66  C   UNL A   1      44.423  27.494  33.893  1.00  0.00     0.064 A 
ATOM     67  C   UNL A   1      45.711  28.045  33.844  1.00  0.00     0.173 A 
ATOM     68  C   UNL A   1      44.239  26.315  34.631  1.00  0.00     0.173 A 
ATOM     69  F   UNL A   1      45.943  29.161  33.136  1.00  0.00    -0.203 F 
ATOM     70  C   UNL A   1      46.779  27.426  34.490  1.00  0.00     0.198 A 
ATOM     71  C   UNL A   1      45.301  25.718  35.304  1.00  0.00     0.198 A 
ATOM     72  F   UNL A   1      43.027  25.746  34.710  1.00  0.00    -0.203 F 
ATOM     73  F   UNL A   1      48.011  27.943  34.389  1.00  0.00    -0.200 F 
ATOM     74  C   UNL A   1      46.572  26.270  35.226  1.00  0.00     0.200 A 
ATOM     75  F   UNL A   1      45.097  24.608  36.026  1.00  0.00    -0.200 F 
ATOM     76  F   UNL A   1      47.597  25.682  35.857  1.00  0.00    -0.200 F 
ENDBRANCH  52  66
BRANCH  53  77
ATOM     77  C   UNL A   1      36.656  31.444  29.040  1.00  0.00     0.064 A 
ATOM     78  C   UNL A   1      36.585  32.805  28.707  1.00  0.00     0.173 A 
ATOM     79  C   UNL A   1      35.543  30.644  28.738  1.00  0.00     0.173 A 
ATOM     80  F   UNL A   1      37.606  33.621  29.008  1.00  0.00    -0.203 F 
ATOM     81  C   UNL A   1      35.442  33.346  28.122  1.00  0.00     0.198 A 
ATOM     82  C   UNL A   1      34.414  31.180  28.121  1.00  0.00     0.198 A 
ATOM     83  F   UNL A   1      35.552  29.338  29.046  1.00  0.00    -0.203 F 
ATOM     84  F   UNL A   1      35.380  34.661  27.870  1.00  0.00    -0.200 F 
ATOM     85  C   UNL A   1      34.361  32.532  27.822  1.00  0.00     0.200 A 
ATOM     86  F   UNL A   1      33.373  30.387  27.829  1.00  0.00    -0.200 F 
ATOM     87  F   UNL A   1      33.261  33.053  27.261  1.00  0.00    -0.200 F 
ENDBRANCH  53  77
BRANCH  65  88
ATOM     88  C   UNL A   1      39.111  32.068  35.545  1.00  0.00     0.064 A 
ATOM     89  C   UNL A   1      38.327  31.492  36.554  1.00  0.00     0.173 A 
ATOM     90  C   UNL A   1      39.521  33.401  35.714  1.00  0.00     0.173 A 
ATOM     91  F   UNL A   1      37.900  30.226  36.438  1.00  0.00    -0.203 F 
ATOM     92  C   UNL A   1      37.953  32.226  37.678  1.00  0.00     0.198 A 
ATOM     93  C   UNL A   1      39.173  34.121  36.854  1.00  0.00     0.198 A 
ATOM     94  F   UNL A   1      40.282  33.999  34.784  1.00  0.00    -0.203 F 
ATOM     95  F   UNL A   1      37.168  31.668  38.610  1.00  0.00    -0.200 F 
ATOM     96  C   UNL A   1      38.384  33.536  37.831  1.00  0.00     0.200 A 
ATOM     97  F   UNL A   1      39.607  35.379  37.009  1.00  0.00    -0.200 F 
ATOM     98  F   UNL A   1      38.036  34.235  38.920  1.00  0.00    -0.200 F 
ENDBRANCH  65  88
ENDBRANCH  39  40
ENDBRANCH  32  34
ENDBRANCH  31  32
ENDBRANCH  30  31
ENDBRANCH  29  30
ENDBRANCH  28  29
ENDBRANCH  27  28
ENDBRANCH   1  27
TORSDOF 22
ENDMDL
MODEL 3
REMARK VINA RESULT:     -10.2      4.729      9.403
REMARK SMILES C[C@@H](O)[C@@H](NC(=O)c1csc(-c2ccsc2)n1)C(=O)OCCOCCOCCOC(=O)c1ccc(-c2c3nc(c(-c4c(F)c(F)c(F)c(F)c4F)c4ccc([nH]4)c(-c4c(F)c(F)c(F)c(F)c4F)c4nc(c(-c5c(F)c(F)c(F)c(F)c5F)c5ccc2[nH]5)C=C4)C=C3)cc1
REMARK SMILES IDX 24 1 23 2 22 3 21 4 20 5 18 6 19 7 4 8 2 9 1 10 3 11 5 13
REMARK SMILES IDX 6 14 7 16 8 17 9 18 17 19 10 20 11 21 12 22 13 23 16 24
REMARK SMILES IDX 14 25 15 26 25 27 26 28 27 29 28 30 29 31 30 32 31 33 32 34
REMARK SMILES IDX 33 35 94 36 34 37 93 38 35 39 36 40 37 41 87 42 38 43 92 44
REMARK SMILES IDX 86 45 88 46 39 47 91 48 85 49 84 50 40 52 72 53 52 54 71 55
REMARK SMILES IDX 53 56 56 57 70 58 89 59 54 60 55 61 69 63 90 64 57 65 41 66
REMARK SMILES IDX 42 67 50 68 43 69 44 70 48 71 51 72 45 73 46 74 49 75 47 76
REMARK SMILES IDX 73 77 74 78 82 79 75 80 76 81 80 82 83 83 77 84 78 85 81 86
REMARK SMILES IDX 79 87 58 88 59 89 67 90 60 91 61 92 65 93 68 94 62 95 63 96
REMARK SMILES IDX 66 97 64 98
REMARK H PARENT 3 12 5 15 88 51 56 62
REMARK Flexibility Score: inf
ROOT
ATOM      1  C   UNL A   1      39.520  21.695  26.017  1.00  0.00     0.188 C 
ENDROOT
BRANCH   1   2
ATOM      2  O   UNL A   1      38.260  22.155  26.484  1.00  0.00    -0.376 OA
BRANCH   2   3
ATOM      3  C   UNL A   1      37.096  21.934  25.711  1.00  0.00     0.202 C 
BRANCH   3   4
ATOM      4  C   UNL A   1      36.224  23.147  25.366  1.00  0.00     0.261 C 
BRANCH   4   5
ATOM      5  O   UNL A   1      34.966  23.437  26.003  1.00  0.00    -0.462 OA
BRANCH   5   6
ATOM      6  C   UNL A   1      34.346  22.402  26.649  1.00  0.00     0.331 C 
ATOM      7  O   UNL A   1      34.821  21.783  27.595  1.00  0.00    -0.250 OA
BRANCH   6   8
ATOM      8  C   UNL A   1      32.989  22.030  26.042  1.00  0.00     0.221 C 
BRANCH   8   9
ATOM      9  C   UNL A   1      32.988  20.543  25.538  1.00  0.00     0.145 C 
ATOM     10  C   UNL A   1      34.180  20.168  24.655  1.00  0.00     0.041 C 
BRANCH   9  11
ATOM     11  O   UNL A   1      33.066  19.623  26.636  1.00  0.00    -0.391 OA
ATOM     12  H   UNL A   1      32.763  20.061  27.448  1.00  0.00     0.211 HD
ENDBRANCH   9  11
ENDBRANCH   8   9
BRANCH   8  13
ATOM     13  N   UNL A   1      31.836  22.313  26.923  1.00  0.00    -0.335 N 
ATOM     14  C   UNL A   1      30.743  23.147  26.848  1.00  0.00     0.271 C 
ATOM     15  H   UNL A   1      31.852  21.784  27.752  1.00  0.00     0.164 HD
ATOM     16  O   UNL A   1      29.862  22.955  27.689  1.00  0.00    -0.267 OA
BRANCH  14  17
ATOM     17  C   UNL A   1      30.692  24.321  25.972  1.00  0.00     0.139 A 
ATOM     18  C   UNL A   1      29.536  25.076  25.858  1.00  0.00     0.101 A 
ATOM     19  N   UNL A   1      31.728  24.748  25.137  1.00  0.00    -0.231 NA
ATOM     20  S   UNL A   1      29.760  26.369  24.762  1.00  0.00    -0.122 S 
ATOM     21  C   UNL A   1      31.416  25.906  24.575  1.00  0.00     0.125 A 
BRANCH  21  22
ATOM     22  C   UNL A   1      32.470  26.848  24.017  1.00  0.00     0.021 A 
ATOM     23  C   UNL A   1      33.550  27.408  24.767  1.00  0.00     0.023 A 
ATOM     24  C   UNL A   1      32.413  27.392  22.747  1.00  0.00     0.076 A 
ATOM     25  C   UNL A   1      34.273  28.332  24.043  1.00  0.00     0.065 A 
ATOM     26  S   UNL A   1      33.640  28.555  22.470  1.00  0.00    -0.152 S 
ENDBRANCH  21  22
ENDBRANCH  14  17
ENDBRANCH   8  13
ENDBRANCH   6   8
ENDBRANCH   5   6
ENDBRANCH   4   5
ENDBRANCH   3   4
ENDBRANCH   2   3
ENDBRANCH   1   2
BRANCH   1  27
ATOM     27  C   UNL A   1      39.822  20.192  25.990  1.00  0.00     0.188 C 
BRANCH  27  28
ATOM     28  O   UNL A   1      41.170  19.813  26.159  1.00  0.00    -0.376 OA
BRANCH  28  29
ATOM     29  C   UNL A   1      42.070  20.783  26.668  1.00  0.00     0.202 C 
BRANCH  29  30
ATOM     30  C   UNL A   1      43.058  21.411  25.676  1.00  0.00     0.261 C 
BRANCH  30  31
ATOM     31  O   UNL A   1      42.645  22.647  25.053  1.00  0.00    -0.460 OA
BRANCH  31  32
ATOM     32  C   UNL A   1      43.498  23.703  25.052  1.00  0.00     0.338 C 
ATOM     33  O   UNL A   1      44.423  23.896  24.297  1.00  0.00    -0.246 OA
BRANCH  32  34
ATOM     34  C   UNL A   1      42.910  24.731  25.958  1.00  0.00     0.060 A 
ATOM     35  C   UNL A   1      43.398  26.048  25.906  1.00  0.00     0.016 A 
ATOM     36  C   UNL A   1      41.839  24.418  26.794  1.00  0.00     0.016 A 
ATOM     37  C   UNL A   1      42.831  27.046  26.703  1.00  0.00     0.010 A 
ATOM     38  C   UNL A   1      41.295  25.408  27.618  1.00  0.00     0.010 A 
ATOM     39  C   UNL A   1      41.809  26.718  27.601  1.00  0.00    -0.014 A 
BRANCH  39  40
ATOM     40  C   UNL A   1      41.447  27.652  28.697  1.00  0.00     0.031 A 
ATOM     41  C   UNL A   1      42.254  27.579  29.965  1.00  0.00     0.074 A 
ATOM     42  C   UNL A   1      40.435  28.531  28.596  1.00  0.00     0.049 A 
ATOM     43  N   UNL A   1      42.068  28.178  31.113  1.00  0.00    -0.248 NA
ATOM     44  C   UNL A   1      43.434  26.697  29.931  1.00  0.00     0.031 C 
ATOM     45  C   UNL A   1      39.614  28.752  27.410  1.00  0.00     0.029 A 
ATOM     46  N   UNL A   1      39.915  29.393  29.534  1.00  0.00    -0.354 N 
ATOM     47  C   UNL A   1      43.090  27.731  31.939  1.00  0.00     0.074 A 
ATOM     48  C   UNL A   1      43.882  26.795  31.172  1.00  0.00     0.031 C 
ATOM     49  C   UNL A   1      38.674  29.671  27.698  1.00  0.00     0.029 A 
ATOM     50  C   UNL A   1      38.802  30.070  29.100  1.00  0.00     0.049 A 
ATOM     51  H   UNL A   1      40.304  29.513  30.431  1.00  0.00     0.167 HD
ATOM     52  C   UNL A   1      43.350  28.074  33.222  1.00  0.00     0.037 A 
ATOM     53  C   UNL A   1      37.964  30.887  29.771  1.00  0.00     0.037 A 
ATOM     54  C   UNL A   1      42.567  29.005  33.985  1.00  0.00     0.049 A 
ATOM     55  C   UNL A   1      38.219  31.182  31.232  1.00  0.00     0.074 A 
ATOM     56  C   UNL A   1      42.765  29.434  35.285  1.00  0.00     0.029 A 
ATOM     57  N   UNL A   1      41.428  29.646  33.521  1.00  0.00    -0.354 N 
ATOM     58  N   UNL A   1      39.198  30.775  32.004  1.00  0.00    -0.248 NA
ATOM     59  C   UNL A   1      37.247  32.049  31.916  1.00  0.00     0.031 C 
ATOM     60  C   UNL A   1      41.708  30.282  35.630  1.00  0.00     0.029 A 
ATOM     61  C   UNL A   1      40.891  30.438  34.523  1.00  0.00     0.049 A 
ATOM     62  H   UNL A   1      41.056  29.550  32.614  1.00  0.00     0.167 HD
ATOM     63  C   UNL A   1      38.977  31.358  33.247  1.00  0.00     0.074 A 
ATOM     64  C   UNL A   1      37.779  32.159  33.125  1.00  0.00     0.031 C 
ATOM     65  C   UNL A   1      39.704  31.242  34.387  1.00  0.00     0.037 A 
BRANCH  52  66
ATOM     66  C   UNL A   1      44.513  27.405  33.895  1.00  0.00     0.064 A 
ATOM     67  C   UNL A   1      45.796  27.973  33.895  1.00  0.00     0.173 A 
ATOM     68  C   UNL A   1      44.330  26.193  34.577  1.00  0.00     0.173 A 
ATOM     69  F   UNL A   1      46.028  29.121  33.241  1.00  0.00    -0.203 F 
ATOM     70  C   UNL A   1      46.859  27.338  34.534  1.00  0.00     0.198 A 
ATOM     71  C   UNL A   1      45.387  25.579  35.243  1.00  0.00     0.198 A 
ATOM     72  F   UNL A   1      43.123  25.608  34.608  1.00  0.00    -0.203 F 
ATOM     73  F   UNL A   1      48.087  27.872  34.479  1.00  0.00    -0.200 F 
ATOM     74  C   UNL A   1      46.652  26.148  35.215  1.00  0.00     0.200 A 
ATOM     75  F   UNL A   1      45.182  24.436  35.912  1.00  0.00    -0.200 F 
ATOM     76  F   UNL A   1      47.672  25.544  35.838  1.00  0.00    -0.200 F 
ENDBRANCH  52  66
BRANCH  53  77
ATOM     77  C   UNL A   1      36.776  31.467  29.087  1.00  0.00     0.064 A 
ATOM     78  C   UNL A   1      36.718  32.831  28.764  1.00  0.00     0.173 A 
ATOM     79  C   UNL A   1      35.655  30.680  28.783  1.00  0.00     0.173 A 
ATOM     80  F   UNL A   1      37.748  33.635  29.068  1.00  0.00    -0.203 F 
ATOM     81  C   UNL A   1      35.580  33.387  28.185  1.00  0.00     0.198 A 
ATOM     82  C   UNL A   1      34.529  31.232  28.172  1.00  0.00     0.198 A 
ATOM     83  F   UNL A   1      35.651  29.373  29.081  1.00  0.00    -0.203 F 
ATOM     84  F   UNL A   1      35.530  34.705  27.943  1.00  0.00    -0.200 F 
ATOM     85  C   UNL A   1      34.489  32.586  27.882  1.00  0.00     0.200 A 
ATOM     86  F   UNL A   1      33.480  30.452  27.877  1.00  0.00    -0.200 F 
ATOM     87  F   UNL A   1      33.394  33.122  27.327  1.00  0.00    -0.200 F 
ENDBRANCH  53  77
BRANCH  65  88
ATOM     88  C   UNL A   1      39.257  32.028  35.588  1.00  0.00     0.064 A 
ATOM     89  C   UNL A   1      39.595  33.377  35.758  1.00  0.00     0.173 A 
ATOM     90  C   UNL A   1      38.420  31.436  36.549  1.00  0.00     0.173 A 
ATOM     91  F   UNL A   1      40.401  33.988  34.876  1.00  0.00    -0.203 F 
ATOM     92  C   UNL A   1      39.131  34.101  36.854  1.00  0.00     0.198 A 
ATOM     93  C   UNL A   1      37.930  32.172  37.626  1.00  0.00     0.198 A 
ATOM     94  F   UNL A   1      38.055  30.151  36.430  1.00  0.00    -0.203 F 
ATOM     95  F   UNL A   1      39.502  35.378  37.019  1.00  0.00    -0.200 F 
ATOM     96  C   UNL A   1      38.291  33.500  37.781  1.00  0.00     0.200 A 
ATOM     97  F   UNL A   1      37.103  31.595  38.508  1.00  0.00    -0.200 F 
ATOM     98  F   UNL A   1      37.833  34.202  38.827  1.00  0.00    -0.200 F 
ENDBRANCH  65  88
ENDBRANCH  39  40
ENDBRANCH  32  34
ENDBRANCH  31  32
ENDBRANCH  30  31
ENDBRANCH  29  30
ENDBRANCH  28  29
ENDBRANCH  27  28
ENDBRANCH   1  27
TORSDOF 22
ENDMDL
