MODEL 1
REMARK VINA RESULT:     -11.0      0.000      0.000
REMARK SMILES CC[N@@H+](C)Cc1cc2c(cc1Cl)C=C(C(=O)OCCOCCOCCOC(=O)c1ccc(-c3c4nc(c(-c5c(F)c(F)c(F)c(F)c5F)c5ccc([nH]5)c(-c5c(F)c(F)c(F)c(F)c5F)c5nc(c(-c6c(F)c(F)c(F)c(F)c6F)c6ccc3[nH]6)C=C5)C=C4)cc1)[C@@H](C(F)(F)F)O2
REMARK SMILES IDX 21 1 20 2 19 3 18 4 17 5 15 6 16 7 14 8 6 9 7 10 11 11 8 12
REMARK SMILES IDX 10 13 12 14 9 15 97 16 13 17 92 18 5 19 3 20 4 21 2 23 1 24
REMARK SMILES IDX 93 25 94 26 95 27 96 28 22 29 23 30 24 31 25 32 26 33 27 34
REMARK SMILES IDX 28 35 29 36 30 37 91 38 31 39 90 40 32 41 33 42 34 43 84 44
REMARK SMILES IDX 35 45 89 46 83 47 85 48 36 49 88 50 82 51 81 52 37 54 69 55
REMARK SMILES IDX 49 56 68 57 50 58 53 59 67 60 86 61 51 62 52 63 66 65 87 66
REMARK SMILES IDX 54 67 38 68 39 69 47 70 40 71 41 72 45 73 48 74 42 75 43 76
REMARK SMILES IDX 46 77 44 78 70 79 71 80 79 81 72 82 73 83 77 84 80 85 74 86
REMARK SMILES IDX 75 87 78 88 76 89 55 90 56 91 64 92 57 93 58 94 62 95 65 96
REMARK SMILES IDX 59 97 60 98 63 99 61 100
REMARK H PARENT 3 22 85 53 53 64
REMARK Flexibility Score: inf
ROOT
ATOM      1  C   UNL A   1      34.190  31.416  27.878  1.00  0.00     0.188 C 
ENDROOT
BRANCH   1   2
ATOM      2  O   UNL A   1      32.946  31.233  27.246  1.00  0.00    -0.376 OA
BRANCH   2   3
ATOM      3  C   UNL A   1      32.645  30.082  26.479  1.00  0.00     0.202 C 
BRANCH   3   4
ATOM      4  C   UNL A   1      33.627  28.952  26.124  1.00  0.00     0.261 C 
BRANCH   4   5
ATOM      5  O   UNL A   1      33.092  27.631  26.033  1.00  0.00    -0.460 OA
BRANCH   5   6
ATOM      6  C   UNL A   1      33.346  26.994  24.865  1.00  0.00     0.338 C 
ATOM      7  O   UNL A   1      33.835  27.479  23.857  1.00  0.00    -0.246 OA
BRANCH   6   8
ATOM      8  C   UNL A   1      33.097  25.552  25.028  1.00  0.00     0.087 C 
ATOM      9  C   UNL A   1      33.634  20.552  25.146  1.00  0.00     0.029 A 
ATOM     10  C   UNL A   1      32.532  21.433  25.213  1.00  0.00     0.058 A 
ATOM     11  C   UNL A   1      34.922  21.114  25.143  1.00  0.00     0.050 A 
ATOM     12  C   UNL A   1      32.709  22.820  25.235  1.00  0.00     0.128 A 
ATOM     13  C   UNL A   1      35.097  22.500  25.200  1.00  0.00     0.033 A 
ATOM     14  Cl  UNL A   1      36.365  20.180  24.994  1.00  0.00    -0.084 Cl
ATOM     15  C   UNL A   1      33.994  23.352  25.217  1.00  0.00     0.019 A 
ATOM     16  O   UNL A   1      31.576  23.583  25.263  1.00  0.00    -0.475 OA
ATOM     17  C   UNL A   1      34.187  24.786  25.145  1.00  0.00     0.027 C 
ATOM     18  C   UNL A   1      31.689  25.020  25.041  1.00  0.00     0.316 C 
BRANCH   9  19
ATOM     19  C   UNL A   1      33.377  19.061  24.998  1.00  0.00     0.300 C 
BRANCH  19  20
ATOM     20  N   UNL A   1      33.408  18.481  23.644  1.00  0.00    -0.334 N 
ATOM     21  C   UNL A   1      32.160  18.653  22.912  1.00  0.00     0.333 C 
ATOM     22  H   UNL A   1      34.118  19.039  23.171  1.00  0.00     0.348 HD
BRANCH  20  23
ATOM     23  C   UNL A   1      33.894  17.100  23.569  1.00  0.00     0.258 C 
ATOM     24  C   UNL A   1      34.809  16.739  24.735  1.00  0.00     0.071 C 
ENDBRANCH  20  23
ENDBRANCH  19  20
ENDBRANCH   9  19
BRANCH  18  25
ATOM     25  C   UNL A   1      30.926  25.392  23.761  1.00  0.00     0.430 C 
ATOM     26  F   UNL A   1      31.740  25.381  22.679  1.00  0.00    -0.167 F 
ATOM     27  F   UNL A   1      29.927  24.513  23.507  1.00  0.00    -0.167 F 
ATOM     28  F   UNL A   1      30.371  26.622  23.842  1.00  0.00    -0.167 F 
ENDBRANCH  18  25
ENDBRANCH   6   8
ENDBRANCH   5   6
ENDBRANCH   4   5
ENDBRANCH   3   4
ENDBRANCH   2   3
ENDBRANCH   1   2
BRANCH   1  29
ATOM     29  C   UNL A   1      34.576  32.821  28.389  1.00  0.00     0.188 C 
BRANCH  29  30
ATOM     30  O   UNL A   1      33.664  33.575  29.165  1.00  0.00    -0.376 OA
BRANCH  30  31
ATOM     31  C   UNL A   1      34.156  34.308  30.282  1.00  0.00     0.202 C 
BRANCH  31  32
ATOM     32  C   UNL A   1      34.558  33.561  31.560  1.00  0.00     0.261 C 
BRANCH  32  33
ATOM     33  O   UNL A   1      35.980  33.466  31.743  1.00  0.00    -0.460 OA
BRANCH  33  34
ATOM     34  C   UNL A   1      36.407  32.405  32.472  1.00  0.00     0.338 C 
ATOM     35  O   UNL A   1      35.908  31.949  33.488  1.00  0.00    -0.246 OA
BRANCH  34  36
ATOM     36  C   UNL A   1      37.483  31.721  31.730  1.00  0.00     0.060 A 
ATOM     37  C   UNL A   1      37.458  31.643  30.337  1.00  0.00     0.016 A 
ATOM     38  C   UNL A   1      38.537  31.151  32.458  1.00  0.00     0.016 A 
ATOM     39  C   UNL A   1      38.509  31.009  29.669  1.00  0.00     0.010 A 
ATOM     40  C   UNL A   1      39.573  30.498  31.792  1.00  0.00     0.010 A 
ATOM     41  C   UNL A   1      39.576  30.443  30.390  1.00  0.00    -0.014 A 
BRANCH  41  42
ATOM     42  C   UNL A   1      40.771  29.942  29.670  1.00  0.00     0.031 A 
ATOM     43  C   UNL A   1      40.870  28.531  29.184  1.00  0.00     0.074 A 
ATOM     44  C   UNL A   1      41.784  30.804  29.462  1.00  0.00     0.049 A 
ATOM     45  N   UNL A   1      41.812  27.976  28.463  1.00  0.00    -0.248 NA
ATOM     46  C   UNL A   1      39.778  27.621  29.555  1.00  0.00     0.031 C 
ATOM     47  C   UNL A   1      41.805  32.194  29.918  1.00  0.00     0.029 A 
ATOM     48  N   UNL A   1      42.979  30.644  28.812  1.00  0.00    -0.354 N 
ATOM     49  C   UNL A   1      41.415  26.662  28.265  1.00  0.00     0.074 A 
ATOM     50  C   UNL A   1      40.170  26.487  28.986  1.00  0.00     0.031 C 
ATOM     51  C   UNL A   1      42.948  32.768  29.515  1.00  0.00     0.029 A 
ATOM     52  C   UNL A   1      43.744  31.784  28.787  1.00  0.00     0.049 A 
ATOM     53  H   UNL A   1      43.263  29.794  28.402  1.00  0.00     0.167 HD
ATOM     54  C   UNL A   1      42.029  25.703  27.531  1.00  0.00     0.037 A 
ATOM     55  C   UNL A   1      44.948  32.015  28.231  1.00  0.00     0.037 A 
ATOM     56  C   UNL A   1      43.280  25.881  26.834  1.00  0.00     0.049 A 
ATOM     57  C   UNL A   1      45.627  30.917  27.463  1.00  0.00     0.074 A 
ATOM     58  C   UNL A   1      43.959  24.976  26.035  1.00  0.00     0.029 A 
ATOM     59  N   UNL A   1      44.049  27.036  26.863  1.00  0.00    -0.354 N 
ATOM     60  N   UNL A   1      45.206  29.700  27.215  1.00  0.00    -0.248 NA
ATOM     61  C   UNL A   1      46.942  31.228  26.888  1.00  0.00     0.031 C 
ATOM     62  C   UNL A   1      45.159  25.563  25.625  1.00  0.00     0.029 A 
ATOM     63  C   UNL A   1      45.207  26.856  26.121  1.00  0.00     0.049 A 
ATOM     64  H   UNL A   1      43.807  27.863  27.341  1.00  0.00     0.167 HD
ATOM     65  C   UNL A   1      46.191  29.107  26.439  1.00  0.00     0.074 A 
ATOM     66  C   UNL A   1      47.224  30.105  26.243  1.00  0.00     0.031 C 
ATOM     67  C   UNL A   1      46.234  27.850  25.936  1.00  0.00     0.037 A 
BRANCH  54  68
ATOM     68  C   UNL A   1      41.357  24.365  27.417  1.00  0.00     0.064 A 
ATOM     69  C   UNL A   1      40.212  24.193  26.624  1.00  0.00     0.173 A 
ATOM     70  C   UNL A   1      41.915  23.228  28.019  1.00  0.00     0.173 A 
ATOM     71  F   UNL A   1      39.638  25.250  26.028  1.00  0.00    -0.203 F 
ATOM     72  C   UNL A   1      39.648  22.934  26.444  1.00  0.00     0.198 A 
ATOM     73  C   UNL A   1      41.361  21.965  27.818  1.00  0.00     0.198 A 
ATOM     74  F   UNL A   1      43.015  23.337  28.779  1.00  0.00    -0.203 F 
ATOM     75  F   UNL A   1      38.544  22.796  25.697  1.00  0.00    -0.200 F 
ATOM     76  C   UNL A   1      40.229  21.820  27.032  1.00  0.00     0.200 A 
ATOM     77  F   UNL A   1      41.934  20.888  28.372  1.00  0.00    -0.200 F 
ATOM     78  F   UNL A   1      39.697  20.604  26.838  1.00  0.00    -0.200 F 
ENDBRANCH  54  68
BRANCH  55  79
ATOM     79  C   UNL A   1      45.555  33.363  28.346  1.00  0.00     0.064 A 
ATOM     80  C   UNL A   1      45.252  34.367  27.417  1.00  0.00     0.173 A 
ATOM     81  C   UNL A   1      46.417  33.687  29.402  1.00  0.00     0.173 A 
ATOM     82  F   UNL A   1      44.444  34.097  26.379  1.00  0.00    -0.203 F 
ATOM     83  C   UNL A   1      45.795  35.643  27.535  1.00  0.00     0.198 A 
ATOM     84  C   UNL A   1      46.940  34.971  29.536  1.00  0.00     0.198 A 
ATOM     85  F   UNL A   1      46.732  32.761  30.320  1.00  0.00    -0.203 F 
ATOM     86  F   UNL A   1      45.513  36.578  26.618  1.00  0.00    -0.200 F 
ATOM     87  C   UNL A   1      46.632  35.946  28.600  1.00  0.00     0.200 A 
ATOM     88  F   UNL A   1      47.734  35.264  30.573  1.00  0.00    -0.200 F 
ATOM     89  F   UNL A   1      47.143  37.179  28.721  1.00  0.00    -0.200 F 
ENDBRANCH  55  79
BRANCH  67  90
ATOM     90  C   UNL A   1      47.433  27.476  25.112  1.00  0.00     0.064 A 
ATOM     91  C   UNL A   1      47.483  27.731  23.734  1.00  0.00     0.173 A 
ATOM     92  C   UNL A   1      48.560  26.898  25.714  1.00  0.00     0.173 A 
ATOM     93  F   UNL A   1      46.425  28.268  23.107  1.00  0.00    -0.203 F 
ATOM     94  C   UNL A   1      48.610  27.403  22.985  1.00  0.00     0.198 A 
ATOM     95  C   UNL A   1      49.697  26.597  24.969  1.00  0.00     0.198 A 
ATOM     96  F   UNL A   1      48.566  26.638  27.030  1.00  0.00    -0.203 F 
ATOM     97  F   UNL A   1      48.620  27.617  21.662  1.00  0.00    -0.200 F 
ATOM     98  C   UNL A   1      49.720  26.844  23.604  1.00  0.00     0.200 A 
ATOM     99  F   UNL A   1      50.773  26.070  25.570  1.00  0.00    -0.200 F 
ATOM    100  F   UNL A   1      50.808  26.539  22.884  1.00  0.00    -0.200 F 
ENDBRANCH  67  90
ENDBRANCH  41  42
ENDBRANCH  34  36
ENDBRANCH  33  34
ENDBRANCH  32  33
ENDBRANCH  31  32
ENDBRANCH  30  31
ENDBRANCH  29  30
ENDBRANCH   1  29
TORSDOF 21
ENDMDL
MODEL 2
REMARK VINA RESULT:     -10.7      5.112      7.787
REMARK SMILES CC[N@@H+](C)Cc1cc2c(cc1Cl)C=C(C(=O)OCCOCCOCCOC(=O)c1ccc(-c3c4nc(c(-c5c(F)c(F)c(F)c(F)c5F)c5ccc([nH]5)c(-c5c(F)c(F)c(F)c(F)c5F)c5nc(c(-c6c(F)c(F)c(F)c(F)c6F)c6ccc3[nH]6)C=C5)C=C4)cc1)[C@@H](C(F)(F)F)O2
REMARK SMILES IDX 21 1 20 2 19 3 18 4 17 5 15 6 16 7 14 8 6 9 7 10 11 11 8 12
REMARK SMILES IDX 10 13 12 14 9 15 97 16 13 17 92 18 5 19 3 20 4 21 2 23 1 24
REMARK SMILES IDX 93 25 94 26 95 27 96 28 22 29 23 30 24 31 25 32 26 33 27 34
REMARK SMILES IDX 28 35 29 36 30 37 91 38 31 39 90 40 32 41 33 42 34 43 84 44
REMARK SMILES IDX 35 45 89 46 83 47 85 48 36 49 88 50 82 51 81 52 37 54 69 55
REMARK SMILES IDX 49 56 68 57 50 58 53 59 67 60 86 61 51 62 52 63 66 65 87 66
REMARK SMILES IDX 54 67 38 68 39 69 47 70 40 71 41 72 45 73 48 74 42 75 43 76
REMARK SMILES IDX 46 77 44 78 70 79 71 80 79 81 72 82 73 83 77 84 80 85 74 86
REMARK SMILES IDX 75 87 78 88 76 89 55 90 56 91 64 92 57 93 58 94 62 95 65 96
REMARK SMILES IDX 59 97 60 98 63 99 61 100
REMARK H PARENT 3 22 85 53 53 64
REMARK Flexibility Score: inf
ROOT
ATOM      1  C   UNL A   1      34.063  31.581  27.650  1.00  0.00     0.188 C 
ENDROOT
BRANCH   1   2
ATOM      2  O   UNL A   1      32.961  30.707  27.619  1.00  0.00    -0.376 OA
BRANCH   2   3
ATOM      3  C   UNL A   1      32.074  30.641  26.518  1.00  0.00     0.202 C 
BRANCH   3   4
ATOM      4  C   UNL A   1      32.152  29.638  25.355  1.00  0.00     0.261 C 
BRANCH   4   5
ATOM      5  O   UNL A   1      32.264  28.256  25.695  1.00  0.00    -0.460 OA
BRANCH   5   6
ATOM      6  C   UNL A   1      33.092  27.540  24.898  1.00  0.00     0.338 C 
ATOM      7  O   UNL A   1      33.996  27.974  24.203  1.00  0.00    -0.246 OA
BRANCH   6   8
ATOM      8  C   UNL A   1      32.856  26.101  25.110  1.00  0.00     0.087 C 
ATOM      9  C   UNL A   1      33.446  21.115  25.418  1.00  0.00     0.029 A 
ATOM     10  C   UNL A   1      32.333  21.986  25.438  1.00  0.00     0.058 A 
ATOM     11  C   UNL A   1      34.727  21.692  25.412  1.00  0.00     0.050 A 
ATOM     12  C   UNL A   1      32.494  23.375  25.412  1.00  0.00     0.128 A 
ATOM     13  C   UNL A   1      34.886  23.081  25.421  1.00  0.00     0.033 A 
ATOM     14  Cl  UNL A   1      36.182  20.769  25.317  1.00  0.00    -0.084 Cl
ATOM     15  C   UNL A   1      33.774  23.920  25.392  1.00  0.00     0.019 A 
ATOM     16  O   UNL A   1      31.353  24.125  25.397  1.00  0.00    -0.475 OA
ATOM     17  C   UNL A   1      33.953  25.353  25.270  1.00  0.00     0.027 C 
ATOM     18  C   UNL A   1      31.454  25.555  25.124  1.00  0.00     0.316 C 
BRANCH   9  19
ATOM     19  C   UNL A   1      33.206  19.617  25.322  1.00  0.00     0.300 C 
BRANCH  19  20
ATOM     20  N   UNL A   1      33.532  18.941  24.055  1.00  0.00    -0.334 N 
ATOM     21  C   UNL A   1      32.370  18.716  23.203  1.00  0.00     0.333 C 
ATOM     22  H   UNL A   1      34.129  19.617  23.580  1.00  0.00     0.348 HD
BRANCH  20  23
ATOM     23  C   UNL A   1      34.350  17.733  24.185  1.00  0.00     0.258 C 
ATOM     24  C   UNL A   1      33.520  16.455  24.112  1.00  0.00     0.071 C 
ENDBRANCH  20  23
ENDBRANCH  19  20
ENDBRANCH   9  19
BRANCH  18  25
ATOM     25  C   UNL A   1      30.705  25.871  23.821  1.00  0.00     0.430 C 
ATOM     26  F   UNL A   1      29.859  24.870  23.481  1.00  0.00    -0.167 F 
ATOM     27  F   UNL A   1      29.955  26.992  23.940  1.00  0.00    -0.167 F 
ATOM     28  F   UNL A   1      31.552  26.060  22.783  1.00  0.00    -0.167 F 
ENDBRANCH  18  25
ENDBRANCH   6   8
ENDBRANCH   5   6
ENDBRANCH   4   5
ENDBRANCH   3   4
ENDBRANCH   2   3
ENDBRANCH   1   2
BRANCH   1  29
ATOM     29  C   UNL A   1      34.476  32.227  28.990  1.00  0.00     0.188 C 
BRANCH  29  30
ATOM     30  O   UNL A   1      34.678  33.626  29.078  1.00  0.00    -0.376 OA
BRANCH  30  31
ATOM     31  C   UNL A   1      33.748  34.495  28.440  1.00  0.00     0.202 C 
BRANCH  31  32
ATOM     32  C   UNL A   1      33.004  35.549  29.270  1.00  0.00     0.261 C 
BRANCH  32  33
ATOM     33  O   UNL A   1      32.433  35.024  30.480  1.00  0.00    -0.460 OA
BRANCH  33  34
ATOM     34  C   UNL A   1      32.806  35.651  31.623  1.00  0.00     0.338 C 
ATOM     35  O   UNL A   1      32.218  36.543  32.211  1.00  0.00    -0.246 OA
BRANCH  34  36
ATOM     36  C   UNL A   1      33.964  34.940  32.197  1.00  0.00     0.060 A 
ATOM     37  C   UNL A   1      33.815  33.688  32.795  1.00  0.00     0.016 A 
ATOM     38  C   UNL A   1      35.223  35.552  32.128  1.00  0.00     0.016 A 
ATOM     39  C   UNL A   1      34.941  33.035  33.304  1.00  0.00     0.010 A 
ATOM     40  C   UNL A   1      36.342  34.910  32.657  1.00  0.00     0.010 A 
ATOM     41  C   UNL A   1      36.210  33.637  33.229  1.00  0.00    -0.014 A 
BRANCH  41  42
ATOM     42  C   UNL A   1      37.418  32.861  33.599  1.00  0.00     0.031 A 
ATOM     43  C   UNL A   1      37.985  31.804  32.706  1.00  0.00     0.074 A 
ATOM     44  C   UNL A   1      38.002  33.136  34.781  1.00  0.00     0.049 A 
ATOM     45  N   UNL A   1      39.084  31.107  32.855  1.00  0.00    -0.248 NA
ATOM     46  C   UNL A   1      37.224  31.479  31.492  1.00  0.00     0.031 C 
ATOM     47  C   UNL A   1      37.517  34.127  35.742  1.00  0.00     0.029 A 
ATOM     48  N   UNL A   1      39.126  32.617  35.369  1.00  0.00    -0.354 N 
ATOM     49  C   UNL A   1      39.167  30.284  31.742  1.00  0.00     0.074 A 
ATOM     50  C   UNL A   1      37.978  30.531  30.950  1.00  0.00     0.031 C 
ATOM     51  C   UNL A   1      38.350  34.160  36.792  1.00  0.00     0.029 A 
ATOM     52  C   UNL A   1      39.417  33.185  36.584  1.00  0.00     0.049 A 
ATOM     53  H   UNL A   1      39.671  31.907  34.960  1.00  0.00     0.167 HD
ATOM     54  C   UNL A   1      40.157  29.420  31.410  1.00  0.00     0.037 A 
ATOM     55  C   UNL A   1      40.436  32.955  37.432  1.00  0.00     0.037 A 
ATOM     56  C   UNL A   1      41.326  29.166  32.217  1.00  0.00     0.049 A 
ATOM     57  C   UNL A   1      41.494  31.956  37.059  1.00  0.00     0.074 A 
ATOM     58  C   UNL A   1      42.398  28.335  31.942  1.00  0.00     0.029 A 
ATOM     59  N   UNL A   1      41.570  29.729  33.461  1.00  0.00    -0.354 N 
ATOM     60  N   UNL A   1      41.605  31.240  35.966  1.00  0.00    -0.248 NA
ATOM     61  C   UNL A   1      42.574  31.743  38.031  1.00  0.00     0.031 C 
ATOM     62  C   UNL A   1      43.264  28.354  33.040  1.00  0.00     0.029 A 
ATOM     63  C   UNL A   1      42.761  29.239  33.979  1.00  0.00     0.049 A 
ATOM     64  H   UNL A   1      40.983  30.379  33.911  1.00  0.00     0.167 HD
ATOM     65  C   UNL A   1      42.774  30.508  36.108  1.00  0.00     0.074 A 
ATOM     66  C   UNL A   1      43.347  30.880  37.386  1.00  0.00     0.031 C 
ATOM     67  C   UNL A   1      43.321  29.609  35.254  1.00  0.00     0.037 A 
BRANCH  54  68
ATOM     68  C   UNL A   1      40.042  28.687  30.105  1.00  0.00     0.064 A 
ATOM     69  C   UNL A   1      40.614  29.201  28.931  1.00  0.00     0.173 A 
ATOM     70  C   UNL A   1      39.449  27.417  30.045  1.00  0.00     0.173 A 
ATOM     71  F   UNL A   1      41.191  30.412  28.935  1.00  0.00    -0.203 F 
ATOM     72  C   UNL A   1      40.590  28.474  27.744  1.00  0.00     0.198 A 
ATOM     73  C   UNL A   1      39.447  26.682  28.861  1.00  0.00     0.198 A 
ATOM     74  F   UNL A   1      38.897  26.876  31.141  1.00  0.00    -0.203 F 
ATOM     75  F   UNL A   1      41.125  28.992  26.631  1.00  0.00    -0.200 F 
ATOM     76  C   UNL A   1      40.016  27.211  27.713  1.00  0.00     0.200 A 
ATOM     77  F   UNL A   1      38.909  25.455  28.837  1.00  0.00    -0.200 F 
ATOM     78  F   UNL A   1      40.014  26.503  26.574  1.00  0.00    -0.200 F 
ENDBRANCH  54  68
BRANCH  55  79
ATOM     79  C   UNL A   1      40.520  33.729  38.696  1.00  0.00     0.064 A 
ATOM     80  C   UNL A   1      41.325  34.872  38.784  1.00  0.00     0.173 A 
ATOM     81  C   UNL A   1      39.771  33.365  39.823  1.00  0.00     0.173 A 
ATOM     82  F   UNL A   1      42.072  35.247  37.733  1.00  0.00    -0.203 F 
ATOM     83  C   UNL A   1      41.386  35.619  39.957  1.00  0.00     0.198 A 
ATOM     84  C   UNL A   1      39.812  34.128  40.988  1.00  0.00     0.198 A 
ATOM     85  F   UNL A   1      38.981  32.283  39.785  1.00  0.00    -0.203 F 
ATOM     86  F   UNL A   1      42.185  36.692  40.025  1.00  0.00    -0.200 F 
ATOM     87  C   UNL A   1      40.622  35.251  41.055  1.00  0.00     0.200 A 
ATOM     88  F   UNL A   1      39.061  33.779  42.041  1.00  0.00    -0.200 F 
ATOM     89  F   UNL A   1      40.669  35.979  42.179  1.00  0.00    -0.200 F 
ENDBRANCH  55  79
BRANCH  67  90
ATOM     90  C   UNL A   1      44.616  28.966  35.664  1.00  0.00     0.064 A 
ATOM     91  C   UNL A   1      45.853  29.557  35.370  1.00  0.00     0.173 A 
ATOM     92  C   UNL A   1      44.617  27.770  36.398  1.00  0.00     0.173 A 
ATOM     93  F   UNL A   1      45.906  30.692  34.657  1.00  0.00    -0.203 F 
ATOM     94  C   UNL A   1      47.045  28.964  35.778  1.00  0.00     0.198 A 
ATOM     95  C   UNL A   1      45.810  27.195  36.830  1.00  0.00     0.198 A 
ATOM     96  F   UNL A   1      43.461  27.166  36.711  1.00  0.00    -0.203 F 
ATOM     97  F   UNL A   1      48.217  29.525  35.449  1.00  0.00    -0.200 F 
ATOM     98  C   UNL A   1      47.023  27.789  36.515  1.00  0.00     0.200 A 
ATOM     99  F   UNL A   1      45.786  26.067  37.553  1.00  0.00    -0.200 F 
ATOM    100  F   UNL A   1      48.171  27.226  36.916  1.00  0.00    -0.200 F 
ENDBRANCH  67  90
ENDBRANCH  41  42
ENDBRANCH  34  36
ENDBRANCH  33  34
ENDBRANCH  32  33
ENDBRANCH  31  32
ENDBRANCH  30  31
ENDBRANCH  29  30
ENDBRANCH   1  29
TORSDOF 21
ENDMDL
MODEL 3
REMARK VINA RESULT:     -10.4      5.031      9.200
REMARK SMILES CC[N@@H+](C)Cc1cc2c(cc1Cl)C=C(C(=O)OCCOCCOCCOC(=O)c1ccc(-c3c4nc(c(-c5c(F)c(F)c(F)c(F)c5F)c5ccc([nH]5)c(-c5c(F)c(F)c(F)c(F)c5F)c5nc(c(-c6c(F)c(F)c(F)c(F)c6F)c6ccc3[nH]6)C=C5)C=C4)cc1)[C@@H](C(F)(F)F)O2
REMARK SMILES IDX 21 1 20 2 19 3 18 4 17 5 15 6 16 7 14 8 6 9 7 10 11 11 8 12
REMARK SMILES IDX 10 13 12 14 9 15 97 16 13 17 92 18 5 19 3 20 4 21 2 23 1 24
REMARK SMILES IDX 93 25 94 26 95 27 96 28 22 29 23 30 24 31 25 32 26 33 27 34
REMARK SMILES IDX 28 35 29 36 30 37 91 38 31 39 90 40 32 41 33 42 34 43 84 44
REMARK SMILES IDX 35 45 89 46 83 47 85 48 36 49 88 50 82 51 81 52 37 54 69 55
REMARK SMILES IDX 49 56 68 57 50 58 53 59 67 60 86 61 51 62 52 63 66 65 87 66
REMARK SMILES IDX 54 67 38 68 39 69 47 70 40 71 41 72 45 73 48 74 42 75 43 76
REMARK SMILES IDX 46 77 44 78 70 79 71 80 79 81 72 82 73 83 77 84 80 85 74 86
REMARK SMILES IDX 75 87 78 88 76 89 55 90 56 91 64 92 57 93 58 94 62 95 65 96
REMARK SMILES IDX 59 97 60 98 63 99 61 100
REMARK H PARENT 3 22 85 53 53 64
REMARK Flexibility Score: inf
ROOT
ATOM      1  C   UNL A   1      33.960  31.395  27.603  1.00  0.00     0.188 C 
ENDROOT
BRANCH   1   2
ATOM      2  O   UNL A   1      32.726  30.723  27.539  1.00  0.00    -0.376 OA
BRANCH   2   3
ATOM      3  C   UNL A   1      31.951  30.667  26.355  1.00  0.00     0.202 C 
BRANCH   3   4
ATOM      4  C   UNL A   1      32.146  29.676  25.195  1.00  0.00     0.261 C 
BRANCH   4   5
ATOM      5  O   UNL A   1      32.219  28.290  25.530  1.00  0.00    -0.460 OA
BRANCH   5   6
ATOM      6  C   UNL A   1      33.055  27.560  24.754  1.00  0.00     0.338 C 
ATOM      7  O   UNL A   1      33.951  27.985  24.042  1.00  0.00    -0.246 OA
BRANCH   6   8
ATOM      8  C   UNL A   1      32.840  26.126  25.012  1.00  0.00     0.087 C 
ATOM      9  C   UNL A   1      33.502  21.161  25.475  1.00  0.00     0.029 A 
ATOM     10  C   UNL A   1      32.378  22.016  25.473  1.00  0.00     0.058 A 
ATOM     11  C   UNL A   1      34.775  21.755  25.443  1.00  0.00     0.050 A 
ATOM     12  C   UNL A   1      32.519  23.406  25.402  1.00  0.00     0.128 A 
ATOM     13  C   UNL A   1      34.915  23.146  25.407  1.00  0.00     0.033 A 
ATOM     14  Cl  UNL A   1      36.242  20.850  25.369  1.00  0.00    -0.084 Cl
ATOM     15  C   UNL A   1      33.790  23.969  25.358  1.00  0.00     0.019 A 
ATOM     16  O   UNL A   1      31.367  24.140  25.370  1.00  0.00    -0.475 OA
ATOM     17  C   UNL A   1      33.949  25.399  25.189  1.00  0.00     0.027 C 
ATOM     18  C   UNL A   1      31.447  25.561  25.051  1.00  0.00     0.316 C 
BRANCH   9  19
ATOM     19  C   UNL A   1      33.283  19.658  25.427  1.00  0.00     0.300 C 
BRANCH  19  20
ATOM     20  N   UNL A   1      33.615  18.946  24.181  1.00  0.00    -0.334 N 
ATOM     21  C   UNL A   1      32.468  18.754  23.302  1.00  0.00     0.333 C 
ATOM     22  H   UNL A   1      34.253  19.588  23.712  1.00  0.00     0.348 HD
BRANCH  20  23
ATOM     23  C   UNL A   1      34.378  17.707  24.355  1.00  0.00     0.258 C 
ATOM     24  C   UNL A   1      33.991  16.636  23.340  1.00  0.00     0.071 C 
ENDBRANCH  20  23
ENDBRANCH  19  20
ENDBRANCH   9  19
BRANCH  18  25
ATOM     25  C   UNL A   1      30.687  25.825  23.743  1.00  0.00     0.430 C 
ATOM     26  F   UNL A   1      29.926  26.941  23.829  1.00  0.00    -0.167 F 
ATOM     27  F   UNL A   1      31.536  26.011  22.705  1.00  0.00    -0.167 F 
ATOM     28  F   UNL A   1      29.869  24.798  23.416  1.00  0.00    -0.167 F 
ENDBRANCH  18  25
ENDBRANCH   6   8
ENDBRANCH   5   6
ENDBRANCH   4   5
ENDBRANCH   3   4
ENDBRANCH   2   3
ENDBRANCH   1   2
BRANCH   1  29
ATOM     29  C   UNL A   1      34.420  31.999  28.948  1.00  0.00     0.188 C 
BRANCH  29  30
ATOM     30  O   UNL A   1      34.748  33.373  29.039  1.00  0.00    -0.376 OA
BRANCH  30  31
ATOM     31  C   UNL A   1      33.963  34.316  28.318  1.00  0.00     0.202 C 
BRANCH  31  32
ATOM     32  C   UNL A   1      33.046  35.280  29.082  1.00  0.00     0.261 C 
BRANCH  32  33
ATOM     33  O   UNL A   1      32.585  34.757  30.338  1.00  0.00    -0.460 OA
BRANCH  33  34
ATOM     34  C   UNL A   1      32.978  35.445  31.438  1.00  0.00     0.338 C 
ATOM     35  O   UNL A   1      32.380  36.341  32.011  1.00  0.00    -0.246 OA
BRANCH  34  36
ATOM     36  C   UNL A   1      34.183  34.802  31.995  1.00  0.00     0.060 A 
ATOM     37  C   UNL A   1      34.120  33.530  32.566  1.00  0.00     0.016 A 
ATOM     38  C   UNL A   1      35.398  35.497  31.937  1.00  0.00     0.016 A 
ATOM     39  C   UNL A   1      35.288  32.943  33.060  1.00  0.00     0.010 A 
ATOM     40  C   UNL A   1      36.559  34.921  32.450  1.00  0.00     0.010 A 
ATOM     41  C   UNL A   1      36.514  33.630  32.996  1.00  0.00    -0.014 A 
BRANCH  41  42
ATOM     42  C   UNL A   1      37.772  32.929  33.347  1.00  0.00     0.031 A 
ATOM     43  C   UNL A   1      38.510  33.214  34.617  1.00  0.00     0.074 A 
ATOM     44  C   UNL A   1      38.243  32.014  32.480  1.00  0.00     0.049 A 
ATOM     45  N   UNL A   1      39.572  32.619  35.100  1.00  0.00    -0.248 NA
ATOM     46  C   UNL A   1      37.999  34.309  35.452  1.00  0.00     0.031 C 
ATOM     47  C   UNL A   1      37.620  31.677  31.200  1.00  0.00     0.029 A 
ATOM     48  N   UNL A   1      39.343  31.198  32.544  1.00  0.00    -0.354 N 
ATOM     49  C   UNL A   1      39.840  33.241  36.309  1.00  0.00     0.074 A 
ATOM     50  C   UNL A   1      38.860  34.298  36.463  1.00  0.00     0.031 C 
ATOM     51  C   UNL A   1      38.334  30.709  30.608  1.00  0.00     0.029 A 
ATOM     52  C   UNL A   1      39.472  30.369  31.458  1.00  0.00     0.049 A 
ATOM     53  H   UNL A   1      39.979  31.206  33.296  1.00  0.00     0.167 HD
ATOM     54  C   UNL A   1      40.805  32.940  37.212  1.00  0.00     0.037 A 
ATOM     55  C   UNL A   1      40.396  29.431  31.182  1.00  0.00     0.037 A 
ATOM     56  C   UNL A   1      41.791  31.900  37.039  1.00  0.00     0.049 A 
ATOM     57  C   UNL A   1      41.483  29.152  32.180  1.00  0.00     0.074 A 
ATOM     58  C   UNL A   1      42.784  31.499  37.917  1.00  0.00     0.029 A 
ATOM     59  N   UNL A   1      41.917  31.105  35.909  1.00  0.00    -0.354 N 
ATOM     60  N   UNL A   1      41.682  29.692  33.357  1.00  0.00    -0.248 NA
ATOM     61  C   UNL A   1      42.466  28.123  31.816  1.00  0.00     0.031 C 
ATOM     62  C   UNL A   1      43.542  30.500  37.298  1.00  0.00     0.029 A 
ATOM     63  C   UNL A   1      42.991  30.237  36.055  1.00  0.00     0.049 A 
ATOM     64  H   UNL A   1      41.332  31.151  35.118  1.00  0.00     0.167 HD
ATOM     65  C   UNL A   1      42.797  29.058  33.884  1.00  0.00     0.074 A 
ATOM     66  C   UNL A   1      43.222  28.078  32.905  1.00  0.00     0.031 C 
ATOM     67  C   UNL A   1      43.412  29.270  35.073  1.00  0.00     0.037 A 
BRANCH  54  68
ATOM     68  C   UNL A   1      40.846  33.729  38.488  1.00  0.00     0.064 A 
ATOM     69  C   UNL A   1      40.008  33.409  39.567  1.00  0.00     0.173 A 
ATOM     70  C   UNL A   1      41.798  34.742  38.676  1.00  0.00     0.173 A 
ATOM     71  F   UNL A   1      39.079  32.448  39.438  1.00  0.00    -0.203 F 
ATOM     72  C   UNL A   1      40.114  34.078  40.782  1.00  0.00     0.198 A 
ATOM     73  C   UNL A   1      41.918  35.395  39.901  1.00  0.00     0.198 A 
ATOM     74  F   UNL A   1      42.631  35.080  37.680  1.00  0.00    -0.203 F 
ATOM     75  F   UNL A   1      39.290  33.769  41.791  1.00  0.00    -0.200 F 
ATOM     76  C   UNL A   1      41.076  35.063  40.952  1.00  0.00     0.200 A 
ATOM     77  F   UNL A   1      42.860  36.334  40.069  1.00  0.00    -0.200 F 
ATOM     78  F   UNL A   1      41.193  35.692  42.130  1.00  0.00    -0.200 F 
ENDBRANCH  54  68
BRANCH  55  79
ATOM     79  C   UNL A   1      40.292  28.658  29.919  1.00  0.00     0.064 A 
ATOM     80  C   UNL A   1      40.925  29.105  28.752  1.00  0.00     0.173 A 
ATOM     81  C   UNL A   1      39.594  27.444  29.863  1.00  0.00     0.173 A 
ATOM     82  F   UNL A   1      41.591  30.270  28.755  1.00  0.00    -0.203 F 
ATOM     83  C   UNL A   1      40.856  28.370  27.572  1.00  0.00     0.198 A 
ATOM     84  C   UNL A   1      39.547  26.696  28.690  1.00  0.00     0.198 A 
ATOM     85  F   UNL A   1      38.978  26.972  30.957  1.00  0.00    -0.203 F 
ATOM     86  F   UNL A   1      41.445  28.832  26.461  1.00  0.00    -0.200 F 
ATOM     87  C   UNL A   1      40.174  27.161  27.544  1.00  0.00     0.200 A 
ATOM     88  F   UNL A   1      38.902  25.522  28.671  1.00  0.00    -0.200 F 
ATOM     89  F   UNL A   1      40.121  26.447  26.411  1.00  0.00    -0.200 F 
ENDBRANCH  55  79
BRANCH  67  90
ATOM     90  C   UNL A   1      44.609  28.421  35.393  1.00  0.00     0.064 A 
ATOM     91  C   UNL A   1      45.908  28.831  35.062  1.00  0.00     0.173 A 
ATOM     92  C   UNL A   1      44.458  27.206  36.080  1.00  0.00     0.173 A 
ATOM     93  F   UNL A   1      46.104  29.976  34.391  1.00  0.00    -0.203 F 
ATOM     94  C   UNL A   1      47.012  28.046  35.387  1.00  0.00     0.198 A 
ATOM     95  C   UNL A   1      45.566  26.438  36.429  1.00  0.00     0.198 A 
ATOM     96  F   UNL A   1      43.237  26.771  36.425  1.00  0.00    -0.203 F 
ATOM     97  F   UNL A   1      48.240  28.438  35.023  1.00  0.00    -0.200 F 
ATOM     98  C   UNL A   1      46.841  26.856  36.078  1.00  0.00     0.200 A 
ATOM     99  F   UNL A   1      45.400  25.294  37.108  1.00  0.00    -0.200 F 
ATOM    100  F   UNL A   1      47.905  26.107  36.400  1.00  0.00    -0.200 F 
ENDBRANCH  67  90
ENDBRANCH  41  42
ENDBRANCH  34  36
ENDBRANCH  33  34
ENDBRANCH  32  33
ENDBRANCH  31  32
ENDBRANCH  30  31
ENDBRANCH  29  30
ENDBRANCH   1  29
TORSDOF 21
ENDMDL
