MODEL 1
REMARK VINA RESULT:     -10.0      0.000      0.000
REMARK SMILES C=CC[N@@H+](CC(=O)Nc1ccccc1)CC(=O)OCCOCCOCCOC(=O)c1ccc(-c2c3nc(c(-c4c(F)c(F)c(F)c(F)c4F)c4ccc([nH]4)c(-c4c(F)c(F)c(F)c(F)c4F)c4nc(c(-c5c(F)c(F)c(F)c(F)c5F)c5ccc2[nH]5)C=C4)C=C3)cc1
REMARK SMILES IDX 22 1 21 2 20 3 19 4 18 5 16 6 17 7 15 8 4 9 3 11 2 12 1 13
REMARK SMILES IDX 5 14 6 15 7 16 8 17 9 19 10 20 14 21 11 22 13 23 12 24 23 25
REMARK SMILES IDX 24 26 25 27 26 28 27 29 28 30 29 31 30 32 31 33 92 34 32 35
REMARK SMILES IDX 91 36 33 37 34 38 35 39 85 40 36 41 90 42 84 43 86 44 37 45
REMARK SMILES IDX 89 46 83 47 82 48 38 50 70 51 50 52 69 53 51 54 54 55 68 56
REMARK SMILES IDX 87 57 52 58 53 59 67 61 88 62 55 63 39 64 40 65 48 66 41 67
REMARK SMILES IDX 42 68 46 69 49 70 43 71 44 72 47 73 45 74 71 75 72 76 80 77
REMARK SMILES IDX 73 78 74 79 78 80 81 81 75 82 76 83 79 84 77 85 56 86 57 87
REMARK SMILES IDX 65 88 58 89 59 90 63 91 66 92 60 93 61 94 64 95 62 96
REMARK H PARENT 4 10 8 18 86 49 54 60
REMARK Flexibility Score: inf
ROOT
ATOM      1  C   UNL A   1      35.098  32.182  28.092  1.00  0.00     0.188 C 
ENDROOT
BRANCH   1   2
ATOM      2  O   UNL A   1      34.249  31.131  27.641  1.00  0.00    -0.376 OA
BRANCH   2   3
ATOM      3  C   UNL A   1      34.808  29.840  27.427  1.00  0.00     0.202 C 
BRANCH   3   4
ATOM      4  C   UNL A   1      33.902  28.825  26.734  1.00  0.00     0.261 C 
BRANCH   4   5
ATOM      5  O   UNL A   1      33.071  29.397  25.710  1.00  0.00    -0.459 OA
BRANCH   5   6
ATOM      6  C   UNL A   1      33.200  28.915  24.449  1.00  0.00     0.361 C 
ATOM      7  O   UNL A   1      34.265  28.601  23.930  1.00  0.00    -0.245 OA
BRANCH   6   8
ATOM      8  C   UNL A   1      31.866  28.936  23.714  1.00  0.00     0.387 C 
BRANCH   8   9
ATOM      9  N   UNL A   1      31.029  27.737  23.791  1.00  0.00    -0.315 N 
ATOM     10  H   UNL A   1      31.753  27.149  23.379  1.00  0.00     0.349 HD
BRANCH   9  11
ATOM     11  C   UNL A   1      30.866  27.065  25.056  1.00  0.00     0.291 C 
BRANCH  11  12
ATOM     12  C   UNL A   1      31.463  25.701  25.184  1.00  0.00     0.025 C 
ATOM     13  C   UNL A   1      32.234  25.332  26.216  1.00  0.00     0.010 C 
ENDBRANCH  11  12
ENDBRANCH   9  11
BRANCH   9  14
ATOM     14  C   UNL A   1      29.952  27.544  22.805  1.00  0.00     0.364 C 
BRANCH  14  15
ATOM     15  C   UNL A   1      28.514  27.696  23.285  1.00  0.00     0.279 C 
ATOM     16  O   UNL A   1      27.936  26.710  23.769  1.00  0.00    -0.268 OA
ATOM     17  N   UNL A   1      27.810  28.863  23.331  1.00  0.00    -0.321 N 
ATOM     18  H   UNL A   1      26.984  28.749  23.855  1.00  0.00     0.170 HD
BRANCH  17  19
ATOM     19  C   UNL A   1      27.915  30.181  22.851  1.00  0.00     0.041 A 
ATOM     20  C   UNL A   1      28.044  30.326  21.460  1.00  0.00     0.026 A 
ATOM     21  C   UNL A   1      27.987  31.333  23.620  1.00  0.00     0.026 A 
ATOM     22  C   UNL A   1      28.298  31.571  20.872  1.00  0.00     0.002 A 
ATOM     23  C   UNL A   1      28.297  32.577  23.047  1.00  0.00     0.002 A 
ATOM     24  C   UNL A   1      28.458  32.695  21.671  1.00  0.00     0.000 A 
ENDBRANCH  17  19
ENDBRANCH  14  15
ENDBRANCH   9  14
ENDBRANCH   8   9
ENDBRANCH   6   8
ENDBRANCH   5   6
ENDBRANCH   4   5
ENDBRANCH   3   4
ENDBRANCH   2   3
ENDBRANCH   1   2
BRANCH   1  25
ATOM     25  C   UNL A   1      34.659  32.982  29.323  1.00  0.00     0.188 C 
BRANCH  25  26
ATOM     26  O   UNL A   1      34.688  34.406  29.233  1.00  0.00    -0.376 OA
BRANCH  26  27
ATOM     27  C   UNL A   1      33.520  35.034  28.709  1.00  0.00     0.202 C 
BRANCH  27  28
ATOM     28  C   UNL A   1      32.926  36.049  29.677  1.00  0.00     0.261 C 
BRANCH  28  29
ATOM     29  O   UNL A   1      32.395  35.346  30.807  1.00  0.00    -0.460 OA
BRANCH  29  30
ATOM     30  C   UNL A   1      32.664  35.915  31.995  1.00  0.00     0.338 C 
ATOM     31  O   UNL A   1      32.150  36.914  32.486  1.00  0.00    -0.246 OA
BRANCH  30  32
ATOM     32  C   UNL A   1      33.764  35.165  32.605  1.00  0.00     0.060 A 
ATOM     33  C   UNL A   1      35.020  35.759  32.784  1.00  0.00     0.016 A 
ATOM     34  C   UNL A   1      33.542  33.835  32.960  1.00  0.00     0.016 A 
ATOM     35  C   UNL A   1      36.075  34.999  33.291  1.00  0.00     0.010 A 
ATOM     36  C   UNL A   1      34.588  33.089  33.493  1.00  0.00     0.010 A 
ATOM     37  C   UNL A   1      35.868  33.656  33.632  1.00  0.00    -0.014 A 
BRANCH  37  38
ATOM     38  C   UNL A   1      36.996  32.768  34.002  1.00  0.00     0.031 A 
ATOM     39  C   UNL A   1      37.659  32.980  35.332  1.00  0.00     0.074 A 
ATOM     40  C   UNL A   1      37.453  31.827  33.160  1.00  0.00     0.049 A 
ATOM     41  N   UNL A   1      38.818  32.556  35.764  1.00  0.00    -0.248 NA
ATOM     42  C   UNL A   1      36.915  33.801  36.301  1.00  0.00     0.031 C 
ATOM     43  C   UNL A   1      36.850  31.467  31.878  1.00  0.00     0.029 A 
ATOM     44  N   UNL A   1      38.558  31.017  33.252  1.00  0.00    -0.354 N 
ATOM     45  C   UNL A   1      38.969  33.106  37.030  1.00  0.00     0.074 A 
ATOM     46  C   UNL A   1      37.778  33.882  37.303  1.00  0.00     0.031 C 
ATOM     47  C   UNL A   1      37.599  30.516  31.296  1.00  0.00     0.029 A 
ATOM     48  C   UNL A   1      38.770  30.254  32.130  1.00  0.00     0.049 A 
ATOM     49  H   UNL A   1      39.141  30.985  34.045  1.00  0.00     0.167 HD
ATOM     50  C   UNL A   1      40.017  32.983  37.877  1.00  0.00     0.037 A 
ATOM     51  C   UNL A   1      39.819  29.478  31.796  1.00  0.00     0.037 A 
ATOM     52  C   UNL A   1      41.180  32.182  37.604  1.00  0.00     0.049 A 
ATOM     53  C   UNL A   1      40.996  29.391  32.733  1.00  0.00     0.074 A 
ATOM     54  C   UNL A   1      42.304  31.991  38.387  1.00  0.00     0.029 A 
ATOM     55  N   UNL A   1      41.358  31.426  36.454  1.00  0.00    -0.354 N 
ATOM     56  N   UNL A   1      41.173  29.965  33.898  1.00  0.00    -0.248 NA
ATOM     57  C   UNL A   1      42.131  28.565  32.296  1.00  0.00     0.031 C 
ATOM     58  C   UNL A   1      43.176  31.141  37.697  1.00  0.00     0.029 A 
ATOM     59  C   UNL A   1      42.578  30.772  36.503  1.00  0.00     0.049 A 
ATOM     60  H   UNL A   1      40.713  31.365  35.713  1.00  0.00     0.167 HD
ATOM     61  C   UNL A   1      42.426  29.561  34.340  1.00  0.00     0.074 A 
ATOM     62  C   UNL A   1      42.961  28.679  33.323  1.00  0.00     0.031 C 
ATOM     63  C   UNL A   1      43.080  29.892  35.481  1.00  0.00     0.037 A 
BRANCH  50  64
ATOM     64  C   UNL A   1      39.973  33.774  39.149  1.00  0.00     0.064 A 
ATOM     65  C   UNL A   1      39.347  33.287  40.305  1.00  0.00     0.173 A 
ATOM     66  C   UNL A   1      40.579  35.038  39.212  1.00  0.00     0.173 A 
ATOM     67  F   UNL A   1      38.734  32.094  40.290  1.00  0.00    -0.203 F 
ATOM     68  C   UNL A   1      39.310  34.048  41.472  1.00  0.00     0.198 A 
ATOM     69  C   UNL A   1      40.562  35.785  40.387  1.00  0.00     0.198 A 
ATOM     70  F   UNL A   1      41.188  35.551  38.133  1.00  0.00    -0.203 F 
ATOM     71  F   UNL A   1      38.664  33.584  42.552  1.00  0.00    -0.200 F 
ATOM     72  C   UNL A   1      39.921  35.292  41.514  1.00  0.00     0.200 A 
ATOM     73  F   UNL A   1      41.159  36.984  40.428  1.00  0.00    -0.200 F 
ATOM     74  F   UNL A   1      39.885  36.021  42.638  1.00  0.00    -0.200 F 
ENDBRANCH  50  64
BRANCH  51  75
ATOM     75  C   UNL A   1      39.829  28.762  30.494  1.00  0.00     0.064 A 
ATOM     76  C   UNL A   1      40.358  29.365  29.346  1.00  0.00     0.173 A 
ATOM     77  C   UNL A   1      39.301  27.468  30.367  1.00  0.00     0.173 A 
ATOM     78  F   UNL A   1      40.844  30.613  29.410  1.00  0.00    -0.203 F 
ATOM     79  C   UNL A   1      40.352  28.705  28.118  1.00  0.00     0.198 A 
ATOM     80  C   UNL A   1      39.321  26.798  29.145  1.00  0.00     0.198 A 
ATOM     81  F   UNL A   1      38.775  26.849  31.434  1.00  0.00    -0.203 F 
ATOM     82  F   UNL A   1      40.826  29.322  27.027  1.00  0.00    -0.200 F 
ATOM     83  C   UNL A   1      39.842  27.419  28.020  1.00  0.00     0.200 A 
ATOM     84  F   UNL A   1      38.834  25.553  29.058  1.00  0.00    -0.200 F 
ATOM     85  F   UNL A   1      39.840  26.785  26.841  1.00  0.00    -0.200 F 
ENDBRANCH  51  75
BRANCH  63  86
ATOM     86  C   UNL A   1      44.426  29.270  35.703  1.00  0.00     0.064 A 
ATOM     87  C   UNL A   1      44.566  28.035  36.352  1.00  0.00     0.173 A 
ATOM     88  C   UNL A   1      45.584  29.899  35.220  1.00  0.00     0.173 A 
ATOM     89  F   UNL A   1      43.488  27.405  36.843  1.00  0.00    -0.203 F 
ATOM     90  C   UNL A   1      45.822  27.461  36.529  1.00  0.00     0.198 A 
ATOM     91  C   UNL A   1      46.834  29.309  35.378  1.00  0.00     0.198 A 
ATOM     92  F   UNL A   1      45.499  31.078  34.587  1.00  0.00    -0.203 F 
ATOM     93  F   UNL A   1      45.938  26.299  37.186  1.00  0.00    -0.200 F 
ATOM     94  C   UNL A   1      46.953  28.094  36.036  1.00  0.00     0.200 A 
ATOM     95  F   UNL A   1      47.925  29.918  34.893  1.00  0.00    -0.200 F 
ATOM     96  F   UNL A   1      48.160  27.537  36.203  1.00  0.00    -0.200 F 
ENDBRANCH  63  86
ENDBRANCH  37  38
ENDBRANCH  30  32
ENDBRANCH  29  30
ENDBRANCH  28  29
ENDBRANCH  27  28
ENDBRANCH  26  27
ENDBRANCH  25  26
ENDBRANCH   1  25
TORSDOF 23
ENDMDL
MODEL 2
REMARK VINA RESULT:     -10.0      5.439      9.662
REMARK SMILES C=CC[N@@H+](CC(=O)Nc1ccccc1)CC(=O)OCCOCCOCCOC(=O)c1ccc(-c2c3nc(c(-c4c(F)c(F)c(F)c(F)c4F)c4ccc([nH]4)c(-c4c(F)c(F)c(F)c(F)c4F)c4nc(c(-c5c(F)c(F)c(F)c(F)c5F)c5ccc2[nH]5)C=C4)C=C3)cc1
REMARK SMILES IDX 22 1 21 2 20 3 19 4 18 5 16 6 17 7 15 8 4 9 3 11 2 12 1 13
REMARK SMILES IDX 5 14 6 15 7 16 8 17 9 19 10 20 14 21 11 22 13 23 12 24 23 25
REMARK SMILES IDX 24 26 25 27 26 28 27 29 28 30 29 31 30 32 31 33 92 34 32 35
REMARK SMILES IDX 91 36 33 37 34 38 35 39 85 40 36 41 90 42 84 43 86 44 37 45
REMARK SMILES IDX 89 46 83 47 82 48 38 50 70 51 50 52 69 53 51 54 54 55 68 56
REMARK SMILES IDX 87 57 52 58 53 59 67 61 88 62 55 63 39 64 40 65 48 66 41 67
REMARK SMILES IDX 42 68 46 69 49 70 43 71 44 72 47 73 45 74 71 75 72 76 80 77
REMARK SMILES IDX 73 78 74 79 78 80 81 81 75 82 76 83 79 84 77 85 56 86 57 87
REMARK SMILES IDX 65 88 58 89 59 90 63 91 66 92 60 93 61 94 64 95 62 96
REMARK H PARENT 4 10 8 18 86 49 54 60
REMARK Flexibility Score: inf
ROOT
ATOM      1  C   UNL A   1      33.274  20.522  24.795  1.00  0.00     0.188 C 
ENDROOT
BRANCH   1   2
ATOM      2  O   UNL A   1      32.742  21.223  23.674  1.00  0.00    -0.376 OA
BRANCH   2   3
ATOM      3  C   UNL A   1      32.887  22.638  23.617  1.00  0.00     0.202 C 
BRANCH   3   4
ATOM      4  C   UNL A   1      33.296  23.214  22.263  1.00  0.00     0.261 C 
BRANCH   4   5
ATOM      5  O   UNL A   1      33.610  24.616  22.302  1.00  0.00    -0.459 OA
BRANCH   5   6
ATOM      6  C   UNL A   1      32.828  25.459  21.584  1.00  0.00     0.361 C 
ATOM      7  O   UNL A   1      33.102  25.882  20.468  1.00  0.00    -0.245 OA
BRANCH   6   8
ATOM      8  C   UNL A   1      31.624  25.916  22.398  1.00  0.00     0.387 C 
BRANCH   8   9
ATOM      9  N   UNL A   1      31.875  26.761  23.567  1.00  0.00    -0.315 N 
ATOM     10  H   UNL A   1      30.882  26.829  23.789  1.00  0.00     0.349 HD
BRANCH   9  11
ATOM     11  C   UNL A   1      32.352  26.160  24.787  1.00  0.00     0.291 C 
BRANCH  11  12
ATOM     12  C   UNL A   1      31.339  25.880  25.850  1.00  0.00     0.025 C 
ATOM     13  C   UNL A   1      30.313  25.037  25.682  1.00  0.00     0.010 C 
ENDBRANCH  11  12
ENDBRANCH   9  11
BRANCH   9  14
ATOM     14  C   UNL A   1      32.192  28.186  23.374  1.00  0.00     0.364 C 
BRANCH  14  15
ATOM     15  C   UNL A   1      31.337  29.210  24.110  1.00  0.00     0.279 C 
ATOM     16  O   UNL A   1      30.188  29.438  23.701  1.00  0.00    -0.268 OA
ATOM     17  N   UNL A   1      31.680  29.847  25.266  1.00  0.00    -0.321 N 
ATOM     18  H   UNL A   1      30.899  30.305  25.654  1.00  0.00     0.170 HD
BRANCH  17  19
ATOM     19  C   UNL A   1      32.818  30.042  26.069  1.00  0.00     0.041 A 
ATOM     20  C   UNL A   1      33.736  28.979  26.112  1.00  0.00     0.026 A 
ATOM     21  C   UNL A   1      33.076  31.138  26.878  1.00  0.00     0.026 A 
ATOM     22  C   UNL A   1      34.833  28.992  26.980  1.00  0.00     0.002 A 
ATOM     23  C   UNL A   1      34.142  31.137  27.792  1.00  0.00     0.002 A 
ATOM     24  C   UNL A   1      35.019  30.060  27.847  1.00  0.00     0.000 A 
ENDBRANCH  17  19
ENDBRANCH  14  15
ENDBRANCH   9  14
ENDBRANCH   8   9
ENDBRANCH   6   8
ENDBRANCH   5   6
ENDBRANCH   4   5
ENDBRANCH   3   4
ENDBRANCH   2   3
ENDBRANCH   1   2
BRANCH   1  25
ATOM     25  C   UNL A   1      33.950  21.343  25.898  1.00  0.00     0.188 C 
BRANCH  25  26
ATOM     26  O   UNL A   1      35.354  21.170  26.087  1.00  0.00    -0.376 OA
BRANCH  26  27
ATOM     27  C   UNL A   1      36.062  20.514  25.037  1.00  0.00     0.202 C 
BRANCH  27  28
ATOM     28  C   UNL A   1      37.354  21.233  24.673  1.00  0.00     0.261 C 
BRANCH  28  29
ATOM     29  O   UNL A   1      37.802  21.974  25.814  1.00  0.00    -0.460 OA
BRANCH  29  30
ATOM     30  C   UNL A   1      39.062  21.703  26.196  1.00  0.00     0.338 C 
ATOM     31  O   UNL A   1      39.642  20.623  26.169  1.00  0.00    -0.246 OA
BRANCH  30  32
ATOM     32  C   UNL A   1      39.634  22.937  26.740  1.00  0.00     0.060 A 
ATOM     33  C   UNL A   1      39.193  24.188  26.289  1.00  0.00     0.016 A 
ATOM     34  C   UNL A   1      40.655  22.833  27.684  1.00  0.00     0.016 A 
ATOM     35  C   UNL A   1      39.810  25.346  26.762  1.00  0.00     0.010 A 
ATOM     36  C   UNL A   1      41.248  23.991  28.175  1.00  0.00     0.010 A 
ATOM     37  C   UNL A   1      40.852  25.253  27.695  1.00  0.00    -0.014 A 
BRANCH  37  38
ATOM     38  C   UNL A   1      41.651  26.439  28.086  1.00  0.00     0.031 A 
ATOM     39  C   UNL A   1      40.976  27.518  28.880  1.00  0.00     0.074 A 
ATOM     40  C   UNL A   1      42.932  26.578  27.704  1.00  0.00     0.049 A 
ATOM     41  N   UNL A   1      41.345  28.755  29.090  1.00  0.00    -0.248 NA
ATOM     42  C   UNL A   1      39.696  27.153  29.510  1.00  0.00     0.031 C 
ATOM     43  C   UNL A   1      43.724  25.571  27.002  1.00  0.00     0.029 A 
ATOM     44  N   UNL A   1      43.783  27.647  27.836  1.00  0.00    -0.354 N 
ATOM     45  C   UNL A   1      40.318  29.331  29.826  1.00  0.00     0.074 A 
ATOM     46  C   UNL A   1      39.317  28.307  30.038  1.00  0.00     0.031 C 
ATOM     47  C   UNL A   1      44.945  26.075  26.752  1.00  0.00     0.029 A 
ATOM     48  C   UNL A   1      44.992  27.461  27.213  1.00  0.00     0.049 A 
ATOM     49  H   UNL A   1      43.550  28.467  28.329  1.00  0.00     0.167 HD
ATOM     50  C   UNL A   1      40.217  30.606  30.267  1.00  0.00     0.037 A 
ATOM     51  C   UNL A   1      45.997  28.331  26.993  1.00  0.00     0.037 A 
ATOM     52  C   UNL A   1      41.235  31.604  30.076  1.00  0.00     0.049 A 
ATOM     53  C   UNL A   1      45.846  29.758  27.453  1.00  0.00     0.074 A 
ATOM     54  C   UNL A   1      41.236  32.929  30.475  1.00  0.00     0.029 A 
ATOM     55  N   UNL A   1      42.445  31.377  29.436  1.00  0.00    -0.354 N 
ATOM     56  N   UNL A   1      44.847  30.325  28.085  1.00  0.00    -0.248 NA
ATOM     57  C   UNL A   1      46.954  30.674  27.146  1.00  0.00     0.031 C 
ATOM     58  C   UNL A   1      42.436  33.511  30.050  1.00  0.00     0.029 A 
ATOM     59  C   UNL A   1      43.198  32.539  29.423  1.00  0.00     0.049 A 
ATOM     60  H   UNL A   1      42.726  30.516  29.049  1.00  0.00     0.167 HD
ATOM     61  C   UNL A   1      45.210  31.652  28.265  1.00  0.00     0.074 A 
ATOM     62  C   UNL A   1      46.530  31.806  27.689  1.00  0.00     0.031 C 
ATOM     63  C   UNL A   1      44.514  32.659  28.851  1.00  0.00     0.037 A 
BRANCH  50  64
ATOM     64  C   UNL A   1      38.943  31.002  30.951  1.00  0.00     0.064 A 
ATOM     65  C   UNL A   1      37.854  31.531  30.244  1.00  0.00     0.173 A 
ATOM     66  C   UNL A   1      38.810  30.838  32.338  1.00  0.00     0.173 A 
ATOM     67  F   UNL A   1      37.939  31.729  28.921  1.00  0.00    -0.203 F 
ATOM     68  C   UNL A   1      36.685  31.903  30.906  1.00  0.00     0.198 A 
ATOM     69  C   UNL A   1      37.632  31.187  32.992  1.00  0.00     0.198 A 
ATOM     70  F   UNL A   1      39.824  30.339  33.060  1.00  0.00    -0.203 F 
ATOM     71  F   UNL A   1      35.673  32.451  30.218  1.00  0.00    -0.200 F 
ATOM     72  C   UNL A   1      36.573  31.725  32.277  1.00  0.00     0.200 A 
ATOM     73  F   UNL A   1      37.522  31.008  34.316  1.00  0.00    -0.200 F 
ATOM     74  F   UNL A   1      35.447  32.082  32.911  1.00  0.00    -0.200 F 
ENDBRANCH  50  64
BRANCH  51  75
ATOM     75  C   UNL A   1      47.213  27.893  26.260  1.00  0.00     0.064 A 
ATOM     76  C   UNL A   1      47.226  27.835  24.860  1.00  0.00     0.173 A 
ATOM     77  C   UNL A   1      48.379  27.513  26.940  1.00  0.00     0.173 A 
ATOM     78  F   UNL A   1      46.124  28.157  24.167  1.00  0.00    -0.203 F 
ATOM     79  C   UNL A   1      48.358  27.406  24.168  1.00  0.00     0.198 A 
ATOM     80  C   UNL A   1      49.519  27.111  26.246  1.00  0.00     0.198 A 
ATOM     81  F   UNL A   1      48.416  27.541  28.280  1.00  0.00    -0.203 F 
ATOM     82  F   UNL A   1      48.329  27.321  22.831  1.00  0.00    -0.200 F 
ATOM     83  C   UNL A   1      49.506  27.053  24.861  1.00  0.00     0.200 A 
ATOM     84  F   UNL A   1      50.629  26.778  26.920  1.00  0.00    -0.200 F 
ATOM     85  F   UNL A   1      50.594  26.645  24.195  1.00  0.00    -0.200 F 
ENDBRANCH  51  75
BRANCH  63  86
ATOM     86  C   UNL A   1      45.181  33.999  28.927  1.00  0.00     0.064 A 
ATOM     87  C   UNL A   1      46.022  34.341  29.995  1.00  0.00     0.173 A 
ATOM     88  C   UNL A   1      45.011  34.934  27.894  1.00  0.00     0.173 A 
ATOM     89  F   UNL A   1      46.203  33.485  31.012  1.00  0.00    -0.203 F 
ATOM     90  C   UNL A   1      46.653  35.581  30.037  1.00  0.00     0.198 A 
ATOM     91  C   UNL A   1      45.663  36.162  27.928  1.00  0.00     0.198 A 
ATOM     92  F   UNL A   1      44.222  34.649  26.847  1.00  0.00    -0.203 F 
ATOM     93  F   UNL A   1      47.422  35.904  31.087  1.00  0.00    -0.200 F 
ATOM     94  C   UNL A   1      46.479  36.487  29.002  1.00  0.00     0.200 A 
ATOM     95  F   UNL A   1      45.501  37.033  26.922  1.00  0.00    -0.200 F 
ATOM     96  F   UNL A   1      47.091  37.678  29.042  1.00  0.00    -0.200 F 
ENDBRANCH  63  86
ENDBRANCH  37  38
ENDBRANCH  30  32
ENDBRANCH  29  30
ENDBRANCH  28  29
ENDBRANCH  27  28
ENDBRANCH  26  27
ENDBRANCH  25  26
ENDBRANCH   1  25
TORSDOF 23
ENDMDL
MODEL 3
REMARK VINA RESULT:     -10.0      2.085      3.474
REMARK SMILES C=CC[N@@H+](CC(=O)Nc1ccccc1)CC(=O)OCCOCCOCCOC(=O)c1ccc(-c2c3nc(c(-c4c(F)c(F)c(F)c(F)c4F)c4ccc([nH]4)c(-c4c(F)c(F)c(F)c(F)c4F)c4nc(c(-c5c(F)c(F)c(F)c(F)c5F)c5ccc2[nH]5)C=C4)C=C3)cc1
REMARK SMILES IDX 22 1 21 2 20 3 19 4 18 5 16 6 17 7 15 8 4 9 3 11 2 12 1 13
REMARK SMILES IDX 5 14 6 15 7 16 8 17 9 19 10 20 14 21 11 22 13 23 12 24 23 25
REMARK SMILES IDX 24 26 25 27 26 28 27 29 28 30 29 31 30 32 31 33 92 34 32 35
REMARK SMILES IDX 91 36 33 37 34 38 35 39 85 40 36 41 90 42 84 43 86 44 37 45
REMARK SMILES IDX 89 46 83 47 82 48 38 50 70 51 50 52 69 53 51 54 54 55 68 56
REMARK SMILES IDX 87 57 52 58 53 59 67 61 88 62 55 63 39 64 40 65 48 66 41 67
REMARK SMILES IDX 42 68 46 69 49 70 43 71 44 72 47 73 45 74 71 75 72 76 80 77
REMARK SMILES IDX 73 78 74 79 78 80 81 81 75 82 76 83 79 84 77 85 56 86 57 87
REMARK SMILES IDX 65 88 58 89 59 90 63 91 66 92 60 93 61 94 64 95 62 96
REMARK H PARENT 4 10 8 18 86 49 54 60
REMARK Flexibility Score: inf
ROOT
ATOM      1  C   UNL A   1      34.086  31.975  28.256  1.00  0.00     0.188 C 
ENDROOT
BRANCH   1   2
ATOM      2  O   UNL A   1      34.824  30.938  27.616  1.00  0.00    -0.376 OA
BRANCH   2   3
ATOM      3  C   UNL A   1      34.115  29.934  26.897  1.00  0.00     0.202 C 
BRANCH   3   4
ATOM      4  C   UNL A   1      32.594  29.962  27.035  1.00  0.00     0.261 C 
BRANCH   4   5
ATOM      5  O   UNL A   1      31.917  29.036  26.169  1.00  0.00    -0.459 OA
BRANCH   5   6
ATOM      6  C   UNL A   1      31.430  27.898  26.720  1.00  0.00     0.361 C 
ATOM      7  O   UNL A   1      31.080  27.784  27.889  1.00  0.00    -0.245 OA
BRANCH   6   8
ATOM      8  C   UNL A   1      31.494  26.739  25.732  1.00  0.00     0.387 C 
BRANCH   8   9
ATOM      9  N   UNL A   1      32.571  25.762  25.900  1.00  0.00    -0.315 N 
ATOM     10  H   UNL A   1      32.889  26.193  26.769  1.00  0.00     0.349 HD
BRANCH   9  11
ATOM     11  C   UNL A   1      32.262  24.441  26.387  1.00  0.00     0.291 C 
BRANCH  11  12
ATOM     12  C   UNL A   1      31.012  23.802  25.875  1.00  0.00     0.025 C 
ATOM     13  C   UNL A   1      30.661  22.542  26.162  1.00  0.00     0.010 C 
ENDBRANCH  11  12
ENDBRANCH   9  11
BRANCH   9  14
ATOM     14  C   UNL A   1      33.794  25.890  25.090  1.00  0.00     0.364 C 
BRANCH  14  15
ATOM     15  C   UNL A   1      33.679  25.660  23.588  1.00  0.00     0.279 C 
ATOM     16  O   UNL A   1      33.667  26.643  22.831  1.00  0.00    -0.268 OA
ATOM     17  N   UNL A   1      33.690  24.447  22.965  1.00  0.00    -0.321 N 
ATOM     18  H   UNL A   1      33.803  24.557  21.993  1.00  0.00     0.170 HD
BRANCH  17  19
ATOM     19  C   UNL A   1      33.589  23.085  23.302  1.00  0.00     0.041 A 
ATOM     20  C   UNL A   1      32.514  22.383  22.732  1.00  0.00     0.026 A 
ATOM     21  C   UNL A   1      34.393  22.398  24.199  1.00  0.00     0.026 A 
ATOM     22  C   UNL A   1      32.223  21.064  23.098  1.00  0.00     0.002 A 
ATOM     23  C   UNL A   1      34.077  21.094  24.614  1.00  0.00     0.002 A 
ATOM     24  C   UNL A   1      32.987  20.428  24.067  1.00  0.00     0.000 A 
ENDBRANCH  17  19
ENDBRANCH  14  15
ENDBRANCH   9  14
ENDBRANCH   8   9
ENDBRANCH   6   8
ENDBRANCH   5   6
ENDBRANCH   4   5
ENDBRANCH   3   4
ENDBRANCH   2   3
ENDBRANCH   1   2
BRANCH   1  25
ATOM     25  C   UNL A   1      34.529  33.422  28.019  1.00  0.00     0.188 C 
BRANCH  25  26
ATOM     26  O   UNL A   1      34.302  34.365  29.066  1.00  0.00    -0.376 OA
BRANCH  26  27
ATOM     27  C   UNL A   1      33.967  35.692  28.666  1.00  0.00     0.202 C 
BRANCH  27  28
ATOM     28  C   UNL A   1      32.900  36.313  29.558  1.00  0.00     0.261 C 
BRANCH  28  29
ATOM     29  O   UNL A   1      32.526  35.357  30.557  1.00  0.00    -0.460 OA
BRANCH  29  30
ATOM     30  C   UNL A   1      32.647  35.794  31.822  1.00  0.00     0.338 C 
ATOM     31  O   UNL A   1      31.999  36.673  32.381  1.00  0.00    -0.246 OA
BRANCH  30  32
ATOM     32  C   UNL A   1      33.769  35.078  32.432  1.00  0.00     0.060 A 
ATOM     33  C   UNL A   1      35.043  35.660  32.486  1.00  0.00     0.016 A 
ATOM     34  C   UNL A   1      33.548  33.790  32.916  1.00  0.00     0.016 A 
ATOM     35  C   UNL A   1      36.113  34.926  32.997  1.00  0.00     0.010 A 
ATOM     36  C   UNL A   1      34.612  33.072  33.451  1.00  0.00     0.010 A 
ATOM     37  C   UNL A   1      35.907  33.622  33.467  1.00  0.00    -0.014 A 
BRANCH  37  38
ATOM     38  C   UNL A   1      37.040  32.747  33.849  1.00  0.00     0.031 A 
ATOM     39  C   UNL A   1      37.694  32.974  35.181  1.00  0.00     0.074 A 
ATOM     40  C   UNL A   1      37.511  31.805  33.016  1.00  0.00     0.049 A 
ATOM     41  N   UNL A   1      38.854  32.564  35.622  1.00  0.00    -0.248 NA
ATOM     42  C   UNL A   1      36.938  33.795  36.141  1.00  0.00     0.031 C 
ATOM     43  C   UNL A   1      36.918  31.431  31.733  1.00  0.00     0.029 A 
ATOM     44  N   UNL A   1      38.623  31.005  33.120  1.00  0.00    -0.354 N 
ATOM     45  C   UNL A   1      38.993  33.123  36.885  1.00  0.00     0.074 A 
ATOM     46  C   UNL A   1      37.793  33.890  37.147  1.00  0.00     0.031 C 
ATOM     47  C   UNL A   1      37.679  30.483  31.162  1.00  0.00     0.029 A 
ATOM     48  C   UNL A   1      38.848  30.237  32.004  1.00  0.00     0.049 A 
ATOM     49  H   UNL A   1      39.201  30.985  33.916  1.00  0.00     0.167 HD
ATOM     50  C   UNL A   1      40.037  33.016  37.739  1.00  0.00     0.037 A 
ATOM     51  C   UNL A   1      39.906  29.469  31.681  1.00  0.00     0.037 A 
ATOM     52  C   UNL A   1      41.209  32.224  37.478  1.00  0.00     0.049 A 
ATOM     53  C   UNL A   1      41.079  29.399  32.625  1.00  0.00     0.074 A 
ATOM     54  C   UNL A   1      42.330  32.048  38.268  1.00  0.00     0.029 A 
ATOM     55  N   UNL A   1      41.401  31.462  36.334  1.00  0.00    -0.354 N 
ATOM     56  N   UNL A   1      41.243  29.982  33.787  1.00  0.00    -0.248 NA
ATOM     57  C   UNL A   1      42.224  28.581  32.199  1.00  0.00     0.031 C 
ATOM     58  C   UNL A   1      43.214  31.202  37.589  1.00  0.00     0.029 A 
ATOM     59  C   UNL A   1      42.626  30.820  36.394  1.00  0.00     0.049 A 
ATOM     60  H   UNL A   1      40.760  31.390  35.590  1.00  0.00     0.167 HD
ATOM     61  C   UNL A   1      42.497  29.593  34.238  1.00  0.00     0.074 A 
ATOM     62  C   UNL A   1      43.047  28.709  33.230  1.00  0.00     0.031 C 
ATOM     63  C   UNL A   1      43.142  29.937  35.381  1.00  0.00     0.037 A 
BRANCH  50  64
ATOM     64  C   UNL A   1      39.979  33.815  39.006  1.00  0.00     0.064 A 
ATOM     65  C   UNL A   1      39.341  33.335  40.158  1.00  0.00     0.173 A 
ATOM     66  C   UNL A   1      40.583  35.080  39.067  1.00  0.00     0.173 A 
ATOM     67  F   UNL A   1      38.729  32.142  40.144  1.00  0.00    -0.203 F 
ATOM     68  C   UNL A   1      39.291  34.103  41.320  1.00  0.00     0.198 A 
ATOM     69  C   UNL A   1      40.553  35.834  40.237  1.00  0.00     0.198 A 
ATOM     70  F   UNL A   1      41.204  35.586  37.991  1.00  0.00    -0.203 F 
ATOM     71  F   UNL A   1      38.634  33.645  42.396  1.00  0.00    -0.200 F 
ATOM     72  C   UNL A   1      39.900  35.348  41.360  1.00  0.00     0.200 A 
ATOM     73  F   UNL A   1      41.149  37.034  40.277  1.00  0.00    -0.200 F 
ATOM     74  F   UNL A   1      39.852  36.084  42.479  1.00  0.00    -0.200 F 
ENDBRANCH  50  64
BRANCH  51  75
ATOM     75  C   UNL A   1      39.929  28.744  30.384  1.00  0.00     0.064 A 
ATOM     76  C   UNL A   1      40.494  29.330  29.243  1.00  0.00     0.173 A 
ATOM     77  C   UNL A   1      39.380  27.460  30.254  1.00  0.00     0.173 A 
ATOM     78  F   UNL A   1      41.003  30.569  29.310  1.00  0.00    -0.203 F 
ATOM     79  C   UNL A   1      40.502  28.662  28.020  1.00  0.00     0.198 A 
ATOM     80  C   UNL A   1      39.413  26.782  29.036  1.00  0.00     0.198 A 
ATOM     81  F   UNL A   1      38.819  26.858  31.312  1.00  0.00    -0.203 F 
ATOM     82  F   UNL A   1      41.011  29.263  26.935  1.00  0.00    -0.200 F 
ATOM     83  C   UNL A   1      39.969  27.386  27.919  1.00  0.00     0.200 A 
ATOM     84  F   UNL A   1      38.904  25.545  28.946  1.00  0.00    -0.200 F 
ATOM     85  F   UNL A   1      39.980  26.743  26.744  1.00  0.00    -0.200 F 
ENDBRANCH  51  75
BRANCH  63  86
ATOM     86  C   UNL A   1      44.492  29.329  35.615  1.00  0.00     0.064 A 
ATOM     87  C   UNL A   1      45.660  29.916  35.108  1.00  0.00     0.173 A 
ATOM     88  C   UNL A   1      44.620  28.169  36.394  1.00  0.00     0.173 A 
ATOM     89  F   UNL A   1      45.585  31.018  34.346  1.00  0.00    -0.203 F 
ATOM     90  C   UNL A   1      46.908  29.351  35.355  1.00  0.00     0.198 A 
ATOM     91  C   UNL A   1      45.871  27.621  36.659  1.00  0.00     0.198 A 
ATOM     92  F   UNL A   1      43.531  27.575  36.906  1.00  0.00    -0.203 F 
ATOM     93  F   UNL A   1      48.008  29.906  34.830  1.00  0.00    -0.200 F 
ATOM     94  C   UNL A   1      47.013  28.209  36.135  1.00  0.00     0.200 A 
ATOM     95  F   UNL A   1      45.972  26.523  37.420  1.00  0.00    -0.200 F 
ATOM     96  F   UNL A   1      48.216  27.670  36.376  1.00  0.00    -0.200 F 
ENDBRANCH  63  86
ENDBRANCH  37  38
ENDBRANCH  30  32
ENDBRANCH  29  30
ENDBRANCH  28  29
ENDBRANCH  27  28
ENDBRANCH  26  27
ENDBRANCH  25  26
ENDBRANCH   1  25
TORSDOF 23
ENDMDL
