MODEL 1
REMARK VINA RESULT:     -10.3      0.000      0.000
REMARK SMILES NC(=O)c1c(F)cccc1O[C@@H](F)C(=O)OCCOCCOCCOC(=O)c1ccc(-c2c3nc(c(-c4c(F)c(F)c(F)c(F)c4F)c4ccc([nH]4)c(-c4c(F)c(F)c(F)c(F)c4F)c4nc(c(-c5c(F)c(F)c(F)c(F)c5F)c5ccc2[nH]5)C=C4)C=C3)cc1
REMARK SMILES IDX 20 1 19 2 18 3 17 4 16 5 14 6 15 7 12 8 13 9 11 10 10 11
REMARK SMILES IDX 4 12 5 13 6 14 7 15 9 16 8 17 2 18 1 19 3 22 21 23 22 24
REMARK SMILES IDX 23 25 24 26 25 27 26 28 27 29 28 30 29 31 90 32 30 33 89 34
REMARK SMILES IDX 31 35 32 36 33 37 83 38 34 39 88 40 82 41 84 42 35 43 87 44
REMARK SMILES IDX 81 45 80 46 36 48 68 49 48 50 67 51 49 52 52 53 66 54 85 55
REMARK SMILES IDX 50 56 51 57 65 59 86 60 53 61 37 62 38 63 46 64 39 65 40 66
REMARK SMILES IDX 44 67 47 68 41 69 42 70 45 71 43 72 69 73 70 74 78 75 71 76
REMARK SMILES IDX 72 77 76 78 79 79 73 80 74 81 77 82 75 83 54 84 55 85 63 86
REMARK SMILES IDX 56 87 57 88 61 89 64 90 58 91 59 92 62 93 60 94
REMARK H PARENT 1 20 1 21 84 47 52 58
REMARK Flexibility Score: inf
ROOT
ATOM      1  C   UNL A   1      33.892  32.174  28.050  1.00  0.00     0.188 C 
ENDROOT
BRANCH   1   2
ATOM      2  O   UNL A   1      34.665  31.171  27.403  1.00  0.00    -0.376 OA
BRANCH   2   3
ATOM      3  C   UNL A   1      34.122  29.858  27.281  1.00  0.00     0.202 C 
BRANCH   3   4
ATOM      4  C   UNL A   1      33.336  29.513  26.007  1.00  0.00     0.261 C 
BRANCH   4   5
ATOM      5  O   UNL A   1      33.861  28.372  25.297  1.00  0.00    -0.458 OA
BRANCH   5   6
ATOM      6  C   UNL A   1      33.329  28.112  24.064  1.00  0.00     0.381 C 
ATOM      7  O   UNL A   1      33.193  28.966  23.193  1.00  0.00    -0.244 OA
BRANCH   6   8
ATOM      8  C   UNL A   1      33.094  26.584  23.825  1.00  0.00     0.461 C 
ATOM      9  F   UNL A   1      32.345  26.027  24.827  1.00  0.00    -0.189 F 
BRANCH   8  10
ATOM     10  O   UNL A   1      33.962  25.566  23.372  1.00  0.00    -0.450 OA
BRANCH  10  11
ATOM     11  C   UNL A   1      34.192  24.373  23.980  1.00  0.00     0.139 A 
ATOM     12  C   UNL A   1      33.660  23.107  23.722  1.00  0.00     0.117 A 
ATOM     13  C   UNL A   1      34.029  22.028  24.540  1.00  0.00     0.139 A 
ATOM     14  F   UNL A   1      33.524  20.802  24.326  1.00  0.00    -0.206 F 
ATOM     15  C   UNL A   1      34.934  22.176  25.587  1.00  0.00     0.040 A 
ATOM     16  C   UNL A   1      35.129  24.503  25.028  1.00  0.00     0.047 A 
ATOM     17  C   UNL A   1      35.498  23.420  25.828  1.00  0.00     0.007 A 
BRANCH  12  18
ATOM     18  C   UNL A   1      32.790  22.824  22.570  1.00  0.00     0.255 C 
ATOM     19  N   UNL A   1      33.019  23.530  21.424  1.00  0.00    -0.365 N 
ATOM     20  H   UNL A   1      32.460  23.374  20.630  1.00  0.00     0.159 HD
ATOM     21  H   UNL A   1      33.743  24.197  21.394  1.00  0.00     0.159 HD
ATOM     22  O   UNL A   1      31.943  21.945  22.612  1.00  0.00    -0.269 OA
ENDBRANCH  12  18
ENDBRANCH  10  11
ENDBRANCH   8  10
ENDBRANCH   6   8
ENDBRANCH   5   6
ENDBRANCH   4   5
ENDBRANCH   3   4
ENDBRANCH   2   3
ENDBRANCH   1   2
BRANCH   1  23
ATOM     23  C   UNL A   1      34.479  33.593  28.197  1.00  0.00     0.188 C 
BRANCH  23  24
ATOM     24  O   UNL A   1      33.877  34.361  29.216  1.00  0.00    -0.376 OA
BRANCH  24  25
ATOM     25  C   UNL A   1      34.592  34.492  30.435  1.00  0.00     0.202 C 
BRANCH  25  26
ATOM     26  C   UNL A   1      34.230  33.598  31.638  1.00  0.00     0.261 C 
BRANCH  26  27
ATOM     27  O   UNL A   1      34.813  32.285  31.681  1.00  0.00    -0.460 OA
BRANCH  27  28
ATOM     28  C   UNL A   1      35.833  32.077  32.543  1.00  0.00     0.338 C 
ATOM     29  O   UNL A   1      35.834  32.287  33.745  1.00  0.00    -0.246 OA
BRANCH  28  30
ATOM     30  C   UNL A   1      36.887  31.325  31.822  1.00  0.00     0.060 A 
ATOM     31  C   UNL A   1      37.825  30.586  32.560  1.00  0.00     0.016 A 
ATOM     32  C   UNL A   1      36.933  31.323  30.427  1.00  0.00     0.016 A 
ATOM     33  C   UNL A   1      38.827  29.866  31.904  1.00  0.00     0.010 A 
ATOM     34  C   UNL A   1      37.952  30.626  29.772  1.00  0.00     0.010 A 
ATOM     35  C   UNL A   1      38.923  29.921  30.507  1.00  0.00    -0.014 A 
BRANCH  35  36
ATOM     36  C   UNL A   1      40.151  29.436  29.827  1.00  0.00     0.031 A 
ATOM     37  C   UNL A   1      41.286  30.406  29.647  1.00  0.00     0.074 A 
ATOM     38  C   UNL A   1      40.270  28.172  29.385  1.00  0.00     0.049 A 
ATOM     39  N   UNL A   1      42.422  30.253  29.016  1.00  0.00    -0.248 NA
ATOM     40  C   UNL A   1      41.113  31.732  30.261  1.00  0.00     0.031 C 
ATOM     41  C   UNL A   1      39.268  27.122  29.546  1.00  0.00     0.029 A 
ATOM     42  N   UNL A   1      41.293  27.562  28.698  1.00  0.00    -0.354 N 
ATOM     43  C   UNL A   1      43.090  31.463  29.150  1.00  0.00     0.074 A 
ATOM     44  C   UNL A   1      42.225  32.350  29.894  1.00  0.00     0.031 C 
ATOM     45  C   UNL A   1      39.721  25.997  28.963  1.00  0.00     0.029 A 
ATOM     46  C   UNL A   1      41.027  26.259  28.355  1.00  0.00     0.049 A 
ATOM     47  H   UNL A   1      42.136  28.017  28.473  1.00  0.00     0.167 HD
ATOM     48  C   UNL A   1      44.321  31.800  28.701  1.00  0.00     0.037 A 
ATOM     49  C   UNL A   1      41.745  25.388  27.616  1.00  0.00     0.037 A 
ATOM     50  C   UNL A   1      45.182  30.916  27.962  1.00  0.00     0.049 A 
ATOM     51  C   UNL A   1      43.079  25.813  27.054  1.00  0.00     0.074 A 
ATOM     52  C   UNL A   1      46.451  31.165  27.470  1.00  0.00     0.029 A 
ATOM     53  N   UNL A   1      44.860  29.616  27.604  1.00  0.00    -0.354 N 
ATOM     54  N   UNL A   1      43.708  26.955  27.187  1.00  0.00    -0.248 NA
ATOM     55  C   UNL A   1      43.805  24.825  26.239  1.00  0.00     0.031 C 
ATOM     56  C   UNL A   1      46.872  30.038  26.762  1.00  0.00     0.029 A 
ATOM     57  C   UNL A   1      45.898  29.059  26.875  1.00  0.00     0.049 A 
ATOM     58  H   UNL A   1      44.020  29.157  27.833  1.00  0.00     0.167 HD
ATOM     59  C   UNL A   1      44.912  26.814  26.507  1.00  0.00     0.074 A 
ATOM     60  C   UNL A   1      44.930  25.472  25.964  1.00  0.00     0.031 C 
ATOM     61  C   UNL A   1      45.914  27.715  26.352  1.00  0.00     0.037 A 
BRANCH  48  62
ATOM     62  C   UNL A   1      44.811  33.191  28.979  1.00  0.00     0.064 A 
ATOM     63  C   UNL A   1      45.536  33.467  30.148  1.00  0.00     0.173 A 
ATOM     64  C   UNL A   1      44.508  34.263  28.126  1.00  0.00     0.173 A 
ATOM     65  F   UNL A   1      45.851  32.478  30.999  1.00  0.00    -0.203 F 
ATOM     66  C   UNL A   1      45.922  34.767  30.462  1.00  0.00     0.198 A 
ATOM     67  C   UNL A   1      44.926  35.557  28.426  1.00  0.00     0.198 A 
ATOM     68  F   UNL A   1      43.834  34.050  26.986  1.00  0.00    -0.203 F 
ATOM     69  F   UNL A   1      46.581  35.011  31.603  1.00  0.00    -0.200 F 
ATOM     70  C   UNL A   1      45.620  35.810  29.599  1.00  0.00     0.200 A 
ATOM     71  F   UNL A   1      44.658  36.559  27.578  1.00  0.00    -0.200 F 
ATOM     72  F   UNL A   1      46.004  37.059  29.898  1.00  0.00    -0.200 F 
ENDBRANCH  48  62
BRANCH  49  73
ATOM     73  C   UNL A   1      41.215  24.019  27.371  1.00  0.00     0.064 A 
ATOM     74  C   UNL A   1      41.801  22.892  27.969  1.00  0.00     0.173 A 
ATOM     75  C   UNL A   1      40.119  23.810  26.523  1.00  0.00     0.173 A 
ATOM     76  F   UNL A   1      42.847  23.037  28.795  1.00  0.00    -0.203 F 
ATOM     77  C   UNL A   1      41.325  21.609  27.706  1.00  0.00     0.198 A 
ATOM     78  C   UNL A   1      39.626  22.528  26.285  1.00  0.00     0.198 A 
ATOM     79  F   UNL A   1      39.504  24.857  25.954  1.00  0.00    -0.203 F 
ATOM     80  F   UNL A   1      41.925  20.547  28.264  1.00  0.00    -0.200 F 
ATOM     81  C   UNL A   1      40.236  21.427  26.867  1.00  0.00     0.200 A 
ATOM     82  F   UNL A   1      38.553  22.360  25.499  1.00  0.00    -0.200 F 
ATOM     83  F   UNL A   1      39.770  20.194  26.628  1.00  0.00    -0.200 F 
ENDBRANCH  49  73
BRANCH  61  84
ATOM     84  C   UNL A   1      47.146  27.287  25.607  1.00  0.00     0.064 A 
ATOM     85  C   UNL A   1      48.202  26.659  26.289  1.00  0.00     0.173 A 
ATOM     86  C   UNL A   1      47.331  27.585  24.249  1.00  0.00     0.173 A 
ATOM     87  F   UNL A   1      48.083  26.363  27.593  1.00  0.00    -0.203 F 
ATOM     88  C   UNL A   1      49.402  26.369  25.646  1.00  0.00     0.198 A 
ATOM     89  C   UNL A   1      48.521  27.261  23.601  1.00  0.00     0.198 A 
ATOM     90  F   UNL A   1      46.352  28.177  23.549  1.00  0.00    -0.203 F 
ATOM     91  F   UNL A   1      50.410  25.813  26.333  1.00  0.00    -0.200 F 
ATOM     92  C   UNL A   1      49.559  26.666  24.302  1.00  0.00     0.200 A 
ATOM     93  F   UNL A   1      48.665  27.529  22.295  1.00  0.00    -0.200 F 
ATOM     94  F   UNL A   1      50.712  26.381  23.683  1.00  0.00    -0.200 F 
ENDBRANCH  61  84
ENDBRANCH  35  36
ENDBRANCH  28  30
ENDBRANCH  27  28
ENDBRANCH  26  27
ENDBRANCH  25  26
ENDBRANCH  24  25
ENDBRANCH  23  24
ENDBRANCH   1  23
TORSDOF 20
ENDMDL
MODEL 2
REMARK VINA RESULT:     -10.2      1.196      2.057
REMARK SMILES NC(=O)c1c(F)cccc1O[C@@H](F)C(=O)OCCOCCOCCOC(=O)c1ccc(-c2c3nc(c(-c4c(F)c(F)c(F)c(F)c4F)c4ccc([nH]4)c(-c4c(F)c(F)c(F)c(F)c4F)c4nc(c(-c5c(F)c(F)c(F)c(F)c5F)c5ccc2[nH]5)C=C4)C=C3)cc1
REMARK SMILES IDX 20 1 19 2 18 3 17 4 16 5 14 6 15 7 12 8 13 9 11 10 10 11
REMARK SMILES IDX 4 12 5 13 6 14 7 15 9 16 8 17 2 18 1 19 3 22 21 23 22 24
REMARK SMILES IDX 23 25 24 26 25 27 26 28 27 29 28 30 29 31 90 32 30 33 89 34
REMARK SMILES IDX 31 35 32 36 33 37 83 38 34 39 88 40 82 41 84 42 35 43 87 44
REMARK SMILES IDX 81 45 80 46 36 48 68 49 48 50 67 51 49 52 52 53 66 54 85 55
REMARK SMILES IDX 50 56 51 57 65 59 86 60 53 61 37 62 38 63 46 64 39 65 40 66
REMARK SMILES IDX 44 67 47 68 41 69 42 70 45 71 43 72 69 73 70 74 78 75 71 76
REMARK SMILES IDX 72 77 76 78 79 79 73 80 74 81 77 82 75 83 54 84 55 85 63 86
REMARK SMILES IDX 56 87 57 88 61 89 64 90 58 91 59 92 62 93 60 94
REMARK H PARENT 1 20 1 21 84 47 52 58
REMARK Flexibility Score: inf
ROOT
ATOM      1  C   UNL A   1      34.211  31.396  27.869  1.00  0.00     0.188 C 
ENDROOT
BRANCH   1   2
ATOM      2  O   UNL A   1      33.213  30.790  27.057  1.00  0.00    -0.376 OA
BRANCH   2   3
ATOM      3  C   UNL A   1      33.193  29.369  26.941  1.00  0.00     0.202 C 
BRANCH   3   4
ATOM      4  C   UNL A   1      32.655  28.754  25.640  1.00  0.00     0.261 C 
BRANCH   4   5
ATOM      5  O   UNL A   1      32.849  27.327  25.553  1.00  0.00    -0.458 OA
BRANCH   5   6
ATOM      6  C   UNL A   1      31.876  26.537  26.100  1.00  0.00     0.381 C 
ATOM      7  O   UNL A   1      30.731  26.926  26.316  1.00  0.00    -0.244 OA
BRANCH   6   8
ATOM      8  C   UNL A   1      32.325  25.045  26.237  1.00  0.00     0.461 C 
ATOM      9  F   UNL A   1      31.421  24.310  26.957  1.00  0.00    -0.189 F 
BRANCH   8  10
ATOM     10  O   UNL A   1      33.590  24.471  26.493  1.00  0.00    -0.450 OA
BRANCH  10  11
ATOM     11  C   UNL A   1      34.276  23.633  25.672  1.00  0.00     0.139 A 
ATOM     12  C   UNL A   1      34.152  22.256  25.475  1.00  0.00     0.117 A 
ATOM     13  C   UNL A   1      35.028  21.607  24.591  1.00  0.00     0.139 A 
ATOM     14  F   UNL A   1      34.943  20.282  24.392  1.00  0.00    -0.206 F 
ATOM     15  C   UNL A   1      36.003  22.303  23.881  1.00  0.00     0.040 A 
ATOM     16  C   UNL A   1      35.250  24.330  24.925  1.00  0.00     0.047 A 
ATOM     17  C   UNL A   1      36.109  23.677  24.039  1.00  0.00     0.007 A 
BRANCH  12  18
ATOM     18  C   UNL A   1      33.082  21.453  26.087  1.00  0.00     0.255 C 
ATOM     19  N   UNL A   1      33.382  20.784  27.239  1.00  0.00    -0.365 N 
ATOM     20  H   UNL A   1      32.697  20.235  27.682  1.00  0.00     0.159 HD
ATOM     21  H   UNL A   1      34.286  20.851  27.625  1.00  0.00     0.159 HD
ATOM     22  O   UNL A   1      31.951  21.440  25.626  1.00  0.00    -0.269 OA
ENDBRANCH  12  18
ENDBRANCH  10  11
ENDBRANCH   8  10
ENDBRANCH   6   8
ENDBRANCH   5   6
ENDBRANCH   4   5
ENDBRANCH   3   4
ENDBRANCH   2   3
ENDBRANCH   1   2
BRANCH   1  23
ATOM     23  C   UNL A   1      34.154  32.919  28.111  1.00  0.00     0.188 C 
BRANCH  23  24
ATOM     24  O   UNL A   1      33.510  33.286  29.313  1.00  0.00    -0.376 OA
BRANCH  24  25
ATOM     25  C   UNL A   1      34.112  34.318  30.078  1.00  0.00     0.202 C 
BRANCH  25  26
ATOM     26  C   UNL A   1      34.973  33.962  31.307  1.00  0.00     0.261 C 
BRANCH  26  27
ATOM     27  O   UNL A   1      35.038  32.577  31.686  1.00  0.00    -0.460 OA
BRANCH  27  28
ATOM     28  C   UNL A   1      35.975  32.216  32.592  1.00  0.00     0.338 C 
ATOM     29  O   UNL A   1      35.898  32.312  33.806  1.00  0.00    -0.246 OA
BRANCH  28  30
ATOM     30  C   UNL A   1      37.028  31.460  31.875  1.00  0.00     0.060 A 
ATOM     31  C   UNL A   1      38.010  30.785  32.617  1.00  0.00     0.016 A 
ATOM     32  C   UNL A   1      37.032  31.391  30.480  1.00  0.00     0.016 A 
ATOM     33  C   UNL A   1      39.013  30.062  31.965  1.00  0.00     0.010 A 
ATOM     34  C   UNL A   1      38.052  30.692  29.827  1.00  0.00     0.010 A 
ATOM     35  C   UNL A   1      39.065  30.051  30.565  1.00  0.00    -0.014 A 
BRANCH  35  36
ATOM     36  C   UNL A   1      40.285  29.569  29.870  1.00  0.00     0.031 A 
ATOM     37  C   UNL A   1      41.415  30.542  29.674  1.00  0.00     0.074 A 
ATOM     38  C   UNL A   1      40.402  28.305  29.428  1.00  0.00     0.049 A 
ATOM     39  N   UNL A   1      42.544  30.392  29.029  1.00  0.00    -0.248 NA
ATOM     40  C   UNL A   1      41.247  31.869  30.289  1.00  0.00     0.031 C 
ATOM     41  C   UNL A   1      39.406  27.252  29.603  1.00  0.00     0.029 A 
ATOM     42  N   UNL A   1      41.418  27.697  28.729  1.00  0.00    -0.354 N 
ATOM     43  C   UNL A   1      43.210  31.603  29.154  1.00  0.00     0.074 A 
ATOM     44  C   UNL A   1      42.352  32.489  29.907  1.00  0.00     0.031 C 
ATOM     45  C   UNL A   1      39.855  26.128  29.017  1.00  0.00     0.029 A 
ATOM     46  C   UNL A   1      41.152  26.392  28.392  1.00  0.00     0.049 A 
ATOM     47  H   UNL A   1      42.257  28.154  28.493  1.00  0.00     0.167 HD
ATOM     48  C   UNL A   1      44.435  31.943  28.689  1.00  0.00     0.037 A 
ATOM     49  C   UNL A   1      41.863  25.522  27.645  1.00  0.00     0.037 A 
ATOM     50  C   UNL A   1      45.289  31.060  27.940  1.00  0.00     0.049 A 
ATOM     51  C   UNL A   1      43.189  25.950  27.066  1.00  0.00     0.074 A 
ATOM     52  C   UNL A   1      46.551  31.312  27.433  1.00  0.00     0.029 A 
ATOM     53  N   UNL A   1      44.966  29.758  27.588  1.00  0.00    -0.354 N 
ATOM     54  N   UNL A   1      43.816  27.094  27.189  1.00  0.00    -0.248 NA
ATOM     55  C   UNL A   1      43.907  24.963  26.243  1.00  0.00     0.031 C 
ATOM     56  C   UNL A   1      46.966  30.185  26.721  1.00  0.00     0.029 A 
ATOM     57  C   UNL A   1      45.997  29.204  26.847  1.00  0.00     0.049 A 
ATOM     58  H   UNL A   1      44.130  29.297  27.828  1.00  0.00     0.167 HD
ATOM     59  C   UNL A   1      45.012  26.955  26.495  1.00  0.00     0.074 A 
ATOM     60  C   UNL A   1      45.028  25.613  25.954  1.00  0.00     0.031 C 
ATOM     61  C   UNL A   1      46.009  27.859  26.326  1.00  0.00     0.037 A 
BRANCH  48  62
ATOM     62  C   UNL A   1      44.924  33.336  28.959  1.00  0.00     0.064 A 
ATOM     63  C   UNL A   1      44.642  34.373  28.057  1.00  0.00     0.173 A 
ATOM     64  C   UNL A   1      45.726  33.633  30.071  1.00  0.00     0.173 A 
ATOM     65  F   UNL A   1      43.880  34.142  26.977  1.00  0.00    -0.203 F 
ATOM     66  C   UNL A   1      45.160  35.650  28.249  1.00  0.00     0.198 A 
ATOM     67  C   UNL A   1      46.214  34.920  30.277  1.00  0.00     0.198 A 
ATOM     68  F   UNL A   1      46.010  32.681  30.973  1.00  0.00    -0.203 F 
ATOM     69  F   UNL A   1      44.907  36.615  27.353  1.00  0.00    -0.200 F 
ATOM     70  C   UNL A   1      45.942  35.924  29.360  1.00  0.00     0.200 A 
ATOM     71  F   UNL A   1      46.947  35.190  31.367  1.00  0.00    -0.200 F 
ATOM     72  F   UNL A   1      46.431  37.158  29.549  1.00  0.00    -0.200 F 
ENDBRANCH  48  62
BRANCH  49  73
ATOM     73  C   UNL A   1      41.334  24.152  27.408  1.00  0.00     0.064 A 
ATOM     74  C   UNL A   1      40.208  23.934  26.598  1.00  0.00     0.173 A 
ATOM     75  C   UNL A   1      41.938  23.032  27.997  1.00  0.00     0.173 A 
ATOM     76  F   UNL A   1      39.598  24.970  26.003  1.00  0.00    -0.203 F 
ATOM     77  C   UNL A   1      39.694  22.653  26.409  1.00  0.00     0.198 A 
ATOM     78  C   UNL A   1      41.439  21.748  27.783  1.00  0.00     0.198 A 
ATOM     79  F   UNL A   1      43.035  23.184  28.752  1.00  0.00    -0.203 F 
ATOM     80  F   UNL A   1      38.597  22.478  25.658  1.00  0.00    -0.200 F 
ATOM     81  C   UNL A   1      40.311  21.560  26.999  1.00  0.00     0.200 A 
ATOM     82  F   UNL A   1      42.058  20.692  28.328  1.00  0.00    -0.200 F 
ATOM     83  F   UNL A   1      39.824  20.327  26.804  1.00  0.00    -0.200 F 
ENDBRANCH  49  73
BRANCH  61  84
ATOM     84  C   UNL A   1      47.233  27.433  25.566  1.00  0.00     0.064 A 
ATOM     85  C   UNL A   1      48.340  26.901  26.249  1.00  0.00     0.173 A 
ATOM     86  C   UNL A   1      47.357  27.643  24.185  1.00  0.00     0.173 A 
ATOM     87  F   UNL A   1      48.279  26.693  27.574  1.00  0.00    -0.203 F 
ATOM     88  C   UNL A   1      49.529  26.619  25.584  1.00  0.00     0.198 A 
ATOM     89  C   UNL A   1      48.538  27.326  23.516  1.00  0.00     0.198 A 
ATOM     90  F   UNL A   1      46.329  28.141  23.483  1.00  0.00    -0.203 F 
ATOM     91  F   UNL A   1      50.585  26.157  26.268  1.00  0.00    -0.200 F 
ATOM     92  C   UNL A   1      49.626  26.827  24.217  1.00  0.00     0.200 A 
ATOM     93  F   UNL A   1      48.624  27.507  22.191  1.00  0.00    -0.200 F 
ATOM     94  F   UNL A   1      50.769  26.549  23.576  1.00  0.00    -0.200 F 
ENDBRANCH  61  84
ENDBRANCH  35  36
ENDBRANCH  28  30
ENDBRANCH  27  28
ENDBRANCH  26  27
ENDBRANCH  25  26
ENDBRANCH  24  25
ENDBRANCH  23  24
ENDBRANCH   1  23
TORSDOF 20
ENDMDL
MODEL 3
REMARK VINA RESULT:     -10.2      5.588      8.342
REMARK SMILES NC(=O)c1c(F)cccc1O[C@@H](F)C(=O)OCCOCCOCCOC(=O)c1ccc(-c2c3nc(c(-c4c(F)c(F)c(F)c(F)c4F)c4ccc([nH]4)c(-c4c(F)c(F)c(F)c(F)c4F)c4nc(c(-c5c(F)c(F)c(F)c(F)c5F)c5ccc2[nH]5)C=C4)C=C3)cc1
REMARK SMILES IDX 20 1 19 2 18 3 17 4 16 5 14 6 15 7 12 8 13 9 11 10 10 11
REMARK SMILES IDX 4 12 5 13 6 14 7 15 9 16 8 17 2 18 1 19 3 22 21 23 22 24
REMARK SMILES IDX 23 25 24 26 25 27 26 28 27 29 28 30 29 31 90 32 30 33 89 34
REMARK SMILES IDX 31 35 32 36 33 37 83 38 34 39 88 40 82 41 84 42 35 43 87 44
REMARK SMILES IDX 81 45 80 46 36 48 68 49 48 50 67 51 49 52 52 53 66 54 85 55
REMARK SMILES IDX 50 56 51 57 65 59 86 60 53 61 37 62 38 63 46 64 39 65 40 66
REMARK SMILES IDX 44 67 47 68 41 69 42 70 45 71 43 72 69 73 70 74 78 75 71 76
REMARK SMILES IDX 72 77 76 78 79 79 73 80 74 81 77 82 75 83 54 84 55 85 63 86
REMARK SMILES IDX 56 87 57 88 61 89 64 90 58 91 59 92 62 93 60 94
REMARK H PARENT 1 20 1 21 84 47 52 58
REMARK Flexibility Score: inf
ROOT
ATOM      1  C   UNL A   1      34.082  32.389  28.347  1.00  0.00     0.188 C 
ENDROOT
BRANCH   1   2
ATOM      2  O   UNL A   1      34.624  31.391  27.492  1.00  0.00    -0.376 OA
BRANCH   2   3
ATOM      3  C   UNL A   1      33.802  30.287  27.117  1.00  0.00     0.202 C 
BRANCH   3   4
ATOM      4  C   UNL A   1      34.482  28.939  26.832  1.00  0.00     0.261 C 
BRANCH   4   5
ATOM      5  O   UNL A   1      33.558  27.894  26.465  1.00  0.00    -0.458 OA
BRANCH   5   6
ATOM      6  C   UNL A   1      33.405  27.645  25.129  1.00  0.00     0.381 C 
ATOM      7  O   UNL A   1      34.165  26.931  24.482  1.00  0.00    -0.244 OA
BRANCH   6   8
ATOM      8  C   UNL A   1      32.059  28.211  24.568  1.00  0.00     0.461 C 
ATOM      9  F   UNL A   1      31.223  28.615  25.574  1.00  0.00    -0.189 F 
BRANCH   8  10
ATOM     10  O   UNL A   1      31.223  27.766  23.519  1.00  0.00    -0.450 OA
BRANCH  10  11
ATOM     11  C   UNL A   1      29.876  27.924  23.440  1.00  0.00     0.139 A 
ATOM     12  C   UNL A   1      29.117  29.021  23.025  1.00  0.00     0.117 A 
ATOM     13  C   UNL A   1      27.716  28.949  23.085  1.00  0.00     0.139 A 
ATOM     14  F   UNL A   1      26.959  29.991  22.707  1.00  0.00    -0.206 F 
ATOM     15  C   UNL A   1      27.059  27.800  23.519  1.00  0.00     0.040 A 
ATOM     16  C   UNL A   1      29.196  26.758  23.852  1.00  0.00     0.047 A 
ATOM     17  C   UNL A   1      27.802  26.691  23.895  1.00  0.00     0.007 A 
BRANCH  12  18
ATOM     18  C   UNL A   1      29.713  30.233  22.442  1.00  0.00     0.255 C 
ATOM     19  N   UNL A   1      30.639  30.062  21.454  1.00  0.00    -0.365 N 
ATOM     20  H   UNL A   1      31.064  30.844  21.036  1.00  0.00     0.159 HD
ATOM     21  H   UNL A   1      30.883  29.153  21.161  1.00  0.00     0.159 HD
ATOM     22  O   UNL A   1      29.344  31.349  22.776  1.00  0.00    -0.269 OA
ENDBRANCH  12  18
ENDBRANCH  10  11
ENDBRANCH   8  10
ENDBRANCH   6   8
ENDBRANCH   5   6
ENDBRANCH   4   5
ENDBRANCH   3   4
ENDBRANCH   2   3
ENDBRANCH   1   2
BRANCH   1  23
ATOM     23  C   UNL A   1      35.028  33.156  29.294  1.00  0.00     0.188 C 
BRANCH  23  24
ATOM     24  O   UNL A   1      35.117  34.538  29.022  1.00  0.00    -0.376 OA
BRANCH  24  25
ATOM     25  C   UNL A   1      33.946  35.177  28.537  1.00  0.00     0.202 C 
BRANCH  25  26
ATOM     26  C   UNL A   1      32.989  35.878  29.523  1.00  0.00     0.261 C 
BRANCH  26  27
ATOM     27  O   UNL A   1      32.537  35.117  30.655  1.00  0.00    -0.460 OA
BRANCH  27  28
ATOM     28  C   UNL A   1      32.741  35.639  31.886  1.00  0.00     0.338 C 
ATOM     29  O   UNL A   1      31.997  36.386  32.499  1.00  0.00    -0.246 OA
BRANCH  28  30
ATOM     30  C   UNL A   1      33.920  34.960  32.474  1.00  0.00     0.060 A 
ATOM     31  C   UNL A   1      35.165  35.608  32.445  1.00  0.00     0.016 A 
ATOM     32  C   UNL A   1      33.795  33.707  33.076  1.00  0.00     0.016 A 
ATOM     33  C   UNL A   1      36.292  34.992  32.995  1.00  0.00     0.010 A 
ATOM     34  C   UNL A   1      34.928  33.078  33.600  1.00  0.00     0.010 A 
ATOM     35  C   UNL A   1      36.188  33.702  33.533  1.00  0.00    -0.014 A 
BRANCH  35  36
ATOM     36  C   UNL A   1      37.413  32.916  33.821  1.00  0.00     0.031 A 
ATOM     37  C   UNL A   1      38.138  33.187  35.110  1.00  0.00     0.074 A 
ATOM     38  C   UNL A   1      37.876  31.979  32.974  1.00  0.00     0.049 A 
ATOM     39  N   UNL A   1      39.269  32.698  35.552  1.00  0.00    -0.248 NA
ATOM     40  C   UNL A   1      37.500  34.146  36.027  1.00  0.00     0.031 C 
ATOM     41  C   UNL A   1      37.238  31.582  31.722  1.00  0.00     0.029 A 
ATOM     42  N   UNL A   1      39.004  31.196  33.043  1.00  0.00    -0.354 N 
ATOM     43  C   UNL A   1      39.478  33.295  36.787  1.00  0.00     0.074 A 
ATOM     44  C   UNL A   1      38.378  34.206  37.015  1.00  0.00     0.031 C 
ATOM     45  C   UNL A   1      37.990  30.635  31.133  1.00  0.00     0.029 A 
ATOM     46  C   UNL A   1      39.182  30.388  31.947  1.00  0.00     0.049 A 
ATOM     47  H   UNL A   1      39.625  31.213  33.807  1.00  0.00     0.167 HD
ATOM     48  C   UNL A   1      40.493  33.095  37.659  1.00  0.00     0.037 A 
ATOM     49  C   UNL A   1      40.201  29.563  31.628  1.00  0.00     0.037 A 
ATOM     50  C   UNL A   1      41.587  32.189  37.432  1.00  0.00     0.049 A 
ATOM     51  C   UNL A   1      41.365  29.418  32.577  1.00  0.00     0.074 A 
ATOM     52  C   UNL A   1      42.660  31.913  38.260  1.00  0.00     0.029 A 
ATOM     53  N   UNL A   1      41.749  31.416  36.291  1.00  0.00    -0.354 N 
ATOM     54  N   UNL A   1      41.557  29.982  33.745  1.00  0.00    -0.248 NA
ATOM     55  C   UNL A   1      42.455  28.520  32.164  1.00  0.00     0.031 C 
ATOM     56  C   UNL A   1      43.503  31.020  37.596  1.00  0.00     0.029 A 
ATOM     57  C   UNL A   1      42.920  30.682  36.385  1.00  0.00     0.049 A 
ATOM     58  H   UNL A   1      41.127  31.393  35.530  1.00  0.00     0.167 HD
ATOM     59  C   UNL A   1      42.764  29.483  34.221  1.00  0.00     0.074 A 
ATOM     60  C   UNL A   1      43.261  28.566  33.217  1.00  0.00     0.031 C 
ATOM     61  C   UNL A   1      43.399  29.758  35.387  1.00  0.00     0.037 A 
BRANCH  48  62
ATOM     62  C   UNL A   1      40.485  33.883  38.936  1.00  0.00     0.064 A 
ATOM     63  C   UNL A   1      41.157  35.111  39.016  1.00  0.00     0.173 A 
ATOM     64  C   UNL A   1      39.870  33.395  40.099  1.00  0.00     0.173 A 
ATOM     65  F   UNL A   1      41.763  35.623  37.933  1.00  0.00    -0.203 F 
ATOM     66  C   UNL A   1      41.231  35.812  40.216  1.00  0.00     0.198 A 
ATOM     67  C   UNL A   1      39.916  34.115  41.290  1.00  0.00     0.198 A 
ATOM     68  F   UNL A   1      39.197  32.234  40.072  1.00  0.00    -0.203 F 
ATOM     69  F   UNL A   1      41.912  36.965  40.276  1.00  0.00    -0.200 F 
ATOM     70  C   UNL A   1      40.608  35.315  41.351  1.00  0.00     0.200 A 
ATOM     71  F   UNL A   1      39.289  33.648  42.378  1.00  0.00    -0.200 F 
ATOM     72  F   UNL A   1      40.670  35.998  42.503  1.00  0.00    -0.200 F 
ENDBRANCH  48  62
BRANCH  49  73
ATOM     73  C   UNL A   1      40.161  28.803  30.350  1.00  0.00     0.064 A 
ATOM     74  C   UNL A   1      40.754  29.309  29.182  1.00  0.00     0.173 A 
ATOM     75  C   UNL A   1      39.519  27.560  30.267  1.00  0.00     0.173 A 
ATOM     76  F   UNL A   1      41.389  30.490  29.207  1.00  0.00    -0.203 F 
ATOM     77  C   UNL A   1      40.681  28.612  27.977  1.00  0.00     0.198 A 
ATOM     78  C   UNL A   1      39.472  26.851  29.068  1.00  0.00     0.198 A 
ATOM     79  F   UNL A   1      38.965  27.019  31.362  1.00  0.00    -0.203 F 
ATOM     80  F   UNL A   1      41.227  29.134  26.870  1.00  0.00    -0.200 F 
ATOM     81  C   UNL A   1      40.044  27.382  27.922  1.00  0.00     0.200 A 
ATOM     82  F   UNL A   1      38.884  25.648  29.026  1.00  0.00    -0.200 F 
ATOM     83  F   UNL A   1      39.988  26.706  26.766  1.00  0.00    -0.200 F 
ENDBRANCH  49  73
BRANCH  61  84
ATOM     84  C   UNL A   1      44.682  29.035  35.685  1.00  0.00     0.064 A 
ATOM     85  C   UNL A   1      44.660  27.815  36.381  1.00  0.00     0.173 A 
ATOM     86  C   UNL A   1      45.933  29.591  35.378  1.00  0.00     0.173 A 
ATOM     87  F   UNL A   1      43.490  27.247  36.711  1.00  0.00    -0.203 F 
ATOM     88  C   UNL A   1      45.840  27.193  36.779  1.00  0.00     0.198 A 
ATOM     89  C   UNL A   1      47.111  28.946  35.748  1.00  0.00     0.198 A 
ATOM     90  F   UNL A   1      46.011  30.750  34.708  1.00  0.00    -0.203 F 
ATOM     91  F   UNL A   1      45.790  26.053  37.484  1.00  0.00    -0.200 F 
ATOM     92  C   UNL A   1      47.065  27.756  36.458  1.00  0.00     0.200 A 
ATOM     93  F   UNL A   1      48.296  29.481  35.419  1.00  0.00    -0.200 F 
ATOM     94  F   UNL A   1      48.199  27.153  36.836  1.00  0.00    -0.200 F 
ENDBRANCH  61  84
ENDBRANCH  35  36
ENDBRANCH  28  30
ENDBRANCH  27  28
ENDBRANCH  26  27
ENDBRANCH  25  26
ENDBRANCH  24  25
ENDBRANCH  23  24
ENDBRANCH   1  23
TORSDOF 20
ENDMDL
