MODEL 1
REMARK VINA RESULT:     -10.0      0.000      0.000
REMARK SMILES Cc1ccc(/C=C/C(=O)N[C@@H](CO)C(=O)OCCOCCOCCOC(=O)c2ccc(-c3c4nc(c(-c5c(F)c(F)c(F)c(F)c5F)c5ccc([nH]5)c(-c5c(F)c(F)c(F)c(F)c5F)c5nc(c(-c6c(F)c(F)c(F)c(F)c6F)c6ccc3[nH]6)C=C5)C=C4)cc2)o1
REMARK SMILES IDX 20 1 19 2 18 3 17 4 16 5 14 6 15 7 11 8 10 9 8 10 9 11 7 13
REMARK SMILES IDX 6 14 5 15 1 16 2 17 3 18 91 19 4 20 12 21 13 22 21 24 22 25
REMARK SMILES IDX 23 26 24 27 25 28 26 29 27 30 28 31 29 32 90 33 30 34 89 35
REMARK SMILES IDX 31 36 32 37 33 38 83 39 34 40 88 41 82 42 84 43 35 44 87 45
REMARK SMILES IDX 81 46 80 47 36 49 68 50 48 51 67 52 49 53 52 54 66 55 85 56
REMARK SMILES IDX 50 57 51 58 65 60 86 61 53 62 37 63 38 64 46 65 39 66 40 67
REMARK SMILES IDX 44 68 47 69 41 70 42 71 45 72 43 73 69 74 70 75 78 76 71 77
REMARK SMILES IDX 72 78 76 79 79 80 73 81 74 82 77 83 75 84 54 85 55 86 63 87
REMARK SMILES IDX 56 88 57 89 61 90 64 91 58 92 59 93 62 94 60 95
REMARK H PARENT 10 12 13 23 84 48 52 59
REMARK Flexibility Score: inf
ROOT
ATOM      1  C   UNL A   1      32.421  26.106  24.701  1.00  0.00     0.188 C 
ENDROOT
BRANCH   1   2
ATOM      2  O   UNL A   1      31.628  24.926  24.631  1.00  0.00    -0.376 OA
BRANCH   2   3
ATOM      3  C   UNL A   1      30.822  24.573  25.753  1.00  0.00     0.202 C 
BRANCH   3   4
ATOM      4  C   UNL A   1      31.099  23.231  26.452  1.00  0.00     0.261 C 
BRANCH   4   5
ATOM      5  O   UNL A   1      32.475  23.026  26.845  1.00  0.00    -0.462 OA
BRANCH   5   6
ATOM      6  C   UNL A   1      33.034  21.865  26.419  1.00  0.00     0.331 C 
ATOM      7  O   UNL A   1      33.664  21.099  27.144  1.00  0.00    -0.250 OA
BRANCH   6   8
ATOM      8  C   UNL A   1      32.691  21.485  24.963  1.00  0.00     0.218 C 
BRANCH   8   9
ATOM      9  N   UNL A   1      33.221  22.223  23.803  1.00  0.00    -0.337 N 
ATOM     10  C   UNL A   1      34.319  23.011  23.624  1.00  0.00     0.244 C 
ATOM     11  O   UNL A   1      34.431  23.613  22.556  1.00  0.00    -0.270 OA
ATOM     12  H   UNL A   1      32.671  22.127  22.992  1.00  0.00     0.164 HD
BRANCH  10  13
ATOM     13  C   UNL A   1      35.466  23.063  24.572  1.00  0.00     0.075 C 
ATOM     14  C   UNL A   1      36.571  22.309  24.592  1.00  0.00     0.053 C 
BRANCH  14  15
ATOM     15  C   UNL A   1      37.658  22.568  25.472  1.00  0.00     0.127 A 
ATOM     16  C   UNL A   1      40.585  21.488  27.280  1.00  0.00     0.087 C 
ATOM     17  C   UNL A   1      39.482  22.288  26.710  1.00  0.00     0.101 A 
ATOM     18  C   UNL A   1      39.190  23.630  26.764  1.00  0.00     0.046 A 
ATOM     19  O   UNL A   1      38.548  21.634  25.959  1.00  0.00    -0.462 OA
ATOM     20  C   UNL A   1      38.023  23.805  25.993  1.00  0.00     0.050 A 
ENDBRANCH  14  15
ENDBRANCH  10  13
ENDBRANCH   8   9
BRANCH   8  21
ATOM     21  C   UNL A   1      33.040  20.004  24.776  1.00  0.00     0.193 C 
BRANCH  21  22
ATOM     22  O   UNL A   1      32.192  19.182  25.582  1.00  0.00    -0.394 OA
ATOM     23  H   UNL A   1      32.700  18.428  25.921  1.00  0.00     0.210 HD
ENDBRANCH  21  22
ENDBRANCH   8  21
ENDBRANCH   6   8
ENDBRANCH   5   6
ENDBRANCH   4   5
ENDBRANCH   3   4
ENDBRANCH   2   3
ENDBRANCH   1   2
BRANCH   1  24
ATOM     24  C   UNL A   1      32.405  26.950  25.989  1.00  0.00     0.188 C 
BRANCH  24  25
ATOM     25  O   UNL A   1      31.399  27.937  26.028  1.00  0.00    -0.376 OA
BRANCH  25  26
ATOM     26  C   UNL A   1      31.527  29.018  25.126  1.00  0.00     0.202 C 
BRANCH  26  27
ATOM     27  C   UNL A   1      31.783  30.411  25.727  1.00  0.00     0.261 C 
BRANCH  27  28
ATOM     28  O   UNL A   1      32.561  30.452  26.939  1.00  0.00    -0.460 OA
BRANCH  28  29
ATOM     29  C   UNL A   1      33.149  31.622  27.260  1.00  0.00     0.338 C 
ATOM     30  O   UNL A   1      32.630  32.735  27.249  1.00  0.00    -0.246 OA
BRANCH  29  31
ATOM     31  C   UNL A   1      34.484  31.335  27.825  1.00  0.00     0.060 A 
ATOM     32  C   UNL A   1      34.808  30.021  28.198  1.00  0.00     0.016 A 
ATOM     33  C   UNL A   1      35.414  32.362  27.999  1.00  0.00     0.016 A 
ATOM     34  C   UNL A   1      36.055  29.735  28.761  1.00  0.00     0.010 A 
ATOM     35  C   UNL A   1      36.651  32.079  28.589  1.00  0.00     0.010 A 
ATOM     36  C   UNL A   1      36.969  30.771  28.998  1.00  0.00    -0.014 A 
BRANCH  36  37
ATOM     37  C   UNL A   1      38.175  30.528  29.831  1.00  0.00     0.031 A 
ATOM     38  C   UNL A   1      39.293  29.707  29.251  1.00  0.00     0.074 A 
ATOM     39  C   UNL A   1      38.277  31.010  31.082  1.00  0.00     0.049 A 
ATOM     40  N   UNL A   1      40.395  29.281  29.814  1.00  0.00    -0.248 NA
ATOM     41  C   UNL A   1      39.142  29.305  27.843  1.00  0.00     0.031 C 
ATOM     42  C   UNL A   1      37.280  31.841  31.749  1.00  0.00     0.029 A 
ATOM     43  N   UNL A   1      39.270  30.851  32.021  1.00  0.00    -0.354 N 
ATOM     44  C   UNL A   1      41.052  28.538  28.842  1.00  0.00     0.074 A 
ATOM     45  C   UNL A   1      40.224  28.565  27.656  1.00  0.00     0.031 C 
ATOM     46  C   UNL A   1      37.703  32.108  32.999  1.00  0.00     0.029 A 
ATOM     47  C   UNL A   1      38.984  31.439  33.228  1.00  0.00     0.049 A 
ATOM     48  H   UNL A   1      40.105  30.362  31.843  1.00  0.00     0.167 HD
ATOM     49  C   UNL A   1      42.235  27.887  28.932  1.00  0.00     0.037 A 
ATOM     50  C   UNL A   1      39.666  31.418  34.391  1.00  0.00     0.037 A 
ATOM     51  C   UNL A   1      43.062  27.864  30.110  1.00  0.00     0.049 A 
ATOM     52  C   UNL A   1      40.965  30.653  34.476  1.00  0.00     0.074 A 
ATOM     53  C   UNL A   1      44.293  27.257  30.287  1.00  0.00     0.029 A 
ATOM     54  N   UNL A   1      42.737  28.470  31.314  1.00  0.00    -0.354 N 
ATOM     55  N   UNL A   1      41.596  29.981  33.544  1.00  0.00    -0.248 NA
ATOM     56  C   UNL A   1      41.644  30.642  35.781  1.00  0.00     0.031 C 
ATOM     57  C   UNL A   1      44.685  27.443  31.616  1.00  0.00     0.029 A 
ATOM     58  C   UNL A   1      43.732  28.225  32.248  1.00  0.00     0.049 A 
ATOM     59  H   UNL A   1      41.922  28.995  31.482  1.00  0.00     0.167 HD
ATOM     60  C   UNL A   1      42.750  29.487  34.141  1.00  0.00     0.074 A 
ATOM     61  C   UNL A   1      42.747  29.956  35.509  1.00  0.00     0.031 C 
ATOM     62  C   UNL A   1      43.723  28.709  33.606  1.00  0.00     0.037 A 
BRANCH  49  63
ATOM     63  C   UNL A   1      42.692  27.104  27.735  1.00  0.00     0.064 A 
ATOM     64  C   UNL A   1      43.488  27.676  26.733  1.00  0.00     0.173 A 
ATOM     65  C   UNL A   1      42.358  25.747  27.613  1.00  0.00     0.173 A 
ATOM     66  F   UNL A   1      43.824  28.974  26.796  1.00  0.00    -0.203 F 
ATOM     67  C   UNL A   1      43.915  26.924  25.642  1.00  0.00     0.198 A 
ATOM     68  C   UNL A   1      42.812  24.989  26.538  1.00  0.00     0.198 A 
ATOM     69  F   UNL A   1      41.600  25.149  28.547  1.00  0.00    -0.203 F 
ATOM     70  F   UNL A   1      44.639  27.501  24.674  1.00  0.00    -0.200 F 
ATOM     71  C   UNL A   1      43.584  25.580  25.550  1.00  0.00     0.200 A 
ATOM     72  F   UNL A   1      42.503  23.687  26.458  1.00  0.00    -0.200 F 
ATOM     73  F   UNL A   1      44.005  24.854  24.505  1.00  0.00    -0.200 F 
ENDBRANCH  49  63
BRANCH  50  74
ATOM     74  C   UNL A   1      39.128  32.120  35.589  1.00  0.00     0.064 A 
ATOM     75  C   UNL A   1      39.425  33.468  35.832  1.00  0.00     0.173 A 
ATOM     76  C   UNL A   1      38.341  31.447  36.535  1.00  0.00     0.173 A 
ATOM     77  F   UNL A   1      40.193  34.150  34.969  1.00  0.00    -0.203 F 
ATOM     78  C   UNL A   1      38.978  34.108  36.986  1.00  0.00     0.198 A 
ATOM     79  C   UNL A   1      37.864  32.098  37.672  1.00  0.00     0.198 A 
ATOM     80  F   UNL A   1      38.030  30.156  36.355  1.00  0.00    -0.203 F 
ATOM     81  F   UNL A   1      39.326  35.381  37.221  1.00  0.00    -0.200 F 
ATOM     82  C   UNL A   1      38.193  33.424  37.903  1.00  0.00     0.200 A 
ATOM     83  F   UNL A   1      37.095  31.436  38.546  1.00  0.00    -0.200 F 
ATOM     84  F   UNL A   1      37.762  34.041  39.012  1.00  0.00    -0.200 F 
ENDBRANCH  50  74
BRANCH  62  85
ATOM     85  C   UNL A   1      44.890  28.347  34.482  1.00  0.00     0.064 A 
ATOM     86  C   UNL A   1      44.887  27.193  35.280  1.00  0.00     0.173 A 
ATOM     87  C   UNL A   1      46.048  29.141  34.484  1.00  0.00     0.173 A 
ATOM     88  F   UNL A   1      43.801  26.406  35.326  1.00  0.00    -0.203 F 
ATOM     89  C   UNL A   1      45.988  26.863  36.066  1.00  0.00     0.198 A 
ATOM     90  C   UNL A   1      47.159  28.790  35.245  1.00  0.00     0.198 A 
ATOM     91  F   UNL A   1      46.108  30.251  33.732  1.00  0.00    -0.203 F 
ATOM     92  F   UNL A   1      45.945  25.783  36.858  1.00  0.00    -0.200 F 
ATOM     93  C   UNL A   1      47.126  27.656  36.041  1.00  0.00     0.200 A 
ATOM     94  F   UNL A   1      48.263  29.549  35.206  1.00  0.00    -0.200 F 
ATOM     95  F   UNL A   1      48.188  27.331  36.791  1.00  0.00    -0.200 F 
ENDBRANCH  62  85
ENDBRANCH  36  37
ENDBRANCH  29  31
ENDBRANCH  28  29
ENDBRANCH  27  28
ENDBRANCH  26  27
ENDBRANCH  25  26
ENDBRANCH  24  25
ENDBRANCH   1  24
TORSDOF 22
ENDMDL
MODEL 2
REMARK VINA RESULT:      -9.9      0.848      7.258
REMARK SMILES Cc1ccc(/C=C/C(=O)N[C@@H](CO)C(=O)OCCOCCOCCOC(=O)c2ccc(-c3c4nc(c(-c5c(F)c(F)c(F)c(F)c5F)c5ccc([nH]5)c(-c5c(F)c(F)c(F)c(F)c5F)c5nc(c(-c6c(F)c(F)c(F)c(F)c6F)c6ccc3[nH]6)C=C5)C=C4)cc2)o1
REMARK SMILES IDX 20 1 19 2 18 3 17 4 16 5 14 6 15 7 11 8 10 9 8 10 9 11 7 13
REMARK SMILES IDX 6 14 5 15 1 16 2 17 3 18 91 19 4 20 12 21 13 22 21 24 22 25
REMARK SMILES IDX 23 26 24 27 25 28 26 29 27 30 28 31 29 32 90 33 30 34 89 35
REMARK SMILES IDX 31 36 32 37 33 38 83 39 34 40 88 41 82 42 84 43 35 44 87 45
REMARK SMILES IDX 81 46 80 47 36 49 68 50 48 51 67 52 49 53 52 54 66 55 85 56
REMARK SMILES IDX 50 57 51 58 65 60 86 61 53 62 37 63 38 64 46 65 39 66 40 67
REMARK SMILES IDX 44 68 47 69 41 70 42 71 45 72 43 73 69 74 70 75 78 76 71 77
REMARK SMILES IDX 72 78 76 79 79 80 73 81 74 82 77 83 75 84 54 85 55 86 63 87
REMARK SMILES IDX 56 88 57 89 61 90 64 91 58 92 59 93 62 94 60 95
REMARK H PARENT 10 12 13 23 84 48 52 59
REMARK Flexibility Score: inf
ROOT
ATOM      1  C   UNL A   1      32.468  26.704  24.603  1.00  0.00     0.188 C 
ENDROOT
BRANCH   1   2
ATOM      2  O   UNL A   1      31.831  25.449  24.389  1.00  0.00    -0.376 OA
BRANCH   2   3
ATOM      3  C   UNL A   1      30.765  25.065  25.255  1.00  0.00     0.202 C 
BRANCH   3   4
ATOM      4  C   UNL A   1      30.948  23.803  26.115  1.00  0.00     0.261 C 
BRANCH   4   5
ATOM      5  O   UNL A   1      32.142  23.793  26.929  1.00  0.00    -0.462 OA
BRANCH   5   6
ATOM      6  C   UNL A   1      33.055  22.841  26.609  1.00  0.00     0.331 C 
ATOM      7  O   UNL A   1      33.996  22.520  27.332  1.00  0.00    -0.250 OA
BRANCH   6   8
ATOM      8  C   UNL A   1      32.743  22.063  25.314  1.00  0.00     0.218 C 
BRANCH   8   9
ATOM      9  N   UNL A   1      33.182  22.523  23.984  1.00  0.00    -0.337 N 
ATOM     10  C   UNL A   1      34.378  22.963  23.501  1.00  0.00     0.244 C 
ATOM     11  O   UNL A   1      34.408  23.414  22.355  1.00  0.00    -0.270 OA
ATOM     12  H   UNL A   1      32.467  22.509  23.308  1.00  0.00     0.164 HD
BRANCH  10  13
ATOM     13  C   UNL A   1      35.676  22.784  24.208  1.00  0.00     0.075 C 
ATOM     14  C   UNL A   1      36.408  23.695  24.859  1.00  0.00     0.053 C 
BRANCH  14  15
ATOM     15  C   UNL A   1      37.562  23.349  25.618  1.00  0.00     0.127 A 
ATOM     16  C   UNL A   1      40.189  21.039  26.492  1.00  0.00     0.087 C 
ATOM     17  C   UNL A   1      39.304  22.219  26.408  1.00  0.00     0.101 A 
ATOM     18  C   UNL A   1      39.365  23.464  26.986  1.00  0.00     0.046 A 
ATOM     19  O   UNL A   1      38.203  22.128  25.605  1.00  0.00    -0.462 OA
ATOM     20  C   UNL A   1      38.251  24.175  26.498  1.00  0.00     0.050 A 
ENDBRANCH  14  15
ENDBRANCH  10  13
ENDBRANCH   8   9
BRANCH   8  21
ATOM     21  C   UNL A   1      33.246  20.627  25.502  1.00  0.00     0.193 C 
BRANCH  21  22
ATOM     22  O   UNL A   1      32.150  19.738  25.738  1.00  0.00    -0.394 OA
ATOM     23  H   UNL A   1      31.502  19.826  25.022  1.00  0.00     0.210 HD
ENDBRANCH  21  22
ENDBRANCH   8  21
ENDBRANCH   6   8
ENDBRANCH   5   6
ENDBRANCH   4   5
ENDBRANCH   3   4
ENDBRANCH   2   3
ENDBRANCH   1   2
BRANCH   1  24
ATOM     24  C   UNL A   1      32.107  27.531  25.852  1.00  0.00     0.188 C 
BRANCH  24  25
ATOM     25  O   UNL A   1      31.131  28.524  25.631  1.00  0.00    -0.376 OA
BRANCH  25  26
ATOM     26  C   UNL A   1      31.590  29.783  25.175  1.00  0.00     0.202 C 
BRANCH  26  27
ATOM     27  C   UNL A   1      31.810  30.878  26.234  1.00  0.00     0.261 C 
BRANCH  27  28
ATOM     28  O   UNL A   1      32.860  30.640  27.192  1.00  0.00    -0.460 OA
BRANCH  28  29
ATOM     29  C   UNL A   1      33.644  31.685  27.525  1.00  0.00     0.338 C 
ATOM     30  O   UNL A   1      33.315  32.867  27.574  1.00  0.00    -0.246 OA
BRANCH  29  31
ATOM     31  C   UNL A   1      34.934  31.162  28.021  1.00  0.00     0.060 A 
ATOM     32  C   UNL A   1      35.072  29.787  28.269  1.00  0.00     0.016 A 
ATOM     33  C   UNL A   1      36.005  32.027  28.254  1.00  0.00     0.016 A 
ATOM     34  C   UNL A   1      36.275  29.278  28.766  1.00  0.00     0.010 A 
ATOM     35  C   UNL A   1      37.199  31.520  28.779  1.00  0.00     0.010 A 
ATOM     36  C   UNL A   1      37.333  30.148  29.063  1.00  0.00    -0.014 A 
BRANCH  36  37
ATOM     37  C   UNL A   1      38.506  29.663  29.834  1.00  0.00     0.031 A 
ATOM     38  C   UNL A   1      38.717  30.192  31.226  1.00  0.00     0.074 A 
ATOM     39  C   UNL A   1      39.379  28.783  29.314  1.00  0.00     0.049 A 
ATOM     40  N   UNL A   1      39.712  29.994  32.053  1.00  0.00    -0.248 NA
ATOM     41  C   UNL A   1      37.662  31.073  31.753  1.00  0.00     0.031 C 
ATOM     42  C   UNL A   1      39.273  28.173  27.992  1.00  0.00     0.029 A 
ATOM     43  N   UNL A   1      40.540  28.261  29.836  1.00  0.00    -0.354 N 
ATOM     44  C   UNL A   1      39.419  30.747  33.182  1.00  0.00     0.074 A 
ATOM     45  C   UNL A   1      38.157  31.410  32.934  1.00  0.00     0.031 C 
ATOM     46  C   UNL A   1      40.337  27.371  27.798  1.00  0.00     0.029 A 
ATOM     47  C   UNL A   1      41.211  27.437  28.968  1.00  0.00     0.049 A 
ATOM     48  H   UNL A   1      40.858  28.461  30.746  1.00  0.00     0.167 HD
ATOM     49  C   UNL A   1      40.139  30.879  34.321  1.00  0.00     0.037 A 
ATOM     50  C   UNL A   1      42.407  26.827  29.095  1.00  0.00     0.037 A 
ATOM     51  C   UNL A   1      41.392  30.214  34.571  1.00  0.00     0.049 A 
ATOM     52  C   UNL A   1      43.209  27.019  30.360  1.00  0.00     0.074 A 
ATOM     53  C   UNL A   1      42.180  30.262  35.707  1.00  0.00     0.029 A 
ATOM     54  N   UNL A   1      42.041  29.389  33.666  1.00  0.00    -0.354 N 
ATOM     55  N   UNL A   1      42.910  27.705  31.437  1.00  0.00    -0.248 NA
ATOM     56  C   UNL A   1      44.519  26.354  30.424  1.00  0.00     0.031 C 
ATOM     57  C   UNL A   1      43.337  29.514  35.468  1.00  0.00     0.029 A 
ATOM     58  C   UNL A   1      43.237  28.945  34.209  1.00  0.00     0.049 A 
ATOM     59  H   UNL A   1      41.705  29.155  32.771  1.00  0.00     0.167 HD
ATOM     60  C   UNL A   1      43.979  27.538  32.309  1.00  0.00     0.074 A 
ATOM     61  C   UNL A   1      44.925  26.665  31.648  1.00  0.00     0.031 C 
ATOM     62  C   UNL A   1      44.165  28.065  33.544  1.00  0.00     0.037 A 
BRANCH  49  63
ATOM     63  C   UNL A   1      39.613  31.811  35.373  1.00  0.00     0.064 A 
ATOM     64  C   UNL A   1      40.014  33.153  35.445  1.00  0.00     0.173 A 
ATOM     65  C   UNL A   1      38.659  31.361  36.299  1.00  0.00     0.173 A 
ATOM     66  F   UNL A   1      40.934  33.629  34.591  1.00  0.00    -0.203 F 
ATOM     67  C   UNL A   1      39.497  34.003  36.418  1.00  0.00     0.198 A 
ATOM     68  C   UNL A   1      38.121  32.221  37.251  1.00  0.00     0.198 A 
ATOM     69  F   UNL A   1      38.238  30.086  36.271  1.00  0.00    -0.203 F 
ATOM     70  F   UNL A   1      39.927  35.270  36.497  1.00  0.00    -0.200 F 
ATOM     71  C   UNL A   1      38.545  33.539  37.314  1.00  0.00     0.200 A 
ATOM     72  F   UNL A   1      37.191  31.774  38.106  1.00  0.00    -0.200 F 
ATOM     73  F   UNL A   1      38.040  34.362  38.244  1.00  0.00    -0.200 F 
ENDBRANCH  49  63
BRANCH  50  74
ATOM     74  C   UNL A   1      42.945  25.993  27.985  1.00  0.00     0.064 A 
ATOM     75  C   UNL A   1      43.641  26.573  26.916  1.00  0.00     0.173 A 
ATOM     76  C   UNL A   1      42.738  24.605  27.949  1.00  0.00     0.173 A 
ATOM     77  F   UNL A   1      43.845  27.899  26.891  1.00  0.00    -0.203 F 
ATOM     78  C   UNL A   1      44.086  25.804  25.842  1.00  0.00     0.198 A 
ATOM     79  C   UNL A   1      43.215  23.832  26.893  1.00  0.00     0.198 A 
ATOM     80  F   UNL A   1      42.075  23.999  28.944  1.00  0.00    -0.203 F 
ATOM     81  F   UNL A   1      44.697  26.395  24.806  1.00  0.00    -0.200 F 
ATOM     82  C   UNL A   1      43.878  24.433  25.834  1.00  0.00     0.200 A 
ATOM     83  F   UNL A   1      43.024  22.506  26.898  1.00  0.00    -0.200 F 
ATOM     84  F   UNL A   1      44.308  23.694  24.803  1.00  0.00    -0.200 F 
ENDBRANCH  50  74
BRANCH  62  85
ATOM     85  C   UNL A   1      45.416  27.683  34.286  1.00  0.00     0.064 A 
ATOM     86  C   UNL A   1      46.587  28.452  34.210  1.00  0.00     0.173 A 
ATOM     87  C   UNL A   1      45.426  26.557  35.125  1.00  0.00     0.173 A 
ATOM     88  F   UNL A   1      46.635  29.531  33.413  1.00  0.00    -0.203 F 
ATOM     89  C   UNL A   1      47.727  28.094  34.925  1.00  0.00     0.198 A 
ATOM     90  C   UNL A   1      46.557  26.221  35.864  1.00  0.00     0.198 A 
ATOM     91  F   UNL A   1      44.331  25.791  35.241  1.00  0.00    -0.203 F 
ATOM     92  F   UNL A   1      48.849  28.816  34.799  1.00  0.00    -0.200 F 
ATOM     93  C   UNL A   1      47.709  26.985  35.757  1.00  0.00     0.200 A 
ATOM     94  F   UNL A   1      46.532  25.158  36.680  1.00  0.00    -0.200 F 
ATOM     95  F   UNL A   1      48.804  26.648  36.452  1.00  0.00    -0.200 F 
ENDBRANCH  62  85
ENDBRANCH  36  37
ENDBRANCH  29  31
ENDBRANCH  28  29
ENDBRANCH  27  28
ENDBRANCH  26  27
ENDBRANCH  25  26
ENDBRANCH  24  25
ENDBRANCH   1  24
TORSDOF 22
ENDMDL
MODEL 3
REMARK VINA RESULT:      -9.6      3.960      9.711
REMARK SMILES Cc1ccc(/C=C/C(=O)N[C@@H](CO)C(=O)OCCOCCOCCOC(=O)c2ccc(-c3c4nc(c(-c5c(F)c(F)c(F)c(F)c5F)c5ccc([nH]5)c(-c5c(F)c(F)c(F)c(F)c5F)c5nc(c(-c6c(F)c(F)c(F)c(F)c6F)c6ccc3[nH]6)C=C5)C=C4)cc2)o1
REMARK SMILES IDX 20 1 19 2 18 3 17 4 16 5 14 6 15 7 11 8 10 9 8 10 9 11 7 13
REMARK SMILES IDX 6 14 5 15 1 16 2 17 3 18 91 19 4 20 12 21 13 22 21 24 22 25
REMARK SMILES IDX 23 26 24 27 25 28 26 29 27 30 28 31 29 32 90 33 30 34 89 35
REMARK SMILES IDX 31 36 32 37 33 38 83 39 34 40 88 41 82 42 84 43 35 44 87 45
REMARK SMILES IDX 81 46 80 47 36 49 68 50 48 51 67 52 49 53 52 54 66 55 85 56
REMARK SMILES IDX 50 57 51 58 65 60 86 61 53 62 37 63 38 64 46 65 39 66 40 67
REMARK SMILES IDX 44 68 47 69 41 70 42 71 45 72 43 73 69 74 70 75 78 76 71 77
REMARK SMILES IDX 72 78 76 79 79 80 73 81 74 82 77 83 75 84 54 85 55 86 63 87
REMARK SMILES IDX 56 88 57 89 61 90 64 91 58 92 59 93 62 94 60 95
REMARK H PARENT 10 12 13 23 84 48 52 59
REMARK Flexibility Score: inf
ROOT
ATOM      1  C   UNL A   1      32.886  21.552  23.481  1.00  0.00     0.188 C 
ENDROOT
BRANCH   1   2
ATOM      2  O   UNL A   1      33.237  22.929  23.548  1.00  0.00    -0.376 OA
BRANCH   2   3
ATOM      3  C   UNL A   1      33.049  23.742  22.392  1.00  0.00     0.202 C 
BRANCH   3   4
ATOM      4  C   UNL A   1      32.086  24.938  22.495  1.00  0.00     0.261 C 
BRANCH   4   5
ATOM      5  O   UNL A   1      32.672  26.217  22.164  1.00  0.00    -0.462 OA
BRANCH   5   6
ATOM      6  C   UNL A   1      31.829  27.278  22.237  1.00  0.00     0.331 C 
ATOM      7  O   UNL A   1      30.606  27.190  22.160  1.00  0.00    -0.250 OA
BRANCH   6   8
ATOM      8  C   UNL A   1      32.513  28.618  22.582  1.00  0.00     0.218 C 
BRANCH   8   9
ATOM      9  N   UNL A   1      32.314  29.304  23.871  1.00  0.00    -0.337 N 
ATOM     10  C   UNL A   1      31.990  28.862  25.120  1.00  0.00     0.244 C 
ATOM     11  O   UNL A   1      31.760  29.703  25.990  1.00  0.00    -0.270 OA
ATOM     12  H   UNL A   1      32.441  30.279  23.821  1.00  0.00     0.164 HD
BRANCH  10  13
ATOM     13  C   UNL A   1      32.057  27.435  25.538  1.00  0.00     0.075 C 
ATOM     14  C   UNL A   1      31.081  26.656  26.020  1.00  0.00     0.053 C 
BRANCH  14  15
ATOM     15  C   UNL A   1      31.255  25.261  26.242  1.00  0.00     0.127 A 
ATOM     16  C   UNL A   1      32.976  22.502  27.799  1.00  0.00     0.087 C 
ATOM     17  C   UNL A   1      32.044  23.330  27.007  1.00  0.00     0.101 A 
ATOM     18  C   UNL A   1      30.927  23.018  26.271  1.00  0.00     0.046 A 
ATOM     19  O   UNL A   1      32.270  24.676  26.970  1.00  0.00    -0.462 OA
ATOM     20  C   UNL A   1      30.436  24.241  25.772  1.00  0.00     0.050 A 
ENDBRANCH  14  15
ENDBRANCH  10  13
ENDBRANCH   8   9
BRANCH   8  21
ATOM     21  C   UNL A   1      34.021  28.436  22.377  1.00  0.00     0.193 C 
BRANCH  21  22
ATOM     22  O   UNL A   1      34.745  28.927  23.508  1.00  0.00    -0.394 OA
ATOM     23  H   UNL A   1      35.065  29.824  23.322  1.00  0.00     0.210 HD
ENDBRANCH  21  22
ENDBRANCH   8  21
ENDBRANCH   6   8
ENDBRANCH   5   6
ENDBRANCH   4   5
ENDBRANCH   3   4
ENDBRANCH   2   3
ENDBRANCH   1   2
BRANCH   1  24
ATOM     24  C   UNL A   1      33.230  20.626  24.664  1.00  0.00     0.188 C 
BRANCH  24  25
ATOM     25  O   UNL A   1      34.530  20.082  24.620  1.00  0.00    -0.376 OA
BRANCH  25  26
ATOM     26  C   UNL A   1      35.526  20.745  25.374  1.00  0.00     0.202 C 
BRANCH  26  27
ATOM     27  C   UNL A   1      36.993  20.456  25.010  1.00  0.00     0.261 C 
BRANCH  27  28
ATOM     28  O   UNL A   1      37.936  21.517  25.260  1.00  0.00    -0.460 OA
BRANCH  28  29
ATOM     29  C   UNL A   1      39.022  21.221  26.001  1.00  0.00     0.338 C 
ATOM     30  O   UNL A   1      39.572  20.127  26.098  1.00  0.00    -0.246 OA
BRANCH  29  31
ATOM     31  C   UNL A   1      39.578  22.480  26.540  1.00  0.00     0.060 A 
ATOM     32  C   UNL A   1      39.070  23.708  26.089  1.00  0.00     0.016 A 
ATOM     33  C   UNL A   1      40.609  22.451  27.482  1.00  0.00     0.016 A 
ATOM     34  C   UNL A   1      39.602  24.909  26.565  1.00  0.00     0.010 A 
ATOM     35  C   UNL A   1      41.161  23.655  27.936  1.00  0.00     0.010 A 
ATOM     36  C   UNL A   1      40.680  24.889  27.461  1.00  0.00    -0.014 A 
BRANCH  36  37
ATOM     37  C   UNL A   1      41.423  26.139  27.764  1.00  0.00     0.031 A 
ATOM     38  C   UNL A   1      40.706  27.240  28.496  1.00  0.00     0.074 A 
ATOM     39  C   UNL A   1      42.703  26.308  27.390  1.00  0.00     0.049 A 
ATOM     40  N   UNL A   1      41.109  28.451  28.786  1.00  0.00    -0.248 NA
ATOM     41  C   UNL A   1      39.341  26.934  28.955  1.00  0.00     0.031 C 
ATOM     42  C   UNL A   1      43.519  25.311  26.704  1.00  0.00     0.029 A 
ATOM     43  N   UNL A   1      43.536  27.394  27.524  1.00  0.00    -0.354 N 
ATOM     44  C   UNL A   1      40.041  29.059  29.432  1.00  0.00     0.074 A 
ATOM     45  C   UNL A   1      38.970  28.088  29.488  1.00  0.00     0.031 C 
ATOM     46  C   UNL A   1      44.734  25.837  26.460  1.00  0.00     0.029 A 
ATOM     47  C   UNL A   1      44.768  27.217  26.945  1.00  0.00     0.049 A 
ATOM     48  H   UNL A   1      43.273  28.220  27.990  1.00  0.00     0.167 HD
ATOM     49  C   UNL A   1      39.959  30.315  29.929  1.00  0.00     0.037 A 
ATOM     50  C   UNL A   1      45.796  28.078  26.801  1.00  0.00     0.037 A 
ATOM     51  C   UNL A   1      41.026  31.280  29.880  1.00  0.00     0.049 A 
ATOM     52  C   UNL A   1      45.665  29.486  27.331  1.00  0.00     0.074 A 
ATOM     53  C   UNL A   1      41.046  32.569  30.385  1.00  0.00     0.029 A 
ATOM     54  N   UNL A   1      42.258  31.064  29.283  1.00  0.00    -0.354 N 
ATOM     55  N   UNL A   1      44.666  30.043  27.971  1.00  0.00    -0.248 NA
ATOM     56  C   UNL A   1      46.808  30.386  27.113  1.00  0.00     0.031 C 
ATOM     57  C   UNL A   1      42.269  33.153  30.040  1.00  0.00     0.029 A 
ATOM     58  C   UNL A   1      43.036  32.207  29.381  1.00  0.00     0.049 A 
ATOM     59  H   UNL A   1      42.539  30.224  28.852  1.00  0.00     0.167 HD
ATOM     60  C   UNL A   1      45.064  31.345  28.248  1.00  0.00     0.074 A 
ATOM     61  C   UNL A   1      46.407  31.490  27.731  1.00  0.00     0.031 C 
ATOM     62  C   UNL A   1      44.378  32.335  28.871  1.00  0.00     0.037 A 
BRANCH  49  63
ATOM     63  C   UNL A   1      38.652  30.739  30.536  1.00  0.00     0.064 A 
ATOM     64  C   UNL A   1      38.442  30.738  31.922  1.00  0.00     0.173 A 
ATOM     65  C   UNL A   1      37.610  31.194  29.713  1.00  0.00     0.173 A 
ATOM     66  F   UNL A   1      39.402  30.300  32.750  1.00  0.00    -0.203 F 
ATOM     67  C   UNL A   1      37.227  31.155  32.461  1.00  0.00     0.198 A 
ATOM     68  C   UNL A   1      36.409  31.639  30.257  1.00  0.00     0.198 A 
ATOM     69  F   UNL A   1      37.762  31.220  28.380  1.00  0.00    -0.203 F 
ATOM     70  F   UNL A   1      37.031  31.103  33.785  1.00  0.00    -0.200 F 
ATOM     71  C   UNL A   1      36.216  31.612  31.629  1.00  0.00     0.200 A 
ATOM     72  F   UNL A   1      35.439  32.095  29.452  1.00  0.00    -0.200 F 
ATOM     73  F   UNL A   1      35.052  32.024  32.150  1.00  0.00    -0.200 F 
ENDBRANCH  49  63
BRANCH  50  74
ATOM     74  C   UNL A   1      47.038  27.652  26.099  1.00  0.00     0.064 A 
ATOM     75  C   UNL A   1      47.142  27.726  24.702  1.00  0.00     0.173 A 
ATOM     76  C   UNL A   1      48.130  27.124  26.804  1.00  0.00     0.173 A 
ATOM     77  F   UNL A   1      46.117  28.202  23.979  1.00  0.00    -0.203 F 
ATOM     78  C   UNL A   1      48.277  27.266  24.038  1.00  0.00     0.198 A 
ATOM     79  C   UNL A   1      49.279  26.697  26.142  1.00  0.00     0.198 A 
ATOM     80  F   UNL A   1      48.082  27.027  28.140  1.00  0.00    -0.203 F 
ATOM     81  F   UNL A   1      48.325  27.295  22.699  1.00  0.00    -0.200 F 
ATOM     82  C   UNL A   1      49.348  26.757  24.759  1.00  0.00     0.200 A 
ATOM     83  F   UNL A   1      50.315  26.220  26.844  1.00  0.00    -0.200 F 
ATOM     84  F   UNL A   1      50.439  26.316  24.119  1.00  0.00    -0.200 F 
ENDBRANCH  50  74
BRANCH  62  85
ATOM     85  C   UNL A   1      45.076  33.651  29.070  1.00  0.00     0.064 A 
ATOM     86  C   UNL A   1      45.893  33.896  30.184  1.00  0.00     0.173 A 
ATOM     87  C   UNL A   1      44.965  34.666  28.105  1.00  0.00     0.173 A 
ATOM     88  F   UNL A   1      46.023  32.966  31.143  1.00  0.00    -0.203 F 
ATOM     89  C   UNL A   1      46.550  35.115  30.337  1.00  0.00     0.198 A 
ATOM     90  C   UNL A   1      45.650  35.869  28.244  1.00  0.00     0.198 A 
ATOM     91  F   UNL A   1      44.204  34.481  27.015  1.00  0.00    -0.203 F 
ATOM     92  F   UNL A   1      47.285  35.344  31.434  1.00  0.00    -0.200 F 
ATOM     93  C   UNL A   1      46.435  36.096  29.364  1.00  0.00     0.200 A 
ATOM     94  F   UNL A   1      45.551  36.809  27.294  1.00  0.00    -0.200 F 
ATOM     95  F   UNL A   1      47.077  37.264  29.508  1.00  0.00    -0.200 F 
ENDBRANCH  62  85
ENDBRANCH  36  37
ENDBRANCH  29  31
ENDBRANCH  28  29
ENDBRANCH  27  28
ENDBRANCH  26  27
ENDBRANCH  25  26
ENDBRANCH  24  25
ENDBRANCH   1  24
TORSDOF 22
ENDMDL
