MODEL 1
REMARK VINA RESULT:     -12.3      0.000      0.000
REMARK SMILES O=C1OC(c2ccc(Cl)cc2)=N/C1=C/Nc1ccc(O)c(C(=O)OCCOCCOCCOC(=O)c2ccc(-c3c4nc(c(-c5c(F)c(F)c(F)c(F)c5F)c5ccc([nH]5)c(-c5c(F)c(F)c(F)c(F)c5F)c5nc(c(-c6c(F)c(F)c(F)c(F)c6F)c6ccc3[nH]6)C=C5)C=C4)cc2)c1
REMARK SMILES IDX 28 1 27 2 26 3 25 4 24 5 22 6 23 7 21 8 16 9 17 10 99 11
REMARK SMILES IDX 18 12 19 13 15 14 14 16 1 17 2 18 3 19 13 20 4 21 12 22 5 23
REMARK SMILES IDX 6 24 11 25 7 26 10 27 8 28 9 29 20 30 29 32 30 33 31 34
REMARK SMILES IDX 32 35 33 36 34 37 35 38 36 39 37 40 98 41 38 42 97 43 39 44
REMARK SMILES IDX 40 45 41 46 91 47 42 48 96 49 90 50 92 51 43 52 95 53 89 54
REMARK SMILES IDX 88 55 44 57 76 58 56 59 75 60 57 61 60 62 74 63 93 64 58 65
REMARK SMILES IDX 59 66 73 68 94 69 61 70 45 71 46 72 54 73 47 74 48 75 52 76
REMARK SMILES IDX 55 77 49 78 50 79 53 80 51 81 77 82 78 83 86 84 79 85 80 86
REMARK SMILES IDX 84 87 87 88 81 89 82 90 85 91 83 92 62 93 63 94 71 95 64 96
REMARK SMILES IDX 65 97 69 98 72 99 66 100 67 101 70 102 68 103
REMARK H PARENT 15 15 20 31 92 56 60 67
REMARK Flexibility Score: inf
ROOT
ATOM      1  C   UNL A   1      40.871  20.748  27.001  1.00  0.00     0.188 C 
ENDROOT
BRANCH   1   2
ATOM      2  O   UNL A   1      39.767  20.925  26.142  1.00  0.00    -0.376 OA
BRANCH   2   3
ATOM      3  C   UNL A   1      39.059  22.154  26.120  1.00  0.00     0.202 C 
BRANCH   3   4
ATOM      4  C   UNL A   1      37.525  22.278  26.096  1.00  0.00     0.261 C 
BRANCH   4   5
ATOM      5  O   UNL A   1      36.873  21.877  24.889  1.00  0.00    -0.460 OA
BRANCH   5   6
ATOM      6  C   UNL A   1      36.416  20.599  24.860  1.00  0.00     0.342 C 
ATOM      7  O   UNL A   1      37.084  19.587  25.001  1.00  0.00    -0.246 OA
BRANCH   6   8
ATOM      8  C   UNL A   1      34.937  20.576  24.887  1.00  0.00     0.103 A 
ATOM      9  C   UNL A   1      32.889  21.888  25.067  1.00  0.00     0.039 A 
ATOM     10  C   UNL A   1      32.156  20.696  25.014  1.00  0.00     0.030 A 
ATOM     11  C   UNL A   1      34.283  21.817  25.008  1.00  0.00     0.045 A 
ATOM     12  C   UNL A   1      32.794  19.463  24.847  1.00  0.00     0.049 A 
ATOM     13  C   UNL A   1      34.186  19.405  24.780  1.00  0.00     0.130 A 
BRANCH   9  14
ATOM     14  N   UNL A   1      32.256  23.122  25.264  1.00  0.00    -0.360 N 
ATOM     15  H   UNL A   1      32.036  23.381  26.189  1.00  0.00     0.166 HD
BRANCH  14  16
ATOM     16  C   UNL A   1      31.919  23.996  24.259  1.00  0.00     0.119 C 
ATOM     17  O   UNL A   1      31.169  25.550  26.736  1.00  0.00    -0.244 OA
ATOM     18  C   UNL A   1      31.008  25.913  25.585  1.00  0.00     0.365 C 
ATOM     19  O   UNL A   1      30.475  27.087  25.141  1.00  0.00    -0.402 OA
ATOM     20  C   UNL A   1      31.333  25.197  24.324  1.00  0.00     0.168 C 
ATOM     21  C   UNL A   1      30.465  27.003  23.791  1.00  0.00     0.231 C 
ATOM     22  N   UNL A   1      30.945  25.937  23.239  1.00  0.00    -0.204 NA
BRANCH  21  23
ATOM     23  C   UNL A   1      29.838  28.127  23.101  1.00  0.00     0.037 A 
ATOM     24  C   UNL A   1      30.613  29.044  22.386  1.00  0.00     0.015 A 
ATOM     25  C   UNL A   1      28.444  28.241  23.132  1.00  0.00     0.015 A 
ATOM     26  C   UNL A   1      29.982  30.081  21.691  1.00  0.00     0.021 A 
ATOM     27  C   UNL A   1      27.820  29.289  22.454  1.00  0.00     0.021 A 
ATOM     28  C   UNL A   1      28.591  30.201  21.731  1.00  0.00     0.041 A 
ATOM     29  Cl  UNL A   1      27.819  31.479  20.877  1.00  0.00    -0.084 Cl
ENDBRANCH  21  23
ENDBRANCH  14  16
ENDBRANCH   9  14
BRANCH  13  30
ATOM     30  O   UNL A   1      34.797  18.194  24.628  1.00  0.00    -0.507 OA
ATOM     31  H   UNL A   1      34.288  17.408  24.632  1.00  0.00     0.293 HD
ENDBRANCH  13  30
ENDBRANCH   6   8
ENDBRANCH   5   6
ENDBRANCH   4   5
ENDBRANCH   3   4
ENDBRANCH   2   3
ENDBRANCH   1   2
BRANCH   1  32
ATOM     32  C   UNL A   1      42.004  19.782  26.597  1.00  0.00     0.188 C 
BRANCH  32  33
ATOM     33  O   UNL A   1      42.686  19.951  25.376  1.00  0.00    -0.376 OA
BRANCH  33  34
ATOM     34  C   UNL A   1      44.035  20.384  25.359  1.00  0.00     0.202 C 
BRANCH  34  35
ATOM     35  C   UNL A   1      44.488  21.852  25.464  1.00  0.00     0.261 C 
BRANCH  35  36
ATOM     36  O   UNL A   1      43.488  22.836  25.750  1.00  0.00    -0.460 OA
BRANCH  36  37
ATOM     37  C   UNL A   1      43.802  24.104  25.384  1.00  0.00     0.338 C 
ATOM     38  O   UNL A   1      44.432  24.461  24.405  1.00  0.00    -0.246 OA
BRANCH  37  39
ATOM     39  C   UNL A   1      43.104  25.050  26.275  1.00  0.00     0.060 A 
ATOM     40  C   UNL A   1      43.578  26.366  26.366  1.00  0.00     0.016 A 
ATOM     41  C   UNL A   1      42.028  24.626  27.054  1.00  0.00     0.016 A 
ATOM     42  C   UNL A   1      42.986  27.262  27.255  1.00  0.00     0.010 A 
ATOM     43  C   UNL A   1      41.453  25.518  27.962  1.00  0.00     0.010 A 
ATOM     44  C   UNL A   1      41.948  26.829  28.089  1.00  0.00    -0.014 A 
BRANCH  44  45
ATOM     45  C   UNL A   1      41.510  27.684  29.218  1.00  0.00     0.031 A 
ATOM     46  C   UNL A   1      42.266  27.599  30.516  1.00  0.00     0.074 A 
ATOM     47  C   UNL A   1      40.473  28.528  29.095  1.00  0.00     0.049 A 
ATOM     48  N   UNL A   1      42.032  28.193  31.659  1.00  0.00    -0.248 NA
ATOM     49  C   UNL A   1      43.444  26.717  30.525  1.00  0.00     0.031 C 
ATOM     50  C   UNL A   1      39.691  28.736  27.879  1.00  0.00     0.029 A 
ATOM     51  N   UNL A   1      39.892  29.364  30.017  1.00  0.00    -0.354 N 
ATOM     52  C   UNL A   1      43.026  27.749  32.522  1.00  0.00     0.074 A 
ATOM     53  C   UNL A   1      43.843  26.811  31.785  1.00  0.00     0.031 C 
ATOM     54  C   UNL A   1      38.722  29.633  28.133  1.00  0.00     0.029 A 
ATOM     55  C   UNL A   1      38.794  30.034  29.537  1.00  0.00     0.049 A 
ATOM     56  H   UNL A   1      40.231  29.472  30.936  1.00  0.00     0.167 HD
ATOM     57  C   UNL A   1      43.242  28.102  33.811  1.00  0.00     0.037 A 
ATOM     58  C   UNL A   1      37.933  30.854  30.170  1.00  0.00     0.037 A 
ATOM     59  C   UNL A   1      42.426  29.036  34.541  1.00  0.00     0.049 A 
ATOM     60  C   UNL A   1      38.146  31.165  31.632  1.00  0.00     0.074 A 
ATOM     61  C   UNL A   1      42.574  29.474  35.846  1.00  0.00     0.029 A 
ATOM     62  N   UNL A   1      41.301  29.669  34.032  1.00  0.00    -0.354 N 
ATOM     63  N   UNL A   1      39.101  30.768  32.437  1.00  0.00    -0.248 NA
ATOM     64  C   UNL A   1      37.158  32.045  32.273  1.00  0.00     0.031 C 
ATOM     65  C   UNL A   1      41.500  30.319  36.147  1.00  0.00     0.029 A 
ATOM     66  C   UNL A   1      40.725  30.467  35.008  1.00  0.00     0.049 A 
ATOM     67  H   UNL A   1      40.962  29.566  33.114  1.00  0.00     0.167 HD
ATOM     68  C   UNL A   1      38.850  31.373  33.662  1.00  0.00     0.074 A 
ATOM     69  C   UNL A   1      37.659  32.178  33.493  1.00  0.00     0.031 C 
ATOM     70  C   UNL A   1      39.544  31.273  34.823  1.00  0.00     0.037 A 
BRANCH  57  71
ATOM     71  C   UNL A   1      44.388  27.447  34.526  1.00  0.00     0.064 A 
ATOM     72  C   UNL A   1      45.668  28.023  34.563  1.00  0.00     0.173 A 
ATOM     73  C   UNL A   1      44.195  26.238  35.213  1.00  0.00     0.173 A 
ATOM     74  F   UNL A   1      45.910  29.172  33.914  1.00  0.00    -0.203 F 
ATOM     75  C   UNL A   1      46.717  27.397  35.232  1.00  0.00     0.198 A 
ATOM     76  C   UNL A   1      45.239  25.634  35.910  1.00  0.00     0.198 A 
ATOM     77  F   UNL A   1      42.992  25.644  35.215  1.00  0.00    -0.203 F 
ATOM     78  F   UNL A   1      47.942  27.940  35.208  1.00  0.00    -0.200 F 
ATOM     79  C   UNL A   1      46.499  26.209  35.912  1.00  0.00     0.200 A 
ATOM     80  F   UNL A   1      45.022  24.493  36.580  1.00  0.00    -0.200 F 
ATOM     81  F   UNL A   1      47.508  25.613  36.563  1.00  0.00    -0.200 F 
ENDBRANCH  57  71
BRANCH  58  82
ATOM     82  C   UNL A   1      36.775  31.430  29.436  1.00  0.00     0.064 A 
ATOM     83  C   UNL A   1      35.685  30.633  29.061  1.00  0.00     0.173 A 
ATOM     84  C   UNL A   1      36.749  32.784  29.066  1.00  0.00     0.173 A 
ATOM     85  F   UNL A   1      35.673  29.327  29.366  1.00  0.00    -0.203 F 
ATOM     86  C   UNL A   1      34.627  31.161  28.322  1.00  0.00     0.198 A 
ATOM     87  C   UNL A   1      35.675  33.317  28.357  1.00  0.00     0.198 A 
ATOM     88  F   UNL A   1      37.769  33.591  29.395  1.00  0.00    -0.203 F 
ATOM     89  F   UNL A   1      33.626  30.362  27.927  1.00  0.00    -0.200 F 
ATOM     90  C   UNL A   1      34.620  32.503  27.978  1.00  0.00     0.200 A 
ATOM     91  F   UNL A   1      35.667  34.619  28.035  1.00  0.00    -0.200 F 
ATOM     92  F   UNL A   1      33.602  33.009  27.267  1.00  0.00    -0.200 F 
ENDBRANCH  58  82
BRANCH  70  93
ATOM     93  C   UNL A   1      39.068  32.089  35.994  1.00  0.00     0.064 A 
ATOM     94  C   UNL A   1      38.216  31.556  36.973  1.00  0.00     0.173 A 
ATOM     95  C   UNL A   1      39.511  33.410  36.162  1.00  0.00     0.173 A 
ATOM     96  F   UNL A   1      37.753  30.302  36.856  1.00  0.00    -0.203 F 
ATOM     97  C   UNL A   1      37.805  32.323  38.060  1.00  0.00     0.198 A 
ATOM     98  C   UNL A   1      39.127  34.163  37.269  1.00  0.00     0.198 A 
ATOM     99  F   UNL A   1      40.334  33.968  35.261  1.00  0.00    -0.203 F 
ATOM    100  F   UNL A   1      36.950  31.810  38.955  1.00  0.00    -0.200 F 
ATOM    101  C   UNL A   1      38.268  33.623  38.212  1.00  0.00     0.200 A 
ATOM    102  F   UNL A   1      39.592  35.410  37.423  1.00  0.00    -0.200 F 
ATOM    103  F   UNL A   1      37.880  34.355  39.265  1.00  0.00    -0.200 F 
ENDBRANCH  70  93
ENDBRANCH  44  45
ENDBRANCH  37  39
ENDBRANCH  36  37
ENDBRANCH  35  36
ENDBRANCH  34  35
ENDBRANCH  33  34
ENDBRANCH  32  33
ENDBRANCH   1  32
TORSDOF 21
ENDMDL
MODEL 2
REMARK VINA RESULT:     -11.8      0.829      2.042
REMARK SMILES O=C1OC(c2ccc(Cl)cc2)=N/C1=C/Nc1ccc(O)c(C(=O)OCCOCCOCCOC(=O)c2ccc(-c3c4nc(c(-c5c(F)c(F)c(F)c(F)c5F)c5ccc([nH]5)c(-c5c(F)c(F)c(F)c(F)c5F)c5nc(c(-c6c(F)c(F)c(F)c(F)c6F)c6ccc3[nH]6)C=C5)C=C4)cc2)c1
REMARK SMILES IDX 28 1 27 2 26 3 25 4 24 5 22 6 23 7 21 8 16 9 17 10 99 11
REMARK SMILES IDX 18 12 19 13 15 14 14 16 1 17 2 18 3 19 13 20 4 21 12 22 5 23
REMARK SMILES IDX 6 24 11 25 7 26 10 27 8 28 9 29 20 30 29 32 30 33 31 34
REMARK SMILES IDX 32 35 33 36 34 37 35 38 36 39 37 40 98 41 38 42 97 43 39 44
REMARK SMILES IDX 40 45 41 46 91 47 42 48 96 49 90 50 92 51 43 52 95 53 89 54
REMARK SMILES IDX 88 55 44 57 76 58 56 59 75 60 57 61 60 62 74 63 93 64 58 65
REMARK SMILES IDX 59 66 73 68 94 69 61 70 45 71 46 72 54 73 47 74 48 75 52 76
REMARK SMILES IDX 55 77 49 78 50 79 53 80 51 81 77 82 78 83 86 84 79 85 80 86
REMARK SMILES IDX 84 87 87 88 81 89 82 90 85 91 83 92 62 93 63 94 71 95 64 96
REMARK SMILES IDX 65 97 69 98 72 99 66 100 67 101 70 102 68 103
REMARK H PARENT 15 15 20 31 92 56 60 67
REMARK Flexibility Score: inf
ROOT
ATOM      1  C   UNL A   1      40.766  20.824  26.999  1.00  0.00     0.188 C 
ENDROOT
BRANCH   1   2
ATOM      2  O   UNL A   1      39.671  21.094  26.153  1.00  0.00    -0.376 OA
BRANCH   2   3
ATOM      3  C   UNL A   1      39.079  22.384  26.128  1.00  0.00     0.202 C 
BRANCH   3   4
ATOM      4  C   UNL A   1      37.578  22.651  25.926  1.00  0.00     0.261 C 
BRANCH   4   5
ATOM      5  O   UNL A   1      36.996  22.141  24.724  1.00  0.00    -0.460 OA
BRANCH   5   6
ATOM      6  C   UNL A   1      36.345  20.956  24.840  1.00  0.00     0.342 C 
ATOM      7  O   UNL A   1      36.858  19.859  25.001  1.00  0.00    -0.246 OA
BRANCH   6   8
ATOM      8  C   UNL A   1      34.891  21.176  25.001  1.00  0.00     0.103 A 
ATOM      9  C   UNL A   1      33.116  22.798  25.413  1.00  0.00     0.039 A 
ATOM     10  C   UNL A   1      32.191  21.747  25.388  1.00  0.00     0.030 A 
ATOM     11  C   UNL A   1      34.468  22.501  25.224  1.00  0.00     0.045 A 
ATOM     12  C   UNL A   1      32.595  20.436  25.121  1.00  0.00     0.049 A 
ATOM     13  C   UNL A   1      33.946  20.151  24.925  1.00  0.00     0.130 A 
BRANCH   9  14
ATOM     14  N   UNL A   1      32.720  24.109  25.709  1.00  0.00    -0.360 N 
ATOM     15  H   UNL A   1      33.160  24.559  26.467  1.00  0.00     0.166 HD
BRANCH  14  16
ATOM     16  C   UNL A   1      31.761  24.809  25.019  1.00  0.00     0.119 C 
ATOM     17  O   UNL A   1      33.852  26.925  25.534  1.00  0.00    -0.244 OA
ATOM     18  C   UNL A   1      32.781  27.094  24.979  1.00  0.00     0.365 C 
ATOM     19  O   UNL A   1      32.279  28.249  24.456  1.00  0.00    -0.402 OA
ATOM     20  C   UNL A   1      31.701  26.110  24.710  1.00  0.00     0.168 C 
ATOM     21  C   UNL A   1      31.044  27.941  23.995  1.00  0.00     0.231 C 
ATOM     22  N   UNL A   1      30.635  26.721  24.107  1.00  0.00    -0.204 NA
BRANCH  21  23
ATOM     23  C   UNL A   1      30.276  29.068  23.472  1.00  0.00     0.037 A 
ATOM     24  C   UNL A   1      30.067  30.209  24.251  1.00  0.00     0.015 A 
ATOM     25  C   UNL A   1      29.794  29.001  22.160  1.00  0.00     0.015 A 
ATOM     26  C   UNL A   1      29.373  31.294  23.706  1.00  0.00     0.021 A 
ATOM     27  C   UNL A   1      29.084  30.079  21.627  1.00  0.00     0.021 A 
ATOM     28  C   UNL A   1      28.883  31.222  22.400  1.00  0.00     0.041 A 
ATOM     29  Cl  UNL A   1      28.028  32.559  21.735  1.00  0.00    -0.084 Cl
ENDBRANCH  21  23
ENDBRANCH  14  16
ENDBRANCH   9  14
BRANCH  13  30
ATOM     30  O   UNL A   1      34.329  18.866  24.677  1.00  0.00    -0.507 OA
ATOM     31  H   UNL A   1      34.867  18.671  23.935  1.00  0.00     0.293 HD
ENDBRANCH  13  30
ENDBRANCH   6   8
ENDBRANCH   5   6
ENDBRANCH   4   5
ENDBRANCH   3   4
ENDBRANCH   2   3
ENDBRANCH   1   2
BRANCH   1  32
ATOM     32  C   UNL A   1      41.755  19.698  26.630  1.00  0.00     0.188 C 
BRANCH  32  33
ATOM     33  O   UNL A   1      42.390  19.688  25.372  1.00  0.00    -0.376 OA
BRANCH  33  34
ATOM     34  C   UNL A   1      43.796  19.824  25.275  1.00  0.00     0.202 C 
BRANCH  34  35
ATOM     35  C   UNL A   1      44.557  21.162  25.343  1.00  0.00     0.261 C 
BRANCH  35  36
ATOM     36  O   UNL A   1      43.942  22.238  26.060  1.00  0.00    -0.460 OA
BRANCH  36  37
ATOM     37  C   UNL A   1      43.932  23.431  25.417  1.00  0.00     0.338 C 
ATOM     38  O   UNL A   1      44.273  23.660  24.270  1.00  0.00    -0.246 OA
BRANCH  37  39
ATOM     39  C   UNL A   1      43.263  24.433  26.267  1.00  0.00     0.060 A 
ATOM     40  C   UNL A   1      43.757  25.746  26.281  1.00  0.00     0.016 A 
ATOM     41  C   UNL A   1      42.194  24.068  27.084  1.00  0.00     0.016 A 
ATOM     42  C   UNL A   1      43.194  26.696  27.130  1.00  0.00     0.010 A 
ATOM     43  C   UNL A   1      41.647  25.015  27.954  1.00  0.00     0.010 A 
ATOM     44  C   UNL A   1      42.164  26.323  28.003  1.00  0.00    -0.014 A 
BRANCH  44  45
ATOM     45  C   UNL A   1      41.757  27.242  29.092  1.00  0.00     0.031 A 
ATOM     46  C   UNL A   1      42.539  27.221  30.377  1.00  0.00     0.074 A 
ATOM     47  C   UNL A   1      40.725  28.090  28.944  1.00  0.00     0.049 A 
ATOM     48  N   UNL A   1      42.335  27.878  31.490  1.00  0.00    -0.248 NA
ATOM     49  C   UNL A   1      43.709  26.329  30.411  1.00  0.00     0.031 C 
ATOM     50  C   UNL A   1      39.920  28.239  27.735  1.00  0.00     0.029 A 
ATOM     51  N   UNL A   1      40.171  28.980  29.831  1.00  0.00    -0.354 N 
ATOM     52  C   UNL A   1      43.342  27.472  32.356  1.00  0.00     0.074 A 
ATOM     53  C   UNL A   1      44.135  26.487  31.655  1.00  0.00     0.031 C 
ATOM     54  C   UNL A   1      38.965  29.158  27.959  1.00  0.00     0.029 A 
ATOM     55  C   UNL A   1      39.070  29.635  29.337  1.00  0.00     0.049 A 
ATOM     56  H   UNL A   1      40.531  29.134  30.735  1.00  0.00     0.167 HD
ATOM     57  C   UNL A   1      43.588  27.893  33.620  1.00  0.00     0.037 A 
ATOM     58  C   UNL A   1      38.230  30.496  29.942  1.00  0.00     0.037 A 
ATOM     59  C   UNL A   1      42.796  28.874  34.314  1.00  0.00     0.049 A 
ATOM     60  C   UNL A   1      38.476  30.885  31.380  1.00  0.00     0.074 A 
ATOM     61  C   UNL A   1      42.975  29.381  35.589  1.00  0.00     0.029 A 
ATOM     62  N   UNL A   1      41.666  29.489  33.794  1.00  0.00    -0.354 N 
ATOM     63  N   UNL A   1      39.444  30.522  32.186  1.00  0.00    -0.248 NA
ATOM     64  C   UNL A   1      37.509  31.809  31.991  1.00  0.00     0.031 C 
ATOM     65  C   UNL A   1      41.916  30.251  35.866  1.00  0.00     0.029 A 
ATOM     66  C   UNL A   1      41.118  30.345  34.736  1.00  0.00     0.049 A 
ATOM     67  H   UNL A   1      41.308  29.340  32.889  1.00  0.00     0.167 HD
ATOM     68  C   UNL A   1      39.224  31.195  33.381  1.00  0.00     0.074 A 
ATOM     69  C   UNL A   1      38.037  32.002  33.192  1.00  0.00     0.031 C 
ATOM     70  C   UNL A   1      39.942  31.152  34.531  1.00  0.00     0.037 A 
BRANCH  57  71
ATOM     71  C   UNL A   1      44.743  27.266  34.346  1.00  0.00     0.064 A 
ATOM     72  C   UNL A   1      44.596  26.095  35.105  1.00  0.00     0.173 A 
ATOM     73  C   UNL A   1      46.026  27.830  34.255  1.00  0.00     0.173 A 
ATOM     74  F   UNL A   1      43.390  25.522  35.235  1.00  0.00    -0.203 F 
ATOM     75  C   UNL A   1      45.681  25.532  35.771  1.00  0.00     0.198 A 
ATOM     76  C   UNL A   1      47.115  27.243  34.893  1.00  0.00     0.198 A 
ATOM     77  F   UNL A   1      46.225  28.947  33.539  1.00  0.00    -0.203 F 
ATOM     78  F   UNL A   1      45.506  24.443  36.533  1.00  0.00    -0.200 F 
ATOM     79  C   UNL A   1      46.941  26.101  35.658  1.00  0.00     0.200 A 
ATOM     80  F   UNL A   1      48.334  27.786  34.769  1.00  0.00    -0.200 F 
ATOM     81  F   UNL A   1      47.986  25.550  36.292  1.00  0.00    -0.200 F 
ENDBRANCH  57  71
BRANCH  58  82
ATOM     82  C   UNL A   1      37.062  31.044  29.201  1.00  0.00     0.064 A 
ATOM     83  C   UNL A   1      37.034  32.379  28.775  1.00  0.00     0.173 A 
ATOM     84  C   UNL A   1      35.934  30.251  28.933  1.00  0.00     0.173 A 
ATOM     85  F   UNL A   1      38.075  33.186  29.031  1.00  0.00    -0.203 F 
ATOM     86  C   UNL A   1      35.916  32.907  28.132  1.00  0.00     0.198 A 
ATOM     87  C   UNL A   1      34.831  30.772  28.261  1.00  0.00     0.198 A 
ATOM     88  F   UNL A   1      35.905  28.969  29.324  1.00  0.00    -0.203 F 
ATOM     89  F   UNL A   1      35.895  34.201  27.787  1.00  0.00    -0.200 F 
ATOM     90  C   UNL A   1      34.819  32.101  27.869  1.00  0.00     0.200 A 
ATOM     91  F   UNL A   1      33.776  29.987  27.999  1.00  0.00    -0.200 F 
ATOM     92  F   UNL A   1      33.743  32.611  27.252  1.00  0.00    -0.200 F 
ENDBRANCH  58  82
BRANCH  70  93
ATOM     93  C   UNL A   1      39.497  32.036  35.666  1.00  0.00     0.064 A 
ATOM     94  C   UNL A   1      39.978  33.345  35.819  1.00  0.00     0.173 A 
ATOM     95  C   UNL A   1      38.539  31.579  36.584  1.00  0.00     0.173 A 
ATOM     96  F   UNL A   1      40.904  33.827  34.976  1.00  0.00    -0.203 F 
ATOM     97  C   UNL A   1      39.536  34.152  36.864  1.00  0.00     0.198 A 
ATOM     98  C   UNL A   1      38.073  32.401  37.606  1.00  0.00     0.198 A 
ATOM     99  F   UNL A   1      38.039  30.339  36.480  1.00  0.00    -0.203 F 
ATOM    100  F   UNL A   1      40.048  35.380  37.022  1.00  0.00    -0.200 F 
ATOM    101  C   UNL A   1      38.578  33.683  37.752  1.00  0.00     0.200 A 
ATOM    102  F   UNL A   1      37.132  31.953  38.449  1.00  0.00    -0.200 F 
ATOM    103  F   UNL A   1      38.146  34.466  38.749  1.00  0.00    -0.200 F 
ENDBRANCH  70  93
ENDBRANCH  44  45
ENDBRANCH  37  39
ENDBRANCH  36  37
ENDBRANCH  35  36
ENDBRANCH  34  35
ENDBRANCH  33  34
ENDBRANCH  32  33
ENDBRANCH   1  32
TORSDOF 21
ENDMDL
MODEL 3
REMARK VINA RESULT:     -11.8      5.058     10.120
REMARK SMILES O=C1OC(c2ccc(Cl)cc2)=N/C1=C/Nc1ccc(O)c(C(=O)OCCOCCOCCOC(=O)c2ccc(-c3c4nc(c(-c5c(F)c(F)c(F)c(F)c5F)c5ccc([nH]5)c(-c5c(F)c(F)c(F)c(F)c5F)c5nc(c(-c6c(F)c(F)c(F)c(F)c6F)c6ccc3[nH]6)C=C5)C=C4)cc2)c1
REMARK SMILES IDX 28 1 27 2 26 3 25 4 24 5 22 6 23 7 21 8 16 9 17 10 99 11
REMARK SMILES IDX 18 12 19 13 15 14 14 16 1 17 2 18 3 19 13 20 4 21 12 22 5 23
REMARK SMILES IDX 6 24 11 25 7 26 10 27 8 28 9 29 20 30 29 32 30 33 31 34
REMARK SMILES IDX 32 35 33 36 34 37 35 38 36 39 37 40 98 41 38 42 97 43 39 44
REMARK SMILES IDX 40 45 41 46 91 47 42 48 96 49 90 50 92 51 43 52 95 53 89 54
REMARK SMILES IDX 88 55 44 57 76 58 56 59 75 60 57 61 60 62 74 63 93 64 58 65
REMARK SMILES IDX 59 66 73 68 94 69 61 70 45 71 46 72 54 73 47 74 48 75 52 76
REMARK SMILES IDX 55 77 49 78 50 79 53 80 51 81 77 82 78 83 86 84 79 85 80 86
REMARK SMILES IDX 84 87 87 88 81 89 82 90 85 91 83 92 62 93 63 94 71 95 64 96
REMARK SMILES IDX 65 97 69 98 72 99 66 100 67 101 70 102 68 103
REMARK H PARENT 15 15 20 31 92 56 60 67
REMARK Flexibility Score: inf
ROOT
ATOM      1  C   UNL A   1      35.511  22.190  24.254  1.00  0.00     0.188 C 
ENDROOT
BRANCH   1   2
ATOM      2  O   UNL A   1      34.223  22.662  24.582  1.00  0.00    -0.376 OA
BRANCH   2   3
ATOM      3  C   UNL A   1      34.059  23.736  25.495  1.00  0.00     0.202 C 
BRANCH   3   4
ATOM      4  C   UNL A   1      32.833  23.929  26.404  1.00  0.00     0.261 C 
BRANCH   4   5
ATOM      5  O   UNL A   1      32.279  25.246  26.453  1.00  0.00    -0.460 OA
BRANCH   5   6
ATOM      6  C   UNL A   1      30.966  25.346  26.124  1.00  0.00     0.342 C 
ATOM      7  O   UNL A   1      30.046  24.700  26.603  1.00  0.00    -0.246 OA
BRANCH   6   8
ATOM      8  C   UNL A   1      30.733  26.533  25.272  1.00  0.00     0.103 A 
ATOM      9  C   UNL A   1      31.191  28.903  24.923  1.00  0.00     0.039 A 
ATOM     10  C   UNL A   1      30.347  28.872  23.807  1.00  0.00     0.030 A 
ATOM     11  C   UNL A   1      31.375  27.727  25.654  1.00  0.00     0.045 A 
ATOM     12  C   UNL A   1      29.743  27.681  23.392  1.00  0.00     0.049 A 
ATOM     13  C   UNL A   1      29.939  26.511  24.124  1.00  0.00     0.130 A 
BRANCH   9  14
ATOM     14  N   UNL A   1      31.775  30.100  25.360  1.00  0.00    -0.360 N 
ATOM     15  H   UNL A   1      31.379  30.944  25.044  1.00  0.00     0.166 HD
BRANCH  14  16
ATOM     16  C   UNL A   1      32.863  30.178  26.196  1.00  0.00     0.119 C 
ATOM     17  O   UNL A   1      31.428  32.773  26.766  1.00  0.00    -0.244 OA
ATOM     18  C   UNL A   1      32.487  32.415  27.251  1.00  0.00     0.365 C 
ATOM     19  O   UNL A   1      33.260  33.078  28.160  1.00  0.00    -0.402 OA
ATOM     20  C   UNL A   1      33.256  31.169  27.004  1.00  0.00     0.168 C 
ATOM     21  C   UNL A   1      34.352  32.301  28.351  1.00  0.00     0.231 C 
ATOM     22  N   UNL A   1      34.426  31.179  27.717  1.00  0.00    -0.204 NA
BRANCH  21  23
ATOM     23  C   UNL A   1      35.374  32.871  29.226  1.00  0.00     0.037 A 
ATOM     24  C   UNL A   1      35.088  33.153  30.564  1.00  0.00     0.015 A 
ATOM     25  C   UNL A   1      36.657  33.083  28.709  1.00  0.00     0.015 A 
ATOM     26  C   UNL A   1      36.101  33.648  31.392  1.00  0.00     0.021 A 
ATOM     27  C   UNL A   1      37.659  33.596  29.534  1.00  0.00     0.021 A 
ATOM     28  C   UNL A   1      37.378  33.870  30.873  1.00  0.00     0.041 A 
ATOM     29  Cl  UNL A   1      38.620  34.481  31.896  1.00  0.00    -0.084 Cl
ENDBRANCH  21  23
ENDBRANCH  14  16
ENDBRANCH   9  14
BRANCH  13  30
ATOM     30  O   UNL A   1      29.335  25.358  23.715  1.00  0.00    -0.507 OA
ATOM     31  H   UNL A   1      28.673  24.961  24.247  1.00  0.00     0.293 HD
ENDBRANCH  13  30
ENDBRANCH   6   8
ENDBRANCH   5   6
ENDBRANCH   4   5
ENDBRANCH   3   4
ENDBRANCH   2   3
ENDBRANCH   1   2
BRANCH   1  32
ATOM     32  C   UNL A   1      36.495  21.814  25.382  1.00  0.00     0.188 C 
BRANCH  32  33
ATOM     33  O   UNL A   1      37.624  22.617  25.640  1.00  0.00    -0.376 OA
BRANCH  33  34
ATOM     34  C   UNL A   1      38.823  22.038  26.123  1.00  0.00     0.202 C 
BRANCH  34  35
ATOM     35  C   UNL A   1      39.332  20.633  25.750  1.00  0.00     0.261 C 
BRANCH  35  36
ATOM     36  O   UNL A   1      40.143  19.946  26.710  1.00  0.00    -0.460 OA
BRANCH  36  37
ATOM     37  C   UNL A   1      41.424  19.716  26.328  1.00  0.00     0.338 C 
ATOM     38  O   UNL A   1      41.863  18.737  25.751  1.00  0.00    -0.246 OA
BRANCH  37  39
ATOM     39  C   UNL A   1      42.223  20.933  26.560  1.00  0.00     0.060 A 
ATOM     40  C   UNL A   1      42.390  21.392  27.874  1.00  0.00     0.016 A 
ATOM     41  C   UNL A   1      42.756  21.644  25.486  1.00  0.00     0.016 A 
ATOM     42  C   UNL A   1      43.076  22.579  28.119  1.00  0.00     0.010 A 
ATOM     43  C   UNL A   1      43.422  22.848  25.731  1.00  0.00     0.010 A 
ATOM     44  C   UNL A   1      43.559  23.336  27.044  1.00  0.00    -0.014 A 
BRANCH  44  45
ATOM     45  C   UNL A   1      44.034  24.720  27.277  1.00  0.00     0.031 A 
ATOM     46  C   UNL A   1      43.040  25.753  27.732  1.00  0.00     0.074 A 
ATOM     47  C   UNL A   1      45.324  25.055  27.102  1.00  0.00     0.049 A 
ATOM     48  N   UNL A   1      43.202  27.036  27.935  1.00  0.00    -0.248 NA
ATOM     49  C   UNL A   1      41.673  25.271  27.988  1.00  0.00     0.031 C 
ATOM     50  C   UNL A   1      46.390  24.138  26.709  1.00  0.00     0.029 A 
ATOM     51  N   UNL A   1      45.951  26.272  27.223  1.00  0.00    -0.354 N 
ATOM     52  C   UNL A   1      41.959  27.512  28.331  1.00  0.00     0.074 A 
ATOM     53  C   UNL A   1      41.045  26.392  28.306  1.00  0.00     0.031 C 
ATOM     54  C   UNL A   1      47.541  24.827  26.610  1.00  0.00     0.029 A 
ATOM     55  C   UNL A   1      47.283  26.238  26.896  1.00  0.00     0.049 A 
ATOM     56  H   UNL A   1      45.488  27.090  27.518  1.00  0.00     0.167 HD
ATOM     57  C   UNL A   1      41.615  28.771  28.693  1.00  0.00     0.037 A 
ATOM     58  C   UNL A   1      48.181  27.238  26.811  1.00  0.00     0.037 A 
ATOM     59  C   UNL A   1      42.528  29.884  28.716  1.00  0.00     0.049 A 
ATOM     60  C   UNL A   1      47.752  28.648  27.137  1.00  0.00     0.074 A 
ATOM     61  C   UNL A   1      42.280  31.194  29.086  1.00  0.00     0.029 A 
ATOM     62  N   UNL A   1      43.863  29.818  28.344  1.00  0.00    -0.354 N 
ATOM     63  N   UNL A   1      46.585  29.091  27.538  1.00  0.00    -0.248 NA
ATOM     64  C   UNL A   1      48.771  29.699  27.000  1.00  0.00     0.031 C 
ATOM     65  C   UNL A   1      43.447  31.936  28.873  1.00  0.00     0.029 A 
ATOM     66  C   UNL A   1      44.443  31.073  28.442  1.00  0.00     0.049 A 
ATOM     67  H   UNL A   1      44.329  29.002  28.053  1.00  0.00     0.167 HD
ATOM     68  C   UNL A   1      46.737  30.458  27.734  1.00  0.00     0.074 A 
ATOM     69  C   UNL A   1      48.115  30.772  27.421  1.00  0.00     0.031 C 
ATOM     70  C   UNL A   1      45.820  31.371  28.138  1.00  0.00     0.037 A 
BRANCH  57  71
ATOM     71  C   UNL A   1      40.180  29.019  29.060  1.00  0.00     0.064 A 
ATOM     72  C   UNL A   1      39.742  29.009  30.394  1.00  0.00     0.173 A 
ATOM     73  C   UNL A   1      39.234  29.302  28.062  1.00  0.00     0.173 A 
ATOM     74  F   UNL A   1      40.602  28.733  31.385  1.00  0.00    -0.203 F 
ATOM     75  C   UNL A   1      38.406  29.241  30.711  1.00  0.00     0.198 A 
ATOM     76  C   UNL A   1      37.906  29.568  28.387  1.00  0.00     0.198 A 
ATOM     77  F   UNL A   1      39.597  29.328  26.771  1.00  0.00    -0.203 F 
ATOM     78  F   UNL A   1      38.001  29.174  31.986  1.00  0.00    -0.200 F 
ATOM     79  C   UNL A   1      37.491  29.529  29.709  1.00  0.00     0.200 A 
ATOM     80  F   UNL A   1      37.028  29.862  27.418  1.00  0.00    -0.200 F 
ATOM     81  F   UNL A   1      36.208  29.762  30.017  1.00  0.00    -0.200 F 
ENDBRANCH  57  71
BRANCH  58  82
ATOM     82  C   UNL A   1      49.577  26.954  26.382  1.00  0.00     0.064 A 
ATOM     83  C   UNL A   1      49.949  27.022  25.032  1.00  0.00     0.173 A 
ATOM     84  C   UNL A   1      50.560  26.575  27.310  1.00  0.00     0.173 A 
ATOM     85  F   UNL A   1      49.041  27.353  24.102  1.00  0.00    -0.203 F 
ATOM     86  C   UNL A   1      51.242  26.700  24.624  1.00  0.00     0.198 A 
ATOM     87  C   UNL A   1      51.861  26.285  26.904  1.00  0.00     0.198 A 
ATOM     88  F   UNL A   1      50.257  26.488  28.613  1.00  0.00    -0.203 F 
ATOM     89  F   UNL A   1      51.554  26.718  23.321  1.00  0.00    -0.200 F 
ATOM     90  C   UNL A   1      52.198  26.339  25.561  1.00  0.00     0.200 A 
ATOM     91  F   UNL A   1      52.785  25.947  27.814  1.00  0.00    -0.200 F 
ATOM     92  F   UNL A   1      53.441  26.027  25.167  1.00  0.00    -0.200 F 
ENDBRANCH  58  82
BRANCH  70  93
ATOM     93  C   UNL A   1      46.280  32.793  28.316  1.00  0.00     0.064 A 
ATOM     94  C   UNL A   1      46.837  33.248  29.520  1.00  0.00     0.173 A 
ATOM     95  C   UNL A   1      46.206  33.699  27.246  1.00  0.00     0.173 A 
ATOM     96  F   UNL A   1      46.922  32.427  30.578  1.00  0.00    -0.203 F 
ATOM     97  C   UNL A   1      47.277  34.562  29.655  1.00  0.00     0.198 A 
ATOM     98  C   UNL A   1      46.679  35.002  27.373  1.00  0.00     0.198 A 
ATOM     99  F   UNL A   1      45.690  33.316  26.069  1.00  0.00    -0.203 F 
ATOM    100  F   UNL A   1      47.757  34.990  30.830  1.00  0.00    -0.200 F 
ATOM    101  C   UNL A   1      47.205  35.436  28.579  1.00  0.00     0.200 A 
ATOM    102  F   UNL A   1      46.627  35.837  26.326  1.00  0.00    -0.200 F 
ATOM    103  F   UNL A   1      47.640  36.697  28.707  1.00  0.00    -0.200 F 
ENDBRANCH  70  93
ENDBRANCH  44  45
ENDBRANCH  37  39
ENDBRANCH  36  37
ENDBRANCH  35  36
ENDBRANCH  34  35
ENDBRANCH  33  34
ENDBRANCH  32  33
ENDBRANCH   1  32
TORSDOF 21
ENDMDL
