MODEL 1
REMARK VINA RESULT:     -10.3      0.000      0.000
REMARK SMILES CCOc1cc(/C=C2/SC(=O)N(c3ccc(C)c(C)c3)C2=O)ccc1O[C@@H](C)C(=O)OCCOCCOCCOC(=O)c1ccc(-c2c3nc(c(-c4c(F)c(F)c(F)c(F)c4F)c4ccc([nH]4)c(-c4c(F)c(F)c(F)c(F)c4F)c4nc(c(-c5c(F)c(F)c(F)c(F)c5F)c5ccc2[nH]5)C=C4)C=C3)cc1
REMARK SMILES IDX 35 1 34 2 33 3 32 4 31 5 29 6 30 7 27 8 28 9 26 10 25 11
REMARK SMILES IDX 4 12 5 13 6 14 24 15 23 16 3 17 2 18 1 19 7 20 8 21 9 22
REMARK SMILES IDX 21 23 10 24 12 25 22 26 11 27 13 28 14 29 20 30 15 31 18 32
REMARK SMILES IDX 16 33 19 34 17 35 36 36 37 37 38 38 39 39 40 40 41 41 42 42
REMARK SMILES IDX 43 43 44 44 105 45 45 46 104 47 46 48 47 49 48 50 98 51
REMARK SMILES IDX 49 52 103 53 97 54 99 55 50 56 102 57 96 58 95 59 51 61
REMARK SMILES IDX 83 62 63 63 82 64 64 65 67 66 81 67 100 68 65 69 66 70 80 72
REMARK SMILES IDX 101 73 68 74 52 75 53 76 61 77 54 78 55 79 59 80 62 81 56 82
REMARK SMILES IDX 57 83 60 84 58 85 84 86 85 87 93 88 86 89 87 90 91 91 94 92
REMARK SMILES IDX 88 93 89 94 92 95 90 96 69 97 70 98 78 99 71 100 72 101
REMARK SMILES IDX 76 102 79 103 73 104 74 105 77 106 75 107
REMARK H PARENT 99 60 67 71
REMARK Flexibility Score: inf
ROOT
ATOM      1  C   UNL A   1      32.178  30.043  26.301  1.00  0.00     0.188 C 
ENDROOT
BRANCH   1   2
ATOM      2  O   UNL A   1      32.715  29.455  25.136  1.00  0.00    -0.376 OA
BRANCH   2   3
ATOM      3  C   UNL A   1      31.861  28.605  24.382  1.00  0.00     0.202 C 
BRANCH   3   4
ATOM      4  C   UNL A   1      32.099  27.087  24.219  1.00  0.00     0.261 C 
BRANCH   4   5
ATOM      5  O   UNL A   1      31.940  26.504  22.917  1.00  0.00    -0.461 OA
BRANCH   5   6
ATOM      6  C   UNL A   1      32.936  25.844  22.260  1.00  0.00     0.347 C 
ATOM      7  O   UNL A   1      33.686  26.384  21.454  1.00  0.00    -0.248 OA
BRANCH   6   8
ATOM      8  C   UNL A   1      33.097  24.363  22.786  1.00  0.00     0.279 C 
ATOM      9  C   UNL A   1      31.973  23.332  22.778  1.00  0.00     0.066 C 
BRANCH   8  10
ATOM     10  O   UNL A   1      33.778  24.108  23.991  1.00  0.00    -0.475 OA
BRANCH  10  11
ATOM     11  C   UNL A   1      34.453  22.949  24.230  1.00  0.00     0.162 A 
ATOM     12  C   UNL A   1      34.232  21.944  25.185  1.00  0.00     0.161 A 
ATOM     13  C   UNL A   1      35.376  21.229  25.610  1.00  0.00     0.058 A 
ATOM     14  C   UNL A   1      36.644  21.446  25.008  1.00  0.00    -0.020 A 
ATOM     15  C   UNL A   1      35.634  22.968  23.479  1.00  0.00     0.051 A 
ATOM     16  C   UNL A   1      36.712  22.184  23.832  1.00  0.00     0.012 A 
BRANCH  12  17
ATOM     17  O   UNL A   1      33.106  21.890  25.982  1.00  0.00    -0.490 OA
BRANCH  17  18
ATOM     18  C   UNL A   1      32.981  22.754  27.125  1.00  0.00     0.226 C 
ATOM     19  C   UNL A   1      31.900  23.835  26.915  1.00  0.00     0.049 C 
ENDBRANCH  17  18
ENDBRANCH  12  17
BRANCH  14  20
ATOM     20  C   UNL A   1      37.934  21.005  25.583  1.00  0.00     0.029 C 
ATOM     21  C   UNL A   1      38.934  21.814  26.011  1.00  0.00     0.083 C 
ATOM     22  S   UNL A   1      40.479  21.184  26.491  1.00  0.00    -0.022 SA
ATOM     23  C   UNL A   1      38.981  23.320  26.142  1.00  0.00     0.272 C 
ATOM     24  C   UNL A   1      41.163  22.777  26.815  1.00  0.00     0.298 C 
ATOM     25  N   UNL A   1      40.211  23.738  26.639  1.00  0.00    -0.236 N 
ATOM     26  O   UNL A   1      38.072  24.065  25.811  1.00  0.00    -0.268 OA
ATOM     27  O   UNL A   1      42.326  22.915  27.189  1.00  0.00    -0.260 OA
BRANCH  25  28
ATOM     28  C   UNL A   1      40.435  25.098  26.999  1.00  0.00     0.053 A 
ATOM     29  C   UNL A   1      39.947  25.559  28.221  1.00  0.00     0.027 A 
ATOM     30  C   UNL A   1      41.112  25.999  26.168  1.00  0.00     0.030 A 
ATOM     31  C   UNL A   1      40.037  26.911  28.563  1.00  0.00     0.006 A 
ATOM     32  C   UNL A   1      41.176  27.379  26.491  1.00  0.00    -0.046 A 
ATOM     33  C   UNL A   1      40.577  27.845  27.677  1.00  0.00    -0.048 A 
ATOM     34  C   UNL A   1      41.861  28.338  25.556  1.00  0.00     0.044 C 
ATOM     35  C   UNL A   1      40.369  29.306  27.987  1.00  0.00     0.044 C 
ENDBRANCH  25  28
ENDBRANCH  14  20
ENDBRANCH  10  11
ENDBRANCH   8  10
ENDBRANCH   6   8
ENDBRANCH   5   6
ENDBRANCH   4   5
ENDBRANCH   3   4
ENDBRANCH   2   3
ENDBRANCH   1   2
BRANCH   1  36
ATOM     36  C   UNL A   1      33.169  30.964  27.039  1.00  0.00     0.188 C 
BRANCH  36  37
ATOM     37  O   UNL A   1      32.748  32.255  27.426  1.00  0.00    -0.376 OA
BRANCH  37  38
ATOM     38  C   UNL A   1      33.768  33.160  27.812  1.00  0.00     0.202 C 
BRANCH  38  39
ATOM     39  C   UNL A   1      33.979  33.442  29.309  1.00  0.00     0.261 C 
BRANCH  39  40
ATOM     40  O   UNL A   1      34.175  32.304  30.167  1.00  0.00    -0.460 OA
BRANCH  40  41
ATOM     41  C   UNL A   1      34.786  32.583  31.351  1.00  0.00     0.338 C 
ATOM     42  O   UNL A   1      34.276  32.960  32.392  1.00  0.00    -0.246 OA
BRANCH  41  43
ATOM     43  C   UNL A   1      36.188  32.127  31.294  1.00  0.00     0.060 A 
ATOM     44  C   UNL A   1      37.069  32.537  32.313  1.00  0.00     0.016 A 
ATOM     45  C   UNL A   1      36.635  31.340  30.238  1.00  0.00     0.016 A 
ATOM     46  C   UNL A   1      38.409  32.179  32.268  1.00  0.00     0.010 A 
ATOM     47  C   UNL A   1      37.993  31.028  30.163  1.00  0.00     0.010 A 
ATOM     48  C   UNL A   1      38.885  31.481  31.154  1.00  0.00    -0.014 A 
BRANCH  48  49
ATOM     49  C   UNL A   1      40.340  31.472  30.898  1.00  0.00     0.031 A 
ATOM     50  C   UNL A   1      40.966  32.740  30.392  1.00  0.00     0.074 A 
ATOM     51  C   UNL A   1      41.085  30.384  31.148  1.00  0.00     0.049 A 
ATOM     52  N   UNL A   1      42.200  32.976  30.035  1.00  0.00    -0.248 NA
ATOM     53  C   UNL A   1      40.069  33.903  30.267  1.00  0.00     0.031 C 
ATOM     54  C   UNL A   1      40.590  29.128  31.704  1.00  0.00     0.029 A 
ATOM     55  N   UNL A   1      42.424  30.168  30.956  1.00  0.00    -0.354 N 
ATOM     56  C   UNL A   1      42.224  34.306  29.633  1.00  0.00     0.074 A 
ATOM     57  C   UNL A   1      40.879  34.816  29.756  1.00  0.00     0.031 C 
ATOM     58  C   UNL A   1      41.613  28.262  31.794  1.00  0.00     0.029 A 
ATOM     59  C   UNL A   1      42.823  28.893  31.270  1.00  0.00     0.049 A 
ATOM     60  H   UNL A   1      43.042  30.860  30.624  1.00  0.00     0.167 HD
ATOM     61  C   UNL A   1      43.282  35.035  29.207  1.00  0.00     0.037 A 
ATOM     62  C   UNL A   1      44.025  28.307  31.121  1.00  0.00     0.037 A 
ATOM     63  C   UNL A   1      44.616  34.511  29.082  1.00  0.00     0.049 A 
ATOM     64  C   UNL A   1      45.168  29.114  30.561  1.00  0.00     0.074 A 
ATOM     65  C   UNL A   1      45.761  35.157  28.660  1.00  0.00     0.029 A 
ATOM     66  N   UNL A   1      44.976  33.202  29.375  1.00  0.00    -0.354 N 
ATOM     67  N   UNL A   1      45.193  30.372  30.187  1.00  0.00    -0.248 NA
ATOM     68  C   UNL A   1      46.455  28.420  30.406  1.00  0.00     0.031 C 
ATOM     69  C   UNL A   1      46.804  34.225  28.637  1.00  0.00     0.029 A 
ATOM     70  C   UNL A   1      46.324  33.015  29.117  1.00  0.00     0.049 A 
ATOM     71  H   UNL A   1      44.364  32.510  29.714  1.00  0.00     0.167 HD
ATOM     72  C   UNL A   1      46.501  30.631  29.794  1.00  0.00     0.074 A 
ATOM     73  C   UNL A   1      47.240  29.400  29.983  1.00  0.00     0.031 C 
ATOM     74  C   UNL A   1      47.043  31.783  29.325  1.00  0.00     0.037 A 
BRANCH  61  75
ATOM     75  C   UNL A   1      43.022  36.460  28.809  1.00  0.00     0.064 A 
ATOM     76  C   UNL A   1      42.371  36.789  27.610  1.00  0.00     0.173 A 
ATOM     77  C   UNL A   1      43.425  37.513  29.645  1.00  0.00     0.173 A 
ATOM     78  F   UNL A   1      41.981  35.823  26.765  1.00  0.00    -0.203 F 
ATOM     79  C   UNL A   1      42.162  38.118  27.249  1.00  0.00     0.198 A 
ATOM     80  C   UNL A   1      43.183  38.839  29.297  1.00  0.00     0.198 A 
ATOM     81  F   UNL A   1      44.053  37.255  30.803  1.00  0.00    -0.203 F 
ATOM     82  F   UNL A   1      41.592  38.409  26.072  1.00  0.00    -0.200 F 
ATOM     83  C   UNL A   1      42.561  39.141  28.096  1.00  0.00     0.200 A 
ATOM     84  F   UNL A   1      43.556  39.825  30.125  1.00  0.00    -0.200 F 
ATOM     85  F   UNL A   1      42.354  40.419  27.750  1.00  0.00    -0.200 F 
ENDBRANCH  61  75
BRANCH  62  86
ATOM     86  C   UNL A   1      44.211  26.883  31.508  1.00  0.00     0.064 A 
ATOM     87  C   UNL A   1      44.588  26.533  32.812  1.00  0.00     0.173 A 
ATOM     88  C   UNL A   1      44.030  25.846  30.581  1.00  0.00     0.173 A 
ATOM     89  F   UNL A   1      44.797  27.489  33.728  1.00  0.00    -0.203 F 
ATOM     90  C   UNL A   1      44.796  25.201  33.168  1.00  0.00     0.198 A 
ATOM     91  C   UNL A   1      44.206  24.513  30.947  1.00  0.00     0.198 A 
ATOM     92  F   UNL A   1      43.670  26.126  29.320  1.00  0.00    -0.203 F 
ATOM     93  F   UNL A   1      45.204  24.899  34.408  1.00  0.00    -0.200 F 
ATOM     94  C   UNL A   1      44.598  24.193  32.238  1.00  0.00     0.200 A 
ATOM     95  F   UNL A   1      44.003  23.540  30.048  1.00  0.00    -0.200 F 
ATOM     96  F   UNL A   1      44.795  22.913  32.583  1.00  0.00    -0.200 F 
ENDBRANCH  62  86
BRANCH  74  97
ATOM     97  C   UNL A   1      48.519  31.787  29.042  1.00  0.00     0.064 A 
ATOM     98  C   UNL A   1      49.034  31.494  27.770  1.00  0.00     0.173 A 
ATOM     99  C   UNL A   1      49.429  32.131  30.054  1.00  0.00     0.173 A 
ATOM    100  F   UNL A   1      48.209  31.149  26.771  1.00  0.00    -0.203 F 
ATOM    101  C   UNL A   1      50.406  31.514  27.532  1.00  0.00     0.198 A 
ATOM    102  C   UNL A   1      50.797  32.187  29.803  1.00  0.00     0.198 A 
ATOM    103  F   UNL A   1      48.990  32.431  31.286  1.00  0.00    -0.203 F 
ATOM    104  F   UNL A   1      50.879  31.175  26.326  1.00  0.00    -0.200 F 
ATOM    105  C   UNL A   1      51.286  31.867  28.545  1.00  0.00     0.200 A 
ATOM    106  F   UNL A   1      51.642  32.547  30.779  1.00  0.00    -0.200 F 
ATOM    107  F   UNL A   1      52.604  31.894  28.311  1.00  0.00    -0.200 F 
ENDBRANCH  74  97
ENDBRANCH  48  49
ENDBRANCH  41  43
ENDBRANCH  40  41
ENDBRANCH  39  40
ENDBRANCH  38  39
ENDBRANCH  37  38
ENDBRANCH  36  37
ENDBRANCH   1  36
TORSDOF 23
ENDMDL
MODEL 2
REMARK VINA RESULT:     -10.3      4.471      7.076
REMARK SMILES CCOc1cc(/C=C2/SC(=O)N(c3ccc(C)c(C)c3)C2=O)ccc1O[C@@H](C)C(=O)OCCOCCOCCOC(=O)c1ccc(-c2c3nc(c(-c4c(F)c(F)c(F)c(F)c4F)c4ccc([nH]4)c(-c4c(F)c(F)c(F)c(F)c4F)c4nc(c(-c5c(F)c(F)c(F)c(F)c5F)c5ccc2[nH]5)C=C4)C=C3)cc1
REMARK SMILES IDX 35 1 34 2 33 3 32 4 31 5 29 6 30 7 27 8 28 9 26 10 25 11
REMARK SMILES IDX 4 12 5 13 6 14 24 15 23 16 3 17 2 18 1 19 7 20 8 21 9 22
REMARK SMILES IDX 21 23 10 24 12 25 22 26 11 27 13 28 14 29 20 30 15 31 18 32
REMARK SMILES IDX 16 33 19 34 17 35 36 36 37 37 38 38 39 39 40 40 41 41 42 42
REMARK SMILES IDX 43 43 44 44 105 45 45 46 104 47 46 48 47 49 48 50 98 51
REMARK SMILES IDX 49 52 103 53 97 54 99 55 50 56 102 57 96 58 95 59 51 61
REMARK SMILES IDX 83 62 63 63 82 64 64 65 67 66 81 67 100 68 65 69 66 70 80 72
REMARK SMILES IDX 101 73 68 74 52 75 53 76 61 77 54 78 55 79 59 80 62 81 56 82
REMARK SMILES IDX 57 83 60 84 58 85 84 86 85 87 93 88 86 89 87 90 91 91 94 92
REMARK SMILES IDX 88 93 89 94 92 95 90 96 69 97 70 98 78 99 71 100 72 101
REMARK SMILES IDX 76 102 79 103 73 104 74 105 77 106 75 107
REMARK H PARENT 99 60 67 71
REMARK Flexibility Score: inf
ROOT
ATOM      1  C   UNL A   1      33.867  29.343  26.508  1.00  0.00     0.188 C 
ENDROOT
BRANCH   1   2
ATOM      2  O   UNL A   1      33.945  28.699  25.255  1.00  0.00    -0.376 OA
BRANCH   2   3
ATOM      3  C   UNL A   1      32.840  28.850  24.375  1.00  0.00     0.202 C 
BRANCH   3   4
ATOM      4  C   UNL A   1      31.917  27.682  23.960  1.00  0.00     0.261 C 
BRANCH   4   5
ATOM      5  O   UNL A   1      32.051  27.139  22.637  1.00  0.00    -0.461 OA
BRANCH   5   6
ATOM      6  C   UNL A   1      33.046  26.283  22.272  1.00  0.00     0.347 C 
ATOM      7  O   UNL A   1      34.029  26.626  21.624  1.00  0.00    -0.248 OA
BRANCH   6   8
ATOM      8  C   UNL A   1      32.851  24.855  22.920  1.00  0.00     0.279 C 
ATOM      9  C   UNL A   1      31.519  24.114  22.958  1.00  0.00     0.066 C 
BRANCH   8  10
ATOM     10  O   UNL A   1      33.438  24.554  24.163  1.00  0.00    -0.475 OA
BRANCH  10  11
ATOM     11  C   UNL A   1      34.087  23.383  24.413  1.00  0.00     0.162 A 
ATOM     12  C   UNL A   1      33.958  22.475  25.476  1.00  0.00     0.161 A 
ATOM     13  C   UNL A   1      35.118  21.735  25.805  1.00  0.00     0.058 A 
ATOM     14  C   UNL A   1      36.297  21.828  25.019  1.00  0.00    -0.020 A 
ATOM     15  C   UNL A   1      35.152  23.273  23.510  1.00  0.00     0.051 A 
ATOM     16  C   UNL A   1      36.233  22.461  23.783  1.00  0.00     0.012 A 
BRANCH  12  17
ATOM     17  O   UNL A   1      32.954  22.550  26.420  1.00  0.00    -0.490 OA
BRANCH  17  18
ATOM     18  C   UNL A   1      31.596  22.234  26.064  1.00  0.00     0.226 C 
ATOM     19  C   UNL A   1      30.612  23.334  26.512  1.00  0.00     0.049 C 
ENDBRANCH  17  18
ENDBRANCH  12  17
BRANCH  14  20
ATOM     20  C   UNL A   1      37.634  21.365  25.451  1.00  0.00     0.029 C 
ATOM     21  C   UNL A   1      38.630  22.146  25.937  1.00  0.00     0.083 C 
ATOM     22  S   UNL A   1      40.222  21.521  26.233  1.00  0.00    -0.022 SA
ATOM     23  C   UNL A   1      38.633  23.618  26.284  1.00  0.00     0.272 C 
ATOM     24  C   UNL A   1      40.869  23.078  26.748  1.00  0.00     0.298 C 
ATOM     25  N   UNL A   1      39.875  24.013  26.769  1.00  0.00    -0.236 N 
ATOM     26  O   UNL A   1      37.680  24.363  26.116  1.00  0.00    -0.268 OA
ATOM     27  O   UNL A   1      42.048  23.210  27.074  1.00  0.00    -0.260 OA
BRANCH  25  28
ATOM     28  C   UNL A   1      40.074  25.314  27.310  1.00  0.00     0.053 A 
ATOM     29  C   UNL A   1      39.616  25.582  28.600  1.00  0.00     0.027 A 
ATOM     30  C   UNL A   1      40.698  26.345  26.596  1.00  0.00     0.030 A 
ATOM     31  C   UNL A   1      39.681  26.875  29.127  1.00  0.00     0.006 A 
ATOM     32  C   UNL A   1      40.734  27.667  27.109  1.00  0.00    -0.046 A 
ATOM     33  C   UNL A   1      40.164  27.942  28.366  1.00  0.00    -0.048 A 
ATOM     34  C   UNL A   1      41.360  28.770  26.300  1.00  0.00     0.044 C 
ATOM     35  C   UNL A   1      39.926  29.337  28.887  1.00  0.00     0.044 C 
ENDBRANCH  25  28
ENDBRANCH  14  20
ENDBRANCH  10  11
ENDBRANCH   8  10
ENDBRANCH   6   8
ENDBRANCH   5   6
ENDBRANCH   4   5
ENDBRANCH   3   4
ENDBRANCH   2   3
ENDBRANCH   1   2
BRANCH   1  36
ATOM     36  C   UNL A   1      35.179  29.283  27.315  1.00  0.00     0.188 C 
BRANCH  36  37
ATOM     37  O   UNL A   1      35.323  30.105  28.454  1.00  0.00    -0.376 OA
BRANCH  37  38
ATOM     38  C   UNL A   1      36.299  29.704  29.399  1.00  0.00     0.202 C 
BRANCH  38  39
ATOM     39  C   UNL A   1      36.365  30.438  30.750  1.00  0.00     0.261 C 
BRANCH  39  40
ATOM     40  O   UNL A   1      36.722  29.654  31.902  1.00  0.00    -0.460 OA
BRANCH  40  41
ATOM     41  C   UNL A   1      37.555  30.278  32.779  1.00  0.00     0.338 C 
ATOM     42  O   UNL A   1      37.260  31.006  33.711  1.00  0.00    -0.246 OA
BRANCH  41  43
ATOM     43  C   UNL A   1      38.924  29.755  32.605  1.00  0.00     0.060 A 
ATOM     44  C   UNL A   1      39.128  28.365  32.694  1.00  0.00     0.016 A 
ATOM     45  C   UNL A   1      39.992  30.621  32.395  1.00  0.00     0.016 A 
ATOM     46  C   UNL A   1      40.406  27.836  32.594  1.00  0.00     0.010 A 
ATOM     47  C   UNL A   1      41.284  30.094  32.351  1.00  0.00     0.010 A 
ATOM     48  C   UNL A   1      41.493  28.708  32.492  1.00  0.00    -0.014 A 
BRANCH  48  49
ATOM     49  C   UNL A   1      42.841  28.195  32.810  1.00  0.00     0.031 A 
ATOM     50  C   UNL A   1      43.715  27.775  31.662  1.00  0.00     0.074 A 
ATOM     51  C   UNL A   1      43.288  28.144  34.074  1.00  0.00     0.049 A 
ATOM     52  N   UNL A   1      44.906  27.238  31.673  1.00  0.00    -0.248 NA
ATOM     53  C   UNL A   1      43.161  27.985  30.313  1.00  0.00     0.031 C 
ATOM     54  C   UNL A   1      42.550  28.591  35.252  1.00  0.00     0.029 A 
ATOM     55  N   UNL A   1      44.479  27.684  34.572  1.00  0.00    -0.354 N 
ATOM     56  C   UNL A   1      45.237  27.037  30.339  1.00  0.00     0.074 A 
ATOM     57  C   UNL A   1      44.111  27.475  29.546  1.00  0.00     0.031 C 
ATOM     58  C   UNL A   1      43.301  28.368  36.344  1.00  0.00     0.029 A 
ATOM     59  C   UNL A   1      44.554  27.731  35.941  1.00  0.00     0.049 A 
ATOM     60  H   UNL A   1      45.211  27.351  34.003  1.00  0.00     0.167 HD
ATOM     61  C   UNL A   1      46.385  26.538  29.825  1.00  0.00     0.037 A 
ATOM     62  C   UNL A   1      45.519  27.284  36.766  1.00  0.00     0.037 A 
ATOM     63  C   UNL A   1      47.496  26.099  30.627  1.00  0.00     0.049 A 
ATOM     64  C   UNL A   1      46.752  26.650  36.173  1.00  0.00     0.074 A 
ATOM     65  C   UNL A   1      48.706  25.575  30.214  1.00  0.00     0.029 A 
ATOM     66  N   UNL A   1      47.522  26.128  32.015  1.00  0.00    -0.354 N 
ATOM     67  N   UNL A   1      47.068  26.466  34.913  1.00  0.00    -0.248 NA
ATOM     68  C   UNL A   1      47.767  26.166  37.119  1.00  0.00     0.031 C 
ATOM     69  C   UNL A   1      49.441  25.229  31.352  1.00  0.00     0.029 A 
ATOM     70  C   UNL A   1      48.719  25.605  32.476  1.00  0.00     0.049 A 
ATOM     71  H   UNL A   1      46.796  26.468  32.587  1.00  0.00     0.167 HD
ATOM     72  C   UNL A   1      48.330  25.885  34.913  1.00  0.00     0.074 A 
ATOM     73  C   UNL A   1      48.724  25.755  36.301  1.00  0.00     0.031 C 
ATOM     74  C   UNL A   1      49.097  25.499  33.863  1.00  0.00     0.037 A 
BRANCH  61  75
ATOM     75  C   UNL A   1      46.472  26.405  28.331  1.00  0.00     0.064 A 
ATOM     76  C   UNL A   1      46.847  27.480  27.510  1.00  0.00     0.173 A 
ATOM     77  C   UNL A   1      46.183  25.179  27.712  1.00  0.00     0.173 A 
ATOM     78  F   UNL A   1      47.118  28.679  28.048  1.00  0.00    -0.203 F 
ATOM     79  C   UNL A   1      46.897  27.341  26.125  1.00  0.00     0.198 A 
ATOM     80  C   UNL A   1      46.268  25.035  26.330  1.00  0.00     0.198 A 
ATOM     81  F   UNL A   1      45.818  24.118  28.449  1.00  0.00    -0.203 F 
ATOM     82  F   UNL A   1      47.200  28.397  25.358  1.00  0.00    -0.200 F 
ATOM     83  C   UNL A   1      46.616  26.117  25.537  1.00  0.00     0.200 A 
ATOM     84  F   UNL A   1      46.009  23.847  25.766  1.00  0.00    -0.200 F 
ATOM     85  F   UNL A   1      46.669  25.983  24.205  1.00  0.00    -0.200 F 
ENDBRANCH  61  75
BRANCH  62  86
ATOM     86  C   UNL A   1      45.360  27.419  38.238  1.00  0.00     0.064 A 
ATOM     87  C   UNL A   1      44.860  26.363  39.011  1.00  0.00     0.173 A 
ATOM     88  C   UNL A   1      45.692  28.611  38.901  1.00  0.00     0.173 A 
ATOM     89  F   UNL A   1      44.507  25.212  38.421  1.00  0.00    -0.203 F 
ATOM     90  C   UNL A   1      44.679  26.499  40.386  1.00  0.00     0.198 A 
ATOM     91  C   UNL A   1      45.540  28.735  40.280  1.00  0.00     0.198 A 
ATOM     92  F   UNL A   1      46.173  29.654  38.209  1.00  0.00    -0.203 F 
ATOM     93  F   UNL A   1      44.152  25.489  41.092  1.00  0.00    -0.200 F 
ATOM     94  C   UNL A   1      45.025  27.682  41.020  1.00  0.00     0.200 A 
ATOM     95  F   UNL A   1      45.887  29.876  40.891  1.00  0.00    -0.200 F 
ATOM     96  F   UNL A   1      44.854  27.809  42.343  1.00  0.00    -0.200 F 
ENDBRANCH  62  86
BRANCH  74  97
ATOM     97  C   UNL A   1      50.465  24.957  34.168  1.00  0.00     0.064 A 
ATOM     98  C   UNL A   1      51.582  25.794  34.310  1.00  0.00     0.173 A 
ATOM     99  C   UNL A   1      50.651  23.579  34.361  1.00  0.00     0.173 A 
ATOM    100  F   UNL A   1      51.463  27.117  34.125  1.00  0.00    -0.203 F 
ATOM    101  C   UNL A   1      52.838  25.268  34.602  1.00  0.00     0.198 A 
ATOM    102  C   UNL A   1      51.899  23.060  34.690  1.00  0.00     0.198 A 
ATOM    103  F   UNL A   1      49.614  22.734  34.247  1.00  0.00    -0.203 F 
ATOM    104  F   UNL A   1      53.901  26.079  34.676  1.00  0.00    -0.200 F 
ATOM    105  C   UNL A   1      52.995  23.903  34.799  1.00  0.00     0.200 A 
ATOM    106  F   UNL A   1      52.043  21.744  34.899  1.00  0.00    -0.200 F 
ATOM    107  F   UNL A   1      54.202  23.401  35.088  1.00  0.00    -0.200 F 
ENDBRANCH  74  97
ENDBRANCH  48  49
ENDBRANCH  41  43
ENDBRANCH  40  41
ENDBRANCH  39  40
ENDBRANCH  38  39
ENDBRANCH  37  38
ENDBRANCH  36  37
ENDBRANCH   1  36
TORSDOF 23
ENDMDL
MODEL 3
REMARK VINA RESULT:     -10.2      4.788      6.981
REMARK SMILES CCOc1cc(/C=C2/SC(=O)N(c3ccc(C)c(C)c3)C2=O)ccc1O[C@@H](C)C(=O)OCCOCCOCCOC(=O)c1ccc(-c2c3nc(c(-c4c(F)c(F)c(F)c(F)c4F)c4ccc([nH]4)c(-c4c(F)c(F)c(F)c(F)c4F)c4nc(c(-c5c(F)c(F)c(F)c(F)c5F)c5ccc2[nH]5)C=C4)C=C3)cc1
REMARK SMILES IDX 35 1 34 2 33 3 32 4 31 5 29 6 30 7 27 8 28 9 26 10 25 11
REMARK SMILES IDX 4 12 5 13 6 14 24 15 23 16 3 17 2 18 1 19 7 20 8 21 9 22
REMARK SMILES IDX 21 23 10 24 12 25 22 26 11 27 13 28 14 29 20 30 15 31 18 32
REMARK SMILES IDX 16 33 19 34 17 35 36 36 37 37 38 38 39 39 40 40 41 41 42 42
REMARK SMILES IDX 43 43 44 44 105 45 45 46 104 47 46 48 47 49 48 50 98 51
REMARK SMILES IDX 49 52 103 53 97 54 99 55 50 56 102 57 96 58 95 59 51 61
REMARK SMILES IDX 83 62 63 63 82 64 64 65 67 66 81 67 100 68 65 69 66 70 80 72
REMARK SMILES IDX 101 73 68 74 52 75 53 76 61 77 54 78 55 79 59 80 62 81 56 82
REMARK SMILES IDX 57 83 60 84 58 85 84 86 85 87 93 88 86 89 87 90 91 91 94 92
REMARK SMILES IDX 88 93 89 94 92 95 90 96 69 97 70 98 78 99 71 100 72 101
REMARK SMILES IDX 76 102 79 103 73 104 74 105 77 106 75 107
REMARK H PARENT 99 60 67 71
REMARK Flexibility Score: inf
ROOT
ATOM      1  C   UNL A   1      33.579  29.486  26.940  1.00  0.00     0.188 C 
ENDROOT
BRANCH   1   2
ATOM      2  O   UNL A   1      34.031  28.621  25.921  1.00  0.00    -0.376 OA
BRANCH   2   3
ATOM      3  C   UNL A   1      33.261  28.562  24.727  1.00  0.00     0.202 C 
BRANCH   3   4
ATOM      4  C   UNL A   1      32.411  27.337  24.324  1.00  0.00     0.261 C 
BRANCH   4   5
ATOM      5  O   UNL A   1      32.247  27.046  22.927  1.00  0.00    -0.461 OA
BRANCH   5   6
ATOM      6  C   UNL A   1      32.916  26.049  22.282  1.00  0.00     0.347 C 
ATOM      7  O   UNL A   1      33.703  26.249  21.363  1.00  0.00    -0.248 OA
BRANCH   6   8
ATOM      8  C   UNL A   1      32.672  24.647  22.967  1.00  0.00     0.279 C 
ATOM      9  C   UNL A   1      31.293  24.025  23.163  1.00  0.00     0.066 C 
BRANCH   8  10
ATOM     10  O   UNL A   1      33.365  24.301  24.142  1.00  0.00    -0.475 OA
BRANCH  10  11
ATOM     11  C   UNL A   1      34.080  23.148  24.270  1.00  0.00     0.162 A 
ATOM     12  C   UNL A   1      33.913  22.061  25.143  1.00  0.00     0.161 A 
ATOM     13  C   UNL A   1      35.088  21.351  25.481  1.00  0.00     0.058 A 
ATOM     14  C   UNL A   1      36.334  21.657  24.873  1.00  0.00    -0.020 A 
ATOM     15  C   UNL A   1      35.242  23.268  23.498  1.00  0.00     0.051 A 
ATOM     16  C   UNL A   1      36.351  22.492  23.761  1.00  0.00     0.012 A 
BRANCH  12  17
ATOM     17  O   UNL A   1      32.808  21.905  25.956  1.00  0.00    -0.490 OA
BRANCH  17  18
ATOM     18  C   UNL A   1      32.513  22.876  26.975  1.00  0.00     0.226 C 
ATOM     19  C   UNL A   1      31.091  23.456  26.824  1.00  0.00     0.049 C 
ENDBRANCH  17  18
ENDBRANCH  12  17
BRANCH  14  20
ATOM     20  C   UNL A   1      37.650  21.212  25.381  1.00  0.00     0.029 C 
ATOM     21  C   UNL A   1      38.625  22.012  25.877  1.00  0.00     0.083 C 
ATOM     22  S   UNL A   1      40.201  21.399  26.268  1.00  0.00    -0.022 SA
ATOM     23  C   UNL A   1      38.616  23.497  26.163  1.00  0.00     0.272 C 
ATOM     24  C   UNL A   1      40.829  22.977  26.746  1.00  0.00     0.298 C 
ATOM     25  N   UNL A   1      39.837  23.911  26.684  1.00  0.00    -0.236 N 
ATOM     26  O   UNL A   1      37.673  24.235  25.923  1.00  0.00    -0.268 OA
ATOM     27  O   UNL A   1      41.993  23.122  27.116  1.00  0.00    -0.260 OA
BRANCH  25  28
ATOM     28  C   UNL A   1      40.015  25.234  27.180  1.00  0.00     0.053 A 
ATOM     29  C   UNL A   1      39.490  25.559  28.430  1.00  0.00     0.027 A 
ATOM     30  C   UNL A   1      40.681  26.231  26.456  1.00  0.00     0.030 A 
ATOM     31  C   UNL A   1      39.535  26.873  28.905  1.00  0.00     0.006 A 
ATOM     32  C   UNL A   1      40.698  27.573  26.914  1.00  0.00    -0.046 A 
ATOM     33  C   UNL A   1      40.064  27.904  28.126  1.00  0.00    -0.048 A 
ATOM     34  C   UNL A   1      41.373  28.638  26.093  1.00  0.00     0.044 C 
ATOM     35  C   UNL A   1      39.807  29.322  28.574  1.00  0.00     0.044 C 
ENDBRANCH  25  28
ENDBRANCH  14  20
ENDBRANCH  10  11
ENDBRANCH   8  10
ENDBRANCH   6   8
ENDBRANCH   5   6
ENDBRANCH   4   5
ENDBRANCH   3   4
ENDBRANCH   2   3
ENDBRANCH   1   2
BRANCH   1  36
ATOM     36  C   UNL A   1      34.719  30.120  27.760  1.00  0.00     0.188 C 
BRANCH  36  37
ATOM     37  O   UNL A   1      35.359  31.277  27.267  1.00  0.00    -0.376 OA
BRANCH  37  38
ATOM     38  C   UNL A   1      35.445  32.377  28.156  1.00  0.00     0.202 C 
BRANCH  38  39
ATOM     39  C   UNL A   1      34.186  33.223  28.410  1.00  0.00     0.261 C 
BRANCH  39  40
ATOM     40  O   UNL A   1      33.649  33.210  29.744  1.00  0.00    -0.460 OA
BRANCH  40  41
ATOM     41  C   UNL A   1      33.968  34.299  30.496  1.00  0.00     0.338 C 
ATOM     42  O   UNL A   1      33.422  35.388  30.515  1.00  0.00    -0.246 OA
BRANCH  41  43
ATOM     43  C   UNL A   1      34.963  33.911  31.515  1.00  0.00     0.060 A 
ATOM     44  C   UNL A   1      35.941  34.852  31.889  1.00  0.00     0.016 A 
ATOM     45  C   UNL A   1      34.954  32.634  32.065  1.00  0.00     0.016 A 
ATOM     46  C   UNL A   1      36.930  34.510  32.801  1.00  0.00     0.010 A 
ATOM     47  C   UNL A   1      35.981  32.272  32.937  1.00  0.00     0.010 A 
ATOM     48  C   UNL A   1      36.990  33.196  33.273  1.00  0.00    -0.014 A 
BRANCH  48  49
ATOM     49  C   UNL A   1      38.249  32.725  33.885  1.00  0.00     0.031 A 
ATOM     50  C   UNL A   1      38.451  32.987  35.350  1.00  0.00     0.074 A 
ATOM     51  C   UNL A   1      39.161  32.048  33.170  1.00  0.00     0.049 A 
ATOM     52  N   UNL A   1      39.484  32.732  36.109  1.00  0.00    -0.248 NA
ATOM     53  C   UNL A   1      37.331  33.634  36.056  1.00  0.00     0.031 C 
ATOM     54  C   UNL A   1      39.032  31.681  31.764  1.00  0.00     0.029 A 
ATOM     55  N   UNL A   1      40.385  31.556  33.542  1.00  0.00    -0.354 N 
ATOM     56  C   UNL A   1      39.143  33.196  37.372  1.00  0.00     0.074 A 
ATOM     57  C   UNL A   1      37.825  33.780  37.275  1.00  0.00     0.031 C 
ATOM     58  C   UNL A   1      40.145  31.031  31.382  1.00  0.00     0.029 A 
ATOM     59  C   UNL A   1      41.074  30.971  32.509  1.00  0.00     0.049 A 
ATOM     60  H   UNL A   1      40.737  31.616  34.459  1.00  0.00     0.167 HD
ATOM     61  C   UNL A   1      39.867  33.132  38.514  1.00  0.00     0.037 A 
ATOM     62  C   UNL A   1      42.324  30.471  32.483  1.00  0.00     0.037 A 
ATOM     63  C   UNL A   1      41.182  32.555  38.595  1.00  0.00     0.049 A 
ATOM     64  C   UNL A   1      43.146  30.491  33.747  1.00  0.00     0.074 A 
ATOM     65  C   UNL A   1      42.008  32.438  39.697  1.00  0.00     0.029 A 
ATOM     66  N   UNL A   1      41.866  32.004  37.519  1.00  0.00    -0.354 N 
ATOM     67  N   UNL A   1      42.822  30.924  34.943  1.00  0.00    -0.248 NA
ATOM     68  C   UNL A   1      44.508  29.947  33.659  1.00  0.00     0.031 C 
ATOM     69  C   UNL A   1      43.216  31.872  39.277  1.00  0.00     0.029 A 
ATOM     70  C   UNL A   1      43.116  31.568  37.927  1.00  0.00     0.049 A 
ATOM     71  H   UNL A   1      41.515  31.935  36.602  1.00  0.00     0.167 HD
ATOM     72  C   UNL A   1      43.919  30.667  35.756  1.00  0.00     0.074 A 
ATOM     73  C   UNL A   1      44.915  30.034  34.916  1.00  0.00     0.031 C 
ATOM     74  C   UNL A   1      44.087  30.927  37.077  1.00  0.00     0.037 A 
BRANCH  61  75
ATOM     75  C   UNL A   1      39.264  33.739  39.749  1.00  0.00     0.064 A 
ATOM     76  C   UNL A   1      39.533  35.060  40.135  1.00  0.00     0.173 A 
ATOM     77  C   UNL A   1      38.395  32.986  40.554  1.00  0.00     0.173 A 
ATOM     78  F   UNL A   1      40.371  35.819  39.412  1.00  0.00    -0.203 F 
ATOM     79  C   UNL A   1      38.982  35.594  41.298  1.00  0.00     0.198 A 
ATOM     80  C   UNL A   1      37.818  33.535  41.696  1.00  0.00     0.198 A 
ATOM     81  F   UNL A   1      38.103  31.716  40.232  1.00  0.00    -0.203 F 
ATOM     82  F   UNL A   1      39.301  36.839  41.678  1.00  0.00    -0.200 F 
ATOM     83  C   UNL A   1      38.119  34.835  42.072  1.00  0.00     0.200 A 
ATOM     84  F   UNL A   1      36.972  32.802  42.435  1.00  0.00    -0.200 F 
ATOM     85  F   UNL A   1      37.585  35.351  43.187  1.00  0.00    -0.200 F 
ENDBRANCH  61  75
BRANCH  62  86
ATOM     86  C   UNL A   1      42.874  29.910  31.221  1.00  0.00     0.064 A 
ATOM     87  C   UNL A   1      43.529  30.730  30.292  1.00  0.00     0.173 A 
ATOM     88  C   UNL A   1      42.745  28.548  30.911  1.00  0.00     0.173 A 
ATOM     89  F   UNL A   1      43.658  32.043  30.531  1.00  0.00    -0.203 F 
ATOM     90  C   UNL A   1      44.016  30.213  29.093  1.00  0.00     0.198 A 
ATOM     91  C   UNL A   1      43.261  28.026  29.726  1.00  0.00     0.198 A 
ATOM     92  F   UNL A   1      42.125  27.720  31.764  1.00  0.00    -0.203 F 
ATOM     93  F   UNL A   1      44.594  31.029  28.201  1.00  0.00    -0.200 F 
ATOM     94  C   UNL A   1      43.887  28.861  28.814  1.00  0.00     0.200 A 
ATOM     95  F   UNL A   1      43.144  26.717  29.467  1.00  0.00    -0.200 F 
ATOM     96  F   UNL A   1      44.360  28.365  27.662  1.00  0.00    -0.200 F 
ENDBRANCH  62  86
BRANCH  74  97
ATOM     97  C   UNL A   1      45.369  30.469  37.714  1.00  0.00     0.064 A 
ATOM     98  C   UNL A   1      46.458  31.334  37.897  1.00  0.00     0.173 A 
ATOM     99  C   UNL A   1      45.492  29.153  38.185  1.00  0.00     0.173 A 
ATOM    100  F   UNL A   1      46.399  32.599  37.456  1.00  0.00    -0.203 F 
ATOM    101  C   UNL A   1      47.633  30.888  38.499  1.00  0.00     0.198 A 
ATOM    102  C   UNL A   1      46.652  28.721  38.819  1.00  0.00     0.198 A 
ATOM    103  F   UNL A   1      44.476  28.287  38.044  1.00  0.00    -0.203 F 
ATOM    104  F   UNL A   1      48.681  31.714  38.612  1.00  0.00    -0.200 F 
ATOM    105  C   UNL A   1      47.727  29.585  38.966  1.00  0.00     0.200 A 
ATOM    106  F   UNL A   1      46.732  27.467  39.287  1.00  0.00    -0.200 F 
ATOM    107  F   UNL A   1      48.854  29.160  39.552  1.00  0.00    -0.200 F 
ENDBRANCH  74  97
ENDBRANCH  48  49
ENDBRANCH  41  43
ENDBRANCH  40  41
ENDBRANCH  39  40
ENDBRANCH  38  39
ENDBRANCH  37  38
ENDBRANCH  36  37
ENDBRANCH   1  36
TORSDOF 23
ENDMDL
