MODEL 1
REMARK VINA RESULT:     -11.6      0.000      0.000
REMARK SMILES O=C(OCCOCCOCCOC(=O)[C@H]1CCCN(C(=O)C2CCN(S(=O)(=O)c3ccccc3)CC2)C1)c1ccc(-c2c3nc(c(-c4c(F)c(F)c(F)c(F)c4F)c4ccc([nH]4)c(-c4c(F)c(F)c(F)c(F)c4F)c4nc(c(-c5c(F)c(F)c(F)c(F)c5F)c5ccc2[nH]5)C=C4)C=C3)cc1
REMARK SMILES IDX 8 1 7 2 6 3 5 4 4 5 3 6 2 7 1 8 38 9 39 10 100 11 40 12
REMARK SMILES IDX 99 13 41 14 42 15 43 16 93 17 44 18 98 19 92 20 94 21 45 22
REMARK SMILES IDX 97 23 91 24 90 25 46 27 78 28 58 29 77 30 59 31 62 32 76 33
REMARK SMILES IDX 95 34 60 35 61 36 75 38 96 39 63 40 47 41 48 42 56 43 49 44
REMARK SMILES IDX 50 45 54 46 57 47 51 48 52 49 55 50 53 51 79 52 80 53 88 54
REMARK SMILES IDX 81 55 82 56 86 57 89 58 83 59 84 60 87 61 85 62 64 63 65 64
REMARK SMILES IDX 73 65 66 66 67 67 71 68 74 69 68 70 69 71 72 72 70 73 9 74
REMARK SMILES IDX 10 75 11 76 12 77 13 78 14 79 15 80 16 81 37 82 17 83 19 84
REMARK SMILES IDX 18 85 20 86 21 87 22 88 23 89 36 90 24 91 35 92 25 93 26 94
REMARK SMILES IDX 27 95 28 96 29 97 30 98 34 99 31 100 33 101 32 102
REMARK H PARENT 94 26 62 37
REMARK Flexibility Score: inf
ROOT
ATOM      1  C   UNL A   1      45.957  18.858  25.434  1.00  0.00     0.188 C 
ENDROOT
BRANCH   1   2
ATOM      2  C   UNL A   1      46.057  20.144  24.614  1.00  0.00     0.188 C 
BRANCH   2   3
ATOM      3  O   UNL A   1      46.229  21.304  25.440  1.00  0.00    -0.376 OA
BRANCH   3   4
ATOM      4  C   UNL A   1      46.301  22.525  24.692  1.00  0.00     0.202 C 
BRANCH   4   5
ATOM      5  C   UNL A   1      44.979  22.972  24.050  1.00  0.00     0.261 C 
BRANCH   5   6
ATOM      6  O   UNL A   1      44.306  23.981  24.816  1.00  0.00    -0.460 OA
BRANCH   6   7
ATOM      7  C   UNL A   1      44.818  25.136  25.313  1.00  0.00     0.338 C 
ATOM      8  O   UNL A   1      45.625  25.753  24.620  1.00  0.00    -0.246 OA
BRANCH   7   9
ATOM      9  C   UNL A   1      44.431  25.718  26.643  1.00  0.00     0.060 A 
ATOM     10  C   UNL A   1      43.863  25.015  27.708  1.00  0.00     0.016 A 
ATOM     11  C   UNL A   1      44.687  27.087  26.838  1.00  0.00     0.016 A 
ATOM     12  C   UNL A   1      43.429  25.662  28.861  1.00  0.00     0.010 A 
ATOM     13  C   UNL A   1      44.321  27.735  28.024  1.00  0.00     0.010 A 
ATOM     14  C   UNL A   1      43.624  27.032  29.011  1.00  0.00    -0.014 A 
BRANCH  14  15
ATOM     15  C   UNL A   1      42.890  27.731  30.087  1.00  0.00     0.031 A 
ATOM     16  C   UNL A   1      43.584  27.896  31.411  1.00  0.00     0.074 A 
ATOM     17  C   UNL A   1      41.706  28.321  29.843  1.00  0.00     0.049 A 
ATOM     18  N   UNL A   1      43.170  28.481  32.504  1.00  0.00    -0.248 NA
ATOM     19  C   UNL A   1      44.937  27.323  31.514  1.00  0.00     0.031 C 
ATOM     20  C   UNL A   1      41.000  28.299  28.561  1.00  0.00     0.029 A 
ATOM     21  N   UNL A   1      40.911  29.091  30.650  1.00  0.00    -0.354 N 
ATOM     22  C   UNL A   1      44.191  28.305  33.430  1.00  0.00     0.074 A 
ATOM     23  C   UNL A   1      45.234  27.544  32.782  1.00  0.00     0.031 C 
ATOM     24  C   UNL A   1      39.900  29.064  28.655  1.00  0.00     0.029 A 
ATOM     25  C   UNL A   1      39.796  29.584  30.017  1.00  0.00     0.049 A 
ATOM     26  H   UNL A   1      41.119  29.274  31.595  1.00  0.00     0.167 HD
ATOM     27  C   UNL A   1      44.257  28.746  34.707  1.00  0.00     0.037 A 
ATOM     28  C   UNL A   1      38.810  30.367  30.497  1.00  0.00     0.037 A 
ATOM     29  C   UNL A   1      43.227  29.532  35.325  1.00  0.00     0.049 A 
ATOM     30  C   UNL A   1      38.885  30.814  31.936  1.00  0.00     0.074 A 
ATOM     31  C   UNL A   1      43.154  30.007  36.620  1.00  0.00     0.029 A 
ATOM     32  N   UNL A   1      42.083  29.968  34.668  1.00  0.00    -0.354 N 
ATOM     33  N   UNL A   1      39.831  30.602  32.821  1.00  0.00    -0.248 NA
ATOM     34  C   UNL A   1      37.754  31.601  32.444  1.00  0.00     0.031 C 
ATOM     35  C   UNL A   1      41.946  30.700  36.758  1.00  0.00     0.029 A 
ATOM     36  C   UNL A   1      41.292  30.701  35.535  1.00  0.00     0.049 A 
ATOM     37  H   UNL A   1      41.868  29.784  33.725  1.00  0.00     0.167 HD
ATOM     38  C   UNL A   1      39.425  31.252  33.979  1.00  0.00     0.074 A 
ATOM     39  C   UNL A   1      38.153  31.877  33.677  1.00  0.00     0.031 C 
ATOM     40  C   UNL A   1      40.041  31.327  35.185  1.00  0.00     0.037 A 
BRANCH  27  41
ATOM     41  C   UNL A   1      45.453  28.321  35.509  1.00  0.00     0.064 A 
ATOM     42  C   UNL A   1      45.466  27.135  36.260  1.00  0.00     0.173 A 
ATOM     43  C   UNL A   1      46.578  29.157  35.587  1.00  0.00     0.173 A 
ATOM     44  F   UNL A   1      44.402  26.315  36.244  1.00  0.00    -0.203 F 
ATOM     45  C   UNL A   1      46.535  26.828  37.098  1.00  0.00     0.198 A 
ATOM     46  C   UNL A   1      47.659  28.831  36.401  1.00  0.00     0.198 A 
ATOM     47  F   UNL A   1      46.617  30.303  34.892  1.00  0.00    -0.203 F 
ATOM     48  F   UNL A   1      46.487  25.734  37.871  1.00  0.00    -0.200 F 
ATOM     49  C   UNL A   1      47.631  27.676  37.168  1.00  0.00     0.200 A 
ATOM     50  F   UNL A   1      48.719  29.649  36.463  1.00  0.00    -0.200 F 
ATOM     51  F   UNL A   1      48.650  27.391  37.990  1.00  0.00    -0.200 F 
ENDBRANCH  27  41
BRANCH  28  52
ATOM     52  C   UNL A   1      37.680  30.777  29.621  1.00  0.00     0.064 A 
ATOM     53  C   UNL A   1      37.574  32.092  29.142  1.00  0.00     0.173 A 
ATOM     54  C   UNL A   1      36.670  29.873  29.256  1.00  0.00     0.173 A 
ATOM     55  F   UNL A   1      38.502  33.002  29.473  1.00  0.00    -0.203 F 
ATOM     56  C   UNL A   1      36.495  32.489  28.352  1.00  0.00     0.198 A 
ATOM     57  C   UNL A   1      35.607  30.263  28.444  1.00  0.00     0.198 A 
ATOM     58  F   UNL A   1      36.721  28.601  29.679  1.00  0.00    -0.203 F 
ATOM     59  F   UNL A   1      36.397  33.763  27.947  1.00  0.00    -0.200 F 
ATOM     60  C   UNL A   1      35.515  31.573  28.000  1.00  0.00     0.200 A 
ATOM     61  F   UNL A   1      34.673  29.368  28.095  1.00  0.00    -0.200 F 
ATOM     62  F   UNL A   1      34.479  31.954  27.240  1.00  0.00    -0.200 F 
ENDBRANCH  28  52
BRANCH  40  63
ATOM     63  C   UNL A   1      39.374  32.150  36.247  1.00  0.00     0.064 A 
ATOM     64  C   UNL A   1      38.365  31.621  37.063  1.00  0.00     0.173 A 
ATOM     65  C   UNL A   1      39.797  33.465  36.486  1.00  0.00     0.173 A 
ATOM     66  F   UNL A   1      37.920  30.371  36.862  1.00  0.00    -0.203 F 
ATOM     67  C   UNL A   1      37.786  32.389  38.069  1.00  0.00     0.198 A 
ATOM     68  C   UNL A   1      39.237  34.220  37.512  1.00  0.00     0.198 A 
ATOM     69  F   UNL A   1      40.766  34.012  35.736  1.00  0.00    -0.203 F 
ATOM     70  F   UNL A   1      36.794  31.880  38.810  1.00  0.00    -0.200 F 
ATOM     71  C   UNL A   1      38.229  33.685  38.298  1.00  0.00     0.200 A 
ATOM     72  F   UNL A   1      39.676  35.466  37.741  1.00  0.00    -0.200 F 
ATOM     73  F   UNL A   1      37.678  34.418  39.274  1.00  0.00    -0.200 F 
ENDBRANCH  40  63
ENDBRANCH  14  15
ENDBRANCH   7   9
ENDBRANCH   6   7
ENDBRANCH   5   6
ENDBRANCH   4   5
ENDBRANCH   3   4
ENDBRANCH   2   3
ENDBRANCH   1   2
BRANCH   1  74
ATOM     74  O   UNL A   1      44.694  18.194  25.427  1.00  0.00    -0.376 OA
BRANCH  74  75
ATOM     75  C   UNL A   1      43.542  18.980  25.140  1.00  0.00     0.202 C 
BRANCH  75  76
ATOM     76  C   UNL A   1      42.480  19.109  26.241  1.00  0.00     0.261 C 
BRANCH  76  77
ATOM     77  O   UNL A   1      41.505  20.150  26.038  1.00  0.00    -0.463 OA
BRANCH  77  78
ATOM     78  C   UNL A   1      41.715  21.278  26.774  1.00  0.00     0.310 C 
ATOM     79  O   UNL A   1      42.817  21.710  27.087  1.00  0.00    -0.252 OA
BRANCH  78  80
ATOM     80  C   UNL A   1      40.409  21.944  27.172  1.00  0.00     0.119 C 
ATOM     81  C   UNL A   1      40.741  23.359  27.689  1.00  0.00     0.019 C 
ATOM     82  C   UNL A   1      39.430  21.947  25.983  1.00  0.00     0.134 C 
ATOM     83  C   UNL A   1      39.506  24.234  27.806  1.00  0.00     0.022 C 
ATOM     84  N   UNL A   1      38.326  22.904  26.148  1.00  0.00    -0.342 N 
ATOM     85  C   UNL A   1      38.784  24.230  26.474  1.00  0.00     0.119 C 
BRANCH  84  86
ATOM     86  C   UNL A   1      37.082  22.620  25.614  1.00  0.00     0.225 C 
ATOM     87  O   UNL A   1      36.595  21.498  25.800  1.00  0.00    -0.275 OA
BRANCH  86  88
ATOM     88  C   UNL A   1      36.235  23.631  24.785  1.00  0.00     0.081 C 
ATOM     89  C   UNL A   1      35.082  24.288  25.524  1.00  0.00     0.030 C 
ATOM     90  C   UNL A   1      35.835  23.348  23.346  1.00  0.00     0.030 C 
ATOM     91  C   UNL A   1      33.796  23.496  25.466  1.00  0.00     0.103 C 
ATOM     92  C   UNL A   1      34.460  22.733  23.110  1.00  0.00     0.103 C 
ATOM     93  N   UNL A   1      33.381  23.058  24.087  1.00  0.00    -0.198 NA
BRANCH  93  94
ATOM     94  S   UNL A   1      32.118  21.855  24.244  1.00  0.00     0.243 S 
ATOM     95  O   UNL A   1      31.701  21.838  25.637  1.00  0.00    -0.207 OA
ATOM     96  O   UNL A   1      31.152  22.130  23.208  1.00  0.00    -0.207 OA
BRANCH  94  97
ATOM     97  C   UNL A   1      32.839  20.262  23.932  1.00  0.00     0.082 A 
ATOM     98  C   UNL A   1      32.255  19.422  22.981  1.00  0.00     0.022 A 
ATOM     99  C   UNL A   1      33.838  19.765  24.781  1.00  0.00     0.022 A 
ATOM    100  C   UNL A   1      32.708  18.107  22.851  1.00  0.00     0.001 A 
ATOM    101  C   UNL A   1      34.316  18.467  24.619  1.00  0.00     0.001 A 
ATOM    102  C   UNL A   1      33.748  17.637  23.656  1.00  0.00     0.000 A 
ENDBRANCH  94  97
ENDBRANCH  93  94
ENDBRANCH  86  88
ENDBRANCH  84  86
ENDBRANCH  78  80
ENDBRANCH  77  78
ENDBRANCH  76  77
ENDBRANCH  75  76
ENDBRANCH  74  75
ENDBRANCH   1  74
TORSDOF 21
ENDMDL
MODEL 2
REMARK VINA RESULT:     -11.3      4.831      8.028
REMARK SMILES O=C(OCCOCCOCCOC(=O)[C@H]1CCCN(C(=O)C2CCN(S(=O)(=O)c3ccccc3)CC2)C1)c1ccc(-c2c3nc(c(-c4c(F)c(F)c(F)c(F)c4F)c4ccc([nH]4)c(-c4c(F)c(F)c(F)c(F)c4F)c4nc(c(-c5c(F)c(F)c(F)c(F)c5F)c5ccc2[nH]5)C=C4)C=C3)cc1
REMARK SMILES IDX 8 1 7 2 6 3 5 4 4 5 3 6 2 7 1 8 38 9 39 10 100 11 40 12
REMARK SMILES IDX 99 13 41 14 42 15 43 16 93 17 44 18 98 19 92 20 94 21 45 22
REMARK SMILES IDX 97 23 91 24 90 25 46 27 78 28 58 29 77 30 59 31 62 32 76 33
REMARK SMILES IDX 95 34 60 35 61 36 75 38 96 39 63 40 47 41 48 42 56 43 49 44
REMARK SMILES IDX 50 45 54 46 57 47 51 48 52 49 55 50 53 51 79 52 80 53 88 54
REMARK SMILES IDX 81 55 82 56 86 57 89 58 83 59 84 60 87 61 85 62 64 63 65 64
REMARK SMILES IDX 73 65 66 66 67 67 71 68 74 69 68 70 69 71 72 72 70 73 9 74
REMARK SMILES IDX 10 75 11 76 12 77 13 78 14 79 15 80 16 81 37 82 17 83 19 84
REMARK SMILES IDX 18 85 20 86 21 87 22 88 23 89 36 90 24 91 35 92 25 93 26 94
REMARK SMILES IDX 27 95 28 96 29 97 30 98 34 99 31 100 33 101 32 102
REMARK H PARENT 94 26 62 37
REMARK Flexibility Score: inf
ROOT
ATOM      1  C   UNL A   1      41.239  19.587  26.191  1.00  0.00     0.188 C 
ENDROOT
BRANCH   1   2
ATOM      2  C   UNL A   1      42.134  19.265  27.389  1.00  0.00     0.188 C 
BRANCH   2   3
ATOM      3  O   UNL A   1      42.939  18.098  27.169  1.00  0.00    -0.376 OA
BRANCH   3   4
ATOM      4  C   UNL A   1      43.490  18.034  25.847  1.00  0.00     0.202 C 
BRANCH   4   5
ATOM      5  C   UNL A   1      45.022  18.103  25.779  1.00  0.00     0.261 C 
BRANCH   5   6
ATOM      6  O   UNL A   1      45.495  18.756  24.592  1.00  0.00    -0.460 OA
BRANCH   6   7
ATOM      7  C   UNL A   1      44.934  19.801  23.931  1.00  0.00     0.338 C 
ATOM      8  O   UNL A   1      44.571  19.619  22.769  1.00  0.00    -0.246 OA
BRANCH   7   9
ATOM      9  C   UNL A   1      44.700  21.151  24.547  1.00  0.00     0.060 A 
ATOM     10  C   UNL A   1      44.209  22.277  23.883  1.00  0.00     0.016 A 
ATOM     11  C   UNL A   1      44.979  21.283  25.919  1.00  0.00     0.016 A 
ATOM     12  C   UNL A   1      44.136  23.518  24.507  1.00  0.00     0.010 A 
ATOM     13  C   UNL A   1      44.841  22.511  26.576  1.00  0.00     0.010 A 
ATOM     14  C   UNL A   1      44.486  23.650  25.848  1.00  0.00    -0.014 A 
BRANCH  14  15
ATOM     15  C   UNL A   1      44.691  25.010  26.389  1.00  0.00     0.031 A 
ATOM     16  C   UNL A   1      46.041  25.644  26.188  1.00  0.00     0.074 A 
ATOM     17  C   UNL A   1      43.666  25.707  26.911  1.00  0.00     0.049 A 
ATOM     18  N   UNL A   1      46.472  26.824  26.546  1.00  0.00    -0.248 NA
ATOM     19  C   UNL A   1      47.044  24.830  25.480  1.00  0.00     0.031 C 
ATOM     20  C   UNL A   1      42.297  25.211  27.056  1.00  0.00     0.029 A 
ATOM     21  N   UNL A   1      43.608  26.996  27.373  1.00  0.00    -0.354 N 
ATOM     22  C   UNL A   1      47.802  26.872  26.147  1.00  0.00     0.074 A 
ATOM     23  C   UNL A   1      48.116  25.601  25.539  1.00  0.00     0.031 C 
ATOM     24  C   UNL A   1      41.522  26.203  27.529  1.00  0.00     0.029 A 
ATOM     25  C   UNL A   1      42.351  27.383  27.768  1.00  0.00     0.049 A 
ATOM     26  H   UNL A   1      44.393  27.588  27.418  1.00  0.00     0.167 HD
ATOM     27  C   UNL A   1      48.683  27.892  26.270  1.00  0.00     0.037 A 
ATOM     28  C   UNL A   1      41.931  28.562  28.266  1.00  0.00     0.037 A 
ATOM     29  C   UNL A   1      48.345  29.163  26.845  1.00  0.00     0.049 A 
ATOM     30  C   UNL A   1      42.940  29.671  28.431  1.00  0.00     0.074 A 
ATOM     31  C   UNL A   1      49.153  30.261  27.063  1.00  0.00     0.029 A 
ATOM     32  N   UNL A   1      47.072  29.502  27.286  1.00  0.00    -0.354 N 
ATOM     33  N   UNL A   1      44.209  29.693  28.096  1.00  0.00    -0.248 NA
ATOM     34  C   UNL A   1      42.461  30.914  29.048  1.00  0.00     0.031 C 
ATOM     35  C   UNL A   1      48.376  31.254  27.672  1.00  0.00     0.029 A 
ATOM     36  C   UNL A   1      47.073  30.792  27.785  1.00  0.00     0.049 A 
ATOM     37  H   UNL A   1      46.285  28.911  27.248  1.00  0.00     0.167 HD
ATOM     38  C   UNL A   1      44.674  30.957  28.434  1.00  0.00     0.074 A 
ATOM     39  C   UNL A   1      43.544  31.677  28.988  1.00  0.00     0.031 C 
ATOM     40  C   UNL A   1      45.918  31.480  28.305  1.00  0.00     0.037 A 
BRANCH  27  41
ATOM     41  C   UNL A   1      50.093  27.624  25.830  1.00  0.00     0.064 A 
ATOM     42  C   UNL A   1      50.469  27.635  24.477  1.00  0.00     0.173 A 
ATOM     43  C   UNL A   1      51.068  27.275  26.777  1.00  0.00     0.173 A 
ATOM     44  F   UNL A   1      49.566  27.933  23.529  1.00  0.00    -0.203 F 
ATOM     45  C   UNL A   1      51.751  27.256  24.086  1.00  0.00     0.198 A 
ATOM     46  C   UNL A   1      52.358  26.928  26.384  1.00  0.00     0.198 A 
ATOM     47  F   UNL A   1      50.763  27.247  28.082  1.00  0.00    -0.203 F 
ATOM     48  F   UNL A   1      52.061  27.190  22.784  1.00  0.00    -0.200 F 
ATOM     49  C   UNL A   1      52.695  26.903  25.039  1.00  0.00     0.200 A 
ATOM     50  F   UNL A   1      53.270  26.592  27.308  1.00  0.00    -0.200 F 
ATOM     51  F   UNL A   1      53.921  26.518  24.661  1.00  0.00    -0.200 F 
ENDBRANCH  27  41
BRANCH  28  52
ATOM     52  C   UNL A   1      40.504  28.757  28.639  1.00  0.00     0.064 A 
ATOM     53  C   UNL A   1      40.054  28.501  29.944  1.00  0.00     0.173 A 
ATOM     54  C   UNL A   1      39.553  29.186  27.701  1.00  0.00     0.173 A 
ATOM     55  F   UNL A   1      40.917  28.072  30.877  1.00  0.00    -0.203 F 
ATOM     56  C   UNL A   1      38.711  28.646  30.287  1.00  0.00     0.198 A 
ATOM     57  C   UNL A   1      38.215  29.358  28.052  1.00  0.00     0.198 A 
ATOM     58  F   UNL A   1      39.925  29.452  26.439  1.00  0.00    -0.203 F 
ATOM     59  F   UNL A   1      38.303  28.350  31.529  1.00  0.00    -0.200 F 
ATOM     60  C   UNL A   1      37.793  29.079  29.341  1.00  0.00     0.200 A 
ATOM     61  F   UNL A   1      37.338  29.793  27.136  1.00  0.00    -0.200 F 
ATOM     62  F   UNL A   1      36.502  29.221  29.672  1.00  0.00    -0.200 F 
ENDBRANCH  28  52
BRANCH  40  63
ATOM     63  C   UNL A   1      46.109  32.908  28.721  1.00  0.00     0.064 A 
ATOM     64  C   UNL A   1      46.540  33.248  30.011  1.00  0.00     0.173 A 
ATOM     65  C   UNL A   1      45.916  33.943  27.795  1.00  0.00     0.173 A 
ATOM     66  F   UNL A   1      46.725  32.292  30.935  1.00  0.00    -0.203 F 
ATOM     67  C   UNL A   1      46.750  34.578  30.366  1.00  0.00     0.198 A 
ATOM     68  C   UNL A   1      46.155  35.268  28.143  1.00  0.00     0.198 A 
ATOM     69  F   UNL A   1      45.513  33.666  26.545  1.00  0.00    -0.203 F 
ATOM     70  F   UNL A   1      47.120  34.885  31.615  1.00  0.00    -0.200 F 
ATOM     71  C   UNL A   1      46.565  35.585  29.429  1.00  0.00     0.200 A 
ATOM     72  F   UNL A   1      45.991  36.239  27.233  1.00  0.00    -0.200 F 
ATOM     73  F   UNL A   1      46.779  36.863  29.769  1.00  0.00    -0.200 F 
ENDBRANCH  40  63
ENDBRANCH  14  15
ENDBRANCH   7   9
ENDBRANCH   6   7
ENDBRANCH   5   6
ENDBRANCH   4   5
ENDBRANCH   3   4
ENDBRANCH   2   3
ENDBRANCH   1   2
BRANCH   1  74
ATOM     74  O   UNL A   1      41.433  20.859  25.576  1.00  0.00    -0.376 OA
BRANCH  74  75
ATOM     75  C   UNL A   1      40.878  21.995  26.229  1.00  0.00     0.202 C 
BRANCH  75  76
ATOM     76  C   UNL A   1      39.367  21.994  26.495  1.00  0.00     0.261 C 
BRANCH  76  77
ATOM     77  O   UNL A   1      38.542  21.639  25.369  1.00  0.00    -0.463 OA
BRANCH  77  78
ATOM     78  C   UNL A   1      37.464  22.450  25.174  1.00  0.00     0.310 C 
ATOM     79  O   UNL A   1      37.398  23.619  25.534  1.00  0.00    -0.252 OA
BRANCH  78  80
ATOM     80  C   UNL A   1      36.338  21.730  24.454  1.00  0.00     0.119 C 
ATOM     81  C   UNL A   1      36.219  20.317  25.060  1.00  0.00     0.019 C 
ATOM     82  C   UNL A   1      35.035  22.545  24.555  1.00  0.00     0.134 C 
ATOM     83  C   UNL A   1      34.931  19.623  24.656  1.00  0.00     0.022 C 
ATOM     84  N   UNL A   1      33.834  21.754  24.246  1.00  0.00    -0.342 N 
ATOM     85  C   UNL A   1      33.767  20.529  25.001  1.00  0.00     0.119 C 
BRANCH  84  86
ATOM     86  C   UNL A   1      32.745  22.359  23.647  1.00  0.00     0.225 C 
ATOM     87  O   UNL A   1      32.627  22.292  22.416  1.00  0.00    -0.275 OA
BRANCH  86  88
ATOM     88  C   UNL A   1      31.636  23.128  24.423  1.00  0.00     0.081 C 
ATOM     89  C   UNL A   1      30.657  23.916  23.568  1.00  0.00     0.030 C 
ATOM     90  C   UNL A   1      31.937  23.890  25.703  1.00  0.00     0.030 C 
ATOM     91  C   UNL A   1      31.117  25.324  23.264  1.00  0.00     0.103 C 
ATOM     92  C   UNL A   1      32.219  25.384  25.579  1.00  0.00     0.103 C 
ATOM     93  N   UNL A   1      31.559  26.120  24.462  1.00  0.00    -0.198 NA
BRANCH  93  94
ATOM     94  S   UNL A   1      32.403  27.548  23.898  1.00  0.00     0.243 S 
ATOM     95  O   UNL A   1      33.722  27.127  23.450  1.00  0.00    -0.207 OA
ATOM     96  O   UNL A   1      31.514  28.222  22.983  1.00  0.00    -0.207 OA
BRANCH  94  97
ATOM     97  C   UNL A   1      32.680  28.607  25.297  1.00  0.00     0.082 A 
ATOM     98  C   UNL A   1      31.821  29.687  25.518  1.00  0.00     0.022 A 
ATOM     99  C   UNL A   1      33.866  28.498  26.036  1.00  0.00     0.022 A 
ATOM    100  C   UNL A   1      32.128  30.621  26.509  1.00  0.00     0.001 A 
ATOM    101  C   UNL A   1      34.146  29.409  27.053  1.00  0.00     0.001 A 
ATOM    102  C   UNL A   1      33.278  30.472  27.286  1.00  0.00     0.000 A 
ENDBRANCH  94  97
ENDBRANCH  93  94
ENDBRANCH  86  88
ENDBRANCH  84  86
ENDBRANCH  78  80
ENDBRANCH  77  78
ENDBRANCH  76  77
ENDBRANCH  75  76
ENDBRANCH  74  75
ENDBRANCH   1  74
TORSDOF 21
ENDMDL
MODEL 3
REMARK VINA RESULT:     -11.0      1.131      7.216
REMARK SMILES O=C(OCCOCCOCCOC(=O)[C@H]1CCCN(C(=O)C2CCN(S(=O)(=O)c3ccccc3)CC2)C1)c1ccc(-c2c3nc(c(-c4c(F)c(F)c(F)c(F)c4F)c4ccc([nH]4)c(-c4c(F)c(F)c(F)c(F)c4F)c4nc(c(-c5c(F)c(F)c(F)c(F)c5F)c5ccc2[nH]5)C=C4)C=C3)cc1
REMARK SMILES IDX 8 1 7 2 6 3 5 4 4 5 3 6 2 7 1 8 38 9 39 10 100 11 40 12
REMARK SMILES IDX 99 13 41 14 42 15 43 16 93 17 44 18 98 19 92 20 94 21 45 22
REMARK SMILES IDX 97 23 91 24 90 25 46 27 78 28 58 29 77 30 59 31 62 32 76 33
REMARK SMILES IDX 95 34 60 35 61 36 75 38 96 39 63 40 47 41 48 42 56 43 49 44
REMARK SMILES IDX 50 45 54 46 57 47 51 48 52 49 55 50 53 51 79 52 80 53 88 54
REMARK SMILES IDX 81 55 82 56 86 57 89 58 83 59 84 60 87 61 85 62 64 63 65 64
REMARK SMILES IDX 73 65 66 66 67 67 71 68 74 69 68 70 69 71 72 72 70 73 9 74
REMARK SMILES IDX 10 75 11 76 12 77 13 78 14 79 15 80 16 81 37 82 17 83 19 84
REMARK SMILES IDX 18 85 20 86 21 87 22 88 23 89 36 90 24 91 35 92 25 93 26 94
REMARK SMILES IDX 27 95 28 96 29 97 30 98 34 99 31 100 33 101 32 102
REMARK H PARENT 94 26 62 37
REMARK Flexibility Score: inf
ROOT
ATOM      1  C   UNL A   1      45.915  18.945  25.351  1.00  0.00     0.188 C 
ENDROOT
BRANCH   1   2
ATOM      2  C   UNL A   1      45.847  20.302  24.649  1.00  0.00     0.188 C 
BRANCH   2   3
ATOM      3  O   UNL A   1      46.126  21.391  25.541  1.00  0.00    -0.376 OA
BRANCH   3   4
ATOM      4  C   UNL A   1      46.075  22.672  24.900  1.00  0.00     0.202 C 
BRANCH   4   5
ATOM      5  C   UNL A   1      44.668  23.141  24.500  1.00  0.00     0.261 C 
BRANCH   5   6
ATOM      6  O   UNL A   1      44.145  24.141  25.386  1.00  0.00    -0.460 OA
BRANCH   6   7
ATOM      7  C   UNL A   1      44.645  25.376  25.645  1.00  0.00     0.338 C 
ATOM      8  O   UNL A   1      45.280  25.938  24.753  1.00  0.00    -0.246 OA
BRANCH   7   9
ATOM      9  C   UNL A   1      44.439  26.107  26.941  1.00  0.00     0.060 A 
ATOM     10  C   UNL A   1      44.151  25.517  28.174  1.00  0.00     0.016 A 
ATOM     11  C   UNL A   1      44.574  27.506  26.911  1.00  0.00     0.016 A 
ATOM     12  C   UNL A   1      43.861  26.283  29.299  1.00  0.00     0.010 A 
ATOM     13  C   UNL A   1      44.355  28.284  28.055  1.00  0.00     0.010 A 
ATOM     14  C   UNL A   1      43.927  27.673  29.236  1.00  0.00    -0.014 A 
BRANCH  14  15
ATOM     15  C   UNL A   1      43.324  28.453  30.338  1.00  0.00     0.031 A 
ATOM     16  C   UNL A   1      41.931  28.982  30.136  1.00  0.00     0.074 A 
ATOM     17  C   UNL A   1      43.943  28.559  31.527  1.00  0.00     0.049 A 
ATOM     18  N   UNL A   1      41.175  29.676  30.945  1.00  0.00    -0.248 NA
ATOM     19  C   UNL A   1      41.301  28.684  28.838  1.00  0.00     0.031 C 
ATOM     20  C   UNL A   1      45.254  27.994  31.849  1.00  0.00     0.029 A 
ATOM     21  N   UNL A   1      43.532  29.141  32.698  1.00  0.00    -0.354 N 
ATOM     22  C   UNL A   1      40.006  29.931  30.237  1.00  0.00     0.074 A 
ATOM     23  C   UNL A   1      40.158  29.339  28.929  1.00  0.00     0.031 C 
ATOM     24  C   UNL A   1      45.518  28.216  33.147  1.00  0.00     0.029 A 
ATOM     25  C   UNL A   1      44.420  28.982  33.733  1.00  0.00     0.049 A 
ATOM     26  H   UNL A   1      42.680  29.626  32.787  1.00  0.00     0.167 HD
ATOM     27  C   UNL A   1      38.900  30.594  30.645  1.00  0.00     0.037 A 
ATOM     28  C   UNL A   1      44.342  29.415  35.006  1.00  0.00     0.037 A 
ATOM     29  C   UNL A   1      38.752  31.147  31.962  1.00  0.00     0.049 A 
ATOM     30  C   UNL A   1      43.117  30.188  35.427  1.00  0.00     0.074 A 
ATOM     31  C   UNL A   1      37.701  31.874  32.486  1.00  0.00     0.029 A 
ATOM     32  N   UNL A   1      39.698  31.014  32.971  1.00  0.00    -0.354 N 
ATOM     33  N   UNL A   1      42.036  30.468  34.737  1.00  0.00    -0.248 NA
ATOM     34  C   UNL A   1      43.103  30.709  36.800  1.00  0.00     0.031 C 
ATOM     35  C   UNL A   1      38.028  32.214  33.804  1.00  0.00     0.029 A 
ATOM     36  C   UNL A   1      39.259  31.655  34.116  1.00  0.00     0.049 A 
ATOM     37  H   UNL A   1      40.553  30.534  32.884  1.00  0.00     0.167 HD
ATOM     38  C   UNL A   1      41.203  31.171  35.597  1.00  0.00     0.074 A 
ATOM     39  C   UNL A   1      41.900  31.262  36.865  1.00  0.00     0.031 C 
ATOM     40  C   UNL A   1      39.975  31.699  35.366  1.00  0.00     0.037 A 
BRANCH  27  41
ATOM     41  C   UNL A   1      37.819  30.800  29.624  1.00  0.00     0.064 A 
ATOM     42  C   UNL A   1      37.639  32.026  28.963  1.00  0.00     0.173 A 
ATOM     43  C   UNL A   1      36.899  29.773  29.361  1.00  0.00     0.173 A 
ATOM     44  F   UNL A   1      38.474  33.050  29.202  1.00  0.00    -0.203 F 
ATOM     45  C   UNL A   1      36.551  32.232  28.118  1.00  0.00     0.198 A 
ATOM     46  C   UNL A   1      35.831  29.973  28.491  1.00  0.00     0.198 A 
ATOM     47  F   UNL A   1      37.022  28.584  29.967  1.00  0.00    -0.203 F 
ATOM     48  F   UNL A   1      36.352  33.436  27.566  1.00  0.00    -0.200 F 
ATOM     49  C   UNL A   1      35.648  31.206  27.883  1.00  0.00     0.200 A 
ATOM     50  F   UNL A   1      34.962  28.978  28.262  1.00  0.00    -0.200 F 
ATOM     51  F   UNL A   1      34.590  31.411  27.087  1.00  0.00    -0.200 F 
ENDBRANCH  27  41
BRANCH  28  52
ATOM     52  C   UNL A   1      45.443  29.132  35.967  1.00  0.00     0.064 A 
ATOM     53  C   UNL A   1      46.545  29.993  36.081  1.00  0.00     0.173 A 
ATOM     54  C   UNL A   1      45.428  27.989  36.780  1.00  0.00     0.173 A 
ATOM     55  F   UNL A   1      46.618  31.092  35.315  1.00  0.00    -0.203 F 
ATOM     56  C   UNL A   1      47.596  29.710  36.953  1.00  0.00     0.198 A 
ATOM     57  C   UNL A   1      46.466  27.721  37.672  1.00  0.00     0.198 A 
ATOM     58  F   UNL A   1      44.397  27.132  36.719  1.00  0.00    -0.203 F 
ATOM     59  F   UNL A   1      48.657  30.527  37.007  1.00  0.00    -0.200 F 
ATOM     60  C   UNL A   1      47.553  28.577  37.751  1.00  0.00     0.200 A 
ATOM     61  F   UNL A   1      46.409  26.633  38.452  1.00  0.00    -0.200 F 
ATOM     62  F   UNL A   1      48.562  28.306  38.590  1.00  0.00    -0.200 F 
ENDBRANCH  28  52
BRANCH  40  63
ATOM     63  C   UNL A   1      39.291  32.375  36.517  1.00  0.00     0.064 A 
ATOM     64  C   UNL A   1      38.314  31.719  37.280  1.00  0.00     0.173 A 
ATOM     65  C   UNL A   1      39.664  33.672  36.895  1.00  0.00     0.173 A 
ATOM     66  F   UNL A   1      37.916  30.482  36.948  1.00  0.00    -0.203 F 
ATOM     67  C   UNL A   1      37.719  32.350  38.369  1.00  0.00     0.198 A 
ATOM     68  C   UNL A   1      39.089  34.288  38.001  1.00  0.00     0.198 A 
ATOM     69  F   UNL A   1      40.600  34.336  36.200  1.00  0.00    -0.203 F 
ATOM     70  F   UNL A   1      36.758  31.723  39.060  1.00  0.00    -0.200 F 
ATOM     71  C   UNL A   1      38.113  33.630  38.733  1.00  0.00     0.200 A 
ATOM     72  F   UNL A   1      39.481  35.519  38.361  1.00  0.00    -0.200 F 
ATOM     73  F   UNL A   1      37.547  34.230  39.789  1.00  0.00    -0.200 F 
ENDBRANCH  40  63
ENDBRANCH  14  15
ENDBRANCH   7   9
ENDBRANCH   6   7
ENDBRANCH   5   6
ENDBRANCH   4   5
ENDBRANCH   3   4
ENDBRANCH   2   3
ENDBRANCH   1   2
BRANCH   1  74
ATOM     74  O   UNL A   1      44.690  18.224  25.464  1.00  0.00    -0.376 OA
BRANCH  74  75
ATOM     75  C   UNL A   1      43.488  18.921  25.153  1.00  0.00     0.202 C 
BRANCH  75  76
ATOM     76  C   UNL A   1      42.433  19.045  26.261  1.00  0.00     0.261 C 
BRANCH  76  77
ATOM     77  O   UNL A   1      41.571  20.195  26.166  1.00  0.00    -0.463 OA
BRANCH  77  78
ATOM     78  C   UNL A   1      41.940  21.251  26.944  1.00  0.00     0.310 C 
ATOM     79  O   UNL A   1      43.091  21.498  27.280  1.00  0.00    -0.252 OA
BRANCH  78  80
ATOM     80  C   UNL A   1      40.747  22.095  27.355  1.00  0.00     0.119 C 
ATOM     81  C   UNL A   1      41.274  23.478  27.789  1.00  0.00     0.019 C 
ATOM     82  C   UNL A   1      39.725  22.168  26.205  1.00  0.00     0.134 C 
ATOM     83  C   UNL A   1      40.164  24.507  27.907  1.00  0.00     0.022 C 
ATOM     84  N   UNL A   1      38.757  23.264  26.362  1.00  0.00    -0.342 N 
ATOM     85  C   UNL A   1      39.391  24.534  26.605  1.00  0.00     0.119 C 
BRANCH  84  86
ATOM     86  C   UNL A   1      37.466  23.117  25.889  1.00  0.00     0.225 C 
ATOM     87  O   UNL A   1      36.569  23.817  26.377  1.00  0.00    -0.275 OA
BRANCH  86  88
ATOM     88  C   UNL A   1      37.055  22.121  24.765  1.00  0.00     0.081 C 
ATOM     89  C   UNL A   1      36.702  22.746  23.426  1.00  0.00     0.030 C 
ATOM     90  C   UNL A   1      36.145  20.935  25.041  1.00  0.00     0.030 C 
ATOM     91  C   UNL A   1      35.247  23.141  23.308  1.00  0.00     0.103 C 
ATOM     92  C   UNL A   1      34.656  21.117  24.767  1.00  0.00     0.103 C 
ATOM     93  N   UNL A   1      34.264  22.066  23.684  1.00  0.00    -0.198 NA
BRANCH  93  94
ATOM     94  S   UNL A   1      32.682  22.797  23.860  1.00  0.00     0.243 S 
ATOM     95  O   UNL A   1      31.775  22.097  22.964  1.00  0.00    -0.207 OA
ATOM     96  O   UNL A   1      32.401  22.844  25.274  1.00  0.00    -0.207 OA
BRANCH  94  97
ATOM     97  C   UNL A   1      32.779  24.462  23.250  1.00  0.00     0.082 A 
ATOM     98  C   UNL A   1      32.610  25.527  24.139  1.00  0.00     0.022 A 
ATOM     99  C   UNL A   1      32.800  24.704  21.869  1.00  0.00     0.022 A 
ATOM    100  C   UNL A   1      32.513  26.830  23.645  1.00  0.00     0.001 A 
ATOM    101  C   UNL A   1      32.747  26.009  21.384  1.00  0.00     0.001 A 
ATOM    102  C   UNL A   1      32.599  27.071  22.272  1.00  0.00     0.000 A 
ENDBRANCH  94  97
ENDBRANCH  93  94
ENDBRANCH  86  88
ENDBRANCH  84  86
ENDBRANCH  78  80
ENDBRANCH  77  78
ENDBRANCH  76  77
ENDBRANCH  75  76
ENDBRANCH  74  75
ENDBRANCH   1  74
TORSDOF 21
ENDMDL
