MODEL 1
REMARK VINA RESULT:     -11.2      0.000      0.000
REMARK SMILES Cn1c(C(=O)N2CCC[C@@H](C(=O)OCCOCCOCCOC(=O)c3ccc(-c4c5nc(c(-c6c(F)c(F)c(F)c(F)c6F)c6ccc([nH]6)c(-c6c(F)c(F)c(F)c(F)c6F)c6nc(c(-c7c(F)c(F)c(F)c(F)c7F)c7ccc4[nH]7)C=C6)C=C5)cc3)C2)cc2sccc21
REMARK SMILES IDX 17 1 16 2 15 3 14 4 13 5 11 6 12 7 10 8 6 9 7 10 88 11 8 12
REMARK SMILES IDX 9 13 4 14 5 15 3 16 1 17 2 18 94 19 89 20 90 21 93 22 91 23
REMARK SMILES IDX 92 24 18 25 19 26 20 27 21 28 22 29 23 30 24 31 25 32 26 33
REMARK SMILES IDX 87 34 27 35 86 36 28 37 29 38 30 39 80 40 31 41 85 42 79 43
REMARK SMILES IDX 81 44 32 45 84 46 78 47 77 48 33 50 65 51 45 52 64 53 46 54
REMARK SMILES IDX 49 55 63 56 82 57 47 58 48 59 62 61 83 62 50 63 34 64 35 65
REMARK SMILES IDX 43 66 36 67 37 68 41 69 44 70 38 71 39 72 42 73 40 74 66 75
REMARK SMILES IDX 67 76 75 77 68 78 69 79 73 80 76 81 70 82 71 83 74 84 72 85
REMARK SMILES IDX 51 86 52 87 60 88 53 89 54 90 58 91 61 92 55 93 56 94 59 95
REMARK SMILES IDX 57 96
REMARK H PARENT 81 49 49 60
REMARK Flexibility Score: inf
ROOT
ATOM      1  C   UNL A   1      44.679  18.655  25.015  1.00  0.00     0.188 C 
ENDROOT
BRANCH   1   2
ATOM      2  O   UNL A   1      43.659  18.554  26.003  1.00  0.00    -0.376 OA
BRANCH   2   3
ATOM      3  C   UNL A   1      42.660  19.552  26.059  1.00  0.00     0.202 C 
BRANCH   3   4
ATOM      4  C   UNL A   1      41.786  19.535  27.321  1.00  0.00     0.261 C 
BRANCH   4   5
ATOM      5  O   UNL A   1      40.646  20.416  27.313  1.00  0.00    -0.463 OA
BRANCH   5   6
ATOM      6  C   UNL A   1      39.827  20.325  26.231  1.00  0.00     0.310 C 
ATOM      7  O   UNL A   1      39.519  19.277  25.680  1.00  0.00    -0.252 OA
BRANCH   6   8
ATOM      8  C   UNL A   1      39.355  21.700  25.770  1.00  0.00     0.119 C 
ATOM      9  N   UNL A   1      37.217  22.828  25.167  1.00  0.00    -0.337 N 
ATOM     10  C   UNL A   1      37.371  23.839  26.199  1.00  0.00     0.120 C 
ATOM     11  C   UNL A   1      37.870  21.547  25.422  1.00  0.00     0.135 C 
ATOM     12  C   UNL A   1      38.839  24.102  26.477  1.00  0.00     0.022 C 
ATOM     13  C   UNL A   1      39.568  22.801  26.820  1.00  0.00     0.019 C 
BRANCH   9  14
ATOM     14  C   UNL A   1      36.424  23.107  24.059  1.00  0.00     0.270 C 
ATOM     15  O   UNL A   1      36.890  23.078  22.922  1.00  0.00    -0.267 OA
BRANCH  14  16
ATOM     16  C   UNL A   1      35.042  23.499  24.310  1.00  0.00     0.108 A 
ATOM     17  C   UNL A   1      34.066  21.177  24.613  1.00  0.00     0.150 C 
ATOM     18  N   UNL A   1      34.000  22.614  24.501  1.00  0.00    -0.339 N 
ATOM     19  C   UNL A   1      32.816  23.320  24.537  1.00  0.00     0.059 A 
ATOM     20  C   UNL A   1      34.506  24.783  24.282  1.00  0.00     0.053 A 
ATOM     21  C   UNL A   1      33.105  24.645  24.439  1.00  0.00     0.053 A 
ATOM     22  C   UNL A   1      31.421  23.053  24.623  1.00  0.00     0.038 A 
ATOM     23  S   UNL A   1      31.695  25.645  24.500  1.00  0.00    -0.142 S 
ATOM     24  C   UNL A   1      30.714  24.237  24.597  1.00  0.00     0.068 A 
ENDBRANCH  14  16
ENDBRANCH   9  14
ENDBRANCH   6   8
ENDBRANCH   5   6
ENDBRANCH   4   5
ENDBRANCH   3   4
ENDBRANCH   2   3
ENDBRANCH   1   2
BRANCH   1  25
ATOM     25  C   UNL A   1      46.177  18.734  25.381  1.00  0.00     0.188 C 
BRANCH  25  26
ATOM     26  O   UNL A   1      46.739  20.027  25.182  1.00  0.00    -0.376 OA
BRANCH  26  27
ATOM     27  C   UNL A   1      45.855  20.998  24.636  1.00  0.00     0.202 C 
BRANCH  27  28
ATOM     28  C   UNL A   1      45.398  21.957  25.727  1.00  0.00     0.261 C 
BRANCH  28  29
ATOM     29  O   UNL A   1      44.070  22.426  25.513  1.00  0.00    -0.460 OA
BRANCH  29  30
ATOM     30  C   UNL A   1      43.926  23.701  25.125  1.00  0.00     0.338 C 
ATOM     31  O   UNL A   1      44.562  24.291  24.251  1.00  0.00    -0.246 OA
BRANCH  30  32
ATOM     32  C   UNL A   1      42.932  24.340  25.991  1.00  0.00     0.060 A 
ATOM     33  C   UNL A   1      42.196  25.393  25.440  1.00  0.00     0.016 A 
ATOM     34  C   UNL A   1      43.006  24.122  27.375  1.00  0.00     0.016 A 
ATOM     35  C   UNL A   1      41.799  26.408  26.277  1.00  0.00     0.010 A 
ATOM     36  C   UNL A   1      42.637  25.145  28.206  1.00  0.00     0.010 A 
ATOM     37  C   UNL A   1      42.152  26.318  27.624  1.00  0.00    -0.014 A 
BRANCH  37  38
ATOM     38  C   UNL A   1      42.154  27.527  28.419  1.00  0.00     0.031 A 
ATOM     39  C   UNL A   1      43.296  28.438  28.200  1.00  0.00     0.074 A 
ATOM     40  C   UNL A   1      41.054  27.831  29.139  1.00  0.00     0.049 A 
ATOM     41  N   UNL A   1      43.999  29.063  29.086  1.00  0.00    -0.248 NA
ATOM     42  C   UNL A   1      43.749  28.641  26.813  1.00  0.00     0.031 C 
ATOM     43  C   UNL A   1      39.777  27.103  29.163  1.00  0.00     0.029 A 
ATOM     44  N   UNL A   1      40.789  28.938  29.887  1.00  0.00    -0.354 N 
ATOM     45  C   UNL A   1      44.874  29.866  28.366  1.00  0.00     0.074 A 
ATOM     46  C   UNL A   1      44.760  29.489  26.983  1.00  0.00     0.031 C 
ATOM     47  C   UNL A   1      38.823  27.897  29.695  1.00  0.00     0.029 A 
ATOM     48  C   UNL A   1      39.436  29.142  30.123  1.00  0.00     0.049 A 
ATOM     49  H   UNL A   1      41.491  29.536  30.230  1.00  0.00     0.167 HD
ATOM     50  C   UNL A   1      45.469  30.948  28.925  1.00  0.00     0.037 A 
ATOM     51  C   UNL A   1      38.851  30.292  30.540  1.00  0.00     0.037 A 
ATOM     52  C   UNL A   1      45.560  30.836  30.353  1.00  0.00     0.049 A 
ATOM     53  C   UNL A   1      39.916  31.164  31.095  1.00  0.00     0.074 A 
ATOM     54  C   UNL A   1      46.147  29.917  31.203  1.00  0.00     0.029 A 
ATOM     55  N   UNL A   1      44.713  31.578  31.137  1.00  0.00    -0.354 N 
ATOM     56  N   UNL A   1      40.540  30.946  32.218  1.00  0.00    -0.248 NA
ATOM     57  C   UNL A   1      40.575  32.089  30.183  1.00  0.00     0.031 C 
ATOM     58  C   UNL A   1      45.286  29.849  32.336  1.00  0.00     0.029 A 
ATOM     59  C   UNL A   1      44.240  30.744  32.118  1.00  0.00     0.049 A 
ATOM     60  H   UNL A   1      44.488  32.529  31.017  1.00  0.00     0.167 HD
ATOM     61  C   UNL A   1      41.842  31.367  31.983  1.00  0.00     0.074 A 
ATOM     62  C   UNL A   1      41.775  32.163  30.765  1.00  0.00     0.031 C 
ATOM     63  C   UNL A   1      42.894  30.793  32.636  1.00  0.00     0.037 A 
BRANCH  50  64
ATOM     64  C   UNL A   1      45.665  32.235  28.176  1.00  0.00     0.064 A 
ATOM     65  C   UNL A   1      44.549  33.006  27.813  1.00  0.00     0.173 A 
ATOM     66  C   UNL A   1      46.889  32.592  27.562  1.00  0.00     0.173 A 
ATOM     67  F   UNL A   1      43.336  32.722  28.309  1.00  0.00    -0.203 F 
ATOM     68  C   UNL A   1      44.643  34.029  26.866  1.00  0.00     0.198 A 
ATOM     69  C   UNL A   1      46.988  33.649  26.663  1.00  0.00     0.198 A 
ATOM     70  F   UNL A   1      48.003  31.866  27.725  1.00  0.00    -0.203 F 
ATOM     71  F   UNL A   1      43.533  34.662  26.463  1.00  0.00    -0.200 F 
ATOM     72  C   UNL A   1      45.861  34.349  26.293  1.00  0.00     0.200 A 
ATOM     73  F   UNL A   1      48.174  33.928  26.102  1.00  0.00    -0.200 F 
ATOM     74  F   UNL A   1      45.940  35.294  25.347  1.00  0.00    -0.200 F 
ENDBRANCH  50  64
BRANCH  51  75
ATOM     75  C   UNL A   1      37.481  30.785  30.259  1.00  0.00     0.064 A 
ATOM     76  C   UNL A   1      36.631  31.192  31.301  1.00  0.00     0.173 A 
ATOM     77  C   UNL A   1      37.049  31.088  28.953  1.00  0.00     0.173 A 
ATOM     78  F   UNL A   1      36.988  30.994  32.579  1.00  0.00    -0.203 F 
ATOM     79  C   UNL A   1      35.429  31.863  31.050  1.00  0.00     0.198 A 
ATOM     80  C   UNL A   1      35.840  31.738  28.702  1.00  0.00     0.198 A 
ATOM     81  F   UNL A   1      37.828  30.840  27.891  1.00  0.00    -0.203 F 
ATOM     82  F   UNL A   1      34.676  32.288  32.074  1.00  0.00    -0.200 F 
ATOM     83  C   UNL A   1      35.036  32.137  29.751  1.00  0.00     0.200 A 
ATOM     84  F   UNL A   1      35.490  32.025  27.440  1.00  0.00    -0.200 F 
ATOM     85  F   UNL A   1      33.906  32.817  29.512  1.00  0.00    -0.200 F 
ENDBRANCH  51  75
BRANCH  63  86
ATOM     86  C   UNL A   1      42.586  29.912  33.812  1.00  0.00     0.064 A 
ATOM     87  C   UNL A   1      42.187  28.570  33.693  1.00  0.00     0.173 A 
ATOM     88  C   UNL A   1      42.841  30.399  35.101  1.00  0.00     0.173 A 
ATOM     89  F   UNL A   1      42.034  28.001  32.491  1.00  0.00    -0.203 F 
ATOM     90  C   UNL A   1      41.996  27.770  34.817  1.00  0.00     0.198 A 
ATOM     91  C   UNL A   1      42.687  29.586  36.221  1.00  0.00     0.198 A 
ATOM     92  F   UNL A   1      43.287  31.653  35.272  1.00  0.00    -0.203 F 
ATOM     93  F   UNL A   1      41.599  26.497  34.678  1.00  0.00    -0.200 F 
ATOM     94  C   UNL A   1      42.252  28.277  36.081  1.00  0.00     0.200 A 
ATOM     95  F   UNL A   1      42.987  30.063  37.437  1.00  0.00    -0.200 F 
ATOM     96  F   UNL A   1      42.108  27.496  37.160  1.00  0.00    -0.200 F 
ENDBRANCH  63  86
ENDBRANCH  37  38
ENDBRANCH  30  32
ENDBRANCH  29  30
ENDBRANCH  28  29
ENDBRANCH  27  28
ENDBRANCH  26  27
ENDBRANCH  25  26
ENDBRANCH   1  25
TORSDOF 19
ENDMDL
MODEL 2
REMARK VINA RESULT:     -11.1      5.103     10.148
REMARK SMILES Cn1c(C(=O)N2CCC[C@@H](C(=O)OCCOCCOCCOC(=O)c3ccc(-c4c5nc(c(-c6c(F)c(F)c(F)c(F)c6F)c6ccc([nH]6)c(-c6c(F)c(F)c(F)c(F)c6F)c6nc(c(-c7c(F)c(F)c(F)c(F)c7F)c7ccc4[nH]7)C=C6)C=C5)cc3)C2)cc2sccc21
REMARK SMILES IDX 17 1 16 2 15 3 14 4 13 5 11 6 12 7 10 8 6 9 7 10 88 11 8 12
REMARK SMILES IDX 9 13 4 14 5 15 3 16 1 17 2 18 94 19 89 20 90 21 93 22 91 23
REMARK SMILES IDX 92 24 18 25 19 26 20 27 21 28 22 29 23 30 24 31 25 32 26 33
REMARK SMILES IDX 87 34 27 35 86 36 28 37 29 38 30 39 80 40 31 41 85 42 79 43
REMARK SMILES IDX 81 44 32 45 84 46 78 47 77 48 33 50 65 51 45 52 64 53 46 54
REMARK SMILES IDX 49 55 63 56 82 57 47 58 48 59 62 61 83 62 50 63 34 64 35 65
REMARK SMILES IDX 43 66 36 67 37 68 41 69 44 70 38 71 39 72 42 73 40 74 66 75
REMARK SMILES IDX 67 76 75 77 68 78 69 79 73 80 76 81 70 82 71 83 74 84 72 85
REMARK SMILES IDX 51 86 52 87 60 88 53 89 54 90 58 91 61 92 55 93 56 94 59 95
REMARK SMILES IDX 57 96
REMARK H PARENT 81 49 49 60
REMARK Flexibility Score: inf
ROOT
ATOM      1  C   UNL A   1      33.602  30.893  27.596  1.00  0.00     0.188 C 
ENDROOT
BRANCH   1   2
ATOM      2  O   UNL A   1      34.421  29.975  26.880  1.00  0.00    -0.376 OA
BRANCH   2   3
ATOM      3  C   UNL A   1      33.849  28.774  26.404  1.00  0.00     0.202 C 
BRANCH   3   4
ATOM      4  C   UNL A   1      33.811  28.624  24.877  1.00  0.00     0.261 C 
BRANCH   4   5
ATOM      5  O   UNL A   1      32.728  29.293  24.202  1.00  0.00    -0.463 OA
BRANCH   5   6
ATOM      6  C   UNL A   1      31.573  28.586  24.076  1.00  0.00     0.310 C 
ATOM      7  O   UNL A   1      30.455  29.082  24.040  1.00  0.00    -0.252 OA
BRANCH   6   8
ATOM      8  C   UNL A   1      31.841  27.086  24.010  1.00  0.00     0.119 C 
ATOM      9  N   UNL A   1      30.847  24.977  24.886  1.00  0.00    -0.337 N 
ATOM     10  C   UNL A   1      30.630  24.436  23.555  1.00  0.00     0.120 C 
ATOM     11  C   UNL A   1      30.862  26.433  24.992  1.00  0.00     0.135 C 
ATOM     12  C   UNL A   1      31.667  24.971  22.585  1.00  0.00     0.022 C 
ATOM     13  C   UNL A   1      31.684  26.501  22.598  1.00  0.00     0.019 C 
BRANCH   9  14
ATOM     14  C   UNL A   1      30.955  24.103  25.963  1.00  0.00     0.270 C 
ATOM     15  O   UNL A   1      30.397  24.340  27.032  1.00  0.00    -0.267 OA
BRANCH  14  16
ATOM     16  C   UNL A   1      31.810  22.934  25.789  1.00  0.00     0.108 A 
ATOM     17  C   UNL A   1      34.052  24.097  26.036  1.00  0.00     0.150 C 
ATOM     18  N   UNL A   1      33.190  22.970  25.774  1.00  0.00    -0.339 N 
ATOM     19  C   UNL A   1      33.664  21.724  25.418  1.00  0.00     0.059 A 
ATOM     20  C   UNL A   1      31.417  21.632  25.495  1.00  0.00     0.053 A 
ATOM     21  C   UNL A   1      32.602  20.886  25.276  1.00  0.00     0.053 A 
ATOM     22  C   UNL A   1      34.913  21.099  25.148  1.00  0.00     0.038 A 
ATOM     23  S   UNL A   1      33.070  19.275  24.856  1.00  0.00    -0.142 S 
ATOM     24  C   UNL A   1      34.714  19.775  24.817  1.00  0.00     0.068 A 
ENDBRANCH  14  16
ENDBRANCH   9  14
ENDBRANCH   6   8
ENDBRANCH   5   6
ENDBRANCH   4   5
ENDBRANCH   3   4
ENDBRANCH   2   3
ENDBRANCH   1   2
BRANCH   1  25
ATOM     25  C   UNL A   1      34.097  32.298  28.003  1.00  0.00     0.188 C 
BRANCH  25  26
ATOM     26  O   UNL A   1      35.427  32.573  27.576  1.00  0.00    -0.376 OA
BRANCH  26  27
ATOM     27  C   UNL A   1      36.190  33.392  28.453  1.00  0.00     0.202 C 
BRANCH  27  28
ATOM     28  C   UNL A   1      36.651  32.580  29.655  1.00  0.00     0.261 C 
BRANCH  28  29
ATOM     29  O   UNL A   1      37.653  31.627  29.312  1.00  0.00    -0.460 OA
BRANCH  29  30
ATOM     30  C   UNL A   1      37.297  30.335  29.319  1.00  0.00     0.338 C 
ATOM     31  O   UNL A   1      36.400  29.812  29.982  1.00  0.00    -0.246 OA
BRANCH  30  32
ATOM     32  C   UNL A   1      38.227  29.592  28.465  1.00  0.00     0.060 A 
ATOM     33  C   UNL A   1      38.074  28.204  28.421  1.00  0.00     0.016 A 
ATOM     34  C   UNL A   1      39.399  30.230  28.032  1.00  0.00     0.016 A 
ATOM     35  C   UNL A   1      39.202  27.437  28.245  1.00  0.00     0.010 A 
ATOM     36  C   UNL A   1      40.527  29.470  27.886  1.00  0.00     0.010 A 
ATOM     37  C   UNL A   1      40.425  28.097  28.116  1.00  0.00    -0.014 A 
BRANCH  37  38
ATOM     38  C   UNL A   1      41.639  27.354  28.377  1.00  0.00     0.031 A 
ATOM     39  C   UNL A   1      42.270  27.594  29.691  1.00  0.00     0.074 A 
ATOM     40  C   UNL A   1      41.999  26.378  27.517  1.00  0.00     0.049 A 
ATOM     41  N   UNL A   1      43.522  27.768  29.954  1.00  0.00    -0.248 NA
ATOM     42  C   UNL A   1      41.382  27.706  30.862  1.00  0.00     0.031 C 
ATOM     43  C   UNL A   1      41.248  25.903  26.345  1.00  0.00     0.029 A 
ATOM     44  N   UNL A   1      43.037  25.500  27.591  1.00  0.00    -0.354 N 
ATOM     45  C   UNL A   1      43.603  27.845  31.339  1.00  0.00     0.074 A 
ATOM     46  C   UNL A   1      42.257  27.915  31.842  1.00  0.00     0.031 C 
ATOM     47  C   UNL A   1      41.731  24.701  25.965  1.00  0.00     0.029 A 
ATOM     48  C   UNL A   1      42.869  24.367  26.805  1.00  0.00     0.049 A 
ATOM     49  H   UNL A   1      43.833  25.654  28.149  1.00  0.00     0.167 HD
ATOM     50  C   UNL A   1      44.766  27.615  31.997  1.00  0.00     0.037 A 
ATOM     51  C   UNL A   1      43.549  23.199  26.911  1.00  0.00     0.037 A 
ATOM     52  C   UNL A   1      45.911  27.853  31.167  1.00  0.00     0.049 A 
ATOM     53  C   UNL A   1      44.768  23.459  27.717  1.00  0.00     0.074 A 
ATOM     54  C   UNL A   1      46.376  28.955  30.474  1.00  0.00     0.029 A 
ATOM     55  N   UNL A   1      46.613  26.782  30.674  1.00  0.00    -0.354 N 
ATOM     56  N   UNL A   1      45.796  24.145  27.303  1.00  0.00    -0.248 NA
ATOM     57  C   UNL A   1      44.676  23.282  29.159  1.00  0.00     0.031 C 
ATOM     58  C   UNL A   1      46.981  28.431  29.295  1.00  0.00     0.029 A 
ATOM     59  C   UNL A   1      46.867  27.042  29.351  1.00  0.00     0.049 A 
ATOM     60  H   UNL A   1      46.882  25.978  31.174  1.00  0.00     0.167 HD
ATOM     61  C   UNL A   1      46.239  24.827  28.428  1.00  0.00     0.074 A 
ATOM     62  C   UNL A   1      45.590  24.170  29.556  1.00  0.00     0.031 C 
ATOM     63  C   UNL A   1      46.860  26.037  28.316  1.00  0.00     0.037 A 
BRANCH  50  64
ATOM     64  C   UNL A   1      44.819  26.863  33.296  1.00  0.00     0.064 A 
ATOM     65  C   UNL A   1      45.377  27.474  34.431  1.00  0.00     0.173 A 
ATOM     66  C   UNL A   1      44.595  25.470  33.392  1.00  0.00     0.173 A 
ATOM     67  F   UNL A   1      45.666  28.783  34.427  1.00  0.00    -0.203 F 
ATOM     68  C   UNL A   1      45.731  26.733  35.562  1.00  0.00     0.198 A 
ATOM     69  C   UNL A   1      44.894  24.746  34.541  1.00  0.00     0.198 A 
ATOM     70  F   UNL A   1      44.182  24.744  32.344  1.00  0.00    -0.203 F 
ATOM     71  F   UNL A   1      46.366  27.334  36.576  1.00  0.00    -0.200 F 
ATOM     72  C   UNL A   1      45.490  25.371  35.616  1.00  0.00     0.200 A 
ATOM     73  F   UNL A   1      44.674  23.423  34.565  1.00  0.00    -0.200 F 
ATOM     74  F   UNL A   1      45.877  24.654  36.678  1.00  0.00    -0.200 F 
ENDBRANCH  50  64
BRANCH  51  75
ATOM     75  C   UNL A   1      43.087  21.830  26.581  1.00  0.00     0.064 A 
ATOM     76  C   UNL A   1      43.759  21.051  25.625  1.00  0.00     0.173 A 
ATOM     77  C   UNL A   1      42.117  21.161  27.355  1.00  0.00     0.173 A 
ATOM     78  F   UNL A   1      44.736  21.590  24.882  1.00  0.00    -0.203 F 
ATOM     79  C   UNL A   1      43.482  19.689  25.459  1.00  0.00     0.198 A 
ATOM     80  C   UNL A   1      41.825  19.809  27.174  1.00  0.00     0.198 A 
ATOM     81  F   UNL A   1      41.490  21.780  28.365  1.00  0.00    -0.203 F 
ATOM     82  F   UNL A   1      44.187  18.967  24.577  1.00  0.00    -0.200 F 
ATOM     83  C   UNL A   1      42.516  19.070  26.235  1.00  0.00     0.200 A 
ATOM     84  F   UNL A   1      40.911  19.216  27.955  1.00  0.00    -0.200 F 
ATOM     85  F   UNL A   1      42.280  17.757  26.105  1.00  0.00    -0.200 F 
ENDBRANCH  51  75
BRANCH  63  86
ATOM     86  C   UNL A   1      47.307  26.466  26.949  1.00  0.00     0.064 A 
ATOM     87  C   UNL A   1      48.561  26.138  26.404  1.00  0.00     0.173 A 
ATOM     88  C   UNL A   1      46.387  27.109  26.110  1.00  0.00     0.173 A 
ATOM     89  F   UNL A   1      49.451  25.425  27.105  1.00  0.00    -0.203 F 
ATOM     90  C   UNL A   1      48.895  26.489  25.099  1.00  0.00     0.198 A 
ATOM     91  C   UNL A   1      46.710  27.423  24.793  1.00  0.00     0.198 A 
ATOM     92  F   UNL A   1      45.152  27.389  26.556  1.00  0.00    -0.203 F 
ATOM     93  F   UNL A   1      50.104  26.178  24.608  1.00  0.00    -0.200 F 
ATOM     94  C   UNL A   1      47.967  27.126  24.292  1.00  0.00     0.200 A 
ATOM     95  F   UNL A   1      45.791  27.991  23.999  1.00  0.00    -0.200 F 
ATOM     96  F   UNL A   1      48.274  27.427  23.022  1.00  0.00    -0.200 F 
ENDBRANCH  63  86
ENDBRANCH  37  38
ENDBRANCH  30  32
ENDBRANCH  29  30
ENDBRANCH  28  29
ENDBRANCH  27  28
ENDBRANCH  26  27
ENDBRANCH  25  26
ENDBRANCH   1  25
TORSDOF 19
ENDMDL
MODEL 3
REMARK VINA RESULT:     -11.0      2.627      7.328
REMARK SMILES Cn1c(C(=O)N2CCC[C@@H](C(=O)OCCOCCOCCOC(=O)c3ccc(-c4c5nc(c(-c6c(F)c(F)c(F)c(F)c6F)c6ccc([nH]6)c(-c6c(F)c(F)c(F)c(F)c6F)c6nc(c(-c7c(F)c(F)c(F)c(F)c7F)c7ccc4[nH]7)C=C6)C=C5)cc3)C2)cc2sccc21
REMARK SMILES IDX 17 1 16 2 15 3 14 4 13 5 11 6 12 7 10 8 6 9 7 10 88 11 8 12
REMARK SMILES IDX 9 13 4 14 5 15 3 16 1 17 2 18 94 19 89 20 90 21 93 22 91 23
REMARK SMILES IDX 92 24 18 25 19 26 20 27 21 28 22 29 23 30 24 31 25 32 26 33
REMARK SMILES IDX 87 34 27 35 86 36 28 37 29 38 30 39 80 40 31 41 85 42 79 43
REMARK SMILES IDX 81 44 32 45 84 46 78 47 77 48 33 50 65 51 45 52 64 53 46 54
REMARK SMILES IDX 49 55 63 56 82 57 47 58 48 59 62 61 83 62 50 63 34 64 35 65
REMARK SMILES IDX 43 66 36 67 37 68 41 69 44 70 38 71 39 72 42 73 40 74 66 75
REMARK SMILES IDX 67 76 75 77 68 78 69 79 73 80 76 81 70 82 71 83 74 84 72 85
REMARK SMILES IDX 51 86 52 87 60 88 53 89 54 90 58 91 61 92 55 93 56 94 59 95
REMARK SMILES IDX 57 96
REMARK H PARENT 81 49 49 60
REMARK Flexibility Score: inf
ROOT
ATOM      1  C   UNL A   1      40.099  22.194  26.858  1.00  0.00     0.188 C 
ENDROOT
BRANCH   1   2
ATOM      2  O   UNL A   1      39.098  21.459  26.164  1.00  0.00    -0.376 OA
BRANCH   2   3
ATOM      3  C   UNL A   1      37.959  22.141  25.678  1.00  0.00     0.202 C 
BRANCH   3   4
ATOM      4  C   UNL A   1      37.020  21.307  24.797  1.00  0.00     0.261 C 
BRANCH   4   5
ATOM      5  O   UNL A   1      35.953  22.027  24.150  1.00  0.00    -0.463 OA
BRANCH   5   6
ATOM      6  C   UNL A   1      34.689  21.620  24.447  1.00  0.00     0.310 C 
ATOM      7  O   UNL A   1      34.364  20.457  24.646  1.00  0.00    -0.252 OA
BRANCH   6   8
ATOM      8  C   UNL A   1      33.716  22.794  24.478  1.00  0.00     0.119 C 
ATOM      9  N   UNL A   1      32.981  24.642  22.978  1.00  0.00    -0.337 N 
ATOM     10  C   UNL A   1      31.594  24.209  22.997  1.00  0.00     0.120 C 
ATOM     11  C   UNL A   1      33.981  23.602  23.203  1.00  0.00     0.135 C 
ATOM     12  C   UNL A   1      31.269  23.512  24.305  1.00  0.00     0.022 C 
ATOM     13  C   UNL A   1      32.244  22.363  24.566  1.00  0.00     0.019 C 
BRANCH   9  14
ATOM     14  C   UNL A   1      33.271  25.971  22.687  1.00  0.00     0.270 C 
ATOM     15  O   UNL A   1      33.721  26.297  21.591  1.00  0.00    -0.267 OA
BRANCH  14  16
ATOM     16  C   UNL A   1      33.081  26.944  23.756  1.00  0.00     0.108 A 
ATOM     17  C   UNL A   1      30.938  27.997  22.900  1.00  0.00     0.150 C 
ATOM     18  N   UNL A   1      32.060  27.872  23.798  1.00  0.00    -0.339 N 
ATOM     19  C   UNL A   1      32.285  28.736  24.849  1.00  0.00     0.059 A 
ATOM     20  C   UNL A   1      33.927  27.198  24.832  1.00  0.00     0.053 A 
ATOM     21  C   UNL A   1      33.399  28.323  25.511  1.00  0.00     0.053 A 
ATOM     22  C   UNL A   1      31.707  29.913  25.401  1.00  0.00     0.038 A 
ATOM     23  S   UNL A   1      33.774  29.317  26.877  1.00  0.00    -0.142 S 
ATOM     24  C   UNL A   1      32.437  30.327  26.494  1.00  0.00     0.068 A 
ENDBRANCH  14  16
ENDBRANCH   9  14
ENDBRANCH   6   8
ENDBRANCH   5   6
ENDBRANCH   4   5
ENDBRANCH   3   4
ENDBRANCH   2   3
ENDBRANCH   1   2
BRANCH   1  25
ATOM     25  C   UNL A   1      41.131  21.513  27.782  1.00  0.00     0.188 C 
BRANCH  25  26
ATOM     26  O   UNL A   1      42.315  22.281  27.970  1.00  0.00    -0.376 OA
BRANCH  26  27
ATOM     27  C   UNL A   1      43.121  22.451  26.811  1.00  0.00     0.202 C 
BRANCH  27  28
ATOM     28  C   UNL A   1      43.546  23.907  26.681  1.00  0.00     0.261 C 
BRANCH  28  29
ATOM     29  O   UNL A   1      42.467  24.808  26.914  1.00  0.00    -0.460 OA
BRANCH  29  30
ATOM     30  C   UNL A   1      42.041  25.535  25.871  1.00  0.00     0.338 C 
ATOM     31  O   UNL A   1      42.447  25.482  24.710  1.00  0.00    -0.246 OA
BRANCH  30  32
ATOM     32  C   UNL A   1      41.054  26.503  26.354  1.00  0.00     0.060 A 
ATOM     33  C   UNL A   1      41.207  27.827  25.931  1.00  0.00     0.016 A 
ATOM     34  C   UNL A   1      40.249  26.156  27.449  1.00  0.00     0.016 A 
ATOM     35  C   UNL A   1      40.816  28.826  26.791  1.00  0.00     0.010 A 
ATOM     36  C   UNL A   1      39.886  27.148  28.319  1.00  0.00     0.010 A 
ATOM     37  C   UNL A   1      40.286  28.453  28.026  1.00  0.00    -0.014 A 
BRANCH  37  38
ATOM     38  C   UNL A   1      40.287  29.425  29.098  1.00  0.00     0.031 A 
ATOM     39  C   UNL A   1      39.161  30.381  29.100  1.00  0.00     0.074 A 
ATOM     40  C   UNL A   1      41.174  29.279  30.105  1.00  0.00     0.049 A 
ATOM     41  N   UNL A   1      39.198  31.656  29.307  1.00  0.00    -0.248 NA
ATOM     42  C   UNL A   1      37.822  29.857  28.778  1.00  0.00     0.031 C 
ATOM     43  C   UNL A   1      42.127  28.175  30.298  1.00  0.00     0.029 A 
ATOM     44  N   UNL A   1      41.312  30.005  31.248  1.00  0.00    -0.354 N 
ATOM     45  C   UNL A   1      37.872  32.070  29.307  1.00  0.00     0.074 A 
ATOM     46  C   UNL A   1      37.076  30.955  28.868  1.00  0.00     0.031 C 
ATOM     47  C   UNL A   1      42.568  28.188  31.574  1.00  0.00     0.029 A 
ATOM     48  C   UNL A   1      42.001  29.340  32.254  1.00  0.00     0.049 A 
ATOM     49  H   UNL A   1      40.957  30.917  31.353  1.00  0.00     0.167 HD
ATOM     50  C   UNL A   1      37.491  33.234  29.889  1.00  0.00     0.037 A 
ATOM     51  C   UNL A   1      42.016  29.656  33.572  1.00  0.00     0.037 A 
ATOM     52  C   UNL A   1      38.569  34.178  29.964  1.00  0.00     0.049 A 
ATOM     53  C   UNL A   1      41.520  31.048  33.707  1.00  0.00     0.074 A 
ATOM     54  C   UNL A   1      39.386  34.771  29.019  1.00  0.00     0.029 A 
ATOM     55  N   UNL A   1      39.175  34.405  31.173  1.00  0.00    -0.354 N 
ATOM     56  N   UNL A   1      42.181  32.108  33.334  1.00  0.00    -0.248 NA
ATOM     57  C   UNL A   1      40.090  31.242  33.902  1.00  0.00     0.031 C 
ATOM     58  C   UNL A   1      40.654  34.911  29.653  1.00  0.00     0.029 A 
ATOM     59  C   UNL A   1      40.528  34.414  30.950  1.00  0.00     0.049 A 
ATOM     60  H   UNL A   1      38.723  34.536  32.038  1.00  0.00     0.167 HD
ATOM     61  C   UNL A   1      41.211  32.975  32.852  1.00  0.00     0.074 A 
ATOM     62  C   UNL A   1      39.944  32.440  33.333  1.00  0.00     0.031 C 
ATOM     63  C   UNL A   1      41.501  33.878  31.871  1.00  0.00     0.037 A 
BRANCH  50  64
ATOM     64  C   UNL A   1      36.215  33.361  30.671  1.00  0.00     0.064 A 
ATOM     65  C   UNL A   1      35.172  34.162  30.174  1.00  0.00     0.173 A 
ATOM     66  C   UNL A   1      36.090  32.951  32.019  1.00  0.00     0.173 A 
ATOM     67  F   UNL A   1      35.216  34.636  28.921  1.00  0.00    -0.203 F 
ATOM     68  C   UNL A   1      34.107  34.561  30.986  1.00  0.00     0.198 A 
ATOM     69  C   UNL A   1      34.998  33.303  32.805  1.00  0.00     0.198 A 
ATOM     70  F   UNL A   1      37.068  32.289  32.652  1.00  0.00    -0.203 F 
ATOM     71  F   UNL A   1      33.195  35.417  30.507  1.00  0.00    -0.200 F 
ATOM     72  C   UNL A   1      34.021  34.132  32.298  1.00  0.00     0.200 A 
ATOM     73  F   UNL A   1      34.946  32.895  34.082  1.00  0.00    -0.200 F 
ATOM     74  F   UNL A   1      33.028  34.558  33.090  1.00  0.00    -0.200 F 
ENDBRANCH  50  64
BRANCH  51  75
ATOM     75  C   UNL A   1      42.187  28.753  34.735  1.00  0.00     0.064 A 
ATOM     76  C   UNL A   1      41.476  27.545  34.823  1.00  0.00     0.173 A 
ATOM     77  C   UNL A   1      43.218  28.935  35.679  1.00  0.00     0.173 A 
ATOM     78  F   UNL A   1      40.514  27.262  33.933  1.00  0.00    -0.203 F 
ATOM     79  C   UNL A   1      41.782  26.580  35.790  1.00  0.00     0.198 A 
ATOM     80  C   UNL A   1      43.509  27.983  36.655  1.00  0.00     0.198 A 
ATOM     81  F   UNL A   1      44.028  30.003  35.622  1.00  0.00    -0.203 F 
ATOM     82  F   UNL A   1      41.120  25.414  35.802  1.00  0.00    -0.200 F 
ATOM     83  C   UNL A   1      42.799  26.800  36.703  1.00  0.00     0.200 A 
ATOM     84  F   UNL A   1      44.518  28.197  37.512  1.00  0.00    -0.200 F 
ATOM     85  F   UNL A   1      43.121  25.858  37.602  1.00  0.00    -0.200 F 
ENDBRANCH  51  75
BRANCH  63  86
ATOM     86  C   UNL A   1      42.947  34.107  31.540  1.00  0.00     0.064 A 
ATOM     87  C   UNL A   1      43.669  33.317  30.628  1.00  0.00     0.173 A 
ATOM     88  C   UNL A   1      43.583  35.245  32.054  1.00  0.00     0.173 A 
ATOM     89  F   UNL A   1      43.093  32.280  30.009  1.00  0.00    -0.203 F 
ATOM     90  C   UNL A   1      44.986  33.623  30.292  1.00  0.00     0.198 A 
ATOM     91  C   UNL A   1      44.886  35.569  31.687  1.00  0.00     0.198 A 
ATOM     92  F   UNL A   1      42.921  36.071  32.879  1.00  0.00    -0.203 F 
ATOM     93  F   UNL A   1      45.658  32.845  29.432  1.00  0.00    -0.200 F 
ATOM     94  C   UNL A   1      45.591  34.752  30.817  1.00  0.00     0.200 A 
ATOM     95  F   UNL A   1      45.451  36.692  32.154  1.00  0.00    -0.200 F 
ATOM     96  F   UNL A   1      46.844  35.070  30.463  1.00  0.00    -0.200 F 
ENDBRANCH  63  86
ENDBRANCH  37  38
ENDBRANCH  30  32
ENDBRANCH  29  30
ENDBRANCH  28  29
ENDBRANCH  27  28
ENDBRANCH  26  27
ENDBRANCH  25  26
ENDBRANCH   1  25
TORSDOF 19
ENDMDL
