MODEL 1
REMARK VINA RESULT:     -10.1      0.000      0.000
REMARK SMILES C[NH2+][C@]1(C(=O)OCCOCCOCCOC(=O)c2ccc(-c3c4nc(c(-c5c(F)c(F)c(F)c(F)c5F)c5ccc([nH]5)c(-c5c(F)c(F)c(F)c(F)c5F)c5nc(c(-c6c(F)c(F)c(F)c(F)c6F)c6ccc3[nH]6)C=C5)C=C4)cc2)CC[C@@H]([N@@H+](C)C[C@@H]2CCCCO2)C1
REMARK SMILES IDX 10 1 9 2 8 3 7 4 6 5 4 6 5 7 3 8 81 9 93 10 82 11 83 12 2 13
REMARK SMILES IDX 1 14 84 17 85 18 86 20 87 21 88 22 92 23 89 24 91 25 90 26
REMARK SMILES IDX 11 27 12 28 13 29 14 30 15 31 16 32 17 33 18 34 19 35 80 36
REMARK SMILES IDX 20 37 79 38 21 39 22 40 23 41 73 42 24 43 78 44 72 45 74 46
REMARK SMILES IDX 25 47 77 48 71 49 70 50 26 52 58 53 38 54 57 55 39 56 42 57
REMARK SMILES IDX 56 58 75 59 40 60 41 61 55 63 76 64 43 65 27 66 28 67 36 68
REMARK SMILES IDX 29 69 30 70 34 71 37 72 31 73 32 74 35 75 33 76 59 77 60 78
REMARK SMILES IDX 68 79 61 80 62 81 66 82 69 83 63 84 64 85 67 86 65 87 44 88
REMARK SMILES IDX 45 89 53 90 46 91 47 92 51 93 54 94 48 95 49 96 52 97 50 98
REMARK H PARENT 2 15 2 16 84 19 74 51 42 62
REMARK Flexibility Score: inf
ROOT
ATOM      1  C   UNL A   1      34.711  32.141  28.714  1.00  0.00     0.188 C 
ENDROOT
BRANCH   1   2
ATOM      2  O   UNL A   1      34.727  30.959  27.921  1.00  0.00    -0.376 OA
BRANCH   2   3
ATOM      3  C   UNL A   1      33.549  30.574  27.223  1.00  0.00     0.202 C 
BRANCH   3   4
ATOM      4  C   UNL A   1      33.471  29.204  26.521  1.00  0.00     0.261 C 
BRANCH   4   5
ATOM      5  O   UNL A   1      33.201  29.229  25.105  1.00  0.00    -0.459 OA
BRANCH   5   6
ATOM      6  C   UNL A   1      32.071  28.593  24.698  1.00  0.00     0.368 C 
ATOM      7  O   UNL A   1      31.081  28.442  25.413  1.00  0.00    -0.245 OA
BRANCH   6   8
ATOM      8  C   UNL A   1      32.102  28.103  23.214  1.00  0.00     0.200 C 
ATOM      9  C   UNL A   1      33.419  27.529  22.642  1.00  0.00     0.087 C 
ATOM     10  C   UNL A   1      31.197  26.841  23.182  1.00  0.00     0.146 C 
ATOM     11  C   UNL A   1      32.939  26.622  21.513  1.00  0.00     0.072 C 
ATOM     12  C   UNL A   1      31.751  25.881  22.110  1.00  0.00     0.191 C 
BRANCH   8  13
ATOM     13  N   UNL A   1      31.750  29.250  22.319  1.00  0.00    -0.334 N 
ATOM     14  C   UNL A   1      30.334  29.507  22.137  1.00  0.00     0.331 C 
ATOM     15  H   UNL A   1      32.171  30.092  22.711  1.00  0.00     0.347 HD
ATOM     16  H   UNL A   1      32.104  28.997  21.396  1.00  0.00     0.347 HD
ENDBRANCH   8  13
BRANCH  12  17
ATOM     17  N   UNL A   1      32.005  24.532  22.652  1.00  0.00    -0.333 N 
ATOM     18  C   UNL A   1      33.128  23.893  21.971  1.00  0.00     0.333 C 
ATOM     19  H   UNL A   1      31.150  24.024  22.429  1.00  0.00     0.348 HD
BRANCH  17  20
ATOM     20  C   UNL A   1      32.045  24.376  24.128  1.00  0.00     0.294 C 
BRANCH  20  21
ATOM     21  C   UNL A   1      31.954  22.938  24.732  1.00  0.00     0.173 C 
ATOM     22  C   UNL A   1      31.053  22.827  25.968  1.00  0.00     0.038 C 
ATOM     23  O   UNL A   1      33.244  22.343  24.943  1.00  0.00    -0.372 OA
ATOM     24  C   UNL A   1      31.766  23.223  27.251  1.00  0.00     0.005 C 
ATOM     25  C   UNL A   1      33.925  22.745  26.127  1.00  0.00     0.161 C 
ATOM     26  C   UNL A   1      33.079  22.465  27.359  1.00  0.00     0.029 C 
ENDBRANCH  20  21
ENDBRANCH  17  20
ENDBRANCH  12  17
ENDBRANCH   6   8
ENDBRANCH   5   6
ENDBRANCH   4   5
ENDBRANCH   3   4
ENDBRANCH   2   3
ENDBRANCH   1   2
BRANCH   1  27
ATOM     27  C   UNL A   1      35.294  33.438  28.131  1.00  0.00     0.188 C 
BRANCH  27  28
ATOM     28  O   UNL A   1      35.017  34.599  28.871  1.00  0.00    -0.376 OA
BRANCH  28  29
ATOM     29  C   UNL A   1      34.023  35.488  28.409  1.00  0.00     0.202 C 
BRANCH  29  30
ATOM     30  C   UNL A   1      32.920  36.047  29.329  1.00  0.00     0.261 C 
BRANCH  30  31
ATOM     31  O   UNL A   1      32.474  35.233  30.424  1.00  0.00    -0.460 OA
BRANCH  31  32
ATOM     32  C   UNL A   1      32.661  35.706  31.675  1.00  0.00     0.338 C 
ATOM     33  O   UNL A   1      31.923  36.457  32.299  1.00  0.00    -0.246 OA
BRANCH  32  34
ATOM     34  C   UNL A   1      33.822  35.002  32.265  1.00  0.00     0.060 A 
ATOM     35  C   UNL A   1      35.088  35.602  32.214  1.00  0.00     0.016 A 
ATOM     36  C   UNL A   1      33.661  33.753  32.870  1.00  0.00     0.016 A 
ATOM     37  C   UNL A   1      36.202  34.944  32.742  1.00  0.00     0.010 A 
ATOM     38  C   UNL A   1      34.781  33.084  33.376  1.00  0.00     0.010 A 
ATOM     39  C   UNL A   1      36.062  33.662  33.287  1.00  0.00    -0.014 A 
BRANCH  39  40
ATOM     40  C   UNL A   1      37.262  32.842  33.594  1.00  0.00     0.031 A 
ATOM     41  C   UNL A   1      37.997  33.103  34.880  1.00  0.00     0.074 A 
ATOM     42  C   UNL A   1      37.701  31.886  32.755  1.00  0.00     0.049 A 
ATOM     43  N   UNL A   1      39.118  32.593  35.323  1.00  0.00    -0.248 NA
ATOM     44  C   UNL A   1      37.379  34.080  35.793  1.00  0.00     0.031 C 
ATOM     45  C   UNL A   1      37.057  31.499  31.502  1.00  0.00     0.029 A 
ATOM     46  N   UNL A   1      38.811  31.080  32.829  1.00  0.00    -0.354 N 
ATOM     47  C   UNL A   1      39.346  33.195  36.553  1.00  0.00     0.074 A 
ATOM     48  C   UNL A   1      38.263  34.128  36.776  1.00  0.00     0.031 C 
ATOM     49  C   UNL A   1      37.796  30.542  30.912  1.00  0.00     0.029 A 
ATOM     50  C   UNL A   1      38.983  30.279  31.725  1.00  0.00     0.049 A 
ATOM     51  H   UNL A   1      39.424  31.076  33.599  1.00  0.00     0.167 HD
ATOM     52  C   UNL A   1      40.364  32.986  37.422  1.00  0.00     0.037 A 
ATOM     53  C   UNL A   1      39.999  29.454  31.399  1.00  0.00     0.037 A 
ATOM     54  C   UNL A   1      41.443  32.060  37.198  1.00  0.00     0.049 A 
ATOM     55  C   UNL A   1      41.166  29.302  32.343  1.00  0.00     0.074 A 
ATOM     56  C   UNL A   1      42.513  31.765  38.026  1.00  0.00     0.029 A 
ATOM     57  N   UNL A   1      41.597  31.287  36.057  1.00  0.00    -0.354 N 
ATOM     58  N   UNL A   1      41.367  29.856  33.515  1.00  0.00    -0.248 NA
ATOM     59  C   UNL A   1      42.251  28.404  31.918  1.00  0.00     0.031 C 
ATOM     60  C   UNL A   1      43.346  30.862  37.359  1.00  0.00     0.029 A 
ATOM     61  C   UNL A   1      42.760  30.539  36.146  1.00  0.00     0.049 A 
ATOM     62  H   UNL A   1      40.973  31.273  35.296  1.00  0.00     0.167 HD
ATOM     63  C   UNL A   1      42.576  29.350  33.980  1.00  0.00     0.074 A 
ATOM     64  C   UNL A   1      43.059  28.434  32.969  1.00  0.00     0.031 C 
ATOM     65  C   UNL A   1      43.226  29.618  35.139  1.00  0.00     0.037 A 
BRANCH  52  66
ATOM     66  C   UNL A   1      40.378  33.801  38.684  1.00  0.00     0.064 A 
ATOM     67  C   UNL A   1      39.650  33.417  39.821  1.00  0.00     0.173 A 
ATOM     68  C   UNL A   1      41.155  34.966  38.766  1.00  0.00     0.173 A 
ATOM     69  F   UNL A   1      38.879  32.319  39.792  1.00  0.00    -0.203 F 
ATOM     70  C   UNL A   1      39.677  34.185  40.981  1.00  0.00     0.198 A 
ATOM     71  C   UNL A   1      41.206  35.713  39.940  1.00  0.00     0.198 A 
ATOM     72  F   UNL A   1      41.874  35.376  37.711  1.00  0.00    -0.203 F 
ATOM     73  F   UNL A   1      38.932  33.828  42.037  1.00  0.00    -0.200 F 
ATOM     74  C   UNL A   1      40.460  35.328  41.044  1.00  0.00     0.200 A 
ATOM     75  F   UNL A   1      41.977  36.808  40.001  1.00  0.00    -0.200 F 
ATOM     76  F   UNL A   1      40.493  36.061  42.164  1.00  0.00    -0.200 F 
ENDBRANCH  52  66
BRANCH  53  77
ATOM     77  C   UNL A   1      39.976  28.717  30.106  1.00  0.00     0.064 A 
ATOM     78  C   UNL A   1      39.389  27.448  30.006  1.00  0.00     0.173 A 
ATOM     79  C   UNL A   1      40.571  29.251  28.953  1.00  0.00     0.173 A 
ATOM     80  F   UNL A   1      38.836  26.880  31.088  1.00  0.00    -0.203 F 
ATOM     81  C   UNL A   1      39.417  26.732  28.811  1.00  0.00     0.198 A 
ATOM     82  C   UNL A   1      40.570  28.548  27.749  1.00  0.00     0.198 A 
ATOM     83  F   UNL A   1      41.154  30.458  28.995  1.00  0.00    -0.203 F 
ATOM     84  F   UNL A   1      38.900  25.498  28.761  1.00  0.00    -0.200 F 
ATOM     85  C   UNL A   1      40.002  27.286  27.682  1.00  0.00     0.200 A 
ATOM     86  F   UNL A   1      41.127  29.090  26.658  1.00  0.00    -0.200 F 
ATOM     87  F   UNL A   1      40.028  26.596  26.533  1.00  0.00    -0.200 F 
ENDBRANCH  53  77
BRANCH  65  88
ATOM     88  C   UNL A   1      44.506  28.876  35.410  1.00  0.00     0.064 A 
ATOM     89  C   UNL A   1      45.757  29.393  35.042  1.00  0.00     0.173 A 
ATOM     90  C   UNL A   1      44.480  27.649  36.092  1.00  0.00     0.173 A 
ATOM     91  F   UNL A   1      45.838  30.556  34.378  1.00  0.00    -0.203 F 
ATOM     92  C   UNL A   1      46.930  28.696  35.320  1.00  0.00     0.198 A 
ATOM     93  C   UNL A   1      45.658  26.971  36.399  1.00  0.00     0.198 A 
ATOM     94  F   UNL A   1      43.313  27.112  36.477  1.00  0.00    -0.203 F 
ATOM     95  F   UNL A   1      48.111  29.184  34.912  1.00  0.00    -0.200 F 
ATOM     96  C   UNL A   1      46.880  27.491  36.005  1.00  0.00     0.200 A 
ATOM     97  F   UNL A   1      45.607  25.817  37.078  1.00  0.00    -0.200 F 
ATOM     98  F   UNL A   1      48.012  26.827  36.280  1.00  0.00    -0.200 F 
ENDBRANCH  65  88
ENDBRANCH  39  40
ENDBRANCH  32  34
ENDBRANCH  31  32
ENDBRANCH  30  31
ENDBRANCH  29  30
ENDBRANCH  28  29
ENDBRANCH  27  28
ENDBRANCH   1  27
TORSDOF 21
ENDMDL
MODEL 2
REMARK VINA RESULT:      -9.8      2.160      3.850
REMARK SMILES C[NH2+][C@]1(C(=O)OCCOCCOCCOC(=O)c2ccc(-c3c4nc(c(-c5c(F)c(F)c(F)c(F)c5F)c5ccc([nH]5)c(-c5c(F)c(F)c(F)c(F)c5F)c5nc(c(-c6c(F)c(F)c(F)c(F)c6F)c6ccc3[nH]6)C=C5)C=C4)cc2)CC[C@@H]([N@@H+](C)C[C@@H]2CCCCO2)C1
REMARK SMILES IDX 10 1 9 2 8 3 7 4 6 5 4 6 5 7 3 8 81 9 93 10 82 11 83 12 2 13
REMARK SMILES IDX 1 14 84 17 85 18 86 20 87 21 88 22 92 23 89 24 91 25 90 26
REMARK SMILES IDX 11 27 12 28 13 29 14 30 15 31 16 32 17 33 18 34 19 35 80 36
REMARK SMILES IDX 20 37 79 38 21 39 22 40 23 41 73 42 24 43 78 44 72 45 74 46
REMARK SMILES IDX 25 47 77 48 71 49 70 50 26 52 58 53 38 54 57 55 39 56 42 57
REMARK SMILES IDX 56 58 75 59 40 60 41 61 55 63 76 64 43 65 27 66 28 67 36 68
REMARK SMILES IDX 29 69 30 70 34 71 37 72 31 73 32 74 35 75 33 76 59 77 60 78
REMARK SMILES IDX 68 79 61 80 62 81 66 82 69 83 63 84 64 85 67 86 65 87 44 88
REMARK SMILES IDX 45 89 53 90 46 91 47 92 51 93 54 94 48 95 49 96 52 97 50 98
REMARK H PARENT 2 15 2 16 84 19 74 51 42 62
REMARK Flexibility Score: inf
ROOT
ATOM      1  C   UNL A   1      32.663  29.529  25.253  1.00  0.00     0.188 C 
ENDROOT
BRANCH   1   2
ATOM      2  O   UNL A   1      33.364  29.266  24.043  1.00  0.00    -0.376 OA
BRANCH   2   3
ATOM      3  C   UNL A   1      33.176  28.020  23.386  1.00  0.00     0.202 C 
BRANCH   3   4
ATOM      4  C   UNL A   1      33.799  26.732  23.961  1.00  0.00     0.261 C 
BRANCH   4   5
ATOM      5  O   UNL A   1      33.179  25.493  23.563  1.00  0.00    -0.459 OA
BRANCH   5   6
ATOM      6  C   UNL A   1      32.632  24.747  24.560  1.00  0.00     0.368 C 
ATOM      7  O   UNL A   1      32.611  25.100  25.738  1.00  0.00    -0.245 OA
BRANCH   6   8
ATOM      8  C   UNL A   1      31.978  23.410  24.085  1.00  0.00     0.200 C 
ATOM      9  C   UNL A   1      32.673  22.588  22.976  1.00  0.00     0.087 C 
ATOM     10  C   UNL A   1      32.109  22.441  25.292  1.00  0.00     0.146 C 
ATOM     11  C   UNL A   1      32.170  21.170  23.229  1.00  0.00     0.072 C 
ATOM     12  C   UNL A   1      32.260  21.009  24.741  1.00  0.00     0.191 C 
BRANCH   8  13
ATOM     13  N   UNL A   1      30.608  23.705  23.558  1.00  0.00    -0.334 N 
ATOM     14  C   UNL A   1      30.091  25.033  23.828  1.00  0.00     0.331 C 
ATOM     15  H   UNL A   1      30.628  23.578  22.547  1.00  0.00     0.347 HD
ATOM     16  H   UNL A   1      29.982  23.063  24.047  1.00  0.00     0.347 HD
ENDBRANCH   8  13
BRANCH  12  17
ATOM     17  N   UNL A   1      33.459  20.333  25.273  1.00  0.00    -0.333 N 
ATOM     18  C   UNL A   1      33.866  19.225  24.414  1.00  0.00     0.333 C 
ATOM     19  H   UNL A   1      33.141  19.959  26.167  1.00  0.00     0.348 HD
BRANCH  17  20
ATOM     20  C   UNL A   1      34.593  21.184  25.714  1.00  0.00     0.294 C 
BRANCH  20  21
ATOM     21  C   UNL A   1      35.613  21.689  24.644  1.00  0.00     0.173 C 
ATOM     22  C   UNL A   1      37.048  21.192  24.853  1.00  0.00     0.038 C 
ATOM     23  O   UNL A   1      35.552  23.110  24.448  1.00  0.00    -0.372 OA
ATOM     24  C   UNL A   1      37.821  22.035  25.855  1.00  0.00     0.005 C 
ATOM     25  C   UNL A   1      36.245  23.898  25.410  1.00  0.00     0.161 C 
ATOM     26  C   UNL A   1      37.711  23.503  25.476  1.00  0.00     0.029 C 
ENDBRANCH  20  21
ENDBRANCH  17  20
ENDBRANCH  12  17
ENDBRANCH   6   8
ENDBRANCH   5   6
ENDBRANCH   4   5
ENDBRANCH   3   4
ENDBRANCH   2   3
ENDBRANCH   1   2
BRANCH   1  27
ATOM     27  C   UNL A   1      33.446  30.030  26.476  1.00  0.00     0.188 C 
BRANCH  27  28
ATOM     28  O   UNL A   1      32.712  30.836  27.363  1.00  0.00    -0.376 OA
BRANCH  28  29
ATOM     29  C   UNL A   1      31.946  31.904  26.849  1.00  0.00     0.202 C 
BRANCH  29  30
ATOM     30  C   UNL A   1      32.027  33.331  27.423  1.00  0.00     0.261 C 
BRANCH  30  31
ATOM     31  O   UNL A   1      33.284  34.021  27.350  1.00  0.00    -0.460 OA
BRANCH  31  32
ATOM     32  C   UNL A   1      33.821  34.469  28.506  1.00  0.00     0.338 C 
ATOM     33  O   UNL A   1      33.398  35.373  29.216  1.00  0.00    -0.246 OA
BRANCH  32  34
ATOM     34  C   UNL A   1      34.909  33.545  28.897  1.00  0.00     0.060 A 
ATOM     35  C   UNL A   1      34.592  32.358  29.572  1.00  0.00     0.016 A 
ATOM     36  C   UNL A   1      36.239  33.847  28.597  1.00  0.00     0.016 A 
ATOM     37  C   UNL A   1      35.605  31.482  29.974  1.00  0.00     0.010 A 
ATOM     38  C   UNL A   1      37.254  32.982  29.022  1.00  0.00     0.010 A 
ATOM     39  C   UNL A   1      36.945  31.811  29.739  1.00  0.00    -0.014 A 
BRANCH  39  40
ATOM     40  C   UNL A   1      38.032  31.042  30.397  1.00  0.00     0.031 A 
ATOM     41  C   UNL A   1      38.365  31.359  31.830  1.00  0.00     0.074 A 
ATOM     42  C   UNL A   1      38.717  30.084  29.747  1.00  0.00     0.049 A 
ATOM     43  N   UNL A   1      39.330  30.901  32.587  1.00  0.00    -0.248 NA
ATOM     44  C   UNL A   1      37.488  32.333  32.499  1.00  0.00     0.031 C 
ATOM     45  C   UNL A   1      38.465  29.645  28.378  1.00  0.00     0.029 A 
ATOM     46  N   UNL A   1      39.783  29.320  30.157  1.00  0.00    -0.354 N 
ATOM     47  C   UNL A   1      39.183  31.539  33.812  1.00  0.00     0.074 A 
ATOM     48  C   UNL A   1      38.055  32.437  33.690  1.00  0.00     0.031 C 
ATOM     49  C   UNL A   1      39.368  28.703  28.051  1.00  0.00     0.029 A 
ATOM     50  C   UNL A   1      40.283  28.501  29.174  1.00  0.00     0.049 A 
ATOM     51  H   UNL A   1      40.153  29.356  31.069  1.00  0.00     0.167 HD
ATOM     52  C   UNL A   1      39.920  31.387  34.938  1.00  0.00     0.037 A 
ATOM     53  C   UNL A   1      41.373  27.707  29.174  1.00  0.00     0.037 A 
ATOM     54  C   UNL A   1      41.044  30.496  35.058  1.00  0.00     0.049 A 
ATOM     55  C   UNL A   1      42.229  27.619  30.413  1.00  0.00     0.074 A 
ATOM     56  C   UNL A   1      41.843  30.259  36.162  1.00  0.00     0.029 A 
ATOM     57  N   UNL A   1      41.536  29.703  34.031  1.00  0.00    -0.354 N 
ATOM     58  N   UNL A   1      42.074  28.207  31.575  1.00  0.00    -0.248 NA
ATOM     59  C   UNL A   1      43.415  26.751  30.340  1.00  0.00     0.031 C 
ATOM     60  C   UNL A   1      42.857  29.371  35.787  1.00  0.00     0.029 A 
ATOM     61  C   UNL A   1      42.646  28.999  34.469  1.00  0.00     0.049 A 
ATOM     62  H   UNL A   1      41.153  29.648  33.126  1.00  0.00     0.167 HD
ATOM     63  C   UNL A   1      43.117  27.755  32.379  1.00  0.00     0.074 A 
ATOM     64  C   UNL A   1      43.892  26.834  31.575  1.00  0.00     0.031 C 
ATOM     65  C   UNL A   1      43.404  28.074  33.665  1.00  0.00     0.037 A 
BRANCH  52  66
ATOM     66  C   UNL A   1      39.552  32.230  36.126  1.00  0.00     0.064 A 
ATOM     67  C   UNL A   1      40.192  33.449  36.396  1.00  0.00     0.173 A 
ATOM     68  C   UNL A   1      38.523  31.825  36.990  1.00  0.00     0.173 A 
ATOM     69  F   UNL A   1      41.191  33.877  35.609  1.00  0.00    -0.203 F 
ATOM     70  C   UNL A   1      39.835  34.216  37.501  1.00  0.00     0.198 A 
ATOM     71  C   UNL A   1      38.146  32.611  38.075  1.00  0.00     0.198 A 
ATOM     72  F   UNL A   1      37.876  30.670  36.777  1.00  0.00    -0.203 F 
ATOM     73  F   UNL A   1      40.496  35.352  37.768  1.00  0.00    -0.200 F 
ATOM     74  C   UNL A   1      38.808  33.802  38.335  1.00  0.00     0.200 A 
ATOM     75  F   UNL A   1      37.143  32.215  38.871  1.00  0.00    -0.200 F 
ATOM     76  F   UNL A   1      38.459  34.546  39.393  1.00  0.00    -0.200 F 
ENDBRANCH  52  66
BRANCH  53  77
ATOM     77  C   UNL A   1      41.737  26.940  27.951  1.00  0.00     0.064 A 
ATOM     78  C   UNL A   1      41.247  25.645  27.736  1.00  0.00     0.173 A 
ATOM     79  C   UNL A   1      42.610  27.472  26.991  1.00  0.00     0.173 A 
ATOM     80  F   UNL A   1      40.435  25.078  28.641  1.00  0.00    -0.203 F 
ATOM     81  C   UNL A   1      41.632  24.903  26.621  1.00  0.00     0.198 A 
ATOM     82  C   UNL A   1      42.970  26.743  25.859  1.00  0.00     0.198 A 
ATOM     83  F   UNL A   1      43.116  28.704  27.152  1.00  0.00    -0.203 F 
ATOM     84  F   UNL A   1      41.194  23.646  26.471  1.00  0.00    -0.200 F 
ATOM     85  C   UNL A   1      42.489  25.455  25.680  1.00  0.00     0.200 A 
ATOM     86  F   UNL A   1      43.790  27.283  24.948  1.00  0.00    -0.200 F 
ATOM     87  F   UNL A   1      42.859  24.741  24.608  1.00  0.00    -0.200 F 
ENDBRANCH  53  77
BRANCH  65  88
ATOM     88  C   UNL A   1      44.576  27.385  34.309  1.00  0.00     0.064 A 
ATOM     89  C   UNL A   1      45.860  27.949  34.313  1.00  0.00     0.173 A 
ATOM     90  C   UNL A   1      44.397  26.161  34.974  1.00  0.00     0.173 A 
ATOM     91  F   UNL A   1      46.089  29.111  33.682  1.00  0.00    -0.203 F 
ATOM     92  C   UNL A   1      46.926  27.301  34.932  1.00  0.00     0.198 A 
ATOM     93  C   UNL A   1      45.459  25.533  35.623  1.00  0.00     0.198 A 
ATOM     94  F   UNL A   1      43.189  25.580  35.011  1.00  0.00    -0.203 F 
ATOM     95  F   UNL A   1      48.155  27.834  34.878  1.00  0.00    -0.200 F 
ATOM     96  C   UNL A   1      46.723  26.099  35.593  1.00  0.00     0.200 A 
ATOM     97  F   UNL A   1      45.254  24.381  36.277  1.00  0.00    -0.200 F 
ATOM     98  F   UNL A   1      47.748  25.483  36.198  1.00  0.00    -0.200 F 
ENDBRANCH  65  88
ENDBRANCH  39  40
ENDBRANCH  32  34
ENDBRANCH  31  32
ENDBRANCH  30  31
ENDBRANCH  29  30
ENDBRANCH  28  29
ENDBRANCH  27  28
ENDBRANCH   1  27
TORSDOF 21
ENDMDL
MODEL 3
REMARK VINA RESULT:      -9.7      5.290      7.932
REMARK SMILES C[NH2+][C@]1(C(=O)OCCOCCOCCOC(=O)c2ccc(-c3c4nc(c(-c5c(F)c(F)c(F)c(F)c5F)c5ccc([nH]5)c(-c5c(F)c(F)c(F)c(F)c5F)c5nc(c(-c6c(F)c(F)c(F)c(F)c6F)c6ccc3[nH]6)C=C5)C=C4)cc2)CC[C@@H]([N@@H+](C)C[C@@H]2CCCCO2)C1
REMARK SMILES IDX 10 1 9 2 8 3 7 4 6 5 4 6 5 7 3 8 81 9 93 10 82 11 83 12 2 13
REMARK SMILES IDX 1 14 84 17 85 18 86 20 87 21 88 22 92 23 89 24 91 25 90 26
REMARK SMILES IDX 11 27 12 28 13 29 14 30 15 31 16 32 17 33 18 34 19 35 80 36
REMARK SMILES IDX 20 37 79 38 21 39 22 40 23 41 73 42 24 43 78 44 72 45 74 46
REMARK SMILES IDX 25 47 77 48 71 49 70 50 26 52 58 53 38 54 57 55 39 56 42 57
REMARK SMILES IDX 56 58 75 59 40 60 41 61 55 63 76 64 43 65 27 66 28 67 36 68
REMARK SMILES IDX 29 69 30 70 34 71 37 72 31 73 32 74 35 75 33 76 59 77 60 78
REMARK SMILES IDX 68 79 61 80 62 81 66 82 69 83 63 84 64 85 67 86 65 87 44 88
REMARK SMILES IDX 45 89 53 90 46 91 47 92 51 93 54 94 48 95 49 96 52 97 50 98
REMARK H PARENT 2 15 2 16 84 19 74 51 42 62
REMARK Flexibility Score: inf
ROOT
ATOM      1  C   UNL A   1      32.559  31.069  26.923  1.00  0.00     0.188 C 
ENDROOT
BRANCH   1   2
ATOM      2  O   UNL A   1      31.645  30.003  27.152  1.00  0.00    -0.376 OA
BRANCH   2   3
ATOM      3  C   UNL A   1      31.920  28.721  26.603  1.00  0.00     0.202 C 
BRANCH   3   4
ATOM      4  C   UNL A   1      31.416  27.445  27.307  1.00  0.00     0.261 C 
BRANCH   4   5
ATOM      5  O   UNL A   1      30.663  26.524  26.493  1.00  0.00    -0.459 OA
BRANCH   5   6
ATOM      6  C   UNL A   1      31.224  25.302  26.294  1.00  0.00     0.368 C 
ATOM      7  O   UNL A   1      31.414  24.487  27.196  1.00  0.00    -0.245 OA
BRANCH   6   8
ATOM      8  C   UNL A   1      31.568  24.983  24.804  1.00  0.00     0.200 C 
ATOM      9  C   UNL A   1      30.542  25.339  23.704  1.00  0.00     0.087 C 
ATOM     10  C   UNL A   1      32.732  25.944  24.439  1.00  0.00     0.146 C 
ATOM     11  C   UNL A   1      31.409  25.496  22.459  1.00  0.00     0.072 C 
ATOM     12  C   UNL A   1      32.612  26.295  22.942  1.00  0.00     0.191 C 
BRANCH   8  13
ATOM     13  N   UNL A   1      31.797  23.509  24.666  1.00  0.00    -0.334 N 
ATOM     14  C   UNL A   1      33.182  23.079  24.627  1.00  0.00     0.331 C 
ATOM     15  H   UNL A   1      31.350  23.048  25.458  1.00  0.00     0.347 HD
ATOM     16  H   UNL A   1      31.406  23.255  23.759  1.00  0.00     0.347 HD
ENDBRANCH   8  13
BRANCH  12  17
ATOM     17  N   UNL A   1      32.585  27.752  22.714  1.00  0.00    -0.333 N 
ATOM     18  C   UNL A   1      33.808  28.207  22.058  1.00  0.00     0.333 C 
ATOM     19  H   UNL A   1      32.553  28.138  23.658  1.00  0.00     0.348 HD
BRANCH  17  20
ATOM     20  C   UNL A   1      31.351  28.339  22.132  1.00  0.00     0.294 C 
BRANCH  20  21
ATOM     21  C   UNL A   1      30.483  29.289  23.017  1.00  0.00     0.173 C 
ATOM     22  C   UNL A   1      29.441  28.571  23.883  1.00  0.00     0.038 C 
ATOM     23  O   UNL A   1      29.914  30.376  22.270  1.00  0.00    -0.372 OA
ATOM     24  C   UNL A   1      28.162  28.258  23.123  1.00  0.00     0.005 C 
ATOM     25  C   UNL A   1      28.738  30.069  21.529  1.00  0.00     0.161 C 
ATOM     26  C   UNL A   1      27.654  29.518  22.441  1.00  0.00     0.029 C 
ENDBRANCH  20  21
ENDBRANCH  17  20
ENDBRANCH  12  17
ENDBRANCH   6   8
ENDBRANCH   5   6
ENDBRANCH   4   5
ENDBRANCH   3   4
ENDBRANCH   2   3
ENDBRANCH   1   2
BRANCH   1  27
ATOM     27  C   UNL A   1      33.923  31.049  27.631  1.00  0.00     0.188 C 
BRANCH  27  28
ATOM     28  O   UNL A   1      34.554  32.299  27.741  1.00  0.00    -0.376 OA
BRANCH  28  29
ATOM     29  C   UNL A   1      34.005  33.274  28.600  1.00  0.00     0.202 C 
BRANCH  29  30
ATOM     30  C   UNL A   1      34.400  33.390  30.084  1.00  0.00     0.261 C 
BRANCH  30  31
ATOM     31  O   UNL A   1      34.529  32.181  30.847  1.00  0.00    -0.460 OA
BRANCH  31  32
ATOM     32  C   UNL A   1      35.506  32.128  31.779  1.00  0.00     0.338 C 
ATOM     33  O   UNL A   1      35.434  32.491  32.946  1.00  0.00    -0.246 OA
BRANCH  32  34
ATOM     34  C   UNL A   1      36.638  31.358  31.216  1.00  0.00     0.060 A 
ATOM     35  C   UNL A   1      37.545  30.737  32.086  1.00  0.00     0.016 A 
ATOM     36  C   UNL A   1      36.803  31.246  29.833  1.00  0.00     0.016 A 
ATOM     37  C   UNL A   1      38.636  30.026  31.577  1.00  0.00     0.010 A 
ATOM     38  C   UNL A   1      37.909  30.555  29.326  1.00  0.00     0.010 A 
ATOM     39  C   UNL A   1      38.848  29.968  30.195  1.00  0.00    -0.014 A 
BRANCH  39  40
ATOM     40  C   UNL A   1      40.136  29.464  29.654  1.00  0.00     0.031 A 
ATOM     41  C   UNL A   1      41.287  30.426  29.536  1.00  0.00     0.074 A 
ATOM     42  C   UNL A   1      40.292  28.184  29.270  1.00  0.00     0.049 A 
ATOM     43  N   UNL A   1      42.472  30.254  29.007  1.00  0.00    -0.248 NA
ATOM     44  C   UNL A   1      41.067  31.772  30.091  1.00  0.00     0.031 C 
ATOM     45  C   UNL A   1      39.277  27.140  29.376  1.00  0.00     0.029 A 
ATOM     46  N   UNL A   1      41.368  27.554  28.694  1.00  0.00    -0.354 N 
ATOM     47  C   UNL A   1      43.130  31.468  29.152  1.00  0.00     0.074 A 
ATOM     48  C   UNL A   1      42.205  32.377  29.793  1.00  0.00     0.031 C 
ATOM     49  C   UNL A   1      39.771  26.000  28.859  1.00  0.00     0.029 A 
ATOM     50  C   UNL A   1      41.121  26.246  28.352  1.00  0.00     0.049 A 
ATOM     51  H   UNL A   1      42.234  27.997  28.540  1.00  0.00     0.167 HD
ATOM     52  C   UNL A   1      44.393  31.795  28.788  1.00  0.00     0.037 A 
ATOM     53  C   UNL A   1      41.887  25.363  27.680  1.00  0.00     0.037 A 
ATOM     54  C   UNL A   1      45.311  30.891  28.147  1.00  0.00     0.049 A 
ATOM     55  C   UNL A   1      43.259  25.777  27.207  1.00  0.00     0.074 A 
ATOM     56  C   UNL A   1      46.618  31.124  27.754  1.00  0.00     0.029 A 
ATOM     57  N   UNL A   1      45.015  29.583  27.793  1.00  0.00    -0.354 N 
ATOM     58  N   UNL A   1      43.885  26.918  27.366  1.00  0.00    -0.248 NA
ATOM     59  C   UNL A   1      44.035  24.774  26.461  1.00  0.00     0.031 C 
ATOM     60  C   UNL A   1      47.091  29.978  27.107  1.00  0.00     0.029 A 
ATOM     61  C   UNL A   1      46.104  29.007  27.160  1.00  0.00     0.049 A 
ATOM     62  H   UNL A   1      44.158  29.132  27.966  1.00  0.00     0.167 HD
ATOM     63  C   UNL A   1      45.134  26.760  26.774  1.00  0.00     0.074 A 
ATOM     64  C   UNL A   1      45.182  25.407  26.262  1.00  0.00     0.031 C 
ATOM     65  C   UNL A   1      46.148  27.653  26.665  1.00  0.00     0.037 A 
BRANCH  52  66
ATOM     66  C   UNL A   1      44.846  33.205  29.045  1.00  0.00     0.064 A 
ATOM     67  C   UNL A   1      44.619  34.236  28.121  1.00  0.00     0.173 A 
ATOM     68  C   UNL A   1      45.490  33.533  30.248  1.00  0.00     0.173 A 
ATOM     69  F   UNL A   1      44.019  33.974  26.949  1.00  0.00    -0.203 F 
ATOM     70  C   UNL A   1      45.045  35.535  28.379  1.00  0.00     0.198 A 
ATOM     71  C   UNL A   1      45.884  34.840  30.517  1.00  0.00     0.198 A 
ATOM     72  F   UNL A   1      45.727  32.586  31.168  1.00  0.00    -0.203 F 
ATOM     73  F   UNL A   1      44.864  36.494  27.459  1.00  0.00    -0.200 F 
ATOM     74  C   UNL A   1      45.670  35.839  29.579  1.00  0.00     0.200 A 
ATOM     75  F   UNL A   1      46.474  35.133  31.684  1.00  0.00    -0.200 F 
ATOM     76  F   UNL A   1      46.071  37.092  29.830  1.00  0.00    -0.200 F 
ENDBRANCH  52  66
BRANCH  53  77
ATOM     77  C   UNL A   1      41.371  23.997  27.389  1.00  0.00     0.064 A 
ATOM     78  C   UNL A   1      40.310  23.800  26.495  1.00  0.00     0.173 A 
ATOM     79  C   UNL A   1      41.904  22.866  28.024  1.00  0.00     0.173 A 
ATOM     80  F   UNL A   1      39.744  24.852  25.885  1.00  0.00    -0.203 F 
ATOM     81  C   UNL A   1      39.787  22.529  26.264  1.00  0.00     0.198 A 
ATOM     82  C   UNL A   1      41.403  21.591  27.769  1.00  0.00     0.198 A 
ATOM     83  F   UNL A   1      42.915  22.999  28.896  1.00  0.00    -0.203 F 
ATOM     84  F   UNL A   1      38.736  22.377  25.449  1.00  0.00    -0.200 F 
ATOM     85  C   UNL A   1      40.339  21.425  26.897  1.00  0.00     0.200 A 
ATOM     86  F   UNL A   1      41.945  20.526  28.375  1.00  0.00    -0.200 F 
ATOM     87  F   UNL A   1      39.836  20.203  26.674  1.00  0.00    -0.200 F 
ENDBRANCH  53  77
BRANCH  65  88
ATOM     88  C   UNL A   1      47.422  27.188  26.015  1.00  0.00     0.064 A 
ATOM     89  C   UNL A   1      47.676  27.389  24.650  1.00  0.00     0.173 A 
ATOM     90  C   UNL A   1      48.423  26.573  26.783  1.00  0.00     0.173 A 
ATOM     91  F   UNL A   1      46.749  27.961  23.868  1.00  0.00    -0.203 F 
ATOM     92  C   UNL A   1      48.872  26.965  24.074  1.00  0.00     0.198 A 
ATOM     93  C   UNL A   1      49.632  26.182  26.211  1.00  0.00     0.198 A 
ATOM     94  F   UNL A   1      48.238  26.365  28.096  1.00  0.00    -0.203 F 
ATOM     95  F   UNL A   1      49.071  27.121  22.757  1.00  0.00    -0.200 F 
ATOM     96  C   UNL A   1      49.851  26.370  24.856  1.00  0.00     0.200 A 
ATOM     97  F   UNL A   1      50.583  25.626  26.973  1.00  0.00    -0.200 F 
ATOM     98  F   UNL A   1      51.004  25.974  24.301  1.00  0.00    -0.200 F 
ENDBRANCH  65  88
ENDBRANCH  39  40
ENDBRANCH  32  34
ENDBRANCH  31  32
ENDBRANCH  30  31
ENDBRANCH  29  30
ENDBRANCH  28  29
ENDBRANCH  27  28
ENDBRANCH   1  27
TORSDOF 21
ENDMDL
