MODEL 1
REMARK VINA RESULT:     -12.2      0.000      0.000
REMARK SMILES C[C@@H](CCC(=O)OCCOCCOCCOC(=O)c1ccc(-c2c3nc(c(-c4c(F)c(F)c(F)c(F)c4F)c4ccc([nH]4)c(-c4c(F)c(F)c(F)c(F)c4F)c4nc(c(-c5c(F)c(F)c(F)c(F)c5F)c5ccc2[nH]5)C=C4)C=C3)cc1)[C@@H]1CC[C@@H]2[C@H]3CC[C@@H]4CC(=O)CC[C@]4(C)[C@@H]3CC(=O)[C@]21C
REMARK SMILES IDX 11 1 10 2 9 3 8 4 7 5 5 6 6 7 4 8 3 9 2 10 1 11 82 12 83 13
REMARK SMILES IDX 101 14 84 15 85 16 99 17 102 18 86 19 98 20 100 21 87 22
REMARK SMILES IDX 97 23 88 24 95 25 89 26 94 27 96 28 90 29 93 30 91 31 92 32
REMARK SMILES IDX 12 33 13 34 14 35 15 36 16 37 17 38 18 39 19 40 20 41 81 42
REMARK SMILES IDX 21 43 80 44 22 45 23 46 24 47 74 48 25 49 79 50 73 51 75 52
REMARK SMILES IDX 26 53 78 54 72 55 71 56 27 58 59 59 39 60 58 61 40 62 43 63
REMARK SMILES IDX 57 64 76 65 41 66 42 67 56 69 77 70 44 71 28 72 29 73 37 74
REMARK SMILES IDX 30 75 31 76 35 77 38 78 32 79 33 80 36 81 34 82 60 83 61 84
REMARK SMILES IDX 69 85 62 86 63 87 67 88 70 89 64 90 65 91 68 92 66 93 45 94
REMARK SMILES IDX 46 95 54 96 47 97 48 98 52 99 55 100 49 101 50 102 53 103
REMARK SMILES IDX 51 104
REMARK H PARENT 75 57 43 68
REMARK Flexibility Score: inf
ROOT
ATOM      1  C   UNL A   1      32.910  36.612  32.095  1.00  0.00     0.188 C 
ENDROOT
BRANCH   1   2
ATOM      2  O   UNL A   1      32.842  37.031  30.737  1.00  0.00    -0.376 OA
BRANCH   2   3
ATOM      3  C   UNL A   1      32.779  35.985  29.757  1.00  0.00     0.202 C 
BRANCH   3   4
ATOM      4  C   UNL A   1      33.885  34.929  29.871  1.00  0.00     0.261 C 
BRANCH   4   5
ATOM      5  O   UNL A   1      34.216  34.452  28.550  1.00  0.00    -0.463 OA
BRANCH   5   6
ATOM      6  C   UNL A   1      33.396  33.564  27.956  1.00  0.00     0.305 C 
ATOM      7  O   UNL A   1      32.255  33.823  27.584  1.00  0.00    -0.252 OA
BRANCH   6   8
ATOM      8  C   UNL A   1      34.031  32.202  27.707  1.00  0.00     0.123 C 
BRANCH   8   9
ATOM      9  C   UNL A   1      33.195  30.911  27.514  1.00  0.00     0.015 C 
BRANCH   9  10
ATOM     10  C   UNL A   1      32.536  30.604  26.119  1.00  0.00    -0.010 C 
ATOM     11  C   UNL A   1      31.015  30.721  26.214  1.00  0.00     0.008 C 
BRANCH  10  12
ATOM     12  C   UNL A   1      33.059  29.266  25.570  1.00  0.00     0.005 C 
ATOM     13  C   UNL A   1      33.739  29.322  24.178  1.00  0.00     0.005 C 
ATOM     14  C   UNL A   1      32.228  27.979  25.422  1.00  0.00     0.032 C 
ATOM     15  C   UNL A   1      34.032  27.833  23.827  1.00  0.00     0.005 C 
ATOM     16  C   UNL A   1      33.414  27.058  25.002  1.00  0.00     0.006 C 
ATOM     17  C   UNL A   1      31.717  27.321  26.684  1.00  0.00     0.139 C 
ATOM     18  C   UNL A   1      31.095  28.104  24.384  1.00  0.00     0.020 C 
ATOM     19  C   UNL A   1      33.142  25.539  24.912  1.00  0.00    -0.003 C 
ATOM     20  C   UNL A   1      31.064  25.980  26.461  1.00  0.00     0.080 C 
ATOM     21  O   UNL A   1      31.988  27.710  27.817  1.00  0.00    -0.299 OA
ATOM     22  C   UNL A   1      34.471  24.751  25.090  1.00  0.00     0.004 C 
ATOM     23  C   UNL A   1      32.195  25.035  26.051  1.00  0.00     0.006 C 
ATOM     24  C   UNL A   1      34.328  23.236  25.325  1.00  0.00     0.005 C 
ATOM     25  C   UNL A   1      31.830  23.517  25.888  1.00  0.00    -0.025 C 
ATOM     26  C   UNL A   1      33.156  22.794  26.246  1.00  0.00     0.002 C 
ATOM     27  C   UNL A   1      31.336  23.063  24.480  1.00  0.00     0.015 C 
ATOM     28  C   UNL A   1      30.691  23.152  26.877  1.00  0.00     0.012 C 
ATOM     29  C   UNL A   1      32.976  21.281  26.258  1.00  0.00     0.079 C 
ATOM     30  C   UNL A   1      31.864  21.719  23.944  1.00  0.00     0.076 C 
ATOM     31  C   UNL A   1      32.551  20.774  24.910  1.00  0.00     0.133 C 
ATOM     32  O   UNL A   1      32.782  19.607  24.587  1.00  0.00    -0.300 OA
ENDBRANCH  10  12
ENDBRANCH   9  10
ENDBRANCH   8   9
ENDBRANCH   6   8
ENDBRANCH   5   6
ENDBRANCH   4   5
ENDBRANCH   3   4
ENDBRANCH   2   3
ENDBRANCH   1   2
BRANCH   1  33
ATOM     33  C   UNL A   1      34.182  37.009  32.841  1.00  0.00     0.188 C 
BRANCH  33  34
ATOM     34  O   UNL A   1      34.423  36.224  34.000  1.00  0.00    -0.376 OA
BRANCH  34  35
ATOM     35  C   UNL A   1      34.519  34.819  33.769  1.00  0.00     0.202 C 
BRANCH  35  36
ATOM     36  C   UNL A   1      35.829  34.455  33.063  1.00  0.00     0.261 C 
BRANCH  36  37
ATOM     37  O   UNL A   1      36.047  33.043  33.188  1.00  0.00    -0.460 OA
BRANCH  37  38
ATOM     38  C   UNL A   1      35.579  32.281  32.172  1.00  0.00     0.338 C 
ATOM     39  O   UNL A   1      34.438  32.246  31.737  1.00  0.00    -0.246 OA
BRANCH  38  40
ATOM     40  C   UNL A   1      36.735  31.627  31.512  1.00  0.00     0.060 A 
ATOM     41  C   UNL A   1      37.616  30.883  32.310  1.00  0.00     0.016 A 
ATOM     42  C   UNL A   1      36.900  31.649  30.121  1.00  0.00     0.016 A 
ATOM     43  C   UNL A   1      38.674  30.191  31.726  1.00  0.00     0.010 A 
ATOM     44  C   UNL A   1      37.950  30.944  29.534  1.00  0.00     0.010 A 
ATOM     45  C   UNL A   1      38.862  30.243  30.338  1.00  0.00    -0.014 A 
BRANCH  45  46
ATOM     46  C   UNL A   1      40.110  29.715  29.744  1.00  0.00     0.031 A 
ATOM     47  C   UNL A   1      41.303  30.625  29.679  1.00  0.00     0.074 A 
ATOM     48  C   UNL A   1      40.181  28.450  29.295  1.00  0.00     0.049 A 
ATOM     49  N   UNL A   1      42.499  30.400  29.201  1.00  0.00    -0.248 NA
ATOM     50  C   UNL A   1      41.121  31.981  30.226  1.00  0.00     0.031 C 
ATOM     51  C   UNL A   1      39.086  27.481  29.315  1.00  0.00     0.029 A 
ATOM     52  N   UNL A   1      41.226  27.765  28.729  1.00  0.00    -0.354 N 
ATOM     53  C   UNL A   1      43.210  31.577  29.398  1.00  0.00     0.074 A 
ATOM     54  C   UNL A   1      42.299  32.534  29.984  1.00  0.00     0.031 C 
ATOM     55  C   UNL A   1      39.517  26.325  28.779  1.00  0.00     0.029 A 
ATOM     56  C   UNL A   1      40.908  26.482  28.358  1.00  0.00     0.049 A 
ATOM     57  H   UNL A   1      42.121  28.156  28.601  1.00  0.00     0.167 HD
ATOM     58  C   UNL A   1      44.513  31.827  29.134  1.00  0.00     0.037 A 
ATOM     59  C   UNL A   1      41.657  25.551  27.735  1.00  0.00     0.037 A 
ATOM     60  C   UNL A   1      45.408  30.871  28.539  1.00  0.00     0.049 A 
ATOM     61  C   UNL A   1      43.091  25.879  27.398  1.00  0.00     0.074 A 
ATOM     62  C   UNL A   1      46.747  31.019  28.227  1.00  0.00     0.029 A 
ATOM     63  N   UNL A   1      45.048  29.585  28.163  1.00  0.00    -0.354 N 
ATOM     64  N   UNL A   1      43.766  26.982  27.621  1.00  0.00    -0.248 NA
ATOM     65  C   UNL A   1      43.870  24.825  26.734  1.00  0.00     0.031 C 
ATOM     66  C   UNL A   1      47.183  29.841  27.613  1.00  0.00     0.029 A 
ATOM     67  C   UNL A   1      46.134  28.935  27.601  1.00  0.00     0.049 A 
ATOM     68  H   UNL A   1      44.151  29.193  28.277  1.00  0.00     0.167 HD
ATOM     69  C   UNL A   1      45.052  26.745  27.151  1.00  0.00     0.074 A 
ATOM     70  C   UNL A   1      45.070  25.383  26.660  1.00  0.00     0.031 C 
ATOM     71  C   UNL A   1      46.124  27.578  27.119  1.00  0.00     0.037 A 
BRANCH  58  72
ATOM     72  C   UNL A   1      45.042  33.188  29.481  1.00  0.00     0.064 A 
ATOM     73  C   UNL A   1      44.896  34.277  28.607  1.00  0.00     0.173 A 
ATOM     74  C   UNL A   1      45.669  33.417  30.714  1.00  0.00     0.173 A 
ATOM     75  F   UNL A   1      44.323  34.108  27.405  1.00  0.00    -0.203 F 
ATOM     76  C   UNL A   1      45.375  35.540  28.948  1.00  0.00     0.198 A 
ATOM     77  C   UNL A   1      46.118  34.688  31.065  1.00  0.00     0.198 A 
ATOM     78  F   UNL A   1      45.837  32.411  31.585  1.00  0.00    -0.203 F 
ATOM     79  F   UNL A   1      45.265  36.554  28.078  1.00  0.00    -0.200 F 
ATOM     80  C   UNL A   1      45.976  35.746  30.180  1.00  0.00     0.200 A 
ATOM     81  F   UNL A   1      46.690  34.889  32.260  1.00  0.00    -0.200 F 
ATOM     82  F   UNL A   1      46.425  36.965  30.513  1.00  0.00    -0.200 F 
ENDBRANCH  58  72
BRANCH  59  83
ATOM     83  C   UNL A   1      41.073  24.229  27.374  1.00  0.00     0.064 A 
ATOM     84  C   UNL A   1      40.066  24.116  26.405  1.00  0.00     0.173 A 
ATOM     85  C   UNL A   1      41.479  23.057  28.028  1.00  0.00     0.173 A 
ATOM     86  F   UNL A   1      39.624  25.209  25.767  1.00  0.00    -0.203 F 
ATOM     87  C   UNL A   1      39.463  22.889  26.133  1.00  0.00     0.198 A 
ATOM     88  C   UNL A   1      40.901  21.824  27.728  1.00  0.00     0.198 A 
ATOM     89  F   UNL A   1      42.439  23.106  28.965  1.00  0.00    -0.203 F 
ATOM     90  F   UNL A   1      38.453  22.822  25.253  1.00  0.00    -0.200 F 
ATOM     91  C   UNL A   1      39.884  21.743  26.791  1.00  0.00     0.200 A 
ATOM     92  F   UNL A   1      41.320  20.719  28.359  1.00  0.00    -0.200 F 
ATOM     93  F   UNL A   1      39.298  20.566  26.533  1.00  0.00    -0.200 F 
ENDBRANCH  59  83
BRANCH  71  94
ATOM     94  C   UNL A   1      47.404  27.021  26.562  1.00  0.00     0.064 A 
ATOM     95  C   UNL A   1      48.310  26.310  27.364  1.00  0.00     0.173 A 
ATOM     96  C   UNL A   1      47.723  27.194  25.207  1.00  0.00     0.173 A 
ATOM     97  F   UNL A   1      48.058  26.126  28.669  1.00  0.00    -0.203 F 
ATOM     98  C   UNL A   1      49.510  25.837  26.841  1.00  0.00     0.198 A 
ATOM     99  C   UNL A   1      48.906  26.684  24.678  1.00  0.00     0.198 A 
ATOM    100  F   UNL A   1      46.886  27.851  24.392  1.00  0.00    -0.203 F 
ATOM    101  F   UNL A   1      50.394  25.227  27.644  1.00  0.00    -0.200 F 
ATOM    102  C   UNL A   1      49.805  26.020  25.498  1.00  0.00     0.200 A 
ATOM    103  F   UNL A   1      49.179  26.843  23.376  1.00  0.00    -0.200 F 
ATOM    104  F   UNL A   1      50.962  25.565  24.997  1.00  0.00    -0.200 F 
ENDBRANCH  71  94
ENDBRANCH  45  46
ENDBRANCH  38  40
ENDBRANCH  37  38
ENDBRANCH  36  37
ENDBRANCH  35  36
ENDBRANCH  34  35
ENDBRANCH  33  34
ENDBRANCH   1  33
TORSDOF 20
ENDMDL
MODEL 2
REMARK VINA RESULT:     -11.5      4.173      6.613
REMARK SMILES C[C@@H](CCC(=O)OCCOCCOCCOC(=O)c1ccc(-c2c3nc(c(-c4c(F)c(F)c(F)c(F)c4F)c4ccc([nH]4)c(-c4c(F)c(F)c(F)c(F)c4F)c4nc(c(-c5c(F)c(F)c(F)c(F)c5F)c5ccc2[nH]5)C=C4)C=C3)cc1)[C@@H]1CC[C@@H]2[C@H]3CC[C@@H]4CC(=O)CC[C@]4(C)[C@@H]3CC(=O)[C@]21C
REMARK SMILES IDX 11 1 10 2 9 3 8 4 7 5 5 6 6 7 4 8 3 9 2 10 1 11 82 12 83 13
REMARK SMILES IDX 101 14 84 15 85 16 99 17 102 18 86 19 98 20 100 21 87 22
REMARK SMILES IDX 97 23 88 24 95 25 89 26 94 27 96 28 90 29 93 30 91 31 92 32
REMARK SMILES IDX 12 33 13 34 14 35 15 36 16 37 17 38 18 39 19 40 20 41 81 42
REMARK SMILES IDX 21 43 80 44 22 45 23 46 24 47 74 48 25 49 79 50 73 51 75 52
REMARK SMILES IDX 26 53 78 54 72 55 71 56 27 58 59 59 39 60 58 61 40 62 43 63
REMARK SMILES IDX 57 64 76 65 41 66 42 67 56 69 77 70 44 71 28 72 29 73 37 74
REMARK SMILES IDX 30 75 31 76 35 77 38 78 32 79 33 80 36 81 34 82 60 83 61 84
REMARK SMILES IDX 69 85 62 86 63 87 67 88 70 89 64 90 65 91 68 92 66 93 45 94
REMARK SMILES IDX 46 95 54 96 47 97 48 98 52 99 55 100 49 101 50 102 53 103
REMARK SMILES IDX 51 104
REMARK H PARENT 75 57 43 68
REMARK Flexibility Score: inf
ROOT
ATOM      1  C   UNL A   1      33.755  35.388  31.419  1.00  0.00     0.188 C 
ENDROOT
BRANCH   1   2
ATOM      2  O   UNL A   1      33.602  34.238  30.594  1.00  0.00    -0.376 OA
BRANCH   2   3
ATOM      3  C   UNL A   1      34.759  33.398  30.464  1.00  0.00     0.202 C 
BRANCH   3   4
ATOM      4  C   UNL A   1      35.753  33.835  29.383  1.00  0.00     0.261 C 
BRANCH   4   5
ATOM      5  O   UNL A   1      35.393  33.208  28.134  1.00  0.00    -0.463 OA
BRANCH   5   6
ATOM      6  C   UNL A   1      35.524  31.873  28.015  1.00  0.00     0.305 C 
ATOM      7  O   UNL A   1      34.645  31.131  27.587  1.00  0.00    -0.252 OA
BRANCH   6   8
ATOM      8  C   UNL A   1      36.904  31.348  28.392  1.00  0.00     0.123 C 
BRANCH   8   9
ATOM      9  C   UNL A   1      37.348  29.889  28.116  1.00  0.00     0.015 C 
BRANCH   9  10
ATOM     10  C   UNL A   1      37.744  28.949  29.313  1.00  0.00    -0.010 C 
ATOM     11  C   UNL A   1      37.189  29.500  30.626  1.00  0.00     0.008 C 
BRANCH  10  12
ATOM     12  C   UNL A   1      39.259  28.683  29.299  1.00  0.00     0.005 C 
ATOM     13  C   UNL A   1      40.169  29.931  29.424  1.00  0.00     0.005 C 
ATOM     14  C   UNL A   1      40.013  27.895  28.213  1.00  0.00     0.032 C 
ATOM     15  C   UNL A   1      41.614  29.379  29.240  1.00  0.00     0.005 C 
ATOM     16  C   UNL A   1      41.394  27.888  28.937  1.00  0.00     0.006 C 
ATOM     17  C   UNL A   1      39.700  26.424  28.065  1.00  0.00     0.139 C 
ATOM     18  C   UNL A   1      39.998  28.590  26.837  1.00  0.00     0.020 C 
ATOM     19  C   UNL A   1      42.516  27.015  28.329  1.00  0.00    -0.003 C 
ATOM     20  C   UNL A   1      40.603  25.693  27.101  1.00  0.00     0.080 C 
ATOM     21  O   UNL A   1      38.937  25.807  28.804  1.00  0.00    -0.299 OA
ATOM     22  C   UNL A   1      43.550  26.639  29.428  1.00  0.00     0.004 C 
ATOM     23  C   UNL A   1      41.976  25.655  27.773  1.00  0.00     0.006 C 
ATOM     24  C   UNL A   1      44.556  25.534  29.056  1.00  0.00     0.005 C 
ATOM     25  C   UNL A   1      43.097  24.823  27.055  1.00  0.00    -0.025 C 
ATOM     26  C   UNL A   1      43.991  24.345  28.231  1.00  0.00     0.002 C 
ATOM     27  C   UNL A   1      43.961  25.579  25.999  1.00  0.00     0.015 C 
ATOM     28  C   UNL A   1      42.450  23.631  26.301  1.00  0.00     0.012 C 
ATOM     29  C   UNL A   1      45.091  23.410  27.744  1.00  0.00     0.079 C 
ATOM     30  C   UNL A   1      45.476  25.299  25.993  1.00  0.00     0.076 C 
ATOM     31  C   UNL A   1      45.993  24.099  26.761  1.00  0.00     0.133 C 
ATOM     32  O   UNL A   1      47.150  23.705  26.601  1.00  0.00    -0.300 OA
ENDBRANCH  10  12
ENDBRANCH   9  10
ENDBRANCH   8   9
ENDBRANCH   6   8
ENDBRANCH   5   6
ENDBRANCH   4   5
ENDBRANCH   3   4
ENDBRANCH   2   3
ENDBRANCH   1   2
BRANCH   1  33
ATOM     33  C   UNL A   1      34.221  35.112  32.847  1.00  0.00     0.188 C 
BRANCH  33  34
ATOM     34  O   UNL A   1      35.534  35.586  33.111  1.00  0.00    -0.376 OA
BRANCH  34  35
ATOM     35  C   UNL A   1      36.480  34.578  33.469  1.00  0.00     0.202 C 
BRANCH  35  36
ATOM     36  C   UNL A   1      36.047  33.828  34.733  1.00  0.00     0.261 C 
BRANCH  36  37
ATOM     37  O   UNL A   1      36.600  32.505  34.699  1.00  0.00    -0.460 OA
BRANCH  37  38
ATOM     38  C   UNL A   1      37.551  32.238  35.626  1.00  0.00     0.338 C 
ATOM     39  O   UNL A   1      37.404  32.161  36.835  1.00  0.00    -0.246 OA
BRANCH  38  40
ATOM     40  C   UNL A   1      38.791  31.841  34.916  1.00  0.00     0.060 A 
ATOM     41  C   UNL A   1      38.665  31.129  33.714  1.00  0.00     0.016 A 
ATOM     42  C   UNL A   1      40.057  32.249  35.358  1.00  0.00     0.016 A 
ATOM     43  C   UNL A   1      39.798  30.799  32.975  1.00  0.00     0.010 A 
ATOM     44  C   UNL A   1      41.190  31.931  34.610  1.00  0.00     0.010 A 
ATOM     45  C   UNL A   1      41.068  31.173  33.435  1.00  0.00    -0.014 A 
BRANCH  45  46
ATOM     46  C   UNL A   1      42.278  30.622  32.787  1.00  0.00     0.031 A 
ATOM     47  C   UNL A   1      42.908  31.413  31.676  1.00  0.00     0.074 A 
ATOM     48  C   UNL A   1      42.811  29.457  33.194  1.00  0.00     0.049 A 
ATOM     49  N   UNL A   1      43.960  31.139  30.951  1.00  0.00    -0.248 NA
ATOM     50  C   UNL A   1      42.256  32.688  31.330  1.00  0.00     0.031 C 
ATOM     51  C   UNL A   1      42.285  28.613  34.266  1.00  0.00     0.029 A 
ATOM     52  N   UNL A   1      43.918  28.782  32.747  1.00  0.00    -0.354 N 
ATOM     53  C   UNL A   1      44.101  32.208  30.075  1.00  0.00     0.074 A 
ATOM     54  C   UNL A   1      42.995  33.108  30.316  1.00  0.00     0.031 C 
ATOM     55  C   UNL A   1      43.068  27.527  34.390  1.00  0.00     0.029 A 
ATOM     56  C   UNL A   1      44.134  27.589  33.392  1.00  0.00     0.049 A 
ATOM     57  H   UNL A   1      44.504  29.121  32.031  1.00  0.00     0.167 HD
ATOM     58  C   UNL A   1      45.080  32.430  29.168  1.00  0.00     0.037 A 
ATOM     59  C   UNL A   1      45.079  26.652  33.183  1.00  0.00     0.037 A 
ATOM     60  C   UNL A   1      46.170  31.523  28.927  1.00  0.00     0.049 A 
ATOM     61  C   UNL A   1      46.124  26.899  32.122  1.00  0.00     0.074 A 
ATOM     62  C   UNL A   1      47.216  31.647  28.031  1.00  0.00     0.029 A 
ATOM     63  N   UNL A   1      46.349  30.316  29.589  1.00  0.00    -0.354 N 
ATOM     64  N   UNL A   1      46.271  27.930  31.324  1.00  0.00    -0.248 NA
ATOM     65  C   UNL A   1      47.143  25.855  31.944  1.00  0.00     0.031 C 
ATOM     66  C   UNL A   1      47.998  30.491  28.113  1.00  0.00     0.029 A 
ATOM     67  C   UNL A   1      47.478  29.676  29.106  1.00  0.00     0.049 A 
ATOM     68  H   UNL A   1      45.760  29.967  30.297  1.00  0.00     0.167 HD
ATOM     69  C   UNL A   1      47.410  27.671  30.570  1.00  0.00     0.074 A 
ATOM     70  C   UNL A   1      47.932  26.401  31.030  1.00  0.00     0.031 C 
ATOM     71  C   UNL A   1      47.974  28.410  29.582  1.00  0.00     0.037 A 
BRANCH  58  72
ATOM     72  C   UNL A   1      45.009  33.697  28.367  1.00  0.00     0.064 A 
ATOM     73  C   UNL A   1      44.334  33.752  27.137  1.00  0.00     0.173 A 
ATOM     74  C   UNL A   1      45.591  34.879  28.848  1.00  0.00     0.173 A 
ATOM     75  F   UNL A   1      43.779  32.645  26.620  1.00  0.00    -0.203 F 
ATOM     76  C   UNL A   1      44.260  34.939  26.412  1.00  0.00     0.198 A 
ATOM     77  C   UNL A   1      45.487  36.071  28.135  1.00  0.00     0.198 A 
ATOM     78  F   UNL A   1      46.250  34.882  30.016  1.00  0.00    -0.203 F 
ATOM     79  F   UNL A   1      43.649  34.956  25.219  1.00  0.00    -0.200 F 
ATOM     80  C   UNL A   1      44.827  36.098  26.916  1.00  0.00     0.200 A 
ATOM     81  F   UNL A   1      46.027  37.194  28.629  1.00  0.00    -0.200 F 
ATOM     82  F   UNL A   1      44.744  37.244  26.223  1.00  0.00    -0.200 F 
ENDBRANCH  58  72
BRANCH  59  83
ATOM     83  C   UNL A   1      45.082  25.392  33.976  1.00  0.00     0.064 A 
ATOM     84  C   UNL A   1      44.474  24.224  33.493  1.00  0.00     0.173 A 
ATOM     85  C   UNL A   1      45.653  25.344  35.256  1.00  0.00     0.173 A 
ATOM     86  F   UNL A   1      43.892  24.222  32.285  1.00  0.00    -0.203 F 
ATOM     87  C   UNL A   1      44.404  23.072  34.275  1.00  0.00     0.198 A 
ATOM     88  C   UNL A   1      45.615  24.180  36.022  1.00  0.00     0.198 A 
ATOM     89  F   UNL A   1      46.248  26.432  35.769  1.00  0.00    -0.203 F 
ATOM     90  F   UNL A   1      43.754  21.993  33.816  1.00  0.00    -0.200 F 
ATOM     91  C   UNL A   1      44.978  23.049  35.536  1.00  0.00     0.200 A 
ATOM     92  F   UNL A   1      46.181  24.160  37.236  1.00  0.00    -0.200 F 
ATOM     93  F   UNL A   1      44.904  21.943  36.289  1.00  0.00    -0.200 F 
ENDBRANCH  59  83
BRANCH  71  94
ATOM     94  C   UNL A   1      49.233  27.871  28.960  1.00  0.00     0.064 A 
ATOM     95  C   UNL A   1      49.201  27.042  27.829  1.00  0.00     0.173 A 
ATOM     96  C   UNL A   1      50.487  28.199  29.498  1.00  0.00     0.173 A 
ATOM     97  F   UNL A   1      48.027  26.690  27.282  1.00  0.00    -0.203 F 
ATOM     98  C   UNL A   1      50.374  26.519  27.291  1.00  0.00     0.198 A 
ATOM     99  C   UNL A   1      51.661  27.707  28.933  1.00  0.00     0.198 A 
ATOM    100  F   UNL A   1      50.577  29.001  30.569  1.00  0.00    -0.203 F 
ATOM    101  F   UNL A   1      50.313  25.669  26.257  1.00  0.00    -0.200 F 
ATOM    102  C   UNL A   1      51.602  26.857  27.840  1.00  0.00     0.200 A 
ATOM    103  F   UNL A   1      52.847  28.051  29.451  1.00  0.00    -0.200 F 
ATOM    104  F   UNL A   1      52.730  26.351  27.322  1.00  0.00    -0.200 F 
ENDBRANCH  71  94
ENDBRANCH  45  46
ENDBRANCH  38  40
ENDBRANCH  37  38
ENDBRANCH  36  37
ENDBRANCH  35  36
ENDBRANCH  34  35
ENDBRANCH  33  34
ENDBRANCH   1  33
TORSDOF 20
ENDMDL
MODEL 3
REMARK VINA RESULT:     -11.4      4.340      7.239
REMARK SMILES C[C@@H](CCC(=O)OCCOCCOCCOC(=O)c1ccc(-c2c3nc(c(-c4c(F)c(F)c(F)c(F)c4F)c4ccc([nH]4)c(-c4c(F)c(F)c(F)c(F)c4F)c4nc(c(-c5c(F)c(F)c(F)c(F)c5F)c5ccc2[nH]5)C=C4)C=C3)cc1)[C@@H]1CC[C@@H]2[C@H]3CC[C@@H]4CC(=O)CC[C@]4(C)[C@@H]3CC(=O)[C@]21C
REMARK SMILES IDX 11 1 10 2 9 3 8 4 7 5 5 6 6 7 4 8 3 9 2 10 1 11 82 12 83 13
REMARK SMILES IDX 101 14 84 15 85 16 99 17 102 18 86 19 98 20 100 21 87 22
REMARK SMILES IDX 97 23 88 24 95 25 89 26 94 27 96 28 90 29 93 30 91 31 92 32
REMARK SMILES IDX 12 33 13 34 14 35 15 36 16 37 17 38 18 39 19 40 20 41 81 42
REMARK SMILES IDX 21 43 80 44 22 45 23 46 24 47 74 48 25 49 79 50 73 51 75 52
REMARK SMILES IDX 26 53 78 54 72 55 71 56 27 58 59 59 39 60 58 61 40 62 43 63
REMARK SMILES IDX 57 64 76 65 41 66 42 67 56 69 77 70 44 71 28 72 29 73 37 74
REMARK SMILES IDX 30 75 31 76 35 77 38 78 32 79 33 80 36 81 34 82 60 83 61 84
REMARK SMILES IDX 69 85 62 86 63 87 67 88 70 89 64 90 65 91 68 92 66 93 45 94
REMARK SMILES IDX 46 95 54 96 47 97 48 98 52 99 55 100 49 101 50 102 53 103
REMARK SMILES IDX 51 104
REMARK H PARENT 75 57 43 68
REMARK Flexibility Score: inf
ROOT
ATOM      1  C   UNL A   1      31.300  29.736  24.539  1.00  0.00     0.188 C 
ENDROOT
BRANCH   1   2
ATOM      2  O   UNL A   1      30.074  30.397  24.245  1.00  0.00    -0.376 OA
BRANCH   2   3
ATOM      3  C   UNL A   1      29.479  30.085  22.977  1.00  0.00     0.202 C 
BRANCH   3   4
ATOM      4  C   UNL A   1      28.408  28.990  23.021  1.00  0.00     0.261 C 
BRANCH   4   5
ATOM      5  O   UNL A   1      29.045  27.704  22.866  1.00  0.00    -0.463 OA
BRANCH   5   6
ATOM      6  C   UNL A   1      28.840  26.760  23.804  1.00  0.00     0.305 C 
ATOM      7  O   UNL A   1      27.731  26.411  24.199  1.00  0.00    -0.252 OA
BRANCH   6   8
ATOM      8  C   UNL A   1      30.115  26.088  24.298  1.00  0.00     0.123 C 
BRANCH   8   9
ATOM      9  C   UNL A   1      31.253  25.647  23.342  1.00  0.00     0.015 C 
BRANCH   9  10
ATOM     10  C   UNL A   1      32.749  25.708  23.821  1.00  0.00    -0.010 C 
ATOM     11  C   UNL A   1      33.667  26.055  22.649  1.00  0.00     0.008 C 
BRANCH  10  12
ATOM     12  C   UNL A   1      33.114  24.424  24.585  1.00  0.00     0.005 C 
ATOM     13  C   UNL A   1      34.291  24.541  25.586  1.00  0.00     0.005 C 
ATOM     14  C   UNL A   1      33.433  23.065  23.938  1.00  0.00     0.032 C 
ATOM     15  C   UNL A   1      34.518  23.085  26.092  1.00  0.00     0.005 C 
ATOM     16  C   UNL A   1      33.516  22.259  25.269  1.00  0.00     0.006 C 
ATOM     17  C   UNL A   1      32.323  22.365  23.186  1.00  0.00     0.139 C 
ATOM     18  C   UNL A   1      34.725  23.080  23.097  1.00  0.00     0.020 C 
ATOM     19  C   UNL A   1      33.632  20.720  25.168  1.00  0.00    -0.003 C 
ATOM     20  C   UNL A   1      32.668  20.967  22.734  1.00  0.00     0.080 C 
ATOM     21  O   UNL A   1      31.169  22.781  23.125  1.00  0.00    -0.299 OA
ATOM     22  C   UNL A   1      33.105  20.061  26.474  1.00  0.00     0.004 C 
ATOM     23  C   UNL A   1      32.755  20.132  24.013  1.00  0.00     0.006 C 
ATOM     24  C   UNL A   1      32.873  18.540  26.414  1.00  0.00     0.005 C 
ATOM     25  C   UNL A   1      32.964  18.586  23.840  1.00  0.00    -0.025 C 
ATOM     26  C   UNL A   1      32.266  17.992  25.092  1.00  0.00     0.002 C 
ATOM     27  C   UNL A   1      34.439  18.084  23.761  1.00  0.00     0.015 C 
ATOM     28  C   UNL A   1      32.284  18.118  22.526  1.00  0.00     0.012 C 
ATOM     29  C   UNL A   1      32.260  16.469  25.052  1.00  0.00     0.079 C 
ATOM     30  C   UNL A   1      34.790  16.794  24.527  1.00  0.00     0.076 C 
ATOM     31  C   UNL A   1      33.658  15.921  25.030  1.00  0.00     0.133 C 
ATOM     32  O   UNL A   1      33.881  14.780  25.440  1.00  0.00    -0.300 OA
ENDBRANCH  10  12
ENDBRANCH   9  10
ENDBRANCH   8   9
ENDBRANCH   6   8
ENDBRANCH   5   6
ENDBRANCH   4   5
ENDBRANCH   3   4
ENDBRANCH   2   3
ENDBRANCH   1   2
BRANCH   1  33
ATOM     33  C   UNL A   1      31.723  29.762  26.005  1.00  0.00     0.188 C 
BRANCH  33  34
ATOM     34  O   UNL A   1      33.098  30.064  26.189  1.00  0.00    -0.376 OA
BRANCH  34  35
ATOM     35  C   UNL A   1      33.381  30.973  27.253  1.00  0.00     0.202 C 
BRANCH  35  36
ATOM     36  C   UNL A   1      32.357  32.111  27.304  1.00  0.00     0.261 C 
BRANCH  36  37
ATOM     37  O   UNL A   1      33.044  33.360  27.145  1.00  0.00    -0.460 OA
BRANCH  37  38
ATOM     38  C   UNL A   1      33.266  34.061  28.282  1.00  0.00     0.338 C 
ATOM     39  O   UNL A   1      32.551  34.919  28.774  1.00  0.00    -0.246 OA
BRANCH  38  40
ATOM     40  C   UNL A   1      34.440  33.470  28.968  1.00  0.00     0.060 A 
ATOM     41  C   UNL A   1      35.706  33.663  28.395  1.00  0.00     0.016 A 
ATOM     42  C   UNL A   1      34.325  32.828  30.209  1.00  0.00     0.016 A 
ATOM     43  C   UNL A   1      36.845  33.190  29.042  1.00  0.00     0.010 A 
ATOM     44  C   UNL A   1      35.466  32.368  30.863  1.00  0.00     0.010 A 
ATOM     45  C   UNL A   1      36.727  32.515  30.264  1.00  0.00    -0.014 A 
BRANCH  45  46
ATOM     46  C   UNL A   1      37.896  31.806  30.830  1.00  0.00     0.031 A 
ATOM     47  C   UNL A   1      38.341  32.170  32.218  1.00  0.00     0.074 A 
ATOM     48  C   UNL A   1      38.530  30.848  30.130  1.00  0.00     0.049 A 
ATOM     49  N   UNL A   1      39.336  31.701  32.924  1.00  0.00    -0.248 NA
ATOM     50  C   UNL A   1      37.557  33.213  32.903  1.00  0.00     0.031 C 
ATOM     51  C   UNL A   1      38.178  30.413  28.779  1.00  0.00     0.029 A 
ATOM     52  N   UNL A   1      39.609  30.070  30.464  1.00  0.00    -0.354 N 
ATOM     53  C   UNL A   1      39.289  32.382  34.134  1.00  0.00     0.074 A 
ATOM     54  C   UNL A   1      38.208  33.337  34.048  1.00  0.00     0.031 C 
ATOM     55  C   UNL A   1      39.032  29.447  28.396  1.00  0.00     0.029 A 
ATOM     56  C   UNL A   1      40.001  29.215  29.465  1.00  0.00     0.049 A 
ATOM     57  H   UNL A   1      40.059  30.121  31.339  1.00  0.00     0.167 HD
ATOM     58  C   UNL A   1      40.067  32.207  35.228  1.00  0.00     0.037 A 
ATOM     59  C   UNL A   1      41.038  28.355  29.421  1.00  0.00     0.037 A 
ATOM     60  C   UNL A   1      41.148  31.262  35.300  1.00  0.00     0.049 A 
ATOM     61  C   UNL A   1      41.925  28.224  30.635  1.00  0.00     0.074 A 
ATOM     62  C   UNL A   1      42.000  31.002  36.358  1.00  0.00     0.029 A 
ATOM     63  N   UNL A   1      41.527  30.420  34.264  1.00  0.00    -0.354 N 
ATOM     64  N   UNL A   1      41.852  28.845  31.789  1.00  0.00    -0.248 NA
ATOM     65  C   UNL A   1      43.031  27.261  30.543  1.00  0.00     0.031 C 
ATOM     66  C   UNL A   1      42.928  30.042  35.944  1.00  0.00     0.029 A 
ATOM     67  C   UNL A   1      42.615  29.655  34.650  1.00  0.00     0.049 A 
ATOM     68  H   UNL A   1      41.088  30.375  33.383  1.00  0.00     0.167 HD
ATOM     69  C   UNL A   1      42.882  28.330  32.566  1.00  0.00     0.074 A 
ATOM     70  C   UNL A   1      43.544  27.323  31.763  1.00  0.00     0.031 C 
ATOM     71  C   UNL A   1      43.256  28.660  33.829  1.00  0.00     0.037 A 
BRANCH  58  72
ATOM     72  C   UNL A   1      39.777  33.061  36.428  1.00  0.00     0.064 A 
ATOM     73  C   UNL A   1      38.883  32.644  37.427  1.00  0.00     0.173 A 
ATOM     74  C   UNL A   1      40.427  34.291  36.602  1.00  0.00     0.173 A 
ATOM     75  F   UNL A   1      38.218  31.486  37.299  1.00  0.00    -0.203 F 
ATOM     76  C   UNL A   1      38.636  33.437  38.545  1.00  0.00     0.198 A 
ATOM     77  C   UNL A   1      40.202  35.066  37.737  1.00  0.00     0.198 A 
ATOM     78  F   UNL A   1      41.289  34.738  35.677  1.00  0.00    -0.203 F 
ATOM     79  F   UNL A   1      37.743  33.040  39.462  1.00  0.00    -0.200 F 
ATOM     80  C   UNL A   1      39.303  34.642  38.704  1.00  0.00     0.200 A 
ATOM     81  F   UNL A   1      40.855  36.226  37.895  1.00  0.00    -0.200 F 
ATOM     82  F   UNL A   1      39.075  35.399  39.787  1.00  0.00    -0.200 F 
ENDBRANCH  58  72
BRANCH  59  83
ATOM     83  C   UNL A   1      41.308  27.560  28.191  1.00  0.00     0.064 A 
ATOM     84  C   UNL A   1      40.768  26.278  28.018  1.00  0.00     0.173 A 
ATOM     85  C   UNL A   1      42.153  28.050  27.184  1.00  0.00     0.173 A 
ATOM     86  F   UNL A   1      39.974  25.752  28.961  1.00  0.00    -0.203 F 
ATOM     87  C   UNL A   1      41.093  25.503  26.905  1.00  0.00     0.198 A 
ATOM     88  C   UNL A   1      42.448  27.289  26.054  1.00  0.00     0.198 A 
ATOM     89  F   UNL A   1      42.698  29.270  27.298  1.00  0.00    -0.203 F 
ATOM     90  F   UNL A   1      40.620  24.254  26.800  1.00  0.00    -0.200 F 
ATOM     91  C   UNL A   1      41.929  26.011  25.922  1.00  0.00     0.200 A 
ATOM     92  F   UNL A   1      43.246  27.789  25.102  1.00  0.00    -0.200 F 
ATOM     93  F   UNL A   1      42.246  25.263  24.856  1.00  0.00    -0.200 F 
ENDBRANCH  59  83
BRANCH  71  94
ATOM     94  C   UNL A   1      44.412  27.902  34.419  1.00  0.00     0.064 A 
ATOM     95  C   UNL A   1      44.227  26.697  35.113  1.00  0.00     0.173 A 
ATOM     96  C   UNL A   1      45.723  28.384  34.279  1.00  0.00     0.173 A 
ATOM     97  F   UNL A   1      42.993  26.198  35.284  1.00  0.00    -0.203 F 
ATOM     98  C   UNL A   1      45.304  26.029  35.689  1.00  0.00     0.198 A 
ATOM     99  C   UNL A   1      46.803  27.692  34.821  1.00  0.00     0.198 A 
ATOM    100  F   UNL A   1      45.959  29.523  33.612  1.00  0.00    -0.203 F 
ATOM    101  F   UNL A   1      45.094  24.920  36.411  1.00  0.00    -0.200 F 
ATOM    102  C   UNL A   1      46.591  26.525  35.538  1.00  0.00     0.200 A 
ATOM    103  F   UNL A   1      48.047  28.161  34.657  1.00  0.00    -0.200 F 
ATOM    104  F   UNL A   1      47.627  25.882  36.094  1.00  0.00    -0.200 F 
ENDBRANCH  71  94
ENDBRANCH  45  46
ENDBRANCH  38  40
ENDBRANCH  37  38
ENDBRANCH  36  37
ENDBRANCH  35  36
ENDBRANCH  34  35
ENDBRANCH  33  34
ENDBRANCH   1  33
TORSDOF 20
ENDMDL
