MODEL 1
REMARK VINA RESULT:     -11.3      0.000      0.000
REMARK SMILES C[C@@H](C(=O)OCCOCCOCCOC(=O)c1ccc(-c2c3nc(c(-c4c(F)c(F)c(F)c(F)c4F)c4ccc([nH]4)c(-c4c(F)c(F)c(F)c(F)c4F)c4nc(c(-c5c(F)c(F)c(F)c(F)c5F)c5ccc2[nH]5)C=C4)C=C3)cc1)c1ccc(C[C@H]2CCC[C@@H]2O)cc1
REMARK SMILES IDX 9 1 8 2 7 3 6 4 5 5 3 6 4 7 2 8 1 9 80 10 81 11 92 12 82 13
REMARK SMILES IDX 91 14 83 15 84 16 85 17 86 18 89 19 87 20 88 21 90 22 10 24
REMARK SMILES IDX 11 25 12 26 13 27 14 28 15 29 16 30 17 31 18 32 79 33 19 34
REMARK SMILES IDX 78 35 20 36 21 37 22 38 72 39 23 40 77 41 71 42 73 43 24 44
REMARK SMILES IDX 76 45 70 46 69 47 25 49 57 50 37 51 56 52 38 53 41 54 55 55
REMARK SMILES IDX 74 56 39 57 40 58 54 60 75 61 42 62 26 63 27 64 35 65 28 66
REMARK SMILES IDX 29 67 33 68 36 69 30 70 31 71 34 72 32 73 58 74 59 75 67 76
REMARK SMILES IDX 60 77 61 78 65 79 68 80 62 81 63 82 66 83 64 84 43 85 44 86
REMARK SMILES IDX 52 87 45 88 46 89 50 90 53 91 47 92 48 93 51 94 49 95
REMARK H PARENT 90 23 73 48 41 59
REMARK Flexibility Score: inf
ROOT
ATOM      1  C   UNL A   1      40.578  20.500  26.313  1.00  0.00     0.188 C 
ENDROOT
BRANCH   1   2
ATOM      2  O   UNL A   1      39.731  21.450  26.945  1.00  0.00    -0.376 OA
BRANCH   2   3
ATOM      3  C   UNL A   1      38.978  22.337  26.115  1.00  0.00     0.202 C 
BRANCH   3   4
ATOM      4  C   UNL A   1      37.604  21.891  25.575  1.00  0.00     0.261 C 
BRANCH   4   5
ATOM      5  O   UNL A   1      36.672  22.971  25.354  1.00  0.00    -0.463 OA
BRANCH   5   6
ATOM      6  C   UNL A   1      36.017  22.983  24.164  1.00  0.00     0.313 C 
ATOM      7  O   UNL A   1      36.538  22.672  23.097  1.00  0.00    -0.252 OA
BRANCH   6   8
ATOM      8  C   UNL A   1      34.517  23.316  24.282  1.00  0.00     0.126 C 
ATOM      9  C   UNL A   1      33.595  22.236  23.690  1.00  0.00     0.025 C 
BRANCH   8  10
ATOM     10  C   UNL A   1      34.149  24.764  23.917  1.00  0.00    -0.034 A 
ATOM     11  C   UNL A   1      34.087  25.771  24.894  1.00  0.00     0.005 A 
ATOM     12  C   UNL A   1      33.723  25.107  22.622  1.00  0.00     0.005 A 
ATOM     13  C   UNL A   1      33.579  27.041  24.608  1.00  0.00     0.004 A 
ATOM     14  C   UNL A   1      33.167  26.366  22.348  1.00  0.00     0.004 A 
ATOM     15  C   UNL A   1      33.027  27.322  23.358  1.00  0.00    -0.048 A 
BRANCH  15  16
ATOM     16  C   UNL A   1      32.215  28.577  23.132  1.00  0.00     0.041 C 
BRANCH  16  17
ATOM     17  C   UNL A   1      30.780  28.360  22.603  1.00  0.00     0.022 C 
ATOM     18  C   UNL A   1      29.890  27.449  23.465  1.00  0.00     0.007 C 
ATOM     19  C   UNL A   1      29.935  29.622  22.381  1.00  0.00     0.117 C 
ATOM     20  C   UNL A   1      28.484  28.057  23.416  1.00  0.00     0.003 C 
ATOM     21  C   UNL A   1      28.519  29.078  22.289  1.00  0.00     0.032 C 
BRANCH  19  22
ATOM     22  O   UNL A   1      30.312  30.310  21.199  1.00  0.00    -0.393 OA
ATOM     23  H   UNL A   1      29.600  30.915  20.937  1.00  0.00     0.210 HD
ENDBRANCH  19  22
ENDBRANCH  16  17
ENDBRANCH  15  16
ENDBRANCH   8  10
ENDBRANCH   6   8
ENDBRANCH   5   6
ENDBRANCH   4   5
ENDBRANCH   3   4
ENDBRANCH   2   3
ENDBRANCH   1   2
BRANCH   1  24
ATOM     24  C   UNL A   1      41.586  19.725  27.174  1.00  0.00     0.188 C 
BRANCH  24  25
ATOM     25  O   UNL A   1      42.722  19.262  26.488  1.00  0.00    -0.376 OA
BRANCH  25  26
ATOM     26  C   UNL A   1      43.232  19.996  25.389  1.00  0.00     0.202 C 
BRANCH  26  27
ATOM     27  C   UNL A   1      43.870  21.395  25.518  1.00  0.00     0.261 C 
BRANCH  27  28
ATOM     28  O   UNL A   1      43.057  22.541  25.232  1.00  0.00    -0.460 OA
BRANCH  28  29
ATOM     29  C   UNL A   1      43.690  23.726  25.080  1.00  0.00     0.338 C 
ATOM     30  O   UNL A   1      44.487  24.031  24.204  1.00  0.00    -0.246 OA
BRANCH  29  31
ATOM     31  C   UNL A   1      43.068  24.686  26.019  1.00  0.00     0.060 A 
ATOM     32  C   UNL A   1      43.506  26.019  26.021  1.00  0.00     0.016 A 
ATOM     33  C   UNL A   1      42.041  24.280  26.872  1.00  0.00     0.016 A 
ATOM     34  C   UNL A   1      42.929  26.946  26.890  1.00  0.00     0.010 A 
ATOM     35  C   UNL A   1      41.486  25.202  27.765  1.00  0.00     0.010 A 
ATOM     36  C   UNL A   1      41.947  26.532  27.798  1.00  0.00    -0.014 A 
BRANCH  36  37
ATOM     37  C   UNL A   1      41.537  27.428  28.906  1.00  0.00     0.031 A 
ATOM     38  C   UNL A   1      42.335  27.394  30.180  1.00  0.00     0.074 A 
ATOM     39  C   UNL A   1      40.478  28.249  28.793  1.00  0.00     0.049 A 
ATOM     40  N   UNL A   1      42.128  28.021  31.310  1.00  0.00    -0.248 NA
ATOM     41  C   UNL A   1      43.519  26.521  30.181  1.00  0.00     0.031 C 
ATOM     42  C   UNL A   1      39.635  28.378  27.610  1.00  0.00     0.029 A 
ATOM     43  N   UNL A   1      39.926  29.122  29.699  1.00  0.00    -0.354 N 
ATOM     44  C   UNL A   1      43.136  27.593  32.164  1.00  0.00     0.074 A 
ATOM     45  C   UNL A   1      43.945  26.647  31.428  1.00  0.00     0.031 C 
ATOM     46  C   UNL A   1      38.668  29.279  27.861  1.00  0.00     0.029 A 
ATOM     47  C   UNL A   1      38.812  29.774  29.230  1.00  0.00     0.049 A 
ATOM     48  H   UNL A   1      40.295  29.265  30.601  1.00  0.00     0.167 HD
ATOM     49  C   UNL A   1      43.363  27.955  33.449  1.00  0.00     0.037 A 
ATOM     50  C   UNL A   1      37.998  30.656  29.846  1.00  0.00     0.037 A 
ATOM     51  C   UNL A   1      42.556  28.898  34.179  1.00  0.00     0.049 A 
ATOM     52  C   UNL A   1      38.252  31.011  31.293  1.00  0.00     0.074 A 
ATOM     53  C   UNL A   1      42.717  29.344  35.478  1.00  0.00     0.029 A 
ATOM     54  N   UNL A   1      41.430  29.530  33.675  1.00  0.00    -0.354 N 
ATOM     55  N   UNL A   1      39.219  30.622  32.088  1.00  0.00    -0.248 NA
ATOM     56  C   UNL A   1      37.283  31.914  31.933  1.00  0.00     0.031 C 
ATOM     57  C   UNL A   1      41.652  30.198  35.782  1.00  0.00     0.029 A 
ATOM     58  C   UNL A   1      40.868  30.343  34.647  1.00  0.00     0.049 A 
ATOM     59  H   UNL A   1      41.081  29.420  32.761  1.00  0.00     0.167 HD
ATOM     60  C   UNL A   1      38.991  31.250  33.308  1.00  0.00     0.074 A 
ATOM     61  C   UNL A   1      37.805  32.063  33.142  1.00  0.00     0.031 C 
ATOM     62  C   UNL A   1      39.694  31.157  34.464  1.00  0.00     0.037 A 
BRANCH  49  63
ATOM     63  C   UNL A   1      44.505  27.293  34.165  1.00  0.00     0.064 A 
ATOM     64  C   UNL A   1      44.349  26.078  34.849  1.00  0.00     0.173 A 
ATOM     65  C   UNL A   1      45.784  27.871  34.139  1.00  0.00     0.173 A 
ATOM     66  F   UNL A   1      43.144  25.492  34.918  1.00  0.00    -0.203 F 
ATOM     67  C   UNL A   1      45.424  25.481  35.503  1.00  0.00     0.198 A 
ATOM     68  C   UNL A   1      46.863  27.255  34.764  1.00  0.00     0.198 A 
ATOM     69  F   UNL A   1      45.990  29.032  33.497  1.00  0.00    -0.203 F 
ATOM     70  F   UNL A   1      45.240  24.348  36.194  1.00  0.00    -0.200 F 
ATOM     71  C   UNL A   1      46.681  26.065  35.453  1.00  0.00     0.200 A 
ATOM     72  F   UNL A   1      48.080  27.813  34.702  1.00  0.00    -0.200 F 
ATOM     73  F   UNL A   1      47.716  25.484  36.074  1.00  0.00    -0.200 F 
ENDBRANCH  49  63
BRANCH  50  74
ATOM     74  C   UNL A   1      36.854  31.265  29.112  1.00  0.00     0.064 A 
ATOM     75  C   UNL A   1      36.861  32.626  28.763  1.00  0.00     0.173 A 
ATOM     76  C   UNL A   1      35.714  30.519  28.779  1.00  0.00     0.173 A 
ATOM     77  F   UNL A   1      37.911  33.393  29.093  1.00  0.00    -0.203 F 
ATOM     78  C   UNL A   1      35.765  33.218  28.137  1.00  0.00     0.198 A 
ATOM     79  C   UNL A   1      34.635  31.102  28.117  1.00  0.00     0.198 A 
ATOM     80  F   UNL A   1      35.648  29.217  29.095  1.00  0.00    -0.203 F 
ATOM     81  F   UNL A   1      35.768  34.535  27.890  1.00  0.00    -0.200 F 
ATOM     82  C   UNL A   1      34.656  32.454  27.807  1.00  0.00     0.200 A 
ATOM     83  F   UNL A   1      33.569  30.357  27.797  1.00  0.00    -0.200 F 
ATOM     84  F   UNL A   1      33.597  33.022  27.215  1.00  0.00    -0.200 F 
ENDBRANCH  50  74
BRANCH  62  85
ATOM     85  C   UNL A   1      39.234  31.987  35.631  1.00  0.00     0.064 A 
ATOM     86  C   UNL A   1      38.426  31.456  36.648  1.00  0.00     0.173 A 
ATOM     87  C   UNL A   1      39.649  33.323  35.759  1.00  0.00     0.173 A 
ATOM     88  F   UNL A   1      37.992  30.189  36.574  1.00  0.00    -0.203 F 
ATOM     89  C   UNL A   1      38.028  32.238  37.731  1.00  0.00     0.198 A 
ATOM     90  C   UNL A   1      39.279  34.090  36.860  1.00  0.00     0.198 A 
ATOM     91  F   UNL A   1      40.431  33.880  34.821  1.00  0.00    -0.203 F 
ATOM     92  F   UNL A   1      37.215  31.723  38.664  1.00  0.00    -0.200 F 
ATOM     93  C   UNL A   1      38.462  33.550  37.840  1.00  0.00     0.200 A 
ATOM     94  F   UNL A   1      39.717  35.352  36.972  1.00  0.00    -0.200 F 
ATOM     95  F   UNL A   1      38.087  34.297  38.888  1.00  0.00    -0.200 F 
ENDBRANCH  62  85
ENDBRANCH  36  37
ENDBRANCH  29  31
ENDBRANCH  28  29
ENDBRANCH  27  28
ENDBRANCH  26  27
ENDBRANCH  25  26
ENDBRANCH  24  25
ENDBRANCH   1  24
TORSDOF 21
ENDMDL
MODEL 2
REMARK VINA RESULT:     -11.1      5.351     11.737
REMARK SMILES C[C@@H](C(=O)OCCOCCOCCOC(=O)c1ccc(-c2c3nc(c(-c4c(F)c(F)c(F)c(F)c4F)c4ccc([nH]4)c(-c4c(F)c(F)c(F)c(F)c4F)c4nc(c(-c5c(F)c(F)c(F)c(F)c5F)c5ccc2[nH]5)C=C4)C=C3)cc1)c1ccc(C[C@H]2CCC[C@@H]2O)cc1
REMARK SMILES IDX 9 1 8 2 7 3 6 4 5 5 3 6 4 7 2 8 1 9 80 10 81 11 92 12 82 13
REMARK SMILES IDX 91 14 83 15 84 16 85 17 86 18 89 19 87 20 88 21 90 22 10 24
REMARK SMILES IDX 11 25 12 26 13 27 14 28 15 29 16 30 17 31 18 32 79 33 19 34
REMARK SMILES IDX 78 35 20 36 21 37 22 38 72 39 23 40 77 41 71 42 73 43 24 44
REMARK SMILES IDX 76 45 70 46 69 47 25 49 57 50 37 51 56 52 38 53 41 54 55 55
REMARK SMILES IDX 74 56 39 57 40 58 54 60 75 61 42 62 26 63 27 64 35 65 28 66
REMARK SMILES IDX 29 67 33 68 36 69 30 70 31 71 34 72 32 73 58 74 59 75 67 76
REMARK SMILES IDX 60 77 61 78 65 79 68 80 62 81 63 82 66 83 64 84 43 85 44 86
REMARK SMILES IDX 52 87 45 88 46 89 50 90 53 91 47 92 48 93 51 94 49 95
REMARK H PARENT 90 23 73 48 41 59
REMARK Flexibility Score: inf
ROOT
ATOM      1  C   UNL A   1      32.554  36.436  31.147  1.00  0.00     0.188 C 
ENDROOT
BRANCH   1   2
ATOM      2  O   UNL A   1      33.252  37.520  31.744  1.00  0.00    -0.376 OA
BRANCH   2   3
ATOM      3  C   UNL A   1      33.760  37.345  33.068  1.00  0.00     0.202 C 
BRANCH   3   4
ATOM      4  C   UNL A   1      34.326  35.974  33.491  1.00  0.00     0.261 C 
BRANCH   4   5
ATOM      5  O   UNL A   1      35.572  35.621  32.853  1.00  0.00    -0.463 OA
BRANCH   5   6
ATOM      6  C   UNL A   1      35.717  34.329  32.460  1.00  0.00     0.313 C 
ATOM      7  O   UNL A   1      34.880  33.722  31.797  1.00  0.00    -0.252 OA
BRANCH   6   8
ATOM      8  C   UNL A   1      37.083  33.717  32.823  1.00  0.00     0.126 C 
ATOM      9  C   UNL A   1      37.387  33.734  34.331  1.00  0.00     0.025 C 
BRANCH   8  10
ATOM     10  C   UNL A   1      38.246  34.154  31.916  1.00  0.00    -0.034 A 
ATOM     11  C   UNL A   1      38.132  34.122  30.517  1.00  0.00     0.005 A 
ATOM     12  C   UNL A   1      39.511  34.464  32.444  1.00  0.00     0.005 A 
ATOM     13  C   UNL A   1      39.234  34.340  29.685  1.00  0.00     0.004 A 
ATOM     14  C   UNL A   1      40.626  34.633  31.610  1.00  0.00     0.004 A 
ATOM     15  C   UNL A   1      40.510  34.504  30.223  1.00  0.00    -0.048 A 
BRANCH  15  16
ATOM     16  C   UNL A   1      41.738  34.443  29.344  1.00  0.00     0.041 C 
BRANCH  16  17
ATOM     17  C   UNL A   1      42.257  35.801  28.822  1.00  0.00     0.022 C 
ATOM     18  C   UNL A   1      43.350  36.464  29.677  1.00  0.00     0.007 C 
ATOM     19  C   UNL A   1      42.825  35.814  27.396  1.00  0.00     0.117 C 
ATOM     20  C   UNL A   1      44.321  37.121  28.691  1.00  0.00     0.003 C 
ATOM     21  C   UNL A   1      43.607  37.116  27.348  1.00  0.00     0.032 C 
BRANCH  19  22
ATOM     22  O   UNL A   1      41.798  35.782  26.418  1.00  0.00    -0.393 OA
ATOM     23  H   UNL A   1      41.223  35.017  26.578  1.00  0.00     0.210 HD
ENDBRANCH  19  22
ENDBRANCH  16  17
ENDBRANCH  15  16
ENDBRANCH   8  10
ENDBRANCH   6   8
ENDBRANCH   5   6
ENDBRANCH   4   5
ENDBRANCH   3   4
ENDBRANCH   2   3
ENDBRANCH   1   2
BRANCH   1  24
ATOM     24  C   UNL A   1      32.917  36.029  29.711  1.00  0.00     0.188 C 
BRANCH  24  25
ATOM     25  O   UNL A   1      32.852  34.650  29.450  1.00  0.00    -0.376 OA
BRANCH  25  26
ATOM     26  C   UNL A   1      33.300  34.145  28.204  1.00  0.00     0.202 C 
BRANCH  26  27
ATOM     27  C   UNL A   1      34.610  33.351  28.025  1.00  0.00     0.261 C 
BRANCH  27  28
ATOM     28  O   UNL A   1      34.834  32.211  28.865  1.00  0.00    -0.460 OA
BRANCH  28  29
ATOM     29  C   UNL A   1      34.757  30.991  28.287  1.00  0.00     0.338 C 
ATOM     30  O   UNL A   1      33.877  30.580  27.544  1.00  0.00    -0.246 OA
BRANCH  29  31
ATOM     31  C   UNL A   1      36.052  30.311  28.509  1.00  0.00     0.060 A 
ATOM     32  C   UNL A   1      36.271  29.640  29.722  1.00  0.00     0.016 A 
ATOM     33  C   UNL A   1      37.033  30.312  27.517  1.00  0.00     0.016 A 
ATOM     34  C   UNL A   1      37.480  28.982  29.952  1.00  0.00     0.010 A 
ATOM     35  C   UNL A   1      38.257  29.681  27.762  1.00  0.00     0.010 A 
ATOM     36  C   UNL A   1      38.496  29.037  28.991  1.00  0.00    -0.014 A 
BRANCH  36  37
ATOM     37  C   UNL A   1      39.869  28.594  29.337  1.00  0.00     0.031 A 
ATOM     38  C   UNL A   1      40.682  29.456  30.261  1.00  0.00     0.074 A 
ATOM     39  C   UNL A   1      40.388  27.457  28.841  1.00  0.00     0.049 A 
ATOM     40  N   UNL A   1      41.926  29.324  30.647  1.00  0.00    -0.248 NA
ATOM     41  C   UNL A   1      40.002  30.639  30.812  1.00  0.00     0.031 C 
ATOM     42  C   UNL A   1      39.696  26.535  27.947  1.00  0.00     0.029 A 
ATOM     43  N   UNL A   1      41.629  26.895  29.014  1.00  0.00    -0.354 N 
ATOM     44  C   UNL A   1      42.185  30.421  31.457  1.00  0.00     0.074 A 
ATOM     45  C   UNL A   1      40.976  31.215  31.499  1.00  0.00     0.031 C 
ATOM     46  C   UNL A   1      40.524  25.518  27.647  1.00  0.00     0.029 A 
ATOM     47  C   UNL A   1      41.811  25.729  28.310  1.00  0.00     0.049 A 
ATOM     48  H   UNL A   1      42.325  27.291  29.588  1.00  0.00     0.167 HD
ATOM     49  C   UNL A   1      43.330  30.740  32.105  1.00  0.00     0.037 A 
ATOM     50  C   UNL A   1      42.898  24.937  28.206  1.00  0.00     0.037 A 
ATOM     51  C   UNL A   1      44.531  29.948  32.062  1.00  0.00     0.049 A 
ATOM     52  C   UNL A   1      44.175  25.339  28.907  1.00  0.00     0.074 A 
ATOM     53  C   UNL A   1      45.737  30.176  32.700  1.00  0.00     0.029 A 
ATOM     54  N   UNL A   1      44.682  28.779  31.330  1.00  0.00    -0.354 N 
ATOM     55  N   UNL A   1      44.407  26.364  29.691  1.00  0.00    -0.248 NA
ATOM     56  C   UNL A   1      45.349  24.479  28.689  1.00  0.00     0.031 C 
ATOM     57  C   UNL A   1      46.637  29.182  32.305  1.00  0.00     0.029 A 
ATOM     58  C   UNL A   1      45.970  28.290  31.479  1.00  0.00     0.049 A 
ATOM     59  H   UNL A   1      43.977  28.358  30.787  1.00  0.00     0.167 HD
ATOM     60  C   UNL A   1      45.739  26.259  30.078  1.00  0.00     0.074 A 
ATOM     61  C   UNL A   1      46.258  25.057  29.460  1.00  0.00     0.031 C 
ATOM     62  C   UNL A   1      46.470  27.085  30.867  1.00  0.00     0.037 A 
BRANCH  49  63
ATOM     63  C   UNL A   1      43.355  32.025  32.880  1.00  0.00     0.064 A 
ATOM     64  C   UNL A   1      43.852  33.216  32.329  1.00  0.00     0.173 A 
ATOM     65  C   UNL A   1      42.843  32.072  34.187  1.00  0.00     0.173 A 
ATOM     66  F   UNL A   1      44.367  33.223  31.091  1.00  0.00    -0.203 F 
ATOM     67  C   UNL A   1      43.861  34.398  33.066  1.00  0.00     0.198 A 
ATOM     68  C   UNL A   1      42.822  33.261  34.908  1.00  0.00     0.198 A 
ATOM     69  F   UNL A   1      42.354  30.962  34.761  1.00  0.00    -0.203 F 
ATOM     70  F   UNL A   1      44.389  35.511  32.539  1.00  0.00    -0.200 F 
ATOM     71  C   UNL A   1      43.338  34.421  34.351  1.00  0.00     0.200 A 
ATOM     72  F   UNL A   1      42.303  33.285  36.144  1.00  0.00    -0.200 F 
ATOM     73  F   UNL A   1      43.339  35.562  35.055  1.00  0.00    -0.200 F 
ENDBRANCH  49  63
BRANCH  50  74
ATOM     74  C   UNL A   1      42.844  23.686  27.398  1.00  0.00     0.064 A 
ATOM     75  C   UNL A   1      42.400  22.480  27.963  1.00  0.00     0.173 A 
ATOM     76  C   UNL A   1      43.273  23.656  26.063  1.00  0.00     0.173 A 
ATOM     77  F   UNL A   1      42.016  22.447  29.248  1.00  0.00    -0.203 F 
ATOM     78  C   UNL A   1      42.412  21.292  27.234  1.00  0.00     0.198 A 
ATOM     79  C   UNL A   1      43.247  22.475  25.322  1.00  0.00     0.198 A 
ATOM     80  F   UNL A   1      43.716  24.777  25.474  1.00  0.00    -0.203 F 
ATOM     81  F   UNL A   1      42.059  20.142  27.824  1.00  0.00    -0.200 F 
ATOM     82  C   UNL A   1      42.828  21.292  25.911  1.00  0.00     0.200 A 
ATOM     83  F   UNL A   1      43.645  22.484  24.043  1.00  0.00    -0.200 F 
ATOM     84  F   UNL A   1      42.851  20.150  25.211  1.00  0.00    -0.200 F 
ENDBRANCH  50  74
BRANCH  62  85
ATOM     85  C   UNL A   1      47.896  26.701  31.151  1.00  0.00     0.064 A 
ATOM     86  C   UNL A   1      48.236  25.810  32.180  1.00  0.00     0.173 A 
ATOM     87  C   UNL A   1      48.937  27.195  30.347  1.00  0.00     0.173 A 
ATOM     88  F   UNL A   1      47.284  25.314  32.986  1.00  0.00    -0.203 F 
ATOM     89  C   UNL A   1      49.562  25.452  32.412  1.00  0.00     0.198 A 
ATOM     90  C   UNL A   1      50.256  26.807  30.558  1.00  0.00     0.198 A 
ATOM     91  F   UNL A   1      48.669  28.042  29.340  1.00  0.00    -0.203 F 
ATOM     92  F   UNL A   1      49.867  24.640  33.434  1.00  0.00    -0.200 F 
ATOM     93  C   UNL A   1      50.570  25.944  31.596  1.00  0.00     0.200 A 
ATOM     94  F   UNL A   1      51.225  27.269  29.755  1.00  0.00    -0.200 F 
ATOM     95  F   UNL A   1      51.844  25.591  31.814  1.00  0.00    -0.200 F 
ENDBRANCH  62  85
ENDBRANCH  36  37
ENDBRANCH  29  31
ENDBRANCH  28  29
ENDBRANCH  27  28
ENDBRANCH  26  27
ENDBRANCH  25  26
ENDBRANCH  24  25
ENDBRANCH   1  24
TORSDOF 21
ENDMDL
MODEL 3
REMARK VINA RESULT:     -10.9      1.085      2.020
REMARK SMILES C[C@@H](C(=O)OCCOCCOCCOC(=O)c1ccc(-c2c3nc(c(-c4c(F)c(F)c(F)c(F)c4F)c4ccc([nH]4)c(-c4c(F)c(F)c(F)c(F)c4F)c4nc(c(-c5c(F)c(F)c(F)c(F)c5F)c5ccc2[nH]5)C=C4)C=C3)cc1)c1ccc(C[C@H]2CCC[C@@H]2O)cc1
REMARK SMILES IDX 9 1 8 2 7 3 6 4 5 5 3 6 4 7 2 8 1 9 80 10 81 11 92 12 82 13
REMARK SMILES IDX 91 14 83 15 84 16 85 17 86 18 89 19 87 20 88 21 90 22 10 24
REMARK SMILES IDX 11 25 12 26 13 27 14 28 15 29 16 30 17 31 18 32 79 33 19 34
REMARK SMILES IDX 78 35 20 36 21 37 22 38 72 39 23 40 77 41 71 42 73 43 24 44
REMARK SMILES IDX 76 45 70 46 69 47 25 49 57 50 37 51 56 52 38 53 41 54 55 55
REMARK SMILES IDX 74 56 39 57 40 58 54 60 75 61 42 62 26 63 27 64 35 65 28 66
REMARK SMILES IDX 29 67 33 68 36 69 30 70 31 71 34 72 32 73 58 74 59 75 67 76
REMARK SMILES IDX 60 77 61 78 65 79 68 80 62 81 63 82 66 83 64 84 43 85 44 86
REMARK SMILES IDX 52 87 45 88 46 89 50 90 53 91 47 92 48 93 51 94 49 95
REMARK H PARENT 90 23 73 48 41 59
REMARK Flexibility Score: inf
ROOT
ATOM      1  C   UNL A   1      40.023  21.122  26.511  1.00  0.00     0.188 C 
ENDROOT
BRANCH   1   2
ATOM      2  O   UNL A   1      39.249  22.310  26.591  1.00  0.00    -0.376 OA
BRANCH   2   3
ATOM      3  C   UNL A   1      38.205  22.500  25.634  1.00  0.00     0.202 C 
BRANCH   3   4
ATOM      4  C   UNL A   1      37.346  21.295  25.196  1.00  0.00     0.261 C 
BRANCH   4   5
ATOM      5  O   UNL A   1      36.140  21.650  24.486  1.00  0.00    -0.463 OA
BRANCH   5   6
ATOM      6  C   UNL A   1      34.962  21.305  25.067  1.00  0.00     0.313 C 
ATOM      7  O   UNL A   1      34.386  20.241  24.857  1.00  0.00    -0.252 OA
BRANCH   6   8
ATOM      8  C   UNL A   1      34.458  22.324  26.106  1.00  0.00     0.126 C 
ATOM      9  C   UNL A   1      34.085  21.694  27.460  1.00  0.00     0.025 C 
BRANCH   8  10
ATOM     10  C   UNL A   1      33.453  23.355  25.564  1.00  0.00    -0.034 A 
ATOM     11  C   UNL A   1      32.547  24.008  26.414  1.00  0.00     0.005 A 
ATOM     12  C   UNL A   1      33.305  23.578  24.185  1.00  0.00     0.005 A 
ATOM     13  C   UNL A   1      31.513  24.804  25.914  1.00  0.00     0.004 A 
ATOM     14  C   UNL A   1      32.238  24.336  23.680  1.00  0.00     0.004 A 
ATOM     15  C   UNL A   1      31.290  24.900  24.540  1.00  0.00    -0.048 A 
BRANCH  15  16
ATOM     16  C   UNL A   1      30.016  25.506  24.000  1.00  0.00     0.041 C 
BRANCH  16  17
ATOM     17  C   UNL A   1      29.899  27.041  24.123  1.00  0.00     0.022 C 
ATOM     18  C   UNL A   1      31.224  27.815  24.023  1.00  0.00     0.007 C 
ATOM     19  C   UNL A   1      28.971  27.740  23.119  1.00  0.00     0.117 C 
ATOM     20  C   UNL A   1      30.910  29.098  23.247  1.00  0.00     0.003 C 
ATOM     21  C   UNL A   1      29.393  29.196  23.214  1.00  0.00     0.032 C 
BRANCH  19  22
ATOM     22  O   UNL A   1      27.603  27.566  23.454  1.00  0.00    -0.393 OA
ATOM     23  H   UNL A   1      27.250  28.396  23.810  1.00  0.00     0.210 HD
ENDBRANCH  19  22
ENDBRANCH  16  17
ENDBRANCH  15  16
ENDBRANCH   8  10
ENDBRANCH   6   8
ENDBRANCH   5   6
ENDBRANCH   4   5
ENDBRANCH   3   4
ENDBRANCH   2   3
ENDBRANCH   1   2
BRANCH   1  24
ATOM     24  C   UNL A   1      41.171  20.921  27.511  1.00  0.00     0.188 C 
BRANCH  24  25
ATOM     25  O   UNL A   1      42.200  20.072  27.073  1.00  0.00    -0.376 OA
BRANCH  25  26
ATOM     26  C   UNL A   1      42.810  20.290  25.814  1.00  0.00     0.202 C 
BRANCH  26  27
ATOM     27  C   UNL A   1      43.664  21.531  25.482  1.00  0.00     0.261 C 
BRANCH  27  28
ATOM     28  O   UNL A   1      42.990  22.740  25.110  1.00  0.00    -0.460 OA
BRANCH  28  29
ATOM     29  C   UNL A   1      43.723  23.876  25.087  1.00  0.00     0.338 C 
ATOM     30  O   UNL A   1      44.611  24.167  24.297  1.00  0.00    -0.246 OA
BRANCH  29  31
ATOM     31  C   UNL A   1      43.103  24.825  26.038  1.00  0.00     0.060 A 
ATOM     32  C   UNL A   1      43.551  26.154  26.066  1.00  0.00     0.016 A 
ATOM     33  C   UNL A   1      42.068  24.413  26.878  1.00  0.00     0.016 A 
ATOM     34  C   UNL A   1      42.977  27.071  26.947  1.00  0.00     0.010 A 
ATOM     35  C   UNL A   1      41.515  25.324  27.783  1.00  0.00     0.010 A 
ATOM     36  C   UNL A   1      41.985  26.650  27.841  1.00  0.00    -0.014 A 
BRANCH  36  37
ATOM     37  C   UNL A   1      41.575  27.531  28.962  1.00  0.00     0.031 A 
ATOM     38  C   UNL A   1      42.373  27.479  30.235  1.00  0.00     0.074 A 
ATOM     39  C   UNL A   1      40.517  28.353  28.860  1.00  0.00     0.049 A 
ATOM     40  N   UNL A   1      42.167  28.090  31.374  1.00  0.00    -0.248 NA
ATOM     41  C   UNL A   1      43.557  26.606  30.224  1.00  0.00     0.031 C 
ATOM     42  C   UNL A   1      39.673  28.499  27.678  1.00  0.00     0.029 A 
ATOM     43  N   UNL A   1      39.965  29.213  29.778  1.00  0.00    -0.354 N 
ATOM     44  C   UNL A   1      43.175  27.650  32.222  1.00  0.00     0.074 A 
ATOM     45  C   UNL A   1      43.984  26.714  31.473  1.00  0.00     0.031 C 
ATOM     46  C   UNL A   1      38.707  29.396  27.943  1.00  0.00     0.029 A 
ATOM     47  C   UNL A   1      38.851  29.872  29.318  1.00  0.00     0.049 A 
ATOM     48  H   UNL A   1      40.333  29.344  30.682  1.00  0.00     0.167 HD
ATOM     49  C   UNL A   1      43.402  27.994  33.512  1.00  0.00     0.037 A 
ATOM     50  C   UNL A   1      38.037  30.746  29.946  1.00  0.00     0.037 A 
ATOM     51  C   UNL A   1      42.595  28.927  34.254  1.00  0.00     0.049 A 
ATOM     52  C   UNL A   1      38.291  31.080  31.398  1.00  0.00     0.074 A 
ATOM     53  C   UNL A   1      42.756  29.355  35.560  1.00  0.00     0.029 A 
ATOM     54  N   UNL A   1      41.468  29.567  33.759  1.00  0.00    -0.354 N 
ATOM     55  N   UNL A   1      39.258  30.680  32.188  1.00  0.00    -0.248 NA
ATOM     56  C   UNL A   1      37.322  31.975  32.051  1.00  0.00     0.031 C 
ATOM     57  C   UNL A   1      41.691  30.205  35.875  1.00  0.00     0.029 A 
ATOM     58  C   UNL A   1      40.907  30.365  34.743  1.00  0.00     0.049 A 
ATOM     59  H   UNL A   1      41.120  29.469  32.844  1.00  0.00     0.167 HD
ATOM     60  C   UNL A   1      39.030  31.291  33.416  1.00  0.00     0.074 A 
ATOM     61  C   UNL A   1      37.844  32.107  33.261  1.00  0.00     0.031 C 
ATOM     62  C   UNL A   1      39.733  31.183  34.571  1.00  0.00     0.037 A 
BRANCH  49  63
ATOM     63  C   UNL A   1      44.543  27.322  34.218  1.00  0.00     0.064 A 
ATOM     64  C   UNL A   1      45.825  27.890  34.266  1.00  0.00     0.173 A 
ATOM     65  C   UNL A   1      44.341  26.104  34.886  1.00  0.00     0.173 A 
ATOM     66  F   UNL A   1      46.076  29.045  33.632  1.00  0.00    -0.203 F 
ATOM     67  C   UNL A   1      46.868  27.249  34.931  1.00  0.00     0.198 A 
ATOM     68  C   UNL A   1      45.376  25.484  35.578  1.00  0.00     0.198 A 
ATOM     69  F   UNL A   1      43.134  25.518  34.874  1.00  0.00    -0.203 F 
ATOM     70  F   UNL A   1      48.097  27.784  34.919  1.00  0.00    -0.200 F 
ATOM     71  C   UNL A   1      46.640  26.052  35.593  1.00  0.00     0.200 A 
ATOM     72  F   UNL A   1      45.150  24.335  36.230  1.00  0.00    -0.200 F 
ATOM     73  F   UNL A   1      47.643  25.443  36.242  1.00  0.00    -0.200 F 
ENDBRANCH  49  63
BRANCH  50  74
ATOM     74  C   UNL A   1      36.893  31.365  29.220  1.00  0.00     0.064 A 
ATOM     75  C   UNL A   1      36.908  32.726  28.875  1.00  0.00     0.173 A 
ATOM     76  C   UNL A   1      35.745  30.628  28.893  1.00  0.00     0.173 A 
ATOM     77  F   UNL A   1      37.966  33.485  29.200  1.00  0.00    -0.203 F 
ATOM     78  C   UNL A   1      35.813  33.328  28.257  1.00  0.00     0.198 A 
ATOM     79  C   UNL A   1      34.667  31.222  28.240  1.00  0.00     0.198 A 
ATOM     80  F   UNL A   1      35.672  29.326  29.207  1.00  0.00    -0.203 F 
ATOM     81  F   UNL A   1      35.825  34.646  28.013  1.00  0.00    -0.200 F 
ATOM     82  C   UNL A   1      34.696  32.573  27.933  1.00  0.00     0.200 A 
ATOM     83  F   UNL A   1      33.593  30.485  27.924  1.00  0.00    -0.200 F 
ATOM     84  F   UNL A   1      33.638  33.151  27.348  1.00  0.00    -0.200 F 
ENDBRANCH  50  74
BRANCH  62  85
ATOM     85  C   UNL A   1      39.273  31.996  35.749  1.00  0.00     0.064 A 
ATOM     86  C   UNL A   1      39.677  33.326  35.938  1.00  0.00     0.173 A 
ATOM     87  C   UNL A   1      38.372  31.450  36.679  1.00  0.00     0.173 A 
ATOM     88  F   UNL A   1      40.544  33.895  35.087  1.00  0.00    -0.203 F 
ATOM     89  C   UNL A   1      39.223  34.068  37.027  1.00  0.00     0.198 A 
ATOM     90  C   UNL A   1      37.891  32.206  37.745  1.00  0.00     0.198 A 
ATOM     91  F   UNL A   1      37.942  30.186  36.542  1.00  0.00    -0.203 F 
ATOM     92  F   UNL A   1      39.663  35.319  37.214  1.00  0.00    -0.200 F 
ATOM     93  C   UNL A   1      38.324  33.510  37.923  1.00  0.00     0.200 A 
ATOM     94  F   UNL A   1      37.007  31.670  38.598  1.00  0.00    -0.200 F 
ATOM     95  F   UNL A   1      37.879  34.229  38.964  1.00  0.00    -0.200 F 
ENDBRANCH  62  85
ENDBRANCH  36  37
ENDBRANCH  29  31
ENDBRANCH  28  29
ENDBRANCH  27  28
ENDBRANCH  26  27
ENDBRANCH  25  26
ENDBRANCH  24  25
ENDBRANCH   1  24
TORSDOF 21
ENDMDL
