MODEL 1
REMARK VINA RESULT:     -11.9      0.000      0.000
REMARK SMILES O=C(OCCOCCOCCOC(=O)c1ccc2c(c1)[C@@H]1C=CC[C@@H]1[C@H](c1ccncc1)N2)c1ccc(-c2c3nc(c(-c4c(F)c(F)c(F)c(F)c4F)c4ccc([nH]4)c(-c4c(F)c(F)c(F)c(F)c4F)c4nc(c(-c5c(F)c(F)c(F)c(F)c5F)c5ccc2[nH]5)C=C4)C=C3)cc1
REMARK SMILES IDX 7 1 6 2 5 3 4 4 3 5 2 6 1 7 34 8 35 9 96 10 36 11 95 12
REMARK SMILES IDX 37 13 38 14 39 15 89 16 40 17 94 18 88 19 90 20 41 21 93 22
REMARK SMILES IDX 87 23 86 24 42 26 74 27 54 28 73 29 55 30 58 31 72 32 91 33
REMARK SMILES IDX 56 34 57 35 71 37 92 38 59 39 43 40 44 41 52 42 45 43 46 44
REMARK SMILES IDX 50 45 53 46 47 47 48 48 51 49 49 50 75 51 76 52 84 53 77 54
REMARK SMILES IDX 78 55 82 56 85 57 79 58 80 59 83 60 81 61 60 62 61 63 69 64
REMARK SMILES IDX 62 65 63 66 67 67 70 68 64 69 65 70 68 71 66 72 8 73 9 74
REMARK SMILES IDX 10 75 11 76 12 77 13 78 14 79 15 80 16 81 20 82 17 83 19 84
REMARK SMILES IDX 18 85 21 86 33 87 22 88 25 89 26 90 23 92 24 93 27 94 28 95
REMARK SMILES IDX 32 96 29 97 31 98 30 99
REMARK H PARENT 90 25 58 36 33 91
REMARK Flexibility Score: inf
ROOT
ATOM      1  C   UNL A   1      40.422  20.900  27.270  1.00  0.00     0.188 C 
ENDROOT
BRANCH   1   2
ATOM      2  O   UNL A   1      41.422  19.974  26.818  1.00  0.00    -0.376 OA
BRANCH   2   3
ATOM      3  C   UNL A   1      42.225  20.486  25.748  1.00  0.00     0.202 C 
BRANCH   3   4
ATOM      4  C   UNL A   1      43.685  20.764  26.125  1.00  0.00     0.261 C 
BRANCH   4   5
ATOM      5  O   UNL A   1      44.032  22.151  25.998  1.00  0.00    -0.460 OA
BRANCH   5   6
ATOM      6  C   UNL A   1      43.306  23.155  25.448  1.00  0.00     0.338 C 
ATOM      7  O   UNL A   1      43.034  23.085  24.251  1.00  0.00    -0.246 OA
BRANCH   6   8
ATOM      8  C   UNL A   1      42.765  24.328  26.212  1.00  0.00     0.060 A 
ATOM      9  C   UNL A   1      43.080  25.671  25.995  1.00  0.00     0.016 A 
ATOM     10  C   UNL A   1      41.820  24.039  27.213  1.00  0.00     0.016 A 
ATOM     11  C   UNL A   1      42.580  26.683  26.819  1.00  0.00     0.010 A 
ATOM     12  C   UNL A   1      41.272  25.053  28.007  1.00  0.00     0.010 A 
ATOM     13  C   UNL A   1      41.689  26.383  27.847  1.00  0.00    -0.014 A 
BRANCH  13  14
ATOM     14  C   UNL A   1      41.354  27.397  28.874  1.00  0.00     0.031 A 
ATOM     15  C   UNL A   1      42.198  27.440  30.116  1.00  0.00     0.074 A 
ATOM     16  C   UNL A   1      40.433  28.361  28.685  1.00  0.00     0.049 A 
ATOM     17  N   UNL A   1      42.034  28.130  31.214  1.00  0.00    -0.248 NA
ATOM     18  C   UNL A   1      43.431  26.635  30.089  1.00  0.00     0.031 C 
ATOM     19  C   UNL A   1      39.754  28.652  27.428  1.00  0.00     0.029 A 
ATOM     20  N   UNL A   1      39.925  29.295  29.560  1.00  0.00    -0.354 N 
ATOM     21  C   UNL A   1      43.153  27.869  31.990  1.00  0.00     0.074 A 
ATOM     22  C   UNL A   1      43.963  26.913  31.268  1.00  0.00     0.031 C 
ATOM     23  C   UNL A   1      38.917  29.686  27.622  1.00  0.00     0.029 A 
ATOM     24  C   UNL A   1      38.882  30.024  29.033  1.00  0.00     0.049 A 
ATOM     25  H   UNL A   1      40.273  29.428  30.471  1.00  0.00     0.167 HD
ATOM     26  C   UNL A   1      43.486  28.405  33.186  1.00  0.00     0.037 A 
ATOM     27  C   UNL A   1      37.960  30.788  29.652  1.00  0.00     0.037 A 
ATOM     28  C   UNL A   1      42.663  29.344  33.897  1.00  0.00     0.049 A 
ATOM     29  C   UNL A   1      38.107  31.015  31.127  1.00  0.00     0.074 A 
ATOM     30  C   UNL A   1      42.887  29.952  35.119  1.00  0.00     0.029 A 
ATOM     31  N   UNL A   1      41.431  29.794  33.445  1.00  0.00    -0.354 N 
ATOM     32  N   UNL A   1      39.083  30.649  31.917  1.00  0.00    -0.248 NA
ATOM     33  C   UNL A   1      37.043  31.782  31.789  1.00  0.00     0.031 C 
ATOM     34  C   UNL A   1      41.759  30.719  35.435  1.00  0.00     0.029 A 
ATOM     35  C   UNL A   1      40.859  30.629  34.387  1.00  0.00     0.049 A 
ATOM     36  H   UNL A   1      41.024  29.554  32.581  1.00  0.00     0.167 HD
ATOM     37  C   UNL A   1      38.792  31.207  33.148  1.00  0.00     0.074 A 
ATOM     38  C   UNL A   1      37.506  31.859  33.026  1.00  0.00     0.031 C 
ATOM     39  C   UNL A   1      39.568  31.247  34.255  1.00  0.00     0.037 A 
BRANCH  26  40
ATOM     40  C   UNL A   1      44.761  27.928  33.806  1.00  0.00     0.064 A 
ATOM     41  C   UNL A   1      45.997  28.530  33.521  1.00  0.00     0.173 A 
ATOM     42  C   UNL A   1      44.751  26.812  34.654  1.00  0.00     0.173 A 
ATOM     43  F   UNL A   1      46.061  29.583  32.692  1.00  0.00    -0.203 F 
ATOM     44  C   UNL A   1      47.181  28.003  34.029  1.00  0.00     0.198 A 
ATOM     45  C   UNL A   1      45.935  26.304  35.181  1.00  0.00     0.198 A 
ATOM     46  F   UNL A   1      43.596  26.200  34.951  1.00  0.00    -0.203 F 
ATOM     47  F   UNL A   1      48.357  28.548  33.686  1.00  0.00    -0.200 F 
ATOM     48  C   UNL A   1      47.149  26.892  34.858  1.00  0.00     0.200 A 
ATOM     49  F   UNL A   1      45.902  25.231  35.982  1.00  0.00    -0.200 F 
ATOM     50  F   UNL A   1      48.291  26.373  35.330  1.00  0.00    -0.200 F 
ENDBRANCH  26  40
BRANCH  27  51
ATOM     51  C   UNL A   1      36.737  31.288  28.967  1.00  0.00     0.064 A 
ATOM     52  C   UNL A   1      36.533  32.634  28.654  1.00  0.00     0.173 A 
ATOM     53  C   UNL A   1      35.700  30.389  28.662  1.00  0.00     0.173 A 
ATOM     54  F   UNL A   1      37.469  33.543  28.956  1.00  0.00    -0.203 F 
ATOM     55  C   UNL A   1      35.357  33.054  28.023  1.00  0.00     0.198 A 
ATOM     56  C   UNL A   1      34.533  30.804  28.020  1.00  0.00     0.198 A 
ATOM     57  F   UNL A   1      35.837  29.089  28.965  1.00  0.00    -0.203 F 
ATOM     58  F   UNL A   1      35.190  34.348  27.716  1.00  0.00    -0.200 F 
ATOM     59  C   UNL A   1      34.367  32.137  27.693  1.00  0.00     0.200 A 
ATOM     60  F   UNL A   1      33.594  29.906  27.689  1.00  0.00    -0.200 F 
ATOM     61  F   UNL A   1      33.260  32.538  27.051  1.00  0.00    -0.200 F 
ENDBRANCH  27  51
BRANCH  39  62
ATOM     62  C   UNL A   1      39.083  32.122  35.363  1.00  0.00     0.064 A 
ATOM     63  C   UNL A   1      39.373  33.489  35.419  1.00  0.00     0.173 A 
ATOM     64  C   UNL A   1      38.338  31.553  36.407  1.00  0.00     0.173 A 
ATOM     65  F   UNL A   1      40.124  34.060  34.465  1.00  0.00    -0.203 F 
ATOM     66  C   UNL A   1      38.941  34.260  36.493  1.00  0.00     0.198 A 
ATOM     67  C   UNL A   1      37.885  32.330  37.464  1.00  0.00     0.198 A 
ATOM     68  F   UNL A   1      38.059  30.240  36.401  1.00  0.00    -0.203 F 
ATOM     69  F   UNL A   1      39.271  35.556  36.560  1.00  0.00    -0.200 F 
ATOM     70  C   UNL A   1      38.191  33.682  37.509  1.00  0.00     0.200 A 
ATOM     71  F   UNL A   1      37.165  31.769  38.445  1.00  0.00    -0.200 F 
ATOM     72  F   UNL A   1      37.777  34.426  38.544  1.00  0.00    -0.200 F 
ENDBRANCH  39  62
ENDBRANCH  13  14
ENDBRANCH   6   8
ENDBRANCH   5   6
ENDBRANCH   4   5
ENDBRANCH   3   4
ENDBRANCH   2   3
ENDBRANCH   1   2
BRANCH   1  73
ATOM     73  C   UNL A   1      39.580  21.451  26.114  1.00  0.00     0.188 C 
BRANCH  73  74
ATOM     74  O   UNL A   1      38.539  20.602  25.633  1.00  0.00    -0.376 OA
BRANCH  74  75
ATOM     75  C   UNL A   1      37.656  21.139  24.654  1.00  0.00     0.202 C 
BRANCH  75  76
ATOM     76  C   UNL A   1      36.628  22.174  25.122  1.00  0.00     0.261 C 
BRANCH  76  77
ATOM     77  O   UNL A   1      35.578  22.446  24.179  1.00  0.00    -0.460 OA
BRANCH  77  78
ATOM     78  C   UNL A   1      34.349  22.071  24.599  1.00  0.00     0.338 C 
ATOM     79  O   UNL A   1      34.059  21.021  25.166  1.00  0.00    -0.246 OA
BRANCH  78  80
ATOM     80  C   UNL A   1      33.302  23.031  24.202  1.00  0.00     0.060 A 
ATOM     81  C   UNL A   1      32.118  22.694  23.549  1.00  0.00     0.018 A 
ATOM     82  C   UNL A   1      33.588  24.370  24.456  1.00  0.00     0.022 A 
ATOM     83  C   UNL A   1      31.254  23.714  23.113  1.00  0.00     0.027 A 
ATOM     84  C   UNL A   1      32.705  25.383  24.068  1.00  0.00    -0.017 A 
ATOM     85  C   UNL A   1      31.546  25.069  23.337  1.00  0.00     0.038 A 
ATOM     86  C   UNL A   1      33.010  26.804  24.477  1.00  0.00     0.049 C 
ATOM     87  N   UNL A   1      30.635  26.048  22.951  1.00  0.00    -0.378 N 
ATOM     88  C   UNL A   1      33.285  26.919  25.961  1.00  0.00    -0.023 C 
ATOM     89  C   UNL A   1      31.773  27.691  24.382  1.00  0.00     0.031 C 
ATOM     90  C   UNL A   1      30.947  27.466  23.118  1.00  0.00     0.114 C 
ATOM     91  H   UNL A   1      29.771  25.782  22.560  1.00  0.00     0.161 HD
ATOM     92  C   UNL A   1      32.174  27.241  26.631  1.00  0.00    -0.030 C 
ATOM     93  C   UNL A   1      31.028  27.398  25.681  1.00  0.00     0.034 C 
BRANCH  90  94
ATOM     94  C   UNL A   1      29.705  28.364  23.128  1.00  0.00    -0.022 A 
ATOM     95  C   UNL A   1      28.437  27.784  23.316  1.00  0.00     0.026 A 
ATOM     96  C   UNL A   1      29.743  29.745  22.912  1.00  0.00     0.026 A 
ATOM     97  C   UNL A   1      27.300  28.579  23.263  1.00  0.00     0.111 A 
ATOM     98  C   UNL A   1      28.551  30.462  22.899  1.00  0.00     0.111 A 
ATOM     99  N   UNL A   1      27.332  29.910  23.068  1.00  0.00    -0.265 NA
ENDBRANCH  90  94
ENDBRANCH  78  80
ENDBRANCH  77  78
ENDBRANCH  76  77
ENDBRANCH  75  76
ENDBRANCH  74  75
ENDBRANCH  73  74
ENDBRANCH   1  73
TORSDOF 18
ENDMDL
MODEL 2
REMARK VINA RESULT:     -11.7      1.619      7.196
REMARK SMILES O=C(OCCOCCOCCOC(=O)c1ccc2c(c1)[C@@H]1C=CC[C@@H]1[C@H](c1ccncc1)N2)c1ccc(-c2c3nc(c(-c4c(F)c(F)c(F)c(F)c4F)c4ccc([nH]4)c(-c4c(F)c(F)c(F)c(F)c4F)c4nc(c(-c5c(F)c(F)c(F)c(F)c5F)c5ccc2[nH]5)C=C4)C=C3)cc1
REMARK SMILES IDX 7 1 6 2 5 3 4 4 3 5 2 6 1 7 34 8 35 9 96 10 36 11 95 12
REMARK SMILES IDX 37 13 38 14 39 15 89 16 40 17 94 18 88 19 90 20 41 21 93 22
REMARK SMILES IDX 87 23 86 24 42 26 74 27 54 28 73 29 55 30 58 31 72 32 91 33
REMARK SMILES IDX 56 34 57 35 71 37 92 38 59 39 43 40 44 41 52 42 45 43 46 44
REMARK SMILES IDX 50 45 53 46 47 47 48 48 51 49 49 50 75 51 76 52 84 53 77 54
REMARK SMILES IDX 78 55 82 56 85 57 79 58 80 59 83 60 81 61 60 62 61 63 69 64
REMARK SMILES IDX 62 65 63 66 67 67 70 68 64 69 65 70 68 71 66 72 8 73 9 74
REMARK SMILES IDX 10 75 11 76 12 77 13 78 14 79 15 80 16 81 20 82 17 83 19 84
REMARK SMILES IDX 18 85 21 86 33 87 22 88 25 89 26 90 23 92 24 93 27 94 28 95
REMARK SMILES IDX 32 96 29 97 31 98 30 99
REMARK H PARENT 90 25 58 36 33 91
REMARK Flexibility Score: inf
ROOT
ATOM      1  C   UNL A   1      41.036  21.716  27.017  1.00  0.00     0.188 C 
ENDROOT
BRANCH   1   2
ATOM      2  O   UNL A   1      41.898  21.322  25.939  1.00  0.00    -0.376 OA
BRANCH   2   3
ATOM      3  C   UNL A   1      42.612  22.417  25.356  1.00  0.00     0.202 C 
BRANCH   3   4
ATOM      4  C   UNL A   1      44.090  22.499  25.756  1.00  0.00     0.261 C 
BRANCH   4   5
ATOM      5  O   UNL A   1      44.640  23.811  25.568  1.00  0.00    -0.460 OA
BRANCH   5   6
ATOM      6  C   UNL A   1      44.034  25.012  25.736  1.00  0.00     0.338 C 
ATOM      7  O   UNL A   1      43.729  25.652  24.731  1.00  0.00    -0.246 OA
BRANCH   6   8
ATOM      8  C   UNL A   1      43.661  25.596  27.066  1.00  0.00     0.060 A 
ATOM      9  C   UNL A   1      42.828  25.009  28.021  1.00  0.00     0.016 A 
ATOM     10  C   UNL A   1      44.241  26.836  27.389  1.00  0.00     0.016 A 
ATOM     11  C   UNL A   1      42.479  25.677  29.198  1.00  0.00     0.010 A 
ATOM     12  C   UNL A   1      43.941  27.487  28.591  1.00  0.00     0.010 A 
ATOM     13  C   UNL A   1      43.013  26.932  29.485  1.00  0.00    -0.014 A 
BRANCH  13  14
ATOM     14  C   UNL A   1      42.462  27.751  30.590  1.00  0.00     0.031 A 
ATOM     15  C   UNL A   1      41.272  28.617  30.293  1.00  0.00     0.074 A 
ATOM     16  C   UNL A   1      42.883  27.647  31.865  1.00  0.00     0.049 A 
ATOM     17  N   UNL A   1      40.690  29.521  31.036  1.00  0.00    -0.248 NA
ATOM     18  C   UNL A   1      40.611  28.386  28.997  1.00  0.00     0.031 C 
ATOM     19  C   UNL A   1      43.803  26.637  32.376  1.00  0.00     0.029 A 
ATOM     20  N   UNL A   1      42.567  28.399  32.974  1.00  0.00    -0.354 N 
ATOM     21  C   UNL A   1      39.582  29.941  30.315  1.00  0.00     0.074 A 
ATOM     22  C   UNL A   1      39.601  29.240  29.051  1.00  0.00     0.031 C 
ATOM     23  C   UNL A   1      43.978  26.844  33.693  1.00  0.00     0.029 A 
ATOM     24  C   UNL A   1      43.318  28.076  34.083  1.00  0.00     0.049 A 
ATOM     25  H   UNL A   1      41.873  29.097  32.975  1.00  0.00     0.167 HD
ATOM     26  C   UNL A   1      38.621  30.814  30.692  1.00  0.00     0.037 A 
ATOM     27  C   UNL A   1      43.512  28.763  35.227  1.00  0.00     0.037 A 
ATOM     28  C   UNL A   1      38.624  31.513  31.947  1.00  0.00     0.049 A 
ATOM     29  C   UNL A   1      42.725  30.021  35.436  1.00  0.00     0.074 A 
ATOM     30  C   UNL A   1      37.710  32.427  32.439  1.00  0.00     0.029 A 
ATOM     31  N   UNL A   1      39.619  31.384  32.904  1.00  0.00    -0.354 N 
ATOM     32  N   UNL A   1      41.774  30.524  34.692  1.00  0.00    -0.248 NA
ATOM     33  C   UNL A   1      43.017  30.791  36.653  1.00  0.00     0.031 C 
ATOM     34  C   UNL A   1      38.189  32.900  33.667  1.00  0.00     0.029 A 
ATOM     35  C   UNL A   1      39.370  32.241  33.961  1.00  0.00     0.049 A 
ATOM     36  H   UNL A   1      40.387  30.773  32.841  1.00  0.00     0.167 HD
ATOM     37  C   UNL A   1      41.300  31.621  35.388  1.00  0.00     0.074 A 
ATOM     38  C   UNL A   1      42.127  31.766  36.566  1.00  0.00     0.031 C 
ATOM     39  C   UNL A   1      40.219  32.386  35.112  1.00  0.00     0.037 A 
BRANCH  26  40
ATOM     40  C   UNL A   1      37.536  31.091  29.698  1.00  0.00     0.064 A 
ATOM     41  C   UNL A   1      37.444  32.318  29.022  1.00  0.00     0.173 A 
ATOM     42  C   UNL A   1      36.542  30.131  29.463  1.00  0.00     0.173 A 
ATOM     43  F   UNL A   1      38.356  33.278  29.235  1.00  0.00    -0.203 F 
ATOM     44  C   UNL A   1      36.368  32.588  28.180  1.00  0.00     0.198 A 
ATOM     45  C   UNL A   1      35.483  30.396  28.600  1.00  0.00     0.198 A 
ATOM     46  F   UNL A   1      36.585  28.947  30.090  1.00  0.00    -0.203 F 
ATOM     47  F   UNL A   1      36.259  33.793  27.601  1.00  0.00    -0.200 F 
ATOM     48  C   UNL A   1      35.390  31.628  27.971  1.00  0.00     0.200 A 
ATOM     49  F   UNL A   1      34.539  29.468  28.400  1.00  0.00    -0.200 F 
ATOM     50  F   UNL A   1      34.344  31.897  27.176  1.00  0.00    -0.200 F 
ENDBRANCH  26  40
BRANCH  27  51
ATOM     51  C   UNL A   1      44.569  28.404  36.212  1.00  0.00     0.064 A 
ATOM     52  C   UNL A   1      44.356  27.521  37.273  1.00  0.00     0.173 A 
ATOM     53  C   UNL A   1      45.832  29.016  36.123  1.00  0.00     0.173 A 
ATOM     54  F   UNL A   1      43.160  26.939  37.432  1.00  0.00    -0.203 F 
ATOM     55  C   UNL A   1      45.380  27.230  38.181  1.00  0.00     0.198 A 
ATOM     56  C   UNL A   1      46.858  28.716  37.018  1.00  0.00     0.198 A 
ATOM     57  F   UNL A   1      46.078  29.890  35.136  1.00  0.00    -0.203 F 
ATOM     58  F   UNL A   1      45.158  26.366  39.182  1.00  0.00    -0.200 F 
ATOM     59  C   UNL A   1      46.633  27.815  38.043  1.00  0.00     0.200 A 
ATOM     60  F   UNL A   1      48.069  29.271  36.863  1.00  0.00    -0.200 F 
ATOM     61  F   UNL A   1      47.622  27.501  38.891  1.00  0.00    -0.200 F 
ENDBRANCH  27  51
BRANCH  39  62
ATOM     62  C   UNL A   1      39.818  33.358  36.171  1.00  0.00     0.064 A 
ATOM     63  C   UNL A   1      40.322  34.662  36.219  1.00  0.00     0.173 A 
ATOM     64  C   UNL A   1      38.931  32.946  37.177  1.00  0.00     0.173 A 
ATOM     65  F   UNL A   1      41.210  35.078  35.303  1.00  0.00    -0.203 F 
ATOM     66  C   UNL A   1      39.959  35.522  37.251  1.00  0.00     0.198 A 
ATOM     67  C   UNL A   1      38.550  33.816  38.190  1.00  0.00     0.198 A 
ATOM     68  F   UNL A   1      38.444  31.696  37.179  1.00  0.00    -0.203 F 
ATOM     69  F   UNL A   1      40.490  36.751  37.314  1.00  0.00    -0.200 F 
ATOM     70  C   UNL A   1      39.068  35.102  38.229  1.00  0.00     0.200 A 
ATOM     71  F   UNL A   1      37.693  33.406  39.135  1.00  0.00    -0.200 F 
ATOM     72  F   UNL A   1      38.720  35.931  39.222  1.00  0.00    -0.200 F 
ENDBRANCH  39  62
ENDBRANCH  13  14
ENDBRANCH   6   8
ENDBRANCH   5   6
ENDBRANCH   4   5
ENDBRANCH   3   4
ENDBRANCH   2   3
ENDBRANCH   1   2
BRANCH   1  73
ATOM     73  C   UNL A   1      39.678  22.220  26.518  1.00  0.00     0.188 C 
BRANCH  73  74
ATOM     74  O   UNL A   1      39.334  23.560  26.870  1.00  0.00    -0.376 OA
BRANCH  74  75
ATOM     75  C   UNL A   1      38.095  24.066  26.386  1.00  0.00     0.202 C 
BRANCH  75  76
ATOM     76  C   UNL A   1      37.304  23.186  25.413  1.00  0.00     0.261 C 
BRANCH  76  77
ATOM     77  O   UNL A   1      35.964  23.635  25.152  1.00  0.00    -0.460 OA
BRANCH  77  78
ATOM     78  C   UNL A   1      35.592  23.540  23.856  1.00  0.00     0.338 C 
ATOM     79  O   UNL A   1      36.184  22.930  22.969  1.00  0.00    -0.246 OA
BRANCH  78  80
ATOM     80  C   UNL A   1      34.410  24.365  23.548  1.00  0.00     0.060 A 
ATOM     81  C   UNL A   1      33.417  24.023  22.630  1.00  0.00     0.018 A 
ATOM     82  C   UNL A   1      34.354  25.598  24.191  1.00  0.00     0.022 A 
ATOM     83  C   UNL A   1      32.402  24.949  22.332  1.00  0.00     0.027 A 
ATOM     84  C   UNL A   1      33.315  26.500  23.934  1.00  0.00    -0.017 A 
ATOM     85  C   UNL A   1      32.352  26.208  22.953  1.00  0.00     0.038 A 
ATOM     86  C   UNL A   1      33.241  27.768  24.750  1.00  0.00     0.049 C 
ATOM     87  N   UNL A   1      31.295  27.072  22.684  1.00  0.00    -0.378 N 
ATOM     88  C   UNL A   1      33.307  27.489  26.236  1.00  0.00    -0.023 C 
ATOM     89  C   UNL A   1      31.855  28.400  24.675  1.00  0.00     0.031 C 
ATOM     90  C   UNL A   1      31.255  28.410  23.271  1.00  0.00     0.114 C 
ATOM     91  H   UNL A   1      30.566  26.779  22.090  1.00  0.00     0.161 HD
ATOM     92  C   UNL A   1      32.080  27.389  26.760  1.00  0.00    -0.030 C 
ATOM     93  C   UNL A   1      31.049  27.606  25.698  1.00  0.00     0.034 C 
BRANCH  90  94
ATOM     94  C   UNL A   1      29.850  29.021  23.297  1.00  0.00    -0.022 A 
ATOM     95  C   UNL A   1      28.742  28.214  22.976  1.00  0.00     0.026 A 
ATOM     96  C   UNL A   1      29.592  30.366  23.579  1.00  0.00     0.026 A 
ATOM     97  C   UNL A   1      27.472  28.773  22.934  1.00  0.00     0.111 A 
ATOM     98  C   UNL A   1      28.282  30.829  23.534  1.00  0.00     0.111 A 
ATOM     99  N   UNL A   1      27.217  30.064  23.218  1.00  0.00    -0.265 NA
ENDBRANCH  90  94
ENDBRANCH  78  80
ENDBRANCH  77  78
ENDBRANCH  76  77
ENDBRANCH  75  76
ENDBRANCH  74  75
ENDBRANCH  73  74
ENDBRANCH   1  73
TORSDOF 18
ENDMDL
MODEL 3
REMARK VINA RESULT:     -11.6      4.863      8.485
REMARK SMILES O=C(OCCOCCOCCOC(=O)c1ccc2c(c1)[C@@H]1C=CC[C@@H]1[C@H](c1ccncc1)N2)c1ccc(-c2c3nc(c(-c4c(F)c(F)c(F)c(F)c4F)c4ccc([nH]4)c(-c4c(F)c(F)c(F)c(F)c4F)c4nc(c(-c5c(F)c(F)c(F)c(F)c5F)c5ccc2[nH]5)C=C4)C=C3)cc1
REMARK SMILES IDX 7 1 6 2 5 3 4 4 3 5 2 6 1 7 34 8 35 9 96 10 36 11 95 12
REMARK SMILES IDX 37 13 38 14 39 15 89 16 40 17 94 18 88 19 90 20 41 21 93 22
REMARK SMILES IDX 87 23 86 24 42 26 74 27 54 28 73 29 55 30 58 31 72 32 91 33
REMARK SMILES IDX 56 34 57 35 71 37 92 38 59 39 43 40 44 41 52 42 45 43 46 44
REMARK SMILES IDX 50 45 53 46 47 47 48 48 51 49 49 50 75 51 76 52 84 53 77 54
REMARK SMILES IDX 78 55 82 56 85 57 79 58 80 59 83 60 81 61 60 62 61 63 69 64
REMARK SMILES IDX 62 65 63 66 67 67 70 68 64 69 65 70 68 71 66 72 8 73 9 74
REMARK SMILES IDX 10 75 11 76 12 77 13 78 14 79 15 80 16 81 20 82 17 83 19 84
REMARK SMILES IDX 18 85 21 86 33 87 22 88 25 89 26 90 23 92 24 93 27 94 28 95
REMARK SMILES IDX 32 96 29 97 31 98 30 99
REMARK H PARENT 90 25 58 36 33 91
REMARK Flexibility Score: inf
ROOT
ATOM      1  C   UNL A   1      42.380  18.963  26.151  1.00  0.00     0.188 C 
ENDROOT
BRANCH   1   2
ATOM      2  O   UNL A   1      41.020  19.227  25.773  1.00  0.00    -0.376 OA
BRANCH   2   3
ATOM      3  C   UNL A   1      40.482  20.405  26.386  1.00  0.00     0.202 C 
BRANCH   3   4
ATOM      4  C   UNL A   1      39.375  21.093  25.579  1.00  0.00     0.261 C 
BRANCH   4   5
ATOM      5  O   UNL A   1      38.582  21.983  26.378  1.00  0.00    -0.460 OA
BRANCH   5   6
ATOM      6  C   UNL A   1      38.284  23.285  26.147  1.00  0.00     0.338 C 
ATOM      7  O   UNL A   1      37.399  23.541  25.332  1.00  0.00    -0.246 OA
BRANCH   6   8
ATOM      8  C   UNL A   1      38.925  24.441  26.855  1.00  0.00     0.060 A 
ATOM      9  C   UNL A   1      38.700  24.826  28.179  1.00  0.00     0.016 A 
ATOM     10  C   UNL A   1      39.870  25.179  26.120  1.00  0.00     0.016 A 
ATOM     11  C   UNL A   1      39.290  25.972  28.719  1.00  0.00     0.010 A 
ATOM     12  C   UNL A   1      40.509  26.296  26.671  1.00  0.00     0.010 A 
ATOM     13  C   UNL A   1      40.182  26.731  27.965  1.00  0.00    -0.014 A 
BRANCH  13  14
ATOM     14  C   UNL A   1      40.613  28.071  28.430  1.00  0.00     0.031 A 
ATOM     15  C   UNL A   1      42.087  28.324  28.567  1.00  0.00     0.074 A 
ATOM     16  C   UNL A   1      39.762  29.102  28.595  1.00  0.00     0.049 A 
ATOM     17  N   UNL A   1      42.714  29.350  29.079  1.00  0.00    -0.248 NA
ATOM     18  C   UNL A   1      42.975  27.299  27.992  1.00  0.00     0.031 C 
ATOM     19  C   UNL A   1      38.357  29.115  28.206  1.00  0.00     0.029 A 
ATOM     20  N   UNL A   1      39.972  30.357  29.121  1.00  0.00    -0.354 N 
ATOM     21  C   UNL A   1      44.062  29.110  28.859  1.00  0.00     0.074 A 
ATOM     22  C   UNL A   1      44.171  27.817  28.221  1.00  0.00     0.031 C 
ATOM     23  C   UNL A   1      37.837  30.316  28.516  1.00  0.00     0.029 A 
ATOM     24  C   UNL A   1      38.814  31.090  29.259  1.00  0.00     0.049 A 
ATOM     25  H   UNL A   1      40.861  30.697  29.374  1.00  0.00     0.167 HD
ATOM     26  C   UNL A   1      45.112  29.916  29.139  1.00  0.00     0.037 A 
ATOM     27  C   UNL A   1      38.572  32.199  29.987  1.00  0.00     0.037 A 
ATOM     28  C   UNL A   1      44.988  31.193  29.786  1.00  0.00     0.049 A 
ATOM     29  C   UNL A   1      39.729  32.851  30.683  1.00  0.00     0.074 A 
ATOM     30  C   UNL A   1      45.977  32.096  30.130  1.00  0.00     0.029 A 
ATOM     31  N   UNL A   1      43.783  31.735  30.208  1.00  0.00    -0.354 N 
ATOM     32  N   UNL A   1      41.000  32.552  30.612  1.00  0.00    -0.248 NA
ATOM     33  C   UNL A   1      39.422  34.008  31.535  1.00  0.00     0.031 C 
ATOM     34  C   UNL A   1      45.375  33.156  30.820  1.00  0.00     0.029 A 
ATOM     35  C   UNL A   1      44.008  32.935  30.857  1.00  0.00     0.049 A 
ATOM     36  H   UNL A   1      42.900  31.326  30.066  1.00  0.00     0.167 HD
ATOM     37  C   UNL A   1      41.652  33.528  31.343  1.00  0.00     0.074 A 
ATOM     38  C   UNL A   1      40.632  34.375  31.925  1.00  0.00     0.031 C 
ATOM     39  C   UNL A   1      42.982  33.749  31.448  1.00  0.00     0.037 A 
BRANCH  26  40
ATOM     40  C   UNL A   1      46.472  29.392  28.798  1.00  0.00     0.064 A 
ATOM     41  C   UNL A   1      46.961  29.398  27.482  1.00  0.00     0.173 A 
ATOM     42  C   UNL A   1      47.273  28.823  29.798  1.00  0.00     0.173 A 
ATOM     43  F   UNL A   1      46.220  29.906  26.486  1.00  0.00    -0.203 F 
ATOM     44  C   UNL A   1      48.187  28.811  27.175  1.00  0.00     0.198 A 
ATOM     45  C   UNL A   1      48.508  28.262  29.490  1.00  0.00     0.198 A 
ATOM     46  F   UNL A   1      46.844  28.789  31.068  1.00  0.00    -0.203 F 
ATOM     47  F   UNL A   1      48.603  28.762  25.902  1.00  0.00    -0.200 F 
ATOM     48  C   UNL A   1      48.957  28.245  28.179  1.00  0.00     0.200 A 
ATOM     49  F   UNL A   1      49.252  27.715  30.461  1.00  0.00    -0.200 F 
ATOM     50  F   UNL A   1      50.127  27.663  27.879  1.00  0.00    -0.200 F 
ENDBRANCH  26  40
BRANCH  27  51
ATOM     51  C   UNL A   1      37.198  32.710  30.244  1.00  0.00     0.064 A 
ATOM     52  C   UNL A   1      36.415  32.290  31.321  1.00  0.00     0.173 A 
ATOM     53  C   UNL A   1      36.619  33.618  29.339  1.00  0.00     0.173 A 
ATOM     54  F   UNL A   1      36.899  31.396  32.194  1.00  0.00    -0.203 F 
ATOM     55  C   UNL A   1      35.123  32.791  31.508  1.00  0.00     0.198 A 
ATOM     56  C   UNL A   1      35.336  34.130  29.532  1.00  0.00     0.198 A 
ATOM     57  F   UNL A   1      37.322  34.034  28.275  1.00  0.00    -0.203 F 
ATOM     58  F   UNL A   1      34.396  32.387  32.559  1.00  0.00    -0.200 F 
ATOM     59  C   UNL A   1      34.591  33.722  30.624  1.00  0.00     0.200 A 
ATOM     60  F   UNL A   1      34.843  35.043  28.682  1.00  0.00    -0.200 F 
ATOM     61  F   UNL A   1      33.369  34.230  30.830  1.00  0.00    -0.200 F 
ENDBRANCH  27  51
BRANCH  39  62
ATOM     62  C   UNL A   1      43.382  35.020  32.121  1.00  0.00     0.064 A 
ATOM     63  C   UNL A   1      43.555  36.217  31.417  1.00  0.00     0.173 A 
ATOM     64  C   UNL A   1      43.629  35.014  33.502  1.00  0.00     0.173 A 
ATOM     65  F   UNL A   1      43.376  36.252  30.088  1.00  0.00    -0.203 F 
ATOM     66  C   UNL A   1      43.975  37.368  32.075  1.00  0.00     0.198 A 
ATOM     67  C   UNL A   1      44.022  36.172  34.160  1.00  0.00     0.198 A 
ATOM     68  F   UNL A   1      43.497  33.880  34.207  1.00  0.00    -0.203 F 
ATOM     69  F   UNL A   1      44.187  38.494  31.381  1.00  0.00    -0.200 F 
ATOM     70  C   UNL A   1      44.199  37.347  33.445  1.00  0.00     0.200 A 
ATOM     71  F   UNL A   1      44.242  36.147  35.481  1.00  0.00    -0.200 F 
ATOM     72  F   UNL A   1      44.605  38.457  34.077  1.00  0.00    -0.200 F 
ENDBRANCH  39  62
ENDBRANCH  13  14
ENDBRANCH   6   8
ENDBRANCH   5   6
ENDBRANCH   4   5
ENDBRANCH   3   4
ENDBRANCH   2   3
ENDBRANCH   1   2
BRANCH   1  73
ATOM     73  C   UNL A   1      43.375  19.830  25.372  1.00  0.00     0.188 C 
BRANCH  73  74
ATOM     74  O   UNL A   1      43.961  19.232  24.216  1.00  0.00    -0.376 OA
BRANCH  74  75
ATOM     75  C   UNL A   1      45.306  19.581  23.908  1.00  0.00     0.202 C 
BRANCH  75  76
ATOM     76  C   UNL A   1      46.124  20.273  25.004  1.00  0.00     0.261 C 
BRANCH  76  77
ATOM     77  O   UNL A   1      46.777  21.485  24.590  1.00  0.00    -0.460 OA
BRANCH  77  78
ATOM     78  C   UNL A   1      45.954  22.555  24.508  1.00  0.00     0.338 C 
ATOM     79  O   UNL A   1      45.379  22.958  23.500  1.00  0.00    -0.246 OA
BRANCH  78  80
ATOM     80  C   UNL A   1      45.883  23.307  25.773  1.00  0.00     0.060 A 
ATOM     81  C   UNL A   1      46.562  24.498  26.031  1.00  0.00     0.018 A 
ATOM     82  C   UNL A   1      45.126  22.716  26.782  1.00  0.00     0.022 A 
ATOM     83  C   UNL A   1      46.511  25.056  27.321  1.00  0.00     0.027 A 
ATOM     84  C   UNL A   1      45.033  23.299  28.050  1.00  0.00    -0.017 A 
ATOM     85  C   UNL A   1      45.775  24.454  28.354  1.00  0.00     0.038 A 
ATOM     86  C   UNL A   1      44.102  22.678  29.063  1.00  0.00     0.049 C 
ATOM     87  N   UNL A   1      45.692  25.071  29.598  1.00  0.00    -0.378 N 
ATOM     88  C   UNL A   1      42.711  22.473  28.503  1.00  0.00    -0.023 C 
ATOM     89  C   UNL A   1      43.775  23.652  30.191  1.00  0.00     0.031 C 
ATOM     90  C   UNL A   1      44.984  24.431  30.705  1.00  0.00     0.114 C 
ATOM     91  H   UNL A   1      46.117  25.949  29.735  1.00  0.00     0.161 HD
ATOM     92  C   UNL A   1      41.918  23.509  28.795  1.00  0.00    -0.030 C 
ATOM     93  C   UNL A   1      42.671  24.522  29.598  1.00  0.00     0.034 C 
BRANCH  90  94
ATOM     94  C   UNL A   1      44.557  25.412  31.802  1.00  0.00    -0.022 A 
ATOM     95  C   UNL A   1      44.197  24.915  33.069  1.00  0.00     0.026 A 
ATOM     96  C   UNL A   1      44.454  26.794  31.613  1.00  0.00     0.026 A 
ATOM     97  C   UNL A   1      43.746  25.788  34.050  1.00  0.00     0.111 A 
ATOM     98  C   UNL A   1      44.014  27.591  32.664  1.00  0.00     0.111 A 
ATOM     99  N   UNL A   1      43.658  27.120  33.876  1.00  0.00    -0.265 NA
ENDBRANCH  90  94
ENDBRANCH  78  80
ENDBRANCH  77  78
ENDBRANCH  76  77
ENDBRANCH  75  76
ENDBRANCH  74  75
ENDBRANCH  73  74
ENDBRANCH   1  73
TORSDOF 18
ENDMDL
