MODEL 1
REMARK VINA RESULT:     -11.5      0.000      0.000
REMARK SMILES O=C(COc1cc2ccccc2cc1O)OCCOCCOCCOC(=O)c1ccc(-c2c3nc(c(-c4c(F)c(F)c(F)c(F)c4F)c4ccc([nH]4)c(-c4c(F)c(F)c(F)c(F)c4F)c4nc(c(-c5c(F)c(F)c(F)c(F)c5F)c5ccc2[nH]5)C=C4)C=C3)cc1
REMARK SMILES IDX 20 1 19 2 18 3 17 4 16 5 2 6 1 7 3 8 4 9 5 10 6 11 14 12
REMARK SMILES IDX 7 13 13 14 8 15 12 16 9 17 11 18 10 19 15 20 21 22 22 23
REMARK SMILES IDX 23 24 24 25 25 26 26 27 27 28 28 29 29 30 90 31 30 32 89 33
REMARK SMILES IDX 31 34 32 35 33 36 83 37 34 38 88 39 82 40 84 41 35 42 87 43
REMARK SMILES IDX 81 44 80 45 36 47 68 48 48 49 67 50 49 51 52 52 66 53 85 54
REMARK SMILES IDX 50 55 51 56 65 58 86 59 53 60 37 61 38 62 46 63 39 64 40 65
REMARK SMILES IDX 44 66 47 67 41 68 42 69 45 70 43 71 69 72 70 73 78 74 71 75
REMARK SMILES IDX 72 76 76 77 79 78 73 79 74 80 77 81 75 82 54 83 55 84 63 85
REMARK SMILES IDX 56 86 57 87 61 88 64 89 58 90 59 91 62 92 60 93
REMARK H PARENT 15 21 84 46 52 57
REMARK Flexibility Score: inf
ROOT
ATOM      1  C   UNL A   1      45.194  18.831  25.106  1.00  0.00     0.188 C 
ENDROOT
BRANCH   1   2
ATOM      2  O   UNL A   1      43.888  19.377  25.149  1.00  0.00    -0.376 OA
BRANCH   2   3
ATOM      3  C   UNL A   1      42.892  18.671  25.844  1.00  0.00     0.202 C 
BRANCH   3   4
ATOM      4  C   UNL A   1      42.049  19.563  26.756  1.00  0.00     0.261 C 
BRANCH   4   5
ATOM      5  O   UNL A   1      40.992  20.403  26.166  1.00  0.00    -0.461 OA
BRANCH   5   6
ATOM      6  C   UNL A   1      39.976  21.224  26.503  1.00  0.00     0.344 C 
ATOM      7  O   UNL A   1      40.059  21.805  27.592  1.00  0.00    -0.248 OA
BRANCH   6   8
ATOM      8  C   UNL A   1      38.696  21.439  25.647  1.00  0.00     0.352 C 
BRANCH   8   9
ATOM      9  O   UNL A   1      37.931  22.657  25.539  1.00  0.00    -0.478 OA
BRANCH   9  10
ATOM     10  C   UNL A   1      36.680  22.518  25.024  1.00  0.00     0.162 A 
ATOM     11  C   UNL A   1      35.818  21.488  25.348  1.00  0.00     0.059 A 
ATOM     12  C   UNL A   1      36.299  23.240  23.925  1.00  0.00     0.158 A 
ATOM     13  C   UNL A   1      34.568  21.410  24.665  1.00  0.00    -0.014 A 
ATOM     14  C   UNL A   1      34.995  23.544  23.638  1.00  0.00     0.059 A 
ATOM     15  C   UNL A   1      33.771  20.260  24.611  1.00  0.00     0.009 A 
ATOM     16  C   UNL A   1      34.127  22.524  23.899  1.00  0.00    -0.014 A 
ATOM     17  C   UNL A   1      32.597  20.245  23.839  1.00  0.00     0.001 A 
ATOM     18  C   UNL A   1      32.909  22.546  23.229  1.00  0.00     0.009 A 
ATOM     19  C   UNL A   1      32.152  21.391  23.178  1.00  0.00     0.001 A 
BRANCH  12  20
ATOM     20  O   UNL A   1      37.033  22.903  22.786  1.00  0.00    -0.504 OA
ATOM     21  H   UNL A   1      37.193  23.546  22.124  1.00  0.00     0.293 HD
ENDBRANCH  12  20
ENDBRANCH   9  10
ENDBRANCH   8   9
ENDBRANCH   6   8
ENDBRANCH   5   6
ENDBRANCH   4   5
ENDBRANCH   3   4
ENDBRANCH   2   3
ENDBRANCH   1   2
BRANCH   1  22
ATOM     22  C   UNL A   1      46.463  19.679  24.858  1.00  0.00     0.188 C 
BRANCH  22  23
ATOM     23  O   UNL A   1      46.404  21.048  25.185  1.00  0.00    -0.376 OA
BRANCH  23  24
ATOM     24  C   UNL A   1      46.252  22.112  24.275  1.00  0.00     0.202 C 
BRANCH  24  25
ATOM     25  C   UNL A   1      45.865  23.555  24.630  1.00  0.00     0.261 C 
BRANCH  25  26
ATOM     26  O   UNL A   1      44.913  23.767  25.668  1.00  0.00    -0.460 OA
BRANCH  26  27
ATOM     27  C   UNL A   1      43.622  23.898  25.272  1.00  0.00     0.338 C 
ATOM     28  O   UNL A   1      43.040  23.235  24.443  1.00  0.00    -0.246 OA
BRANCH  27  29
ATOM     29  C   UNL A   1      42.964  24.883  26.163  1.00  0.00     0.060 A 
ATOM     30  C   UNL A   1      43.489  26.182  26.231  1.00  0.00     0.016 A 
ATOM     31  C   UNL A   1      41.829  24.539  26.899  1.00  0.00     0.016 A 
ATOM     32  C   UNL A   1      42.901  27.131  27.066  1.00  0.00     0.010 A 
ATOM     33  C   UNL A   1      41.263  25.482  27.762  1.00  0.00     0.010 A 
ATOM     34  C   UNL A   1      41.818  26.770  27.876  1.00  0.00    -0.014 A 
BRANCH  34  35
ATOM     35  C   UNL A   1      41.407  27.658  28.990  1.00  0.00     0.031 A 
ATOM     36  C   UNL A   1      42.177  27.574  30.280  1.00  0.00     0.074 A 
ATOM     37  C   UNL A   1      40.391  28.529  28.863  1.00  0.00     0.049 A 
ATOM     38  N   UNL A   1      41.968  28.186  31.418  1.00  0.00    -0.248 NA
ATOM     39  C   UNL A   1      43.341  26.672  30.288  1.00  0.00     0.031 C 
ATOM     40  C   UNL A   1      39.604  28.742  27.652  1.00  0.00     0.029 A 
ATOM     41  N   UNL A   1      39.842  29.393  29.780  1.00  0.00    -0.354 N 
ATOM     42  C   UNL A   1      42.965  27.736  32.275  1.00  0.00     0.074 A 
ATOM     43  C   UNL A   1      43.762  26.780  31.538  1.00  0.00     0.031 C 
ATOM     44  C   UNL A   1      38.657  29.663  27.904  1.00  0.00     0.029 A 
ATOM     45  C   UNL A   1      38.748  30.075  29.305  1.00  0.00     0.049 A 
ATOM     46  H   UNL A   1      40.197  29.512  30.690  1.00  0.00     0.167 HD
ATOM     47  C   UNL A   1      43.196  28.094  33.559  1.00  0.00     0.037 A 
ATOM     48  C   UNL A   1      37.902  30.910  29.942  1.00  0.00     0.037 A 
ATOM     49  C   UNL A   1      42.403  29.046  34.289  1.00  0.00     0.049 A 
ATOM     50  C   UNL A   1      38.134  31.226  31.401  1.00  0.00     0.074 A 
ATOM     51  C   UNL A   1      42.569  29.491  35.588  1.00  0.00     0.029 A 
ATOM     52  N   UNL A   1      41.284  29.693  33.784  1.00  0.00    -0.354 N 
ATOM     53  N   UNL A   1      39.093  30.819  32.197  1.00  0.00    -0.248 NA
ATOM     54  C   UNL A   1      37.163  32.121  32.049  1.00  0.00     0.031 C 
ATOM     55  C   UNL A   1      41.514  30.356  35.892  1.00  0.00     0.029 A 
ATOM     56  C   UNL A   1      40.731  30.507  34.759  1.00  0.00     0.049 A 
ATOM     57  H   UNL A   1      40.935  29.589  32.869  1.00  0.00     0.167 HD
ATOM     58  C   UNL A   1      38.862  31.435  33.422  1.00  0.00     0.074 A 
ATOM     59  C   UNL A   1      37.682  32.256  33.260  1.00  0.00     0.031 C 
ATOM     60  C   UNL A   1      39.562  31.330  34.579  1.00  0.00     0.037 A 
BRANCH  47  61
ATOM     61  C   UNL A   1      44.337  27.430  34.276  1.00  0.00     0.064 A 
ATOM     62  C   UNL A   1      44.170  26.232  34.986  1.00  0.00     0.173 A 
ATOM     63  C   UNL A   1      45.628  27.974  34.200  1.00  0.00     0.173 A 
ATOM     64  F   UNL A   1      42.953  25.679  35.101  1.00  0.00    -0.203 F 
ATOM     65  C   UNL A   1      45.251  25.612  35.607  1.00  0.00     0.198 A 
ATOM     66  C   UNL A   1      46.712  27.336  34.796  1.00  0.00     0.198 A 
ATOM     67  F   UNL A   1      45.842  29.118  33.533  1.00  0.00    -0.203 F 
ATOM     68  F   UNL A   1      45.062  24.489  36.314  1.00  0.00    -0.200 F 
ATOM     69  C   UNL A   1      46.521  26.158  35.503  1.00  0.00     0.200 A 
ATOM     70  F   UNL A   1      47.941  27.857  34.681  1.00  0.00    -0.200 F 
ATOM     71  F   UNL A   1      47.564  25.551  36.088  1.00  0.00    -0.200 F 
ENDBRANCH  47  61
BRANCH  48  72
ATOM     72  C   UNL A   1      36.733  31.489  29.224  1.00  0.00     0.064 A 
ATOM     73  C   UNL A   1      36.683  32.851  28.893  1.00  0.00     0.173 A 
ATOM     74  C   UNL A   1      35.614  30.704  28.904  1.00  0.00     0.173 A 
ATOM     75  F   UNL A   1      37.713  33.652  29.204  1.00  0.00    -0.203 F 
ATOM     76  C   UNL A   1      35.552  33.410  28.302  1.00  0.00     0.198 A 
ATOM     77  C   UNL A   1      34.498  31.256  28.280  1.00  0.00     0.198 A 
ATOM     78  F   UNL A   1      35.604  29.396  29.203  1.00  0.00    -0.203 F 
ATOM     79  F   UNL A   1      35.506  34.727  28.061  1.00  0.00    -0.200 F 
ATOM     80  C   UNL A   1      34.462  32.612  27.991  1.00  0.00     0.200 A 
ATOM     81  F   UNL A   1      33.453  30.477  27.971  1.00  0.00    -0.200 F 
ATOM     82  F   UNL A   1      33.373  33.150  27.427  1.00  0.00    -0.200 F 
ENDBRANCH  48  72
BRANCH  60  83
ATOM     83  C   UNL A   1      39.104  32.157  35.749  1.00  0.00     0.064 A 
ATOM     84  C   UNL A   1      38.256  31.637  36.737  1.00  0.00     0.173 A 
ATOM     85  C   UNL A   1      39.557  33.478  35.903  1.00  0.00     0.173 A 
ATOM     86  F   UNL A   1      37.785  30.385  36.634  1.00  0.00    -0.203 F 
ATOM     87  C   UNL A   1      37.853  32.417  37.819  1.00  0.00     0.198 A 
ATOM     88  C   UNL A   1      39.182  34.242  37.004  1.00  0.00     0.198 A 
ATOM     89  F   UNL A   1      40.379  34.022  34.993  1.00  0.00    -0.203 F 
ATOM     90  F   UNL A   1      36.998  31.918  38.721  1.00  0.00    -0.200 F 
ATOM     91  C   UNL A   1      38.323  33.715  37.955  1.00  0.00     0.200 A 
ATOM     92  F   UNL A   1      39.653  35.488  37.144  1.00  0.00    -0.200 F 
ATOM     93  F   UNL A   1      37.941  34.460  39.001  1.00  0.00    -0.200 F 
ENDBRANCH  60  83
ENDBRANCH  34  35
ENDBRANCH  27  29
ENDBRANCH  26  27
ENDBRANCH  25  26
ENDBRANCH  24  25
ENDBRANCH  23  24
ENDBRANCH  22  23
ENDBRANCH   1  22
TORSDOF 20
ENDMDL
MODEL 2
REMARK VINA RESULT:     -11.0      3.356      5.967
REMARK SMILES O=C(COc1cc2ccccc2cc1O)OCCOCCOCCOC(=O)c1ccc(-c2c3nc(c(-c4c(F)c(F)c(F)c(F)c4F)c4ccc([nH]4)c(-c4c(F)c(F)c(F)c(F)c4F)c4nc(c(-c5c(F)c(F)c(F)c(F)c5F)c5ccc2[nH]5)C=C4)C=C3)cc1
REMARK SMILES IDX 20 1 19 2 18 3 17 4 16 5 2 6 1 7 3 8 4 9 5 10 6 11 14 12
REMARK SMILES IDX 7 13 13 14 8 15 12 16 9 17 11 18 10 19 15 20 21 22 22 23
REMARK SMILES IDX 23 24 24 25 25 26 26 27 27 28 28 29 29 30 90 31 30 32 89 33
REMARK SMILES IDX 31 34 32 35 33 36 83 37 34 38 88 39 82 40 84 41 35 42 87 43
REMARK SMILES IDX 81 44 80 45 36 47 68 48 48 49 67 50 49 51 52 52 66 53 85 54
REMARK SMILES IDX 50 55 51 56 65 58 86 59 53 60 37 61 38 62 46 63 39 64 40 65
REMARK SMILES IDX 44 66 47 67 41 68 42 69 45 70 43 71 69 72 70 73 78 74 71 75
REMARK SMILES IDX 72 76 76 77 79 78 73 79 74 80 77 81 75 82 54 83 55 84 63 85
REMARK SMILES IDX 56 86 57 87 61 88 64 89 58 90 59 91 62 92 60 93
REMARK H PARENT 15 21 84 46 52 57
REMARK Flexibility Score: inf
ROOT
ATOM      1  C   UNL A   1      43.733  18.631  25.153  1.00  0.00     0.188 C 
ENDROOT
BRANCH   1   2
ATOM      2  O   UNL A   1      45.041  18.409  24.656  1.00  0.00    -0.376 OA
BRANCH   2   3
ATOM      3  C   UNL A   1      46.025  19.378  24.912  1.00  0.00     0.202 C 
BRANCH   3   4
ATOM      4  C   UNL A   1      45.441  20.753  25.243  1.00  0.00     0.261 C 
BRANCH   4   5
ATOM      5  O   UNL A   1      46.310  21.940  25.175  1.00  0.00    -0.461 OA
BRANCH   5   6
ATOM      6  C   UNL A   1      46.386  23.226  25.579  1.00  0.00     0.344 C 
ATOM      7  O   UNL A   1      46.402  23.433  26.798  1.00  0.00    -0.248 OA
BRANCH   6   8
ATOM      8  C   UNL A   1      46.394  24.451  24.622  1.00  0.00     0.352 C 
BRANCH   8   9
ATOM      9  O   UNL A   1      47.078  25.703  24.837  1.00  0.00    -0.478 OA
BRANCH   9  10
ATOM     10  C   UNL A   1      46.319  26.700  25.364  1.00  0.00     0.162 A 
ATOM     11  C   UNL A   1      44.938  26.683  25.409  1.00  0.00     0.059 A 
ATOM     12  C   UNL A   1      46.870  27.925  25.627  1.00  0.00     0.158 A 
ATOM     13  C   UNL A   1      44.261  27.837  25.904  1.00  0.00    -0.014 A 
ATOM     14  C   UNL A   1      46.369  28.792  26.562  1.00  0.00     0.059 A 
ATOM     15  C   UNL A   1      42.907  28.114  25.677  1.00  0.00     0.009 A 
ATOM     16  C   UNL A   1      45.006  28.835  26.592  1.00  0.00    -0.014 A 
ATOM     17  C   UNL A   1      42.344  29.319  26.128  1.00  0.00     0.001 A 
ATOM     18  C   UNL A   1      44.422  29.973  27.135  1.00  0.00     0.009 A 
ATOM     19  C   UNL A   1      43.089  30.229  26.879  1.00  0.00     0.001 A 
BRANCH  12  20
ATOM     20  O   UNL A   1      47.298  28.577  24.468  1.00  0.00    -0.504 OA
ATOM     21  H   UNL A   1      48.194  28.516  24.200  1.00  0.00     0.293 HD
ENDBRANCH  12  20
ENDBRANCH   9  10
ENDBRANCH   8   9
ENDBRANCH   6   8
ENDBRANCH   5   6
ENDBRANCH   4   5
ENDBRANCH   3   4
ENDBRANCH   2   3
ENDBRANCH   1   2
BRANCH   1  22
ATOM     22  C   UNL A   1      43.246  18.112  26.526  1.00  0.00     0.188 C 
BRANCH  22  23
ATOM     23  O   UNL A   1      42.246  18.852  27.184  1.00  0.00    -0.376 OA
BRANCH  23  24
ATOM     24  C   UNL A   1      41.410  19.823  26.597  1.00  0.00     0.202 C 
BRANCH  24  25
ATOM     25  C   UNL A   1      40.838  21.063  27.298  1.00  0.00     0.261 C 
BRANCH  25  26
ATOM     26  O   UNL A   1      40.838  22.301  26.595  1.00  0.00    -0.460 OA
BRANCH  26  27
ATOM     27  C   UNL A   1      39.627  22.894  26.435  1.00  0.00     0.338 C 
ATOM     28  O   UNL A   1      38.618  22.388  25.997  1.00  0.00    -0.246 OA
BRANCH  27  29
ATOM     29  C   UNL A   1      39.684  24.234  27.065  1.00  0.00     0.060 A 
ATOM     30  C   UNL A   1      40.255  25.291  26.343  1.00  0.00     0.016 A 
ATOM     31  C   UNL A   1      39.153  24.452  28.338  1.00  0.00     0.016 A 
ATOM     32  C   UNL A   1      40.333  26.564  26.909  1.00  0.00     0.010 A 
ATOM     33  C   UNL A   1      39.264  25.719  28.917  1.00  0.00     0.010 A 
ATOM     34  C   UNL A   1      39.886  26.770  28.219  1.00  0.00    -0.014 A 
BRANCH  34  35
ATOM     35  C   UNL A   1      40.263  28.014  28.934  1.00  0.00     0.031 A 
ATOM     36  C   UNL A   1      41.662  28.118  29.480  1.00  0.00     0.074 A 
ATOM     37  C   UNL A   1      39.400  29.033  29.085  1.00  0.00     0.049 A 
ATOM     38  N   UNL A   1      42.208  29.062  30.202  1.00  0.00    -0.248 NA
ATOM     39  C   UNL A   1      42.568  26.999  29.169  1.00  0.00     0.031 C 
ATOM     40  C   UNL A   1      38.039  29.076  28.559  1.00  0.00     0.029 A 
ATOM     41  N   UNL A   1      39.546  30.231  29.743  1.00  0.00    -0.354 N 
ATOM     42  C   UNL A   1      43.513  28.648  30.439  1.00  0.00     0.074 A 
ATOM     43  C   UNL A   1      43.670  27.355  29.809  1.00  0.00     0.031 C 
ATOM     44  C   UNL A   1      37.464  30.233  28.931  1.00  0.00     0.029 A 
ATOM     45  C   UNL A   1      38.404  30.994  29.753  1.00  0.00     0.049 A 
ATOM     46  H   UNL A   1      40.388  30.515  30.166  1.00  0.00     0.167 HD
ATOM     47  C   UNL A   1      44.490  29.291  31.118  1.00  0.00     0.037 A 
ATOM     48  C   UNL A   1      38.144  32.158  30.384  1.00  0.00     0.037 A 
ATOM     49  C   UNL A   1      44.331  30.576  31.742  1.00  0.00     0.049 A 
ATOM     50  C   UNL A   1      39.229  32.812  31.206  1.00  0.00     0.074 A 
ATOM     51  C   UNL A   1      45.269  31.321  32.435  1.00  0.00     0.029 A 
ATOM     52  N   UNL A   1      43.150  31.305  31.758  1.00  0.00    -0.354 N 
ATOM     53  N   UNL A   1      40.468  32.429  31.403  1.00  0.00    -0.248 NA
ATOM     54  C   UNL A   1      38.878  34.065  31.891  1.00  0.00     0.031 C 
ATOM     55  C   UNL A   1      44.639  32.467  32.927  1.00  0.00     0.029 A 
ATOM     56  C   UNL A   1      43.328  32.474  32.479  1.00  0.00     0.049 A 
ATOM     57  H   UNL A   1      42.311  31.031  31.322  1.00  0.00     0.167 HD
ATOM     58  C   UNL A   1      41.050  33.408  32.201  1.00  0.00     0.074 A 
ATOM     59  C   UNL A   1      40.034  34.410  32.438  1.00  0.00     0.031 C 
ATOM     60  C   UNL A   1      42.311  33.471  32.696  1.00  0.00     0.037 A 
BRANCH  47  61
ATOM     61  C   UNL A   1      45.818  28.602  31.251  1.00  0.00     0.064 A 
ATOM     62  C   UNL A   1      46.030  27.573  32.180  1.00  0.00     0.173 A 
ATOM     63  C   UNL A   1      46.877  28.940  30.394  1.00  0.00     0.173 A 
ATOM     64  F   UNL A   1      45.055  27.222  33.033  1.00  0.00    -0.203 F 
ATOM     65  C   UNL A   1      47.257  26.920  32.257  1.00  0.00     0.198 A 
ATOM     66  C   UNL A   1      48.092  28.265  30.453  1.00  0.00     0.198 A 
ATOM     67  F   UNL A   1      46.726  29.918  29.487  1.00  0.00    -0.203 F 
ATOM     68  F   UNL A   1      47.451  25.966  33.179  1.00  0.00    -0.200 F 
ATOM     69  C   UNL A   1      48.283  27.258  31.387  1.00  0.00     0.200 A 
ATOM     70  F   UNL A   1      49.076  28.584  29.600  1.00  0.00    -0.200 F 
ATOM     71  F   UNL A   1      49.458  26.617  31.451  1.00  0.00    -0.200 F 
ENDBRANCH  47  61
BRANCH  48  72
ATOM     72  C   UNL A   1      36.790  32.774  30.297  1.00  0.00     0.064 A 
ATOM     73  C   UNL A   1      36.415  33.553  29.193  1.00  0.00     0.173 A 
ATOM     74  C   UNL A   1      35.865  32.645  31.344  1.00  0.00     0.173 A 
ATOM     75  F   UNL A   1      37.275  33.734  28.179  1.00  0.00    -0.203 F 
ATOM     76  C   UNL A   1      35.183  34.203  29.153  1.00  0.00     0.198 A 
ATOM     77  C   UNL A   1      34.619  33.266  31.287  1.00  0.00     0.198 A 
ATOM     78  F   UNL A   1      36.173  31.917  32.427  1.00  0.00    -0.203 F 
ATOM     79  F   UNL A   1      34.880  34.996  28.117  1.00  0.00    -0.200 F 
ATOM     80  C   UNL A   1      34.284  34.055  30.197  1.00  0.00     0.200 A 
ATOM     81  F   UNL A   1      33.749  33.109  32.294  1.00  0.00    -0.200 F 
ATOM     82  F   UNL A   1      33.101  34.684  30.161  1.00  0.00    -0.200 F 
ENDBRANCH  48  72
BRANCH  60  83
ATOM     83  C   UNL A   1      42.684  34.685  33.501  1.00  0.00     0.064 A 
ATOM     84  C   UNL A   1      43.093  35.881  32.894  1.00  0.00     0.173 A 
ATOM     85  C   UNL A   1      42.589  34.662  34.902  1.00  0.00     0.173 A 
ATOM     86  F   UNL A   1      43.212  35.955  31.560  1.00  0.00    -0.203 F 
ATOM     87  C   UNL A   1      43.423  36.998  33.659  1.00  0.00     0.198 A 
ATOM     88  C   UNL A   1      42.883  35.790  35.661  1.00  0.00     0.198 A 
ATOM     89  F   UNL A   1      42.191  33.547  35.535  1.00  0.00    -0.203 F 
ATOM     90  F   UNL A   1      43.864  38.112  33.060  1.00  0.00    -0.200 F 
ATOM     91  C   UNL A   1      43.309  36.954  35.041  1.00  0.00     0.200 A 
ATOM     92  F   UNL A   1      42.753  35.752  36.995  1.00  0.00    -0.200 F 
ATOM     93  F   UNL A   1      43.618  38.032  35.774  1.00  0.00    -0.200 F 
ENDBRANCH  60  83
ENDBRANCH  34  35
ENDBRANCH  27  29
ENDBRANCH  26  27
ENDBRANCH  25  26
ENDBRANCH  24  25
ENDBRANCH  23  24
ENDBRANCH  22  23
ENDBRANCH   1  22
TORSDOF 20
ENDMDL
MODEL 3
REMARK VINA RESULT:     -10.8      3.641      8.982
REMARK SMILES O=C(COc1cc2ccccc2cc1O)OCCOCCOCCOC(=O)c1ccc(-c2c3nc(c(-c4c(F)c(F)c(F)c(F)c4F)c4ccc([nH]4)c(-c4c(F)c(F)c(F)c(F)c4F)c4nc(c(-c5c(F)c(F)c(F)c(F)c5F)c5ccc2[nH]5)C=C4)C=C3)cc1
REMARK SMILES IDX 20 1 19 2 18 3 17 4 16 5 2 6 1 7 3 8 4 9 5 10 6 11 14 12
REMARK SMILES IDX 7 13 13 14 8 15 12 16 9 17 11 18 10 19 15 20 21 22 22 23
REMARK SMILES IDX 23 24 24 25 25 26 26 27 27 28 28 29 29 30 90 31 30 32 89 33
REMARK SMILES IDX 31 34 32 35 33 36 83 37 34 38 88 39 82 40 84 41 35 42 87 43
REMARK SMILES IDX 81 44 80 45 36 47 68 48 48 49 67 50 49 51 52 52 66 53 85 54
REMARK SMILES IDX 50 55 51 56 65 58 86 59 53 60 37 61 38 62 46 63 39 64 40 65
REMARK SMILES IDX 44 66 47 67 41 68 42 69 45 70 43 71 69 72 70 73 78 74 71 75
REMARK SMILES IDX 72 76 76 77 79 78 73 79 74 80 77 81 75 82 54 83 55 84 63 85
REMARK SMILES IDX 56 86 57 87 61 88 64 89 58 90 59 91 62 92 60 93
REMARK H PARENT 15 21 84 46 52 57
REMARK Flexibility Score: inf
ROOT
ATOM      1  C   UNL A   1      32.712  25.464  26.431  1.00  0.00     0.188 C 
ENDROOT
BRANCH   1   2
ATOM      2  O   UNL A   1      31.523  24.792  26.810  1.00  0.00    -0.376 OA
BRANCH   2   3
ATOM      3  C   UNL A   1      31.035  23.777  25.972  1.00  0.00     0.202 C 
BRANCH   3   4
ATOM      4  C   UNL A   1      31.815  22.468  26.097  1.00  0.00     0.261 C 
BRANCH   4   5
ATOM      5  O   UNL A   1      32.567  21.962  24.935  1.00  0.00    -0.461 OA
BRANCH   5   6
ATOM      6  C   UNL A   1      33.722  22.138  24.260  1.00  0.00     0.344 C 
ATOM      7  O   UNL A   1      34.619  21.308  24.452  1.00  0.00    -0.248 OA
BRANCH   6   8
ATOM      8  C   UNL A   1      34.015  23.335  23.312  1.00  0.00     0.352 C 
BRANCH   8   9
ATOM      9  O   UNL A   1      33.152  23.833  22.268  1.00  0.00    -0.478 OA
BRANCH   9  10
ATOM     10  C   UNL A   1      32.655  25.082  22.467  1.00  0.00     0.162 A 
ATOM     11  C   UNL A   1      31.391  25.346  22.958  1.00  0.00     0.059 A 
ATOM     12  C   UNL A   1      33.280  26.171  21.920  1.00  0.00     0.158 A 
ATOM     13  C   UNL A   1      30.962  26.705  23.031  1.00  0.00    -0.014 A 
ATOM     14  C   UNL A   1      33.174  27.437  22.433  1.00  0.00     0.059 A 
ATOM     15  C   UNL A   1      29.624  27.103  23.150  1.00  0.00     0.009 A 
ATOM     16  C   UNL A   1      31.920  27.743  22.877  1.00  0.00    -0.014 A 
ATOM     17  C   UNL A   1      29.284  28.465  23.125  1.00  0.00     0.001 A 
ATOM     18  C   UNL A   1      31.595  29.092  22.966  1.00  0.00     0.009 A 
ATOM     19  C   UNL A   1      30.266  29.455  23.065  1.00  0.00     0.001 A 
BRANCH  12  20
ATOM     20  O   UNL A   1      33.252  26.155  20.524  1.00  0.00    -0.504 OA
ATOM     21  H   UNL A   1      32.584  25.678  20.074  1.00  0.00     0.293 HD
ENDBRANCH  12  20
ENDBRANCH   9  10
ENDBRANCH   8   9
ENDBRANCH   6   8
ENDBRANCH   5   6
ENDBRANCH   4   5
ENDBRANCH   3   4
ENDBRANCH   2   3
ENDBRANCH   1   2
BRANCH   1  22
ATOM     22  C   UNL A   1      32.791  26.992  26.211  1.00  0.00     0.188 C 
BRANCH  22  23
ATOM     23  O   UNL A   1      31.636  27.750  26.483  1.00  0.00    -0.376 OA
BRANCH  23  24
ATOM     24  C   UNL A   1      31.584  28.945  27.226  1.00  0.00     0.202 C 
BRANCH  24  25
ATOM     25  C   UNL A   1      31.789  30.362  26.672  1.00  0.00     0.261 C 
BRANCH  25  26
ATOM     26  O   UNL A   1      33.119  30.817  26.444  1.00  0.00    -0.460 OA
BRANCH  26  27
ATOM     27  C   UNL A   1      33.560  31.801  27.267  1.00  0.00     0.338 C 
ATOM     28  O   UNL A   1      32.948  32.783  27.626  1.00  0.00    -0.246 OA
BRANCH  27  29
ATOM     29  C   UNL A   1      34.870  31.386  27.821  1.00  0.00     0.060 A 
ATOM     30  C   UNL A   1      35.069  30.033  28.132  1.00  0.00     0.016 A 
ATOM     31  C   UNL A   1      35.899  32.312  28.001  1.00  0.00     0.016 A 
ATOM     32  C   UNL A   1      36.287  29.609  28.663  1.00  0.00     0.010 A 
ATOM     33  C   UNL A   1      37.107  31.891  28.566  1.00  0.00     0.010 A 
ATOM     34  C   UNL A   1      37.292  30.545  28.932  1.00  0.00    -0.014 A 
BRANCH  34  35
ATOM     35  C   UNL A   1      38.440  30.162  29.789  1.00  0.00     0.031 A 
ATOM     36  C   UNL A   1      39.434  29.176  29.237  1.00  0.00     0.074 A 
ATOM     37  C   UNL A   1      38.613  30.682  31.016  1.00  0.00     0.049 A 
ATOM     38  N   UNL A   1      40.475  28.629  29.812  1.00  0.00    -0.248 NA
ATOM     39  C   UNL A   1      39.223  28.747  27.844  1.00  0.00     0.031 C 
ATOM     40  C   UNL A   1      37.752  31.682  31.641  1.00  0.00     0.029 A 
ATOM     41  N   UNL A   1      39.575  30.425  31.963  1.00  0.00    -0.354 N 
ATOM     42  C   UNL A   1      41.032  27.786  28.858  1.00  0.00     0.074 A 
ATOM     43  C   UNL A   1      40.202  27.872  27.676  1.00  0.00     0.031 C 
ATOM     44  C   UNL A   1      38.212  31.941  32.878  1.00  0.00     0.029 A 
ATOM     45  C   UNL A   1      39.377  31.097  33.144  1.00  0.00     0.049 A 
ATOM     46  H   UNL A   1      40.334  29.818  31.809  1.00  0.00     0.167 HD
ATOM     47  C   UNL A   1      42.139  27.016  28.959  1.00  0.00     0.037 A 
ATOM     48  C   UNL A   1      40.043  31.011  34.314  1.00  0.00     0.037 A 
ATOM     49  C   UNL A   1      42.964  26.934  30.134  1.00  0.00     0.049 A 
ATOM     50  C   UNL A   1      41.225  30.078  34.425  1.00  0.00     0.074 A 
ATOM     51  C   UNL A   1      44.119  26.198  30.328  1.00  0.00     0.029 A 
ATOM     52  N   UNL A   1      42.713  27.605  31.322  1.00  0.00    -0.354 N 
ATOM     53  N   UNL A   1      41.763  29.305  33.512  1.00  0.00    -0.248 NA
ATOM     54  C   UNL A   1      41.895  30.007  35.733  1.00  0.00     0.031 C 
ATOM     55  C   UNL A   1      44.530  26.370  31.652  1.00  0.00     0.029 A 
ATOM     56  C   UNL A   1      43.673  27.272  32.263  1.00  0.00     0.049 A 
ATOM     57  H   UNL A   1      41.963  28.226  31.474  1.00  0.00     0.167 HD
ATOM     58  C   UNL A   1      42.850  28.689  34.122  1.00  0.00     0.074 A 
ATOM     59  C   UNL A   1      42.905  29.189  35.478  1.00  0.00     0.031 C 
ATOM     60  C   UNL A   1      43.723  27.788  33.607  1.00  0.00     0.037 A 
BRANCH  47  61
ATOM     61  C   UNL A   1      42.513  26.170  27.775  1.00  0.00     0.064 A 
ATOM     62  C   UNL A   1      43.478  26.582  26.845  1.00  0.00     0.173 A 
ATOM     63  C   UNL A   1      41.935  24.903  27.604  1.00  0.00     0.173 A 
ATOM     64  F   UNL A   1      44.049  27.791  26.955  1.00  0.00    -0.203 F 
ATOM     65  C   UNL A   1      43.840  25.763  25.779  1.00  0.00     0.198 A 
ATOM     66  C   UNL A   1      42.320  24.074  26.554  1.00  0.00     0.198 A 
ATOM     67  F   UNL A   1      41.006  24.461  28.465  1.00  0.00    -0.203 F 
ATOM     68  F   UNL A   1      44.736  26.193  24.879  1.00  0.00    -0.200 F 
ATOM     69  C   UNL A   1      43.269  24.507  25.640  1.00  0.00     0.200 A 
ATOM     70  F   UNL A   1      41.779  22.854  26.432  1.00  0.00    -0.200 F 
ATOM     71  F   UNL A   1      43.630  23.713  24.622  1.00  0.00    -0.200 F 
ENDBRANCH  47  61
BRANCH  48  72
ATOM     72  C   UNL A   1      39.596  31.803  35.494  1.00  0.00     0.064 A 
ATOM     73  C   UNL A   1      38.631  31.306  36.381  1.00  0.00     0.173 A 
ATOM     74  C   UNL A   1      40.083  33.099  35.726  1.00  0.00     0.173 A 
ATOM     75  F   UNL A   1      38.110  30.085  36.187  1.00  0.00    -0.203 F 
ATOM     76  C   UNL A   1      38.148  32.082  37.433  1.00  0.00     0.198 A 
ATOM     77  C   UNL A   1      39.627  33.861  36.799  1.00  0.00     0.198 A 
ATOM     78  F   UNL A   1      41.003  33.628  34.905  1.00  0.00    -0.203 F 
ATOM     79  F   UNL A   1      37.176  31.606  38.223  1.00  0.00    -0.200 F 
ATOM     80  C   UNL A   1      38.649  33.357  37.644  1.00  0.00     0.200 A 
ATOM     81  F   UNL A   1      40.124  35.088  37.005  1.00  0.00    -0.200 F 
ATOM     82  F   UNL A   1      38.182  34.106  38.652  1.00  0.00    -0.200 F 
ENDBRANCH  48  72
BRANCH  60  83
ATOM     83  C   UNL A   1      44.844  27.319  34.494  1.00  0.00     0.064 A 
ATOM     84  C   UNL A   1      46.056  28.019  34.589  1.00  0.00     0.173 A 
ATOM     85  C   UNL A   1      44.685  26.175  35.291  1.00  0.00     0.173 A 
ATOM     86  F   UNL A   1      46.265  29.113  33.842  1.00  0.00    -0.203 F 
ATOM     87  C   UNL A   1      47.077  27.574  35.426  1.00  0.00     0.198 A 
ATOM     88  C   UNL A   1      45.693  25.753  36.153  1.00  0.00     0.198 A 
ATOM     89  F   UNL A   1      43.542  25.473  35.247  1.00  0.00    -0.203 F 
ATOM     90  F   UNL A   1      48.246  28.227  35.459  1.00  0.00    -0.200 F 
ATOM     91  C   UNL A   1      46.891  26.447  36.212  1.00  0.00     0.200 A 
ATOM     92  F   UNL A   1      45.504  24.676  36.927  1.00  0.00    -0.200 F 
ATOM     93  F   UNL A   1      47.872  26.025  37.023  1.00  0.00    -0.200 F 
ENDBRANCH  60  83
ENDBRANCH  34  35
ENDBRANCH  27  29
ENDBRANCH  26  27
ENDBRANCH  25  26
ENDBRANCH  24  25
ENDBRANCH  23  24
ENDBRANCH  22  23
ENDBRANCH   1  22
TORSDOF 20
ENDMDL
