MODEL 1
REMARK VINA RESULT:     -12.0      0.000      0.000
REMARK SMILES Cc1cc([N+](=O)[O-])ccc1NC(=O)[C@@H]1[C@@H](C(=O)OCCOCCOCCOC(=O)c2ccc(-c3c4nc(c(-c5c(F)c(F)c(F)c(F)c5F)c5ccc([nH]5)c(-c5c(F)c(F)c(F)c(F)c5F)c5nc(c(-c6c(F)c(F)c(F)c(F)c6F)c6ccc3[nH]6)C=C5)C=C4)cc2)[C@H]2C=C[C@@H]1C2
REMARK SMILES IDX 22 1 21 2 20 3 19 4 18 5 16 6 17 7 15 8 14 9 96 10 93 11
REMARK SMILES IDX 95 12 97 13 94 14 12 15 11 16 13 18 10 19 1 20 2 21 3 22
REMARK SMILES IDX 4 23 9 24 8 25 5 26 6 27 7 28 23 29 24 30 25 31 26 32 27 33
REMARK SMILES IDX 28 34 29 35 30 36 31 37 92 38 32 39 91 40 33 41 34 42 35 43
REMARK SMILES IDX 85 44 36 45 90 46 84 47 86 48 37 49 89 50 83 51 82 52 38 54
REMARK SMILES IDX 70 55 50 56 69 57 51 58 54 59 68 60 87 61 52 62 53 63 67 65
REMARK SMILES IDX 88 66 55 67 39 68 40 69 48 70 41 71 42 72 46 73 49 74 43 75
REMARK SMILES IDX 44 76 47 77 45 78 71 79 72 80 80 81 73 82 74 83 78 84 81 85
REMARK SMILES IDX 75 86 76 87 79 88 77 89 56 90 57 91 65 92 58 93 59 94 63 95
REMARK SMILES IDX 66 96 60 97 61 98 64 99 62 100
REMARK H PARENT 11 17 86 53 54 64
REMARK Flexibility Score: inf
ROOT
ATOM      1  C   UNL A   1      34.769  33.752  28.001  1.00  0.00     0.188 C 
ENDROOT
BRANCH   1   2
ATOM      2  O   UNL A   1      35.190  32.411  27.988  1.00  0.00    -0.376 OA
BRANCH   2   3
ATOM      3  C   UNL A   1      34.122  31.509  27.834  1.00  0.00     0.202 C 
BRANCH   3   4
ATOM      4  C   UNL A   1      34.243  30.040  27.337  1.00  0.00     0.261 C 
BRANCH   4   5
ATOM      5  O   UNL A   1      33.357  28.748  27.223  1.00  0.00    -0.463 OA
BRANCH   5   6
ATOM      6  C   UNL A   1      32.030  28.405  27.056  1.00  0.00     0.310 C 
ATOM      7  O   UNL A   1      31.385  28.042  28.032  1.00  0.00    -0.252 OA
BRANCH   6   8
ATOM      8  C   UNL A   1      31.391  28.273  25.550  1.00  0.00     0.119 C 
ATOM      9  C   UNL A   1      31.674  26.878  24.832  1.00  0.00     0.100 C 
ATOM     10  C   UNL A   1      31.589  27.184  23.278  1.00  0.00     0.025 C 
ATOM     11  C   UNL A   1      31.720  29.149  24.256  1.00  0.00     0.027 C 
ATOM     12  C   UNL A   1      32.909  27.757  22.853  1.00  0.00    -0.027 C 
ATOM     13  C   UNL A   1      30.788  28.463  23.237  1.00  0.00     0.017 C 
ATOM     14  C   UNL A   1      33.030  28.899  23.527  1.00  0.00    -0.027 C 
BRANCH   9  15
ATOM     15  C   UNL A   1      30.726  25.748  25.084  1.00  0.00     0.228 C 
ATOM     16  N   UNL A   1      31.163  24.444  25.063  1.00  0.00    -0.326 N 
ATOM     17  H   UNL A   1      30.431  23.804  25.218  1.00  0.00     0.169 HD
ATOM     18  O   UNL A   1      29.527  25.963  25.271  1.00  0.00    -0.274 OA
BRANCH  16  19
ATOM     19  C   UNL A   1      32.416  23.790  24.872  1.00  0.00     0.044 A 
ATOM     20  C   UNL A   1      32.412  22.945  27.306  1.00  0.00     0.047 C 
ATOM     21  C   UNL A   1      33.004  23.064  25.927  1.00  0.00    -0.021 A 
ATOM     22  C   UNL A   1      34.252  22.411  25.733  1.00  0.00     0.091 A 
ATOM     23  C   UNL A   1      34.916  22.462  24.504  1.00  0.00     0.269 A 
ATOM     24  C   UNL A   1      33.136  23.821  23.673  1.00  0.00     0.033 A 
ATOM     25  C   UNL A   1      34.351  23.167  23.461  1.00  0.00     0.088 A 
BRANCH  23  26
ATOM     26  N   UNL A   1      36.211  21.805  24.309  1.00  0.00     0.062 N 
ATOM     27  O   UNL A   1      36.984  22.296  23.474  1.00  0.00    -0.258 OA
ATOM     28  O   UNL A   1      36.454  20.794  24.984  1.00  0.00    -0.258 OA
ENDBRANCH  23  26
ENDBRANCH  16  19
ENDBRANCH   9  15
ENDBRANCH   6   8
ENDBRANCH   5   6
ENDBRANCH   4   5
ENDBRANCH   3   4
ENDBRANCH   2   3
ENDBRANCH   1   2
BRANCH   1  29
ATOM     29  C   UNL A   1      33.243  33.838  27.999  1.00  0.00     0.188 C 
BRANCH  29  30
ATOM     30  O   UNL A   1      32.719  34.458  29.173  1.00  0.00    -0.376 OA
BRANCH  30  31
ATOM     31  C   UNL A   1      32.892  35.871  29.264  1.00  0.00     0.202 C 
BRANCH  31  32
ATOM     32  C   UNL A   1      32.572  36.337  30.686  1.00  0.00     0.261 C 
BRANCH  32  33
ATOM     33  O   UNL A   1      33.797  36.617  31.398  1.00  0.00    -0.460 OA
BRANCH  33  34
ATOM     34  C   UNL A   1      33.975  35.885  32.524  1.00  0.00     0.338 C 
ATOM     35  O   UNL A   1      33.765  36.276  33.669  1.00  0.00    -0.246 OA
BRANCH  34  36
ATOM     36  C   UNL A   1      34.697  34.626  32.183  1.00  0.00     0.060 A 
ATOM     37  C   UNL A   1      34.619  33.550  33.045  1.00  0.00     0.016 A 
ATOM     38  C   UNL A   1      35.657  34.584  31.167  1.00  0.00     0.016 A 
ATOM     39  C   UNL A   1      35.627  32.579  33.002  1.00  0.00     0.010 A 
ATOM     40  C   UNL A   1      36.735  33.687  31.248  1.00  0.00     0.010 A 
ATOM     41  C   UNL A   1      36.834  32.766  32.296  1.00  0.00    -0.014 A 
BRANCH  41  42
ATOM     42  C   UNL A   1      38.186  32.056  32.444  1.00  0.00     0.031 A 
ATOM     43  C   UNL A   1      38.213  30.696  31.830  1.00  0.00     0.074 A 
ATOM     44  C   UNL A   1      39.364  32.257  33.168  1.00  0.00     0.049 A 
ATOM     45  N   UNL A   1      39.116  29.806  32.095  1.00  0.00    -0.248 NA
ATOM     46  C   UNL A   1      37.118  30.163  31.015  1.00  0.00     0.031 C 
ATOM     47  C   UNL A   1      40.695  31.964  32.591  1.00  0.00     0.029 A 
ATOM     48  N   UNL A   1      39.785  32.854  34.370  1.00  0.00    -0.354 N 
ATOM     49  C   UNL A   1      38.970  28.838  31.151  1.00  0.00     0.074 A 
ATOM     50  C   UNL A   1      37.594  28.941  30.755  1.00  0.00     0.031 C 
ATOM     51  C   UNL A   1      41.681  32.279  33.451  1.00  0.00     0.029 A 
ATOM     52  C   UNL A   1      41.115  32.755  34.698  1.00  0.00     0.049 A 
ATOM     53  H   UNL A   1      39.150  33.325  34.956  1.00  0.00     0.167 HD
ATOM     54  C   UNL A   1      40.098  28.305  30.612  1.00  0.00     0.037 A 
ATOM     55  C   UNL A   1      41.684  32.792  35.942  1.00  0.00     0.037 A 
ATOM     56  C   UNL A   1      41.297  28.597  31.423  1.00  0.00     0.049 A 
ATOM     57  C   UNL A   1      42.367  31.462  36.139  1.00  0.00     0.074 A 
ATOM     58  C   UNL A   1      42.447  29.334  31.187  1.00  0.00     0.029 A 
ATOM     59  N   UNL A   1      41.331  28.265  32.784  1.00  0.00    -0.354 N 
ATOM     60  N   UNL A   1      42.223  30.521  35.254  1.00  0.00    -0.248 NA
ATOM     61  C   UNL A   1      43.173  31.017  37.270  1.00  0.00     0.031 C 
ATOM     62  C   UNL A   1      43.188  29.409  32.397  1.00  0.00     0.029 A 
ATOM     63  C   UNL A   1      42.508  28.698  33.372  1.00  0.00     0.049 A 
ATOM     64  H   UNL A   1      40.614  27.789  33.260  1.00  0.00     0.167 HD
ATOM     65  C   UNL A   1      42.900  29.407  35.610  1.00  0.00     0.074 A 
ATOM     66  C   UNL A   1      43.463  29.750  36.904  1.00  0.00     0.031 C 
ATOM     67  C   UNL A   1      42.879  28.347  34.751  1.00  0.00     0.037 A 
BRANCH  54  68
ATOM     68  C   UNL A   1      40.159  27.751  29.194  1.00  0.00     0.064 A 
ATOM     69  C   UNL A   1      39.599  26.488  28.905  1.00  0.00     0.173 A 
ATOM     70  C   UNL A   1      40.835  28.341  28.097  1.00  0.00     0.173 A 
ATOM     71  F   UNL A   1      38.949  25.784  29.843  1.00  0.00    -0.203 F 
ATOM     72  C   UNL A   1      39.704  25.885  27.645  1.00  0.00     0.198 A 
ATOM     73  C   UNL A   1      40.885  27.767  26.826  1.00  0.00     0.198 A 
ATOM     74  F   UNL A   1      41.547  29.466  28.195  1.00  0.00    -0.203 F 
ATOM     75  F   UNL A   1      39.205  24.657  27.453  1.00  0.00    -0.200 F 
ATOM     76  C   UNL A   1      40.328  26.533  26.600  1.00  0.00     0.200 A 
ATOM     77  F   UNL A   1      41.514  28.418  25.836  1.00  0.00    -0.200 F 
ATOM     78  F   UNL A   1      40.416  25.967  25.391  1.00  0.00    -0.200 F 
ENDBRANCH  54  68
BRANCH  55  79
ATOM     79  C   UNL A   1      41.128  33.649  37.040  1.00  0.00     0.064 A 
ATOM     80  C   UNL A   1      41.719  34.896  37.325  1.00  0.00     0.173 A 
ATOM     81  C   UNL A   1      39.960  33.363  37.749  1.00  0.00     0.173 A 
ATOM     82  F   UNL A   1      42.912  35.200  36.791  1.00  0.00    -0.203 F 
ATOM     83  C   UNL A   1      41.101  35.849  38.151  1.00  0.00     0.198 A 
ATOM     84  C   UNL A   1      39.313  34.326  38.550  1.00  0.00     0.198 A 
ATOM     85  F   UNL A   1      39.407  32.154  37.621  1.00  0.00    -0.203 F 
ATOM     86  F   UNL A   1      41.683  37.039  38.357  1.00  0.00    -0.200 F 
ATOM     87  C   UNL A   1      39.870  35.582  38.723  1.00  0.00     0.200 A 
ATOM     88  F   UNL A   1      38.109  34.063  39.081  1.00  0.00    -0.200 F 
ATOM     89  F   UNL A   1      39.213  36.535  39.405  1.00  0.00    -0.200 F 
ENDBRANCH  55  79
BRANCH  67  90
ATOM     90  C   UNL A   1      43.335  26.943  35.038  1.00  0.00     0.064 A 
ATOM     91  C   UNL A   1      44.666  26.570  35.280  1.00  0.00     0.173 A 
ATOM     92  C   UNL A   1      42.377  25.911  35.207  1.00  0.00     0.173 A 
ATOM     93  F   UNL A   1      45.659  27.466  35.273  1.00  0.00    -0.203 F 
ATOM     94  C   UNL A   1      45.016  25.255  35.602  1.00  0.00     0.198 A 
ATOM     95  C   UNL A   1      42.722  24.621  35.588  1.00  0.00     0.198 A 
ATOM     96  F   UNL A   1      41.065  26.125  35.038  1.00  0.00    -0.203 F 
ATOM     97  F   UNL A   1      46.305  24.940  35.781  1.00  0.00    -0.200 F 
ATOM     98  C   UNL A   1      44.045  24.287  35.767  1.00  0.00     0.200 A 
ATOM     99  F   UNL A   1      41.759  23.713  35.798  1.00  0.00    -0.200 F 
ATOM    100  F   UNL A   1      44.380  23.040  36.122  1.00  0.00    -0.200 F 
ENDBRANCH  67  90
ENDBRANCH  41  42
ENDBRANCH  34  36
ENDBRANCH  33  34
ENDBRANCH  32  33
ENDBRANCH  31  32
ENDBRANCH  30  31
ENDBRANCH  29  30
ENDBRANCH   1  29
TORSDOF 20
ENDMDL
MODEL 2
REMARK VINA RESULT:     -11.9      5.150     10.381
REMARK SMILES Cc1cc([N+](=O)[O-])ccc1NC(=O)[C@@H]1[C@@H](C(=O)OCCOCCOCCOC(=O)c2ccc(-c3c4nc(c(-c5c(F)c(F)c(F)c(F)c5F)c5ccc([nH]5)c(-c5c(F)c(F)c(F)c(F)c5F)c5nc(c(-c6c(F)c(F)c(F)c(F)c6F)c6ccc3[nH]6)C=C5)C=C4)cc2)[C@H]2C=C[C@@H]1C2
REMARK SMILES IDX 22 1 21 2 20 3 19 4 18 5 16 6 17 7 15 8 14 9 96 10 93 11
REMARK SMILES IDX 95 12 97 13 94 14 12 15 11 16 13 18 10 19 1 20 2 21 3 22
REMARK SMILES IDX 4 23 9 24 8 25 5 26 6 27 7 28 23 29 24 30 25 31 26 32 27 33
REMARK SMILES IDX 28 34 29 35 30 36 31 37 92 38 32 39 91 40 33 41 34 42 35 43
REMARK SMILES IDX 85 44 36 45 90 46 84 47 86 48 37 49 89 50 83 51 82 52 38 54
REMARK SMILES IDX 70 55 50 56 69 57 51 58 54 59 68 60 87 61 52 62 53 63 67 65
REMARK SMILES IDX 88 66 55 67 39 68 40 69 48 70 41 71 42 72 46 73 49 74 43 75
REMARK SMILES IDX 44 76 47 77 45 78 71 79 72 80 80 81 73 82 74 83 78 84 81 85
REMARK SMILES IDX 75 86 76 87 79 88 77 89 56 90 57 91 65 92 58 93 59 94 63 95
REMARK SMILES IDX 66 96 60 97 61 98 64 99 62 100
REMARK H PARENT 11 17 86 53 54 64
REMARK Flexibility Score: inf
ROOT
ATOM      1  C   UNL A   1      35.542  23.147  23.733  1.00  0.00     0.188 C 
ENDROOT
BRANCH   1   2
ATOM      2  O   UNL A   1      34.719  24.279  23.875  1.00  0.00    -0.376 OA
BRANCH   2   3
ATOM      3  C   UNL A   1      34.266  24.458  25.195  1.00  0.00     0.202 C 
BRANCH   3   4
ATOM      4  C   UNL A   1      34.223  25.810  25.961  1.00  0.00     0.261 C 
BRANCH   4   5
ATOM      5  O   UNL A   1      33.185  26.718  26.712  1.00  0.00    -0.463 OA
BRANCH   5   6
ATOM      6  C   UNL A   1      32.065  27.475  26.428  1.00  0.00     0.310 C 
ATOM      7  O   UNL A   1      31.219  27.629  27.300  1.00  0.00    -0.252 OA
BRANCH   6   8
ATOM      8  C   UNL A   1      31.765  27.970  24.892  1.00  0.00     0.119 C 
ATOM      9  C   UNL A   1      31.513  26.787  23.854  1.00  0.00     0.100 C 
ATOM     10  C   UNL A   1      31.904  27.385  22.438  1.00  0.00     0.025 C 
ATOM     11  C   UNL A   1      32.724  28.792  23.914  1.00  0.00     0.027 C 
ATOM     12  C   UNL A   1      33.395  27.290  22.298  1.00  0.00    -0.027 C 
ATOM     13  C   UNL A   1      31.815  28.874  22.672  1.00  0.00     0.017 C 
ATOM     14  C   UNL A   1      33.888  28.065  23.261  1.00  0.00    -0.027 C 
BRANCH   9  15
ATOM     15  C   UNL A   1      30.120  26.259  23.710  1.00  0.00     0.228 C 
ATOM     16  N   UNL A   1      29.864  24.912  23.813  1.00  0.00    -0.326 N 
ATOM     17  H   UNL A   1      28.912  24.703  23.672  1.00  0.00     0.169 HD
ATOM     18  O   UNL A   1      29.183  27.018  23.452  1.00  0.00    -0.274 OA
BRANCH  16  19
ATOM     19  C   UNL A   1      30.637  23.743  24.074  1.00  0.00     0.044 A 
ATOM     20  C   UNL A   1      30.160  23.920  26.601  1.00  0.00     0.047 C 
ATOM     21  C   UNL A   1      30.767  23.259  25.392  1.00  0.00    -0.021 A 
ATOM     22  C   UNL A   1      31.536  22.091  25.650  1.00  0.00     0.091 A 
ATOM     23  C   UNL A   1      32.169  21.394  24.616  1.00  0.00     0.269 A 
ATOM     24  C   UNL A   1      31.307  23.015  23.086  1.00  0.00     0.033 A 
ATOM     25  C   UNL A   1      32.049  21.855  23.320  1.00  0.00     0.088 A 
BRANCH  23  26
ATOM     26  N   UNL A   1      32.977  20.203  24.882  1.00  0.00     0.062 N 
ATOM     27  O   UNL A   1      32.452  19.284  25.526  1.00  0.00    -0.258 OA
ATOM     28  O   UNL A   1      34.141  20.187  24.454  1.00  0.00    -0.258 OA
ENDBRANCH  23  26
ENDBRANCH  16  19
ENDBRANCH   9  15
ENDBRANCH   6   8
ENDBRANCH   5   6
ENDBRANCH   4   5
ENDBRANCH   3   4
ENDBRANCH   2   3
ENDBRANCH   1   2
BRANCH   1  29
ATOM     29  C   UNL A   1      36.991  23.488  24.082  1.00  0.00     0.188 C 
BRANCH  29  30
ATOM     30  O   UNL A   1      37.411  22.922  25.323  1.00  0.00    -0.376 OA
BRANCH  30  31
ATOM     31  C   UNL A   1      37.130  21.535  25.504  1.00  0.00     0.202 C 
BRANCH  31  32
ATOM     32  C   UNL A   1      38.419  20.725  25.347  1.00  0.00     0.261 C 
BRANCH  32  33
ATOM     33  O   UNL A   1      39.484  21.347  26.099  1.00  0.00    -0.460 OA
BRANCH  33  34
ATOM     34  C   UNL A   1      40.647  20.653  26.109  1.00  0.00     0.338 C 
ATOM     35  O   UNL A   1      40.752  19.436  25.969  1.00  0.00    -0.246 OA
BRANCH  34  36
ATOM     36  C   UNL A   1      41.751  21.546  26.564  1.00  0.00     0.060 A 
ATOM     37  C   UNL A   1      42.062  21.602  27.907  1.00  0.00     0.016 A 
ATOM     38  C   UNL A   1      42.300  22.519  25.722  1.00  0.00     0.016 A 
ATOM     39  C   UNL A   1      42.725  22.734  28.399  1.00  0.00     0.010 A 
ATOM     40  C   UNL A   1      42.820  23.708  26.259  1.00  0.00     0.010 A 
ATOM     41  C   UNL A   1      42.875  23.915  27.641  1.00  0.00    -0.014 A 
BRANCH  41  42
ATOM     42  C   UNL A   1      43.176  25.349  28.096  1.00  0.00     0.031 A 
ATOM     43  C   UNL A   1      42.001  26.263  27.999  1.00  0.00     0.074 A 
ATOM     44  C   UNL A   1      44.315  26.096  28.407  1.00  0.00     0.049 A 
ATOM     45  N   UNL A   1      42.090  27.555  28.027  1.00  0.00    -0.248 NA
ATOM     46  C   UNL A   1      40.650  25.800  27.671  1.00  0.00     0.031 C 
ATOM     47  C   UNL A   1      44.323  27.086  29.507  1.00  0.00     0.029 A 
ATOM     48  N   UNL A   1      45.682  26.137  28.080  1.00  0.00    -0.354 N 
ATOM     49  C   UNL A   1      40.822  28.011  28.202  1.00  0.00     0.074 A 
ATOM     50  C   UNL A   1      39.997  26.966  27.664  1.00  0.00     0.031 C 
ATOM     51  C   UNL A   1      45.539  27.647  29.652  1.00  0.00     0.029 A 
ATOM     52  C   UNL A   1      46.440  27.138  28.638  1.00  0.00     0.049 A 
ATOM     53  H   UNL A   1      46.082  25.474  27.473  1.00  0.00     0.167 HD
ATOM     54  C   UNL A   1      40.636  29.051  29.057  1.00  0.00     0.037 A 
ATOM     55  C   UNL A   1      47.593  27.695  28.154  1.00  0.00     0.037 A 
ATOM     56  C   UNL A   1      41.896  29.760  29.357  1.00  0.00     0.049 A 
ATOM     57  C   UNL A   1      47.296  29.155  27.919  1.00  0.00     0.074 A 
ATOM     58  C   UNL A   1      42.636  29.931  30.516  1.00  0.00     0.029 A 
ATOM     59  N   UNL A   1      42.694  30.257  28.319  1.00  0.00    -0.354 N 
ATOM     60  N   UNL A   1      46.084  29.602  28.066  1.00  0.00    -0.248 NA
ATOM     61  C   UNL A   1      48.205  30.202  27.471  1.00  0.00     0.031 C 
ATOM     62  C   UNL A   1      43.860  30.567  30.177  1.00  0.00     0.029 A 
ATOM     63  C   UNL A   1      43.865  30.811  28.813  1.00  0.00     0.049 A 
ATOM     64  H   UNL A   1      42.457  30.219  27.365  1.00  0.00     0.167 HD
ATOM     65  C   UNL A   1      46.017  30.927  27.805  1.00  0.00     0.074 A 
ATOM     66  C   UNL A   1      47.372  31.263  27.403  1.00  0.00     0.031 C 
ATOM     67  C   UNL A   1      44.812  31.547  27.963  1.00  0.00     0.037 A 
BRANCH  54  68
ATOM     68  C   UNL A   1      39.349  29.257  29.845  1.00  0.00     0.064 A 
ATOM     69  C   UNL A   1      38.415  30.231  29.431  1.00  0.00     0.173 A 
ATOM     70  C   UNL A   1      39.009  28.623  31.066  1.00  0.00     0.173 A 
ATOM     71  F   UNL A   1      38.603  30.942  28.310  1.00  0.00    -0.203 F 
ATOM     72  C   UNL A   1      37.260  30.532  30.163  1.00  0.00     0.198 A 
ATOM     73  C   UNL A   1      37.827  28.880  31.763  1.00  0.00     0.198 A 
ATOM     74  F   UNL A   1      39.819  27.773  31.700  1.00  0.00    -0.203 F 
ATOM     75  F   UNL A   1      36.446  31.512  29.748  1.00  0.00    -0.200 F 
ATOM     76  C   UNL A   1      36.955  29.842  31.318  1.00  0.00     0.200 A 
ATOM     77  F   UNL A   1      37.569  28.201  32.891  1.00  0.00    -0.200 F 
ATOM     78  F   UNL A   1      35.844  30.115  32.012  1.00  0.00    -0.200 F 
ENDBRANCH  54  68
BRANCH  55  79
ATOM     79  C   UNL A   1      48.604  26.887  27.397  1.00  0.00     0.064 A 
ATOM     80  C   UNL A   1      48.500  26.765  25.997  1.00  0.00     0.173 A 
ATOM     81  C   UNL A   1      49.751  26.327  27.963  1.00  0.00     0.173 A 
ATOM     82  F   UNL A   1      47.373  27.155  25.382  1.00  0.00    -0.203 F 
ATOM     83  C   UNL A   1      49.540  26.250  25.207  1.00  0.00     0.198 A 
ATOM     84  C   UNL A   1      50.817  25.842  27.177  1.00  0.00     0.198 A 
ATOM     85  F   UNL A   1      49.866  26.299  29.293  1.00  0.00    -0.203 F 
ATOM     86  F   UNL A   1      49.409  26.194  23.874  1.00  0.00    -0.200 F 
ATOM     87  C   UNL A   1      50.722  25.836  25.795  1.00  0.00     0.200 A 
ATOM     88  F   UNL A   1      51.966  25.464  27.758  1.00  0.00    -0.200 F 
ATOM     89  F   UNL A   1      51.768  25.466  25.039  1.00  0.00    -0.200 F 
ENDBRANCH  55  79
BRANCH  67  90
ATOM     90  C   UNL A   1      44.440  32.928  27.498  1.00  0.00     0.064 A 
ATOM     91  C   UNL A   1      43.942  33.233  26.223  1.00  0.00     0.173 A 
ATOM     92  C   UNL A   1      44.460  34.009  28.416  1.00  0.00     0.173 A 
ATOM     93  F   UNL A   1      43.756  32.287  25.297  1.00  0.00    -0.203 F 
ATOM     94  C   UNL A   1      43.556  34.531  25.874  1.00  0.00     0.198 A 
ATOM     95  C   UNL A   1      44.018  35.283  28.084  1.00  0.00     0.198 A 
ATOM     96  F   UNL A   1      44.883  33.863  29.679  1.00  0.00    -0.203 F 
ATOM     97  F   UNL A   1      43.127  34.781  24.630  1.00  0.00    -0.200 F 
ATOM     98  C   UNL A   1      43.583  35.550  26.806  1.00  0.00     0.200 A 
ATOM     99  F   UNL A   1      43.999  36.241  29.021  1.00  0.00    -0.200 F 
ATOM    100  F   UNL A   1      43.167  36.781  26.481  1.00  0.00    -0.200 F 
ENDBRANCH  67  90
ENDBRANCH  41  42
ENDBRANCH  34  36
ENDBRANCH  33  34
ENDBRANCH  32  33
ENDBRANCH  31  32
ENDBRANCH  30  31
ENDBRANCH  29  30
ENDBRANCH   1  29
TORSDOF 20
ENDMDL
MODEL 3
REMARK VINA RESULT:     -11.0      6.038      7.798
REMARK SMILES Cc1cc([N+](=O)[O-])ccc1NC(=O)[C@@H]1[C@@H](C(=O)OCCOCCOCCOC(=O)c2ccc(-c3c4nc(c(-c5c(F)c(F)c(F)c(F)c5F)c5ccc([nH]5)c(-c5c(F)c(F)c(F)c(F)c5F)c5nc(c(-c6c(F)c(F)c(F)c(F)c6F)c6ccc3[nH]6)C=C5)C=C4)cc2)[C@H]2C=C[C@@H]1C2
REMARK SMILES IDX 22 1 21 2 20 3 19 4 18 5 16 6 17 7 15 8 14 9 96 10 93 11
REMARK SMILES IDX 95 12 97 13 94 14 12 15 11 16 13 18 10 19 1 20 2 21 3 22
REMARK SMILES IDX 4 23 9 24 8 25 5 26 6 27 7 28 23 29 24 30 25 31 26 32 27 33
REMARK SMILES IDX 28 34 29 35 30 36 31 37 92 38 32 39 91 40 33 41 34 42 35 43
REMARK SMILES IDX 85 44 36 45 90 46 84 47 86 48 37 49 89 50 83 51 82 52 38 54
REMARK SMILES IDX 70 55 50 56 69 57 51 58 54 59 68 60 87 61 52 62 53 63 67 65
REMARK SMILES IDX 88 66 55 67 39 68 40 69 48 70 41 71 42 72 46 73 49 74 43 75
REMARK SMILES IDX 44 76 47 77 45 78 71 79 72 80 80 81 73 82 74 83 78 84 81 85
REMARK SMILES IDX 75 86 76 87 79 88 77 89 56 90 57 91 65 92 58 93 59 94 63 95
REMARK SMILES IDX 66 96 60 97 61 98 64 99 62 100
REMARK H PARENT 11 17 86 53 54 64
REMARK Flexibility Score: inf
ROOT
ATOM      1  C   UNL A   1      34.700  33.138  28.982  1.00  0.00     0.188 C 
ENDROOT
BRANCH   1   2
ATOM      2  O   UNL A   1      34.048  31.894  28.921  1.00  0.00    -0.376 OA
BRANCH   2   3
ATOM      3  C   UNL A   1      34.380  31.163  27.766  1.00  0.00     0.202 C 
BRANCH   3   4
ATOM      4  C   UNL A   1      33.368  30.460  26.817  1.00  0.00     0.261 C 
BRANCH   4   5
ATOM      5  O   UNL A   1      32.091  29.550  26.907  1.00  0.00    -0.463 OA
BRANCH   5   6
ATOM      6  C   UNL A   1      31.620  28.362  26.385  1.00  0.00     0.310 C 
ATOM      7  O   UNL A   1      31.520  27.390  27.124  1.00  0.00    -0.252 OA
BRANCH   6   8
ATOM      8  C   UNL A   1      31.410  28.191  24.767  1.00  0.00     0.119 C 
ATOM      9  C   UNL A   1      31.379  26.680  24.260  1.00  0.00     0.100 C 
ATOM     10  C   UNL A   1      31.832  26.740  22.741  1.00  0.00     0.025 C 
ATOM     11  C   UNL A   1      32.362  28.698  23.588  1.00  0.00     0.027 C 
ATOM     12  C   UNL A   1      33.332  26.797  22.714  1.00  0.00    -0.027 C 
ATOM     13  C   UNL A   1      31.566  28.181  22.374  1.00  0.00     0.017 C 
ATOM     14  C   UNL A   1      33.650  27.938  23.320  1.00  0.00    -0.027 C 
BRANCH   9  15
ATOM     15  C   UNL A   1      30.068  25.958  24.272  1.00  0.00     0.228 C 
ATOM     16  N   UNL A   1      30.022  24.584  24.314  1.00  0.00    -0.326 N 
ATOM     17  H   UNL A   1      29.099  24.243  24.292  1.00  0.00     0.169 HD
ATOM     18  O   UNL A   1      29.007  26.580  24.201  1.00  0.00    -0.274 OA
BRANCH  16  19
ATOM     19  C   UNL A   1      30.981  23.532  24.383  1.00  0.00     0.044 A 
ATOM     20  C   UNL A   1      30.403  23.086  26.855  1.00  0.00     0.047 C 
ATOM     21  C   UNL A   1      31.155  22.808  25.579  1.00  0.00    -0.021 A 
ATOM     22  C   UNL A   1      32.111  21.757  25.645  1.00  0.00     0.091 A 
ATOM     23  C   UNL A   1      32.888  21.411  24.535  1.00  0.00     0.269 A 
ATOM     24  C   UNL A   1      31.801  23.153  23.314  1.00  0.00     0.033 A 
ATOM     25  C   UNL A   1      32.728  22.110  23.356  1.00  0.00     0.088 A 
BRANCH  23  26
ATOM     26  N   UNL A   1      33.887  20.342  24.607  1.00  0.00     0.062 N 
ATOM     27  O   UNL A   1      33.478  19.173  24.599  1.00  0.00    -0.258 OA
ATOM     28  O   UNL A   1      35.080  20.671  24.679  1.00  0.00    -0.258 OA
ENDBRANCH  23  26
ENDBRANCH  16  19
ENDBRANCH   9  15
ENDBRANCH   6   8
ENDBRANCH   5   6
ENDBRANCH   4   5
ENDBRANCH   3   4
ENDBRANCH   2   3
ENDBRANCH   1   2
BRANCH   1  29
ATOM     29  C   UNL A   1      33.706  34.250  29.318  1.00  0.00     0.188 C 
BRANCH  29  30
ATOM     30  O   UNL A   1      33.973  34.874  30.573  1.00  0.00    -0.376 OA
BRANCH  30  31
ATOM     31  C   UNL A   1      34.843  34.162  31.452  1.00  0.00     0.202 C 
BRANCH  31  32
ATOM     32  C   UNL A   1      35.284  35.082  32.593  1.00  0.00     0.261 C 
BRANCH  32  33
ATOM     33  O   UNL A   1      36.725  35.180  32.616  1.00  0.00    -0.460 OA
BRANCH  33  34
ATOM     34  C   UNL A   1      37.332  34.357  33.504  1.00  0.00     0.338 C 
ATOM     35  O   UNL A   1      37.037  34.249  34.692  1.00  0.00    -0.246 OA
BRANCH  34  36
ATOM     36  C   UNL A   1      38.566  33.791  32.888  1.00  0.00     0.060 A 
ATOM     37  C   UNL A   1      39.799  34.227  33.329  1.00  0.00     0.016 A 
ATOM     38  C   UNL A   1      38.518  33.040  31.709  1.00  0.00     0.016 A 
ATOM     39  C   UNL A   1      40.905  34.088  32.481  1.00  0.00     0.010 A 
ATOM     40  C   UNL A   1      39.603  33.054  30.817  1.00  0.00     0.010 A 
ATOM     41  C   UNL A   1      40.779  33.749  31.117  1.00  0.00    -0.014 A 
BRANCH  41  42
ATOM     42  C   UNL A   1      41.763  33.942  29.956  1.00  0.00     0.031 A 
ATOM     43  C   UNL A   1      42.630  32.753  29.708  1.00  0.00     0.074 A 
ATOM     44  C   UNL A   1      42.209  35.008  29.171  1.00  0.00     0.049 A 
ATOM     45  N   UNL A   1      43.719  32.790  29.008  1.00  0.00    -0.248 NA
ATOM     46  C   UNL A   1      42.442  31.468  30.387  1.00  0.00     0.031 C 
ATOM     47  C   UNL A   1      42.489  34.850  27.726  1.00  0.00     0.029 A 
ATOM     48  N   UNL A   1      42.373  36.401  29.263  1.00  0.00    -0.354 N 
ATOM     49  C   UNL A   1      44.056  31.494  28.776  1.00  0.00     0.074 A 
ATOM     50  C   UNL A   1      43.463  30.778  29.870  1.00  0.00     0.031 C 
ATOM     51  C   UNL A   1      42.859  36.018  27.168  1.00  0.00     0.029 A 
ATOM     52  C   UNL A   1      42.920  37.051  28.183  1.00  0.00     0.049 A 
ATOM     53  H   UNL A   1      42.107  36.894  30.072  1.00  0.00     0.167 HD
ATOM     54  C   UNL A   1      44.511  31.171  27.537  1.00  0.00     0.037 A 
ATOM     55  C   UNL A   1      43.612  38.231  28.168  1.00  0.00     0.037 A 
ATOM     56  C   UNL A   1      44.926  32.359  26.766  1.00  0.00     0.049 A 
ATOM     57  C   UNL A   1      44.992  37.910  27.651  1.00  0.00     0.074 A 
ATOM     58  C   UNL A   1      44.453  32.951  25.605  1.00  0.00     0.029 A 
ATOM     59  N   UNL A   1      45.864  33.255  27.294  1.00  0.00    -0.354 N 
ATOM     60  N   UNL A   1      45.335  36.673  27.441  1.00  0.00    -0.248 NA
ATOM     61  C   UNL A   1      46.094  38.826  27.383  1.00  0.00     0.031 C 
ATOM     62  C   UNL A   1      45.137  34.182  25.419  1.00  0.00     0.029 A 
ATOM     63  C   UNL A   1      46.049  34.338  26.449  1.00  0.00     0.049 A 
ATOM     64  H   UNL A   1      46.331  33.133  28.152  1.00  0.00     0.167 HD
ATOM     65  C   UNL A   1      46.606  36.588  26.988  1.00  0.00     0.074 A 
ATOM     66  C   UNL A   1      47.062  37.968  26.993  1.00  0.00     0.031 C 
ATOM     67  C   UNL A   1      47.090  35.351  26.678  1.00  0.00     0.037 A 
BRANCH  54  68
ATOM     68  C   UNL A   1      44.318  29.793  26.915  1.00  0.00     0.064 A 
ATOM     69  C   UNL A   1      45.429  29.087  26.405  1.00  0.00     0.173 A 
ATOM     70  C   UNL A   1      43.077  29.148  26.687  1.00  0.00     0.173 A 
ATOM     71  F   UNL A   1      46.672  29.574  26.514  1.00  0.00    -0.203 F 
ATOM     72  C   UNL A   1      45.305  27.860  25.740  1.00  0.00     0.198 A 
ATOM     73  C   UNL A   1      42.961  27.897  26.079  1.00  0.00     0.198 A 
ATOM     74  F   UNL A   1      41.898  29.708  26.967  1.00  0.00    -0.203 F 
ATOM     75  F   UNL A   1      46.392  27.272  25.224  1.00  0.00    -0.200 F 
ATOM     76  C   UNL A   1      44.074  27.255  25.596  1.00  0.00     0.200 A 
ATOM     77  F   UNL A   1      41.747  27.344  25.941  1.00  0.00    -0.200 F 
ATOM     78  F   UNL A   1      43.954  26.075  24.975  1.00  0.00    -0.200 F 
ENDBRANCH  54  68
BRANCH  55  79
ATOM     79  C   UNL A   1      43.282  39.353  29.106  1.00  0.00     0.064 A 
ATOM     80  C   UNL A   1      42.097  40.094  28.925  1.00  0.00     0.173 A 
ATOM     81  C   UNL A   1      44.011  39.661  30.257  1.00  0.00     0.173 A 
ATOM     82  F   UNL A   1      41.402  39.961  27.785  1.00  0.00    -0.203 F 
ATOM     83  C   UNL A   1      41.603  40.973  29.902  1.00  0.00     0.198 A 
ATOM     84  C   UNL A   1      43.507  40.513  31.260  1.00  0.00     0.198 A 
ATOM     85  F   UNL A   1      45.203  39.086  30.438  1.00  0.00    -0.203 F 
ATOM     86  F   UNL A   1      40.448  41.623  29.701  1.00  0.00    -0.200 F 
ATOM     87  C   UNL A   1      42.284  41.143  31.095  1.00  0.00     0.200 A 
ATOM     88  F   UNL A   1      44.165  40.652  32.421  1.00  0.00    -0.200 F 
ATOM     89  F   UNL A   1      41.753  41.878  32.085  1.00  0.00    -0.200 F 
ENDBRANCH  55  79
BRANCH  67  90
ATOM     90  C   UNL A   1      48.523  34.985  26.405  1.00  0.00     0.064 A 
ATOM     91  C   UNL A   1      49.251  35.398  25.280  1.00  0.00     0.173 A 
ATOM     92  C   UNL A   1      49.268  34.276  27.383  1.00  0.00     0.173 A 
ATOM     93  F   UNL A   1      48.707  36.174  24.337  1.00  0.00    -0.203 F 
ATOM     94  C   UNL A   1      50.601  35.073  25.116  1.00  0.00     0.198 A 
ATOM     95  C   UNL A   1      50.624  34.009  27.244  1.00  0.00     0.198 A 
ATOM     96  F   UNL A   1      48.713  33.843  28.523  1.00  0.00    -0.203 F 
ATOM     97  F   UNL A   1      51.242  35.454  24.003  1.00  0.00    -0.200 F 
ATOM     98  C   UNL A   1      51.288  34.390  26.102  1.00  0.00     0.200 A 
ATOM     99  F   UNL A   1      51.281  33.396  28.239  1.00  0.00    -0.200 F 
ATOM    100  F   UNL A   1      52.592  34.122  25.962  1.00  0.00    -0.200 F 
ENDBRANCH  67  90
ENDBRANCH  41  42
ENDBRANCH  34  36
ENDBRANCH  33  34
ENDBRANCH  32  33
ENDBRANCH  31  32
ENDBRANCH  30  31
ENDBRANCH  29  30
ENDBRANCH   1  29
TORSDOF 20
ENDMDL
