MODEL 1
REMARK VINA RESULT:      -9.8      0.000      0.000
REMARK SMILES COc1ccccc1NC(=O)[C@H](C)c1nc(CC(=O)OCCOCCOCCOC(=O)c2ccc(-c3c4nc(c(-c5c(F)c(F)c(F)c(F)c5F)c5ccc([nH]5)c(-c5c(F)c(F)c(F)c(F)c5F)c5nc(c(-c6c(F)c(F)c(F)c(F)c6F)c6ccc3[nH]6)C=C5)C=C4)cc2)cs1
REMARK SMILES IDX 23 1 22 2 21 3 20 4 18 5 19 6 17 7 16 8 14 9 15 10 96 11
REMARK SMILES IDX 95 12 12 13 13 14 10 15 9 16 11 18 8 19 3 20 4 21 5 22 7 23
REMARK SMILES IDX 6 24 2 25 1 26 24 27 25 28 26 29 27 30 28 31 29 32 30 33
REMARK SMILES IDX 31 34 32 35 33 36 94 37 34 38 93 39 35 40 36 41 37 42 87 43
REMARK SMILES IDX 38 44 92 45 86 46 88 47 39 48 91 49 85 50 84 51 40 53 72 54
REMARK SMILES IDX 52 55 71 56 53 57 56 58 70 59 89 60 54 61 55 62 69 64 90 65
REMARK SMILES IDX 57 66 41 67 42 68 50 69 43 70 44 71 48 72 51 73 45 74 46 75
REMARK SMILES IDX 49 76 47 77 73 78 74 79 82 80 75 81 76 82 80 83 83 84 77 85
REMARK SMILES IDX 78 86 81 87 79 88 58 89 59 90 67 91 60 92 61 93 65 94 68 95
REMARK SMILES IDX 62 96 63 97 66 98 64 99
REMARK H PARENT 9 17 88 52 56 63
REMARK Flexibility Score: inf
ROOT
ATOM      1  O   UNL A   1      32.171  33.472  27.839  1.00  0.00    -0.376 OA
ENDROOT
BRANCH   1   2
ATOM      2  C   UNL A   1      32.213  32.455  26.850  1.00  0.00     0.202 C 
BRANCH   2   3
ATOM      3  C   UNL A   1      32.875  31.131  27.247  1.00  0.00     0.261 C 
BRANCH   3   4
ATOM      4  O   UNL A   1      32.775  30.052  26.287  1.00  0.00    -0.463 OA
BRANCH   4   5
ATOM      5  C   UNL A   1      31.817  29.119  26.525  1.00  0.00     0.311 C 
ATOM      6  O   UNL A   1      31.493  28.754  27.653  1.00  0.00    -0.252 OA
BRANCH   5   7
ATOM      7  C   UNL A   1      31.211  28.457  25.303  1.00  0.00     0.179 C 
BRANCH   7   8
ATOM      8  C   UNL A   1      31.227  26.964  25.176  1.00  0.00     0.063 A 
ATOM      9  C   UNL A   1      32.232  25.021  24.633  1.00  0.00     0.105 A 
ATOM     10  N   UNL A   1      32.247  26.338  24.456  1.00  0.00    -0.245 NA
ATOM     11  S   UNL A   1      30.808  24.476  25.440  1.00  0.00    -0.126 S 
ATOM     12  C   UNL A   1      30.444  26.081  25.891  1.00  0.00     0.091 A 
BRANCH   9  13
ATOM     13  C   UNL A   1      33.374  24.102  24.168  1.00  0.00     0.135 C 
ATOM     14  C   UNL A   1      34.170  24.844  23.082  1.00  0.00     0.026 C 
BRANCH  13  15
ATOM     15  C   UNL A   1      34.383  23.717  25.251  1.00  0.00     0.234 C 
ATOM     16  N   UNL A   1      34.625  22.441  25.650  1.00  0.00    -0.322 N 
ATOM     17  H   UNL A   1      35.331  22.429  26.336  1.00  0.00     0.170 HD
ATOM     18  O   UNL A   1      35.142  24.536  25.785  1.00  0.00    -0.274 OA
BRANCH  16  19
ATOM     19  C   UNL A   1      34.182  21.135  25.390  1.00  0.00     0.083 A 
ATOM     20  C   UNL A   1      35.186  20.226  24.985  1.00  0.00     0.142 A 
ATOM     21  C   UNL A   1      34.884  18.923  24.587  1.00  0.00     0.048 A 
ATOM     22  C   UNL A   1      33.566  18.486  24.636  1.00  0.00     0.004 A 
ATOM     23  C   UNL A   1      32.871  20.675  25.459  1.00  0.00     0.030 A 
ATOM     24  C   UNL A   1      32.567  19.355  25.082  1.00  0.00     0.002 A 
BRANCH  20  25
ATOM     25  O   UNL A   1      36.492  20.643  24.846  1.00  0.00    -0.495 OA
ATOM     26  C   UNL A   1      37.407  19.554  24.999  1.00  0.00     0.278 C 
ENDBRANCH  20  25
ENDBRANCH  16  19
ENDBRANCH  13  15
ENDBRANCH   9  13
ENDBRANCH   7   8
ENDBRANCH   5   7
ENDBRANCH   4   5
ENDBRANCH   3   4
ENDBRANCH   2   3
ENDBRANCH   1   2
BRANCH   1  27
ATOM     27  C   UNL A   1      33.291  34.339  27.990  1.00  0.00     0.188 C 
BRANCH  27  28
ATOM     28  C   UNL A   1      34.330  34.055  29.084  1.00  0.00     0.188 C 
BRANCH  28  29
ATOM     29  O   UNL A   1      33.767  33.445  30.230  1.00  0.00    -0.376 OA
BRANCH  29  30
ATOM     30  C   UNL A   1      34.609  32.521  30.894  1.00  0.00     0.202 C 
BRANCH  30  31
ATOM     31  C   UNL A   1      34.604  32.793  32.399  1.00  0.00     0.261 C 
BRANCH  31  32
ATOM     32  O   UNL A   1      35.817  32.413  33.080  1.00  0.00    -0.460 OA
BRANCH  32  33
ATOM     33  C   UNL A   1      36.910  33.165  32.838  1.00  0.00     0.338 C 
ATOM     34  O   UNL A   1      37.149  34.281  33.286  1.00  0.00    -0.246 OA
BRANCH  33  35
ATOM     35  C   UNL A   1      37.875  32.358  32.066  1.00  0.00     0.060 A 
ATOM     36  C   UNL A   1      38.790  31.545  32.747  1.00  0.00     0.016 A 
ATOM     37  C   UNL A   1      37.901  32.428  30.672  1.00  0.00     0.016 A 
ATOM     38  C   UNL A   1      39.748  30.815  32.037  1.00  0.00     0.010 A 
ATOM     39  C   UNL A   1      38.872  31.713  29.964  1.00  0.00     0.010 A 
ATOM     40  C   UNL A   1      39.820  30.925  30.642  1.00  0.00    -0.014 A 
BRANCH  40  41
ATOM     41  C   UNL A   1      40.975  30.359  29.897  1.00  0.00     0.031 A 
ATOM     42  C   UNL A   1      42.156  31.249  29.615  1.00  0.00     0.074 A 
ATOM     43  C   UNL A   1      40.985  29.082  29.472  1.00  0.00     0.049 A 
ATOM     44  N   UNL A   1      43.222  31.018  28.889  1.00  0.00    -0.248 NA
ATOM     45  C   UNL A   1      42.126  32.583  30.232  1.00  0.00     0.031 C 
ATOM     46  C   UNL A   1      39.933  28.100  29.722  1.00  0.00     0.029 A 
ATOM     47  N   UNL A   1      41.913  28.400  28.723  1.00  0.00    -0.354 N 
ATOM     48  C   UNL A   1      43.978  32.182  28.951  1.00  0.00     0.074 A 
ATOM     49  C   UNL A   1      43.239  33.125  29.761  1.00  0.00     0.031 C 
ATOM     50  C   UNL A   1      40.268  26.943  29.125  1.00  0.00     0.029 A 
ATOM     51  C   UNL A   1      41.534  27.117  28.414  1.00  0.00     0.049 A 
ATOM     52  H   UNL A   1      42.768  28.793  28.435  1.00  0.00     0.167 HD
ATOM     53  C   UNL A   1      45.185  32.439  28.389  1.00  0.00     0.037 A 
ATOM     54  C   UNL A   1      42.125  26.200  27.620  1.00  0.00     0.037 A 
ATOM     55  C   UNL A   1      45.921  31.500  27.585  1.00  0.00     0.049 A 
ATOM     56  C   UNL A   1      43.425  26.541  26.933  1.00  0.00     0.074 A 
ATOM     57  C   UNL A   1      47.156  31.662  26.980  1.00  0.00     0.029 A 
ATOM     58  N   UNL A   1      45.488  30.220  27.268  1.00  0.00    -0.354 N 
ATOM     59  N   UNL A   1      44.138  27.638  26.999  1.00  0.00    -0.248 NA
ATOM     60  C   UNL A   1      44.001  25.510  26.055  1.00  0.00     0.031 C 
ATOM     61  C   UNL A   1      47.443  30.504  26.250  1.00  0.00     0.029 A 
ATOM     62  C   UNL A   1      46.420  29.594  26.454  1.00  0.00     0.049 A 
ATOM     63  H   UNL A   1      44.645  29.817  27.577  1.00  0.00     0.167 HD
ATOM     64  C   UNL A   1      45.259  27.419  26.206  1.00  0.00     0.074 A 
ATOM     65  C   UNL A   1      45.136  26.078  25.677  1.00  0.00     0.031 C 
ATOM     66  C   UNL A   1      46.295  28.252  25.943  1.00  0.00     0.037 A 
BRANCH  53  67
ATOM     67  C   UNL A   1      45.769  33.807  28.595  1.00  0.00     0.064 A 
ATOM     68  C   UNL A   1      45.483  34.873  27.728  1.00  0.00     0.173 A 
ATOM     69  C   UNL A   1      46.601  34.063  29.696  1.00  0.00     0.173 A 
ATOM     70  F   UNL A   1      44.705  34.679  26.654  1.00  0.00    -0.203 F 
ATOM     71  C   UNL A   1      46.032  36.135  27.940  1.00  0.00     0.198 A 
ATOM     72  C   UNL A   1      47.121  35.334  29.923  1.00  0.00     0.198 A 
ATOM     73  F   UNL A   1      46.902  33.081  30.560  1.00  0.00    -0.203 F 
ATOM     74  F   UNL A   1      45.788  37.125  27.070  1.00  0.00    -0.200 F 
ATOM     75  C   UNL A   1      46.843  36.367  29.040  1.00  0.00     0.200 A 
ATOM     76  F   UNL A   1      47.891  35.559  30.996  1.00  0.00    -0.200 F 
ATOM     77  F   UNL A   1      47.364  37.585  29.247  1.00  0.00    -0.200 F 
ENDBRANCH  53  67
BRANCH  54  78
ATOM     78  C   UNL A   1      41.488  24.871  27.410  1.00  0.00     0.064 A 
ATOM     79  C   UNL A   1      40.338  24.737  26.621  1.00  0.00     0.173 A 
ATOM     80  C   UNL A   1      41.996  23.715  28.023  1.00  0.00     0.173 A 
ATOM     81  F   UNL A   1      39.794  25.817  26.041  1.00  0.00    -0.203 F 
ATOM     82  C   UNL A   1      39.709  23.502  26.467  1.00  0.00     0.198 A 
ATOM     83  C   UNL A   1      41.385  22.476  27.842  1.00  0.00     0.198 A 
ATOM     84  F   UNL A   1      43.089  23.788  28.796  1.00  0.00    -0.203 F 
ATOM     85  F   UNL A   1      38.579  23.413  25.753  1.00  0.00    -0.200 F 
ATOM     86  C   UNL A   1      40.236  22.372  27.072  1.00  0.00     0.200 A 
ATOM     87  F   UNL A   1      41.904  21.384  28.422  1.00  0.00    -0.200 F 
ATOM     88  F   UNL A   1      39.631  21.186  26.924  1.00  0.00    -0.200 F 
ENDBRANCH  54  78
BRANCH  66  89
ATOM     89  C   UNL A   1      47.412  27.725  25.084  1.00  0.00     0.064 A 
ATOM     90  C   UNL A   1      47.433  27.915  23.695  1.00  0.00     0.173 A 
ATOM     91  C   UNL A   1      48.501  27.059  25.670  1.00  0.00     0.173 A 
ATOM     92  F   UNL A   1      46.412  28.534  23.082  1.00  0.00    -0.203 F 
ATOM     93  C   UNL A   1      48.487  27.434  22.921  1.00  0.00     0.198 A 
ATOM     94  C   UNL A   1      49.569  26.609  24.898  1.00  0.00     0.198 A 
ATOM     95  F   UNL A   1      48.537  26.858  26.996  1.00  0.00    -0.203 F 
ATOM     96  F   UNL A   1      48.460  27.581  21.589  1.00  0.00    -0.200 F 
ATOM     97  C   UNL A   1      49.557  26.788  23.524  1.00  0.00     0.200 A 
ATOM     98  F   UNL A   1      50.609  26.002  25.486  1.00  0.00    -0.200 F 
ATOM     99  F   UNL A   1      50.574  26.335  22.779  1.00  0.00    -0.200 F 
ENDBRANCH  66  89
ENDBRANCH  40  41
ENDBRANCH  33  35
ENDBRANCH  32  33
ENDBRANCH  31  32
ENDBRANCH  30  31
ENDBRANCH  29  30
ENDBRANCH  28  29
ENDBRANCH  27  28
ENDBRANCH   1  27
TORSDOF 22
ENDMDL
MODEL 2
REMARK VINA RESULT:      -8.9      4.834     10.249
REMARK SMILES COc1ccccc1NC(=O)[C@H](C)c1nc(CC(=O)OCCOCCOCCOC(=O)c2ccc(-c3c4nc(c(-c5c(F)c(F)c(F)c(F)c5F)c5ccc([nH]5)c(-c5c(F)c(F)c(F)c(F)c5F)c5nc(c(-c6c(F)c(F)c(F)c(F)c6F)c6ccc3[nH]6)C=C5)C=C4)cc2)cs1
REMARK SMILES IDX 23 1 22 2 21 3 20 4 18 5 19 6 17 7 16 8 14 9 15 10 96 11
REMARK SMILES IDX 95 12 12 13 13 14 10 15 9 16 11 18 8 19 3 20 4 21 5 22 7 23
REMARK SMILES IDX 6 24 2 25 1 26 24 27 25 28 26 29 27 30 28 31 29 32 30 33
REMARK SMILES IDX 31 34 32 35 33 36 94 37 34 38 93 39 35 40 36 41 37 42 87 43
REMARK SMILES IDX 38 44 92 45 86 46 88 47 39 48 91 49 85 50 84 51 40 53 72 54
REMARK SMILES IDX 52 55 71 56 53 57 56 58 70 59 89 60 54 61 55 62 69 64 90 65
REMARK SMILES IDX 57 66 41 67 42 68 50 69 43 70 44 71 48 72 51 73 45 74 46 75
REMARK SMILES IDX 49 76 47 77 73 78 74 79 82 80 75 81 76 82 80 83 83 84 77 85
REMARK SMILES IDX 78 86 81 87 79 88 58 89 59 90 67 91 60 92 61 93 65 94 68 95
REMARK SMILES IDX 62 96 63 97 66 98 64 99
REMARK H PARENT 9 17 88 52 56 63
REMARK Flexibility Score: inf
ROOT
ATOM      1  O   UNL A   1      39.155  33.170  30.657  1.00  0.00    -0.376 OA
ENDROOT
BRANCH   1   2
ATOM      2  C   UNL A   1      38.454  32.307  31.539  1.00  0.00     0.202 C 
BRANCH   2   3
ATOM      3  C   UNL A   1      38.954  32.242  32.987  1.00  0.00     0.261 C 
BRANCH   3   4
ATOM      4  O   UNL A   1      38.102  31.545  33.926  1.00  0.00    -0.463 OA
BRANCH   4   5
ATOM      5  C   UNL A   1      38.654  30.486  34.573  1.00  0.00     0.311 C 
ATOM      6  O   UNL A   1      38.394  30.194  35.739  1.00  0.00    -0.252 OA
BRANCH   5   7
ATOM      7  C   UNL A   1      39.707  29.711  33.808  1.00  0.00     0.179 C 
BRANCH   7   8
ATOM      8  C   UNL A   1      40.954  29.256  34.503  1.00  0.00     0.063 A 
ATOM      9  C   UNL A   1      42.503  27.696  35.000  1.00  0.00     0.105 A 
ATOM     10  N   UNL A   1      41.269  27.896  34.549  1.00  0.00    -0.245 NA
ATOM     11  S   UNL A   1      43.211  29.126  35.656  1.00  0.00    -0.126 S 
ATOM     12  C   UNL A   1      41.982  30.068  34.938  1.00  0.00     0.091 A 
BRANCH   9  13
ATOM     13  C   UNL A   1      43.208  26.330  34.928  1.00  0.00     0.135 C 
ATOM     14  C   UNL A   1      42.129  25.236  34.946  1.00  0.00     0.026 C 
BRANCH  13  15
ATOM     15  C   UNL A   1      44.040  26.091  33.667  1.00  0.00     0.234 C 
ATOM     16  N   UNL A   1      44.793  24.982  33.448  1.00  0.00    -0.322 N 
ATOM     17  H   UNL A   1      45.217  25.031  32.562  1.00  0.00     0.170 HD
ATOM     18  O   UNL A   1      44.012  26.850  32.690  1.00  0.00    -0.274 OA
BRANCH  16  19
ATOM     19  C   UNL A   1      45.155  23.789  34.092  1.00  0.00     0.083 A 
ATOM     20  C   UNL A   1      46.477  23.749  34.590  1.00  0.00     0.142 A 
ATOM     21  C   UNL A   1      47.016  22.593  35.158  1.00  0.00     0.048 A 
ATOM     22  C   UNL A   1      46.218  21.462  35.284  1.00  0.00     0.004 A 
ATOM     23  C   UNL A   1      44.361  22.657  34.250  1.00  0.00     0.030 A 
ATOM     24  C   UNL A   1      44.894  21.500  34.842  1.00  0.00     0.002 A 
BRANCH  20  25
ATOM     25  O   UNL A   1      47.324  24.820  34.412  1.00  0.00    -0.495 OA
ATOM     26  C   UNL A   1      48.691  24.443  34.601  1.00  0.00     0.278 C 
ENDBRANCH  20  25
ENDBRANCH  16  19
ENDBRANCH  13  15
ENDBRANCH   9  13
ENDBRANCH   7   8
ENDBRANCH   5   7
ENDBRANCH   4   5
ENDBRANCH   3   4
ENDBRANCH   2   3
ENDBRANCH   1   2
BRANCH   1  27
ATOM     27  C   UNL A   1      38.455  34.238  30.028  1.00  0.00     0.188 C 
BRANCH  27  28
ATOM     28  C   UNL A   1      37.002  34.033  29.576  1.00  0.00     0.188 C 
BRANCH  28  29
ATOM     29  O   UNL A   1      36.902  33.303  28.368  1.00  0.00    -0.376 OA
BRANCH  29  30
ATOM     30  C   UNL A   1      35.593  32.892  28.020  1.00  0.00     0.202 C 
BRANCH  30  31
ATOM     31  C   UNL A   1      34.922  32.211  29.213  1.00  0.00     0.261 C 
BRANCH  31  32
ATOM     32  O   UNL A   1      35.580  31.009  29.664  1.00  0.00    -0.460 OA
BRANCH  32  33
ATOM     33  C   UNL A   1      35.682  30.002  28.773  1.00  0.00     0.338 C 
ATOM     34  O   UNL A   1      34.808  29.604  28.010  1.00  0.00    -0.246 OA
BRANCH  33  35
ATOM     35  C   UNL A   1      37.085  29.547  28.735  1.00  0.00     0.060 A 
ATOM     36  C   UNL A   1      37.657  28.989  29.886  1.00  0.00     0.016 A 
ATOM     37  C   UNL A   1      37.849  29.699  27.577  1.00  0.00     0.016 A 
ATOM     38  C   UNL A   1      38.999  28.602  29.889  1.00  0.00     0.010 A 
ATOM     39  C   UNL A   1      39.197  29.330  27.586  1.00  0.00     0.010 A 
ATOM     40  C   UNL A   1      39.790  28.805  28.749  1.00  0.00    -0.014 A 
BRANCH  40  41
ATOM     41  C   UNL A   1      41.265  28.632  28.811  1.00  0.00     0.031 A 
ATOM     42  C   UNL A   1      41.862  27.348  28.300  1.00  0.00     0.074 A 
ATOM     43  C   UNL A   1      42.067  29.589  29.312  1.00  0.00     0.049 A 
ATOM     44  N   UNL A   1      43.099  26.922  28.354  1.00  0.00    -0.248 NA
ATOM     45  C   UNL A   1      40.933  26.417  27.643  1.00  0.00     0.031 C 
ATOM     46  C   UNL A   1      41.628  30.896  29.791  1.00  0.00     0.029 A 
ATOM     47  N   UNL A   1      43.426  29.595  29.515  1.00  0.00    -0.354 N 
ATOM     48  C   UNL A   1      43.092  25.670  27.754  1.00  0.00     0.074 A 
ATOM     49  C   UNL A   1      41.726  25.392  27.368  1.00  0.00     0.031 C 
ATOM     50  C   UNL A   1      42.695  31.575  30.245  1.00  0.00     0.029 A 
ATOM     51  C   UNL A   1      43.886  30.733  30.131  1.00  0.00     0.049 A 
ATOM     52  H   UNL A   1      44.016  28.854  29.244  1.00  0.00     0.167 HD
ATOM     53  C   UNL A   1      44.133  24.828  27.538  1.00  0.00     0.037 A 
ATOM     54  C   UNL A   1      45.118  31.045  30.580  1.00  0.00     0.037 A 
ATOM     55  C   UNL A   1      45.493  25.105  27.920  1.00  0.00     0.049 A 
ATOM     56  C   UNL A   1      46.244  30.054  30.408  1.00  0.00     0.074 A 
ATOM     57  C   UNL A   1      46.618  24.321  27.736  1.00  0.00     0.029 A 
ATOM     58  N   UNL A   1      45.912  26.256  28.571  1.00  0.00    -0.354 N 
ATOM     59  N   UNL A   1      46.234  28.875  29.835  1.00  0.00    -0.248 NA
ATOM     60  C   UNL A   1      47.556  30.440  30.949  1.00  0.00     0.031 C 
ATOM     61  C   UNL A   1      47.707  24.970  28.326  1.00  0.00     0.029 A 
ATOM     62  C   UNL A   1      47.274  26.189  28.819  1.00  0.00     0.049 A 
ATOM     63  H   UNL A   1      45.328  27.009  28.819  1.00  0.00     0.167 HD
ATOM     64  C   UNL A   1      47.537  28.397  29.914  1.00  0.00     0.074 A 
ATOM     65  C   UNL A   1      48.315  29.418  30.581  1.00  0.00     0.031 C 
ATOM     66  C   UNL A   1      48.042  27.219  29.472  1.00  0.00     0.037 A 
BRANCH  53  67
ATOM     67  C   UNL A   1      43.834  23.509  26.886  1.00  0.00     0.064 A 
ATOM     68  C   UNL A   1      44.234  23.225  25.571  1.00  0.00     0.173 A 
ATOM     69  C   UNL A   1      43.166  22.501  27.599  1.00  0.00     0.173 A 
ATOM     70  F   UNL A   1      44.863  24.157  24.841  1.00  0.00    -0.203 F 
ATOM     71  C   UNL A   1      43.951  21.993  24.986  1.00  0.00     0.198 A 
ATOM     72  C   UNL A   1      42.914  21.259  27.022  1.00  0.00     0.198 A 
ATOM     73  F   UNL A   1      42.766  22.717  28.861  1.00  0.00    -0.203 F 
ATOM     74  F   UNL A   1      44.296  21.763  23.711  1.00  0.00    -0.200 F 
ATOM     75  C   UNL A   1      43.298  21.009  25.713  1.00  0.00     0.200 A 
ATOM     76  F   UNL A   1      42.298  20.305  27.733  1.00  0.00    -0.200 F 
ATOM     77  F   UNL A   1      43.034  19.821  25.152  1.00  0.00    -0.200 F 
ENDBRANCH  53  67
BRANCH  54  78
ATOM     78  C   UNL A   1      45.360  32.347  31.259  1.00  0.00     0.064 A 
ATOM     79  C   UNL A   1      45.139  32.498  32.635  1.00  0.00     0.173 A 
ATOM     80  C   UNL A   1      45.782  33.477  30.540  1.00  0.00     0.173 A 
ATOM     81  F   UNL A   1      44.703  31.458  33.361  1.00  0.00    -0.203 F 
ATOM     82  C   UNL A   1      45.313  33.731  33.261  1.00  0.00     0.198 A 
ATOM     83  C   UNL A   1      45.986  34.700  31.174  1.00  0.00     0.198 A 
ATOM     84  F   UNL A   1      45.999  33.390  29.219  1.00  0.00    -0.203 F 
ATOM     85  F   UNL A   1      45.040  33.860  34.567  1.00  0.00    -0.200 F 
ATOM     86  C   UNL A   1      45.742  34.829  32.533  1.00  0.00     0.200 A 
ATOM     87  F   UNL A   1      46.409  35.757  30.466  1.00  0.00    -0.200 F 
ATOM     88  F   UNL A   1      45.908  36.014  33.136  1.00  0.00    -0.200 F 
ENDBRANCH  54  78
BRANCH  66  89
ATOM     89  C   UNL A   1      49.519  26.986  29.645  1.00  0.00     0.064 A 
ATOM     90  C   UNL A   1      50.449  27.368  28.668  1.00  0.00     0.173 A 
ATOM     91  C   UNL A   1      50.011  26.412  30.828  1.00  0.00     0.173 A 
ATOM     92  F   UNL A   1      50.033  27.910  27.512  1.00  0.00    -0.203 F 
ATOM     93  C   UNL A   1      51.814  27.159  28.856  1.00  0.00     0.198 A 
ATOM     94  C   UNL A   1      51.377  26.236  31.027  1.00  0.00     0.198 A 
ATOM     95  F   UNL A   1      49.165  26.036  31.800  1.00  0.00    -0.203 F 
ATOM     96  F   UNL A   1      52.680  27.485  27.887  1.00  0.00    -0.200 F 
ATOM     97  C   UNL A   1      52.277  26.600  30.038  1.00  0.00     0.200 A 
ATOM     98  F   UNL A   1      51.823  25.711  32.178  1.00  0.00    -0.200 F 
ATOM     99  F   UNL A   1      53.590  26.409  30.222  1.00  0.00    -0.200 F 
ENDBRANCH  66  89
ENDBRANCH  40  41
ENDBRANCH  33  35
ENDBRANCH  32  33
ENDBRANCH  31  32
ENDBRANCH  30  31
ENDBRANCH  29  30
ENDBRANCH  28  29
ENDBRANCH  27  28
ENDBRANCH   1  27
TORSDOF 22
ENDMDL
MODEL 3
REMARK VINA RESULT:      -8.8      5.974     11.924
REMARK SMILES COc1ccccc1NC(=O)[C@H](C)c1nc(CC(=O)OCCOCCOCCOC(=O)c2ccc(-c3c4nc(c(-c5c(F)c(F)c(F)c(F)c5F)c5ccc([nH]5)c(-c5c(F)c(F)c(F)c(F)c5F)c5nc(c(-c6c(F)c(F)c(F)c(F)c6F)c6ccc3[nH]6)C=C5)C=C4)cc2)cs1
REMARK SMILES IDX 23 1 22 2 21 3 20 4 18 5 19 6 17 7 16 8 14 9 15 10 96 11
REMARK SMILES IDX 95 12 12 13 13 14 10 15 9 16 11 18 8 19 3 20 4 21 5 22 7 23
REMARK SMILES IDX 6 24 2 25 1 26 24 27 25 28 26 29 27 30 28 31 29 32 30 33
REMARK SMILES IDX 31 34 32 35 33 36 94 37 34 38 93 39 35 40 36 41 37 42 87 43
REMARK SMILES IDX 38 44 92 45 86 46 88 47 39 48 91 49 85 50 84 51 40 53 72 54
REMARK SMILES IDX 52 55 71 56 53 57 56 58 70 59 89 60 54 61 55 62 69 64 90 65
REMARK SMILES IDX 57 66 41 67 42 68 50 69 43 70 44 71 48 72 51 73 45 74 46 75
REMARK SMILES IDX 49 76 47 77 73 78 74 79 82 80 75 81 76 82 80 83 83 84 77 85
REMARK SMILES IDX 78 86 81 87 79 88 58 89 59 90 67 91 60 92 61 93 65 94 68 95
REMARK SMILES IDX 62 96 63 97 66 98 64 99
REMARK H PARENT 9 17 88 52 56 63
REMARK Flexibility Score: inf
ROOT
ATOM      1  O   UNL A   1      46.835  26.561  27.411  1.00  0.00    -0.376 OA
ENDROOT
BRANCH   1   2
ATOM      2  C   UNL A   1      47.141  25.552  28.361  1.00  0.00     0.202 C 
BRANCH   2   3
ATOM      3  C   UNL A   1      46.099  25.293  29.455  1.00  0.00     0.261 C 
BRANCH   3   4
ATOM      4  O   UNL A   1      46.413  25.808  30.771  1.00  0.00    -0.463 OA
BRANCH   4   5
ATOM      5  C   UNL A   1      45.390  25.850  31.664  1.00  0.00     0.311 C 
ATOM      6  O   UNL A   1      44.251  26.209  31.371  1.00  0.00    -0.252 OA
BRANCH   5   7
ATOM      7  C   UNL A   1      45.741  25.516  33.099  1.00  0.00     0.179 C 
BRANCH   7   8
ATOM      8  C   UNL A   1      44.713  24.898  33.997  1.00  0.00     0.063 A 
ATOM      9  C   UNL A   1      43.453  24.876  35.866  1.00  0.00     0.105 A 
ATOM     10  N   UNL A   1      44.543  25.381  35.297  1.00  0.00    -0.245 NA
ATOM     11  S   UNL A   1      42.764  23.583  34.954  1.00  0.00    -0.126 S 
ATOM     12  C   UNL A   1      43.725  24.014  33.611  1.00  0.00     0.091 A 
BRANCH   9  13
ATOM     13  C   UNL A   1      42.880  25.408  37.191  1.00  0.00     0.135 C 
ATOM     14  C   UNL A   1      43.953  26.283  37.857  1.00  0.00     0.026 C 
BRANCH  13  15
ATOM     15  C   UNL A   1      41.634  26.285  37.056  1.00  0.00     0.234 C 
ATOM     16  N   UNL A   1      41.540  27.356  36.224  1.00  0.00    -0.322 N 
ATOM     17  H   UNL A   1      40.641  27.751  36.282  1.00  0.00     0.170 HD
ATOM     18  O   UNL A   1      40.565  26.027  37.624  1.00  0.00    -0.274 OA
BRANCH  16  19
ATOM     19  C   UNL A   1      42.325  28.073  35.309  1.00  0.00     0.083 A 
ATOM     20  C   UNL A   1      41.806  28.149  33.996  1.00  0.00     0.142 A 
ATOM     21  C   UNL A   1      42.524  28.734  32.953  1.00  0.00     0.048 A 
ATOM     22  C   UNL A   1      43.763  29.305  33.216  1.00  0.00     0.004 A 
ATOM     23  C   UNL A   1      43.555  28.673  35.563  1.00  0.00     0.030 A 
ATOM     24  C   UNL A   1      44.269  29.284  34.518  1.00  0.00     0.002 A 
BRANCH  20  25
ATOM     25  O   UNL A   1      40.620  27.526  33.678  1.00  0.00    -0.495 OA
ATOM     26  C   UNL A   1      39.880  28.275  32.708  1.00  0.00     0.278 C 
ENDBRANCH  20  25
ENDBRANCH  16  19
ENDBRANCH  13  15
ENDBRANCH   9  13
ENDBRANCH   7   8
ENDBRANCH   5   7
ENDBRANCH   4   5
ENDBRANCH   3   4
ENDBRANCH   2   3
ENDBRANCH   1   2
BRANCH   1  27
ATOM     27  C   UNL A   1      46.480  26.182  26.085  1.00  0.00     0.188 C 
BRANCH  27  28
ATOM     28  C   UNL A   1      46.336  24.695  25.733  1.00  0.00     0.188 C 
BRANCH  28  29
ATOM     29  O   UNL A   1      45.514  24.477  24.602  1.00  0.00    -0.376 OA
BRANCH  29  30
ATOM     30  C   UNL A   1      45.014  23.160  24.466  1.00  0.00     0.202 C 
BRANCH  30  31
ATOM     31  C   UNL A   1      43.830  22.947  25.410  1.00  0.00     0.261 C 
BRANCH  31  32
ATOM     32  O   UNL A   1      42.709  23.823  25.171  1.00  0.00    -0.460 OA
BRANCH  32  33
ATOM     33  C   UNL A   1      41.695  23.764  26.057  1.00  0.00     0.338 C 
ATOM     34  O   UNL A   1      41.033  22.776  26.353  1.00  0.00    -0.246 OA
BRANCH  33  35
ATOM     35  C   UNL A   1      41.604  25.062  26.756  1.00  0.00     0.060 A 
ATOM     36  C   UNL A   1      41.710  26.247  26.018  1.00  0.00     0.016 A 
ATOM     37  C   UNL A   1      41.447  25.111  28.142  1.00  0.00     0.016 A 
ATOM     38  C   UNL A   1      41.682  27.485  26.666  1.00  0.00     0.010 A 
ATOM     39  C   UNL A   1      41.438  26.349  28.792  1.00  0.00     0.010 A 
ATOM     40  C   UNL A   1      41.584  27.543  28.063  1.00  0.00    -0.014 A 
BRANCH  40  41
ATOM     41  C   UNL A   1      41.800  28.825  28.784  1.00  0.00     0.031 A 
ATOM     42  C   UNL A   1      43.200  29.192  29.197  1.00  0.00     0.074 A 
ATOM     43  C   UNL A   1      40.779  29.652  29.074  1.00  0.00     0.049 A 
ATOM     44  N   UNL A   1      43.619  30.192  29.931  1.00  0.00    -0.248 NA
ATOM     45  C   UNL A   1      44.271  28.304  28.721  1.00  0.00     0.031 C 
ATOM     46  C   UNL A   1      39.387  29.445  28.687  1.00  0.00     0.029 A 
ATOM     47  N   UNL A   1      40.762  30.831  29.780  1.00  0.00    -0.354 N 
ATOM     48  C   UNL A   1      44.998  30.044  30.017  1.00  0.00     0.074 A 
ATOM     49  C   UNL A   1      45.341  28.845  29.285  1.00  0.00     0.031 C 
ATOM     50  C   UNL A   1      38.645  30.456  29.172  1.00  0.00     0.029 A 
ATOM     51  C   UNL A   1      39.503  31.357  29.941  1.00  0.00     0.049 A 
ATOM     52  H   UNL A   1      41.574  31.258  30.136  1.00  0.00     0.167 HD
ATOM     53  C   UNL A   1      45.898  30.840  30.645  1.00  0.00     0.037 A 
ATOM     54  C   UNL A   1      39.088  32.423  30.654  1.00  0.00     0.037 A 
ATOM     55  C   UNL A   1      45.557  32.034  31.371  1.00  0.00     0.049 A 
ATOM     56  C   UNL A   1      40.099  33.245  31.418  1.00  0.00     0.074 A 
ATOM     57  C   UNL A   1      46.397  32.913  32.032  1.00  0.00     0.029 A 
ATOM     58  N   UNL A   1      44.266  32.516  31.538  1.00  0.00    -0.354 N 
ATOM     59  N   UNL A   1      41.400  33.104  31.491  1.00  0.00    -0.248 NA
ATOM     60  C   UNL A   1      39.578  34.374  32.203  1.00  0.00     0.031 C 
ATOM     61  C   UNL A   1      45.612  33.893  32.647  1.00  0.00     0.029 A 
ATOM     62  C   UNL A   1      44.287  33.665  32.315  1.00  0.00     0.049 A 
ATOM     63  H   UNL A   1      43.456  32.103  31.160  1.00  0.00     0.167 HD
ATOM     64  C   UNL A   1      41.856  34.143  32.295  1.00  0.00     0.074 A 
ATOM     65  C   UNL A   1      40.692  34.913  32.678  1.00  0.00     0.031 C 
ATOM     66  C   UNL A   1      43.124  34.433  32.679  1.00  0.00     0.037 A 
BRANCH  53  67
ATOM     67  C   UNL A   1      47.340  30.424  30.601  1.00  0.00     0.064 A 
ATOM     68  C   UNL A   1      47.877  29.512  31.524  1.00  0.00     0.173 A 
ATOM     69  C   UNL A   1      48.192  30.920  29.601  1.00  0.00     0.173 A 
ATOM     70  F   UNL A   1      47.111  29.018  32.508  1.00  0.00    -0.203 F 
ATOM     71  C   UNL A   1      49.216  29.136  31.464  1.00  0.00     0.198 A 
ATOM     72  C   UNL A   1      49.521  30.517  29.525  1.00  0.00     0.198 A 
ATOM     73  F   UNL A   1      47.730  31.790  28.691  1.00  0.00    -0.203 F 
ATOM     74  F   UNL A   1      49.719  28.305  32.387  1.00  0.00    -0.200 F 
ATOM     75  C   UNL A   1      50.035  29.632  30.461  1.00  0.00     0.200 A 
ATOM     76  F   UNL A   1      50.306  30.984  28.545  1.00  0.00    -0.200 F 
ATOM     77  F   UNL A   1      51.322  29.262  30.400  1.00  0.00    -0.200 F 
ENDBRANCH  53  67
BRANCH  54  78
ATOM     78  C   UNL A   1      37.643  32.774  30.703  1.00  0.00     0.064 A 
ATOM     79  C   UNL A   1      37.055  33.557  29.700  1.00  0.00     0.173 A 
ATOM     80  C   UNL A   1      36.829  32.365  31.771  1.00  0.00     0.173 A 
ATOM     81  F   UNL A   1      37.797  34.002  28.675  1.00  0.00    -0.203 F 
ATOM     82  C   UNL A   1      35.714  33.932  29.772  1.00  0.00     0.198 A 
ATOM     83  C   UNL A   1      35.482  32.714  31.825  1.00  0.00     0.198 A 
ATOM     84  F   UNL A   1      37.343  31.623  32.762  1.00  0.00    -0.203 F 
ATOM     85  F   UNL A   1      35.193  34.728  28.828  1.00  0.00    -0.200 F 
ATOM     86  C   UNL A   1      34.927  33.506  30.830  1.00  0.00     0.200 A 
ATOM     87  F   UNL A   1      34.722  32.292  32.846  1.00  0.00    -0.200 F 
ATOM     88  F   UNL A   1      33.639  33.868  30.899  1.00  0.00    -0.200 F 
ENDBRANCH  54  78
BRANCH  66  89
ATOM     89  C   UNL A   1      43.333  35.665  33.516  1.00  0.00     0.064 A 
ATOM     90  C   UNL A   1      43.340  35.617  34.917  1.00  0.00     0.173 A 
ATOM     91  C   UNL A   1      43.576  36.904  32.903  1.00  0.00     0.173 A 
ATOM     92  F   UNL A   1      43.101  34.460  35.556  1.00  0.00    -0.203 F 
ATOM     93  C   UNL A   1      43.555  36.768  35.673  1.00  0.00     0.198 A 
ATOM     94  C   UNL A   1      43.824  38.045  33.661  1.00  0.00     0.198 A 
ATOM     95  F   UNL A   1      43.590  37.005  31.565  1.00  0.00    -0.203 F 
ATOM     96  F   UNL A   1      43.506  36.707  37.012  1.00  0.00    -0.200 F 
ATOM     97  C   UNL A   1      43.804  37.979  35.045  1.00  0.00     0.200 A 
ATOM     98  F   UNL A   1      44.082  39.211  33.050  1.00  0.00    -0.200 F 
ATOM     99  F   UNL A   1      44.019  39.082  35.773  1.00  0.00    -0.200 F 
ENDBRANCH  66  89
ENDBRANCH  40  41
ENDBRANCH  33  35
ENDBRANCH  32  33
ENDBRANCH  31  32
ENDBRANCH  30  31
ENDBRANCH  29  30
ENDBRANCH  28  29
ENDBRANCH  27  28
ENDBRANCH   1  27
TORSDOF 22
ENDMDL
