MODEL 1
REMARK VINA RESULT:      -8.1      0.000      0.000
REMARK SMILES CC#CC[C@](CC)(CCCC)C(=O)OCCOCCOCCOC(=O)c1ccc(-c2c3nc(c(-c4c(F)c(F)c(F)c(F)c4F)c4ccc([nH]4)c(-c4c(F)c(F)c(F)c(F)c4F)c4nc(c(-c5c(F)c(F)c(F)c(F)c5F)c5ccc2[nH]5)C=C4)C=C3)cc1
REMARK SMILES IDX 18 1 17 2 16 3 15 4 14 5 12 6 13 7 5 8 4 9 3 10 1 11 2 12
REMARK SMILES IDX 8 13 9 14 10 15 11 16 6 17 7 18 19 19 20 20 21 21 22 22
REMARK SMILES IDX 23 23 24 24 25 25 26 26 27 27 88 28 28 29 87 30 29 31 30 32
REMARK SMILES IDX 31 33 81 34 32 35 86 36 80 37 82 38 33 39 85 40 79 41 78 42
REMARK SMILES IDX 34 44 66 45 46 46 65 47 47 48 50 49 64 50 83 51 48 52 49 53
REMARK SMILES IDX 63 55 84 56 51 57 35 58 36 59 44 60 37 61 38 62 42 63 45 64
REMARK SMILES IDX 39 65 40 66 43 67 41 68 67 69 68 70 76 71 69 72 70 73 74 74
REMARK SMILES IDX 77 75 71 76 72 77 75 78 73 79 52 80 53 81 61 82 54 83 55 84
REMARK SMILES IDX 59 85 62 86 56 87 57 88 60 89 58 90
REMARK H PARENT 82 43 50 54
REMARK Flexibility Score: inf
ROOT
ATOM      1  C   UNL A   1      43.815  18.445  25.209  1.00  0.00     0.188 C 
ENDROOT
BRANCH   1   2
ATOM      2  O   UNL A   1      44.361  19.713  24.881  1.00  0.00    -0.376 OA
BRANCH   2   3
ATOM      3  C   UNL A   1      45.777  19.844  25.039  1.00  0.00     0.202 C 
BRANCH   3   4
ATOM      4  C   UNL A   1      46.405  21.175  24.585  1.00  0.00     0.261 C 
BRANCH   4   5
ATOM      5  O   UNL A   1      46.303  22.265  25.544  1.00  0.00    -0.463 OA
BRANCH   5   6
ATOM      6  C   UNL A   1      45.772  23.425  25.072  1.00  0.00     0.313 C 
ATOM      7  O   UNL A   1      45.580  23.626  23.874  1.00  0.00    -0.252 OA
BRANCH   6   8
ATOM      8  C   UNL A   1      45.485  24.513  26.135  1.00  0.00     0.079 C 
BRANCH   8   9
ATOM      9  C   UNL A   1      46.848  24.530  26.938  1.00  0.00     0.108 C 
BRANCH   9  10
ATOM     10  C   UNL A   1      47.965  25.181  26.237  1.00  0.00    -0.102 C 
ATOM     11  C   UNL A   1      50.079  26.564  25.430  1.00  0.00     0.107 C 
ATOM     12  C   UNL A   1      48.913  25.770  25.806  1.00  0.00    -0.107 C 
ENDBRANCH   9  10
ENDBRANCH   8   9
BRANCH   8  13
ATOM     13  C   UNL A   1      44.430  24.213  27.260  1.00  0.00     0.020 C 
BRANCH  13  14
ATOM     14  C   UNL A   1      44.855  23.678  28.632  1.00  0.00     0.001 C 
BRANCH  14  15
ATOM     15  C   UNL A   1      43.711  23.142  29.465  1.00  0.00    -0.003 C 
ATOM     16  C   UNL A   1      42.360  23.158  28.770  1.00  0.00     0.004 C 
ENDBRANCH  14  15
ENDBRANCH  13  14
ENDBRANCH   8  13
BRANCH   8  17
ATOM     17  C   UNL A   1      45.156  25.897  25.459  1.00  0.00     0.016 C 
ATOM     18  C   UNL A   1      43.689  26.311  25.375  1.00  0.00     0.005 C 
ENDBRANCH   8  17
ENDBRANCH   6   8
ENDBRANCH   5   6
ENDBRANCH   4   5
ENDBRANCH   3   4
ENDBRANCH   2   3
ENDBRANCH   1   2
BRANCH   1  19
ATOM     19  C   UNL A   1      42.739  18.454  26.291  1.00  0.00     0.188 C 
BRANCH  19  20
ATOM     20  O   UNL A   1      42.380  19.766  26.715  1.00  0.00    -0.376 OA
BRANCH  20  21
ATOM     21  C   UNL A   1      40.980  19.961  26.891  1.00  0.00     0.202 C 
BRANCH  21  22
ATOM     22  C   UNL A   1      40.463  21.181  26.125  1.00  0.00     0.261 C 
BRANCH  22  23
ATOM     23  O   UNL A   1      39.651  22.006  26.978  1.00  0.00    -0.460 OA
BRANCH  23  24
ATOM     24  C   UNL A   1      38.966  22.993  26.346  1.00  0.00     0.338 C 
ATOM     25  O   UNL A   1      38.104  22.868  25.494  1.00  0.00    -0.246 OA
BRANCH  24  26
ATOM     26  C   UNL A   1      39.316  24.296  26.960  1.00  0.00     0.060 A 
ATOM     27  C   UNL A   1      40.026  25.232  26.192  1.00  0.00     0.016 A 
ATOM     28  C   UNL A   1      38.918  24.617  28.259  1.00  0.00     0.016 A 
ATOM     29  C   UNL A   1      40.365  26.475  26.731  1.00  0.00     0.010 A 
ATOM     30  C   UNL A   1      39.265  25.856  28.801  1.00  0.00     0.010 A 
ATOM     31  C   UNL A   1      40.017  26.780  28.053  1.00  0.00    -0.014 A 
BRANCH  31  32
ATOM     32  C   UNL A   1      40.590  27.963  28.740  1.00  0.00     0.031 A 
ATOM     33  C   UNL A   1      39.679  29.124  29.026  1.00  0.00     0.074 A 
ATOM     34  C   UNL A   1      41.891  28.034  29.070  1.00  0.00     0.049 A 
ATOM     35  N   UNL A   1      39.961  30.317  29.483  1.00  0.00    -0.248 NA
ATOM     36  C   UNL A   1      38.251  28.906  28.744  1.00  0.00     0.031 C 
ATOM     37  C   UNL A   1      42.870  26.969  28.885  1.00  0.00     0.029 A 
ATOM     38  N   UNL A   1      42.614  29.071  29.612  1.00  0.00    -0.354 N 
ATOM     39  C   UNL A   1      38.749  30.994  29.535  1.00  0.00     0.074 A 
ATOM     40  C   UNL A   1      37.738  30.093  29.022  1.00  0.00     0.031 C 
ATOM     41  C   UNL A   1      44.076  27.414  29.282  1.00  0.00     0.029 A 
ATOM     42  C   UNL A   1      43.958  28.809  29.706  1.00  0.00     0.049 A 
ATOM     43  H   UNL A   1      42.206  29.918  29.903  1.00  0.00     0.167 HD
ATOM     44  C   UNL A   1      38.499  32.249  29.977  1.00  0.00     0.037 A 
ATOM     45  C   UNL A   1      44.979  29.618  30.056  1.00  0.00     0.037 A 
ATOM     46  C   UNL A   1      39.510  33.149  30.466  1.00  0.00     0.049 A 
ATOM     47  C   UNL A   1      44.694  31.048  30.450  1.00  0.00     0.074 A 
ATOM     48  C   UNL A   1      39.360  34.438  30.944  1.00  0.00     0.029 A 
ATOM     49  N   UNL A   1      40.866  32.858  30.522  1.00  0.00    -0.354 N 
ATOM     50  N   UNL A   1      43.545  31.677  30.524  1.00  0.00    -0.248 NA
ATOM     51  C   UNL A   1      45.852  31.882  30.808  1.00  0.00     0.031 C 
ATOM     52  C   UNL A   1      40.630  34.953  31.221  1.00  0.00     0.029 A 
ATOM     53  C   UNL A   1      41.567  33.960  30.990  1.00  0.00     0.049 A 
ATOM     54  H   UNL A   1      41.270  31.997  30.268  1.00  0.00     0.167 HD
ATOM     55  C   UNL A   1      43.839  32.966  30.958  1.00  0.00     0.074 A 
ATOM     56  C   UNL A   1      45.272  33.023  31.152  1.00  0.00     0.031 C 
ATOM     57  C   UNL A   1      42.997  34.008  31.176  1.00  0.00     0.037 A 
BRANCH  44  58
ATOM     58  C   UNL A   1      37.076  32.730  29.912  1.00  0.00     0.064 A 
ATOM     59  C   UNL A   1      36.541  33.306  28.749  1.00  0.00     0.173 A 
ATOM     60  C   UNL A   1      36.236  32.614  31.030  1.00  0.00     0.173 A 
ATOM     61  F   UNL A   1      37.303  33.453  27.655  1.00  0.00    -0.203 F 
ATOM     62  C   UNL A   1      35.235  33.789  28.723  1.00  0.00     0.198 A 
ATOM     63  C   UNL A   1      34.918  33.061  30.988  1.00  0.00     0.198 A 
ATOM     64  F   UNL A   1      36.692  32.067  32.167  1.00  0.00    -0.203 F 
ATOM     65  F   UNL A   1      34.771  34.401  27.625  1.00  0.00    -0.200 F 
ATOM     66  C   UNL A   1      34.423  33.660  29.839  1.00  0.00     0.200 A 
ATOM     67  F   UNL A   1      34.130  32.920  32.062  1.00  0.00    -0.200 F 
ATOM     68  F   UNL A   1      33.166  34.126  29.814  1.00  0.00    -0.200 F 
ENDBRANCH  44  58
BRANCH  45  69
ATOM     69  C   UNL A   1      46.376  29.107  30.019  1.00  0.00     0.064 A 
ATOM     70  C   UNL A   1      47.136  29.150  28.840  1.00  0.00     0.173 A 
ATOM     71  C   UNL A   1      46.975  28.544  31.157  1.00  0.00     0.173 A 
ATOM     72  F   UNL A   1      46.600  29.648  27.716  1.00  0.00    -0.203 F 
ATOM     73  C   UNL A   1      48.431  28.636  28.798  1.00  0.00     0.198 A 
ATOM     74  C   UNL A   1      48.282  28.063  31.123  1.00  0.00     0.198 A 
ATOM     75  F   UNL A   1      46.291  28.469  32.308  1.00  0.00    -0.203 F 
ATOM     76  F   UNL A   1      49.114  28.642  27.644  1.00  0.00    -0.200 F 
ATOM     77  C   UNL A   1      49.006  28.102  29.941  1.00  0.00     0.200 A 
ATOM     78  F   UNL A   1      48.837  27.558  32.232  1.00  0.00    -0.200 F 
ATOM     79  F   UNL A   1      50.253  27.614  29.900  1.00  0.00    -0.200 F 
ENDBRANCH  45  69
BRANCH  57  80
ATOM     80  C   UNL A   1      43.594  35.297  31.674  1.00  0.00     0.064 A 
ATOM     81  C   UNL A   1      43.776  35.548  33.042  1.00  0.00     0.173 A 
ATOM     82  C   UNL A   1      44.039  36.273  30.767  1.00  0.00     0.173 A 
ATOM     83  F   UNL A   1      43.360  34.656  33.955  1.00  0.00    -0.203 F 
ATOM     84  C   UNL A   1      44.352  36.738  33.483  1.00  0.00     0.198 A 
ATOM     85  C   UNL A   1      44.650  37.443  31.210  1.00  0.00     0.198 A 
ATOM     86  F   UNL A   1      43.900  36.082  29.446  1.00  0.00    -0.203 F 
ATOM     87  F   UNL A   1      44.467  36.978  34.797  1.00  0.00    -0.200 F 
ATOM     88  C   UNL A   1      44.797  37.679  32.567  1.00  0.00     0.200 A 
ATOM     89  F   UNL A   1      45.098  38.340  30.321  1.00  0.00    -0.200 F 
ATOM     90  F   UNL A   1      45.365  38.815  32.994  1.00  0.00    -0.200 F 
ENDBRANCH  57  80
ENDBRANCH  31  32
ENDBRANCH  24  26
ENDBRANCH  23  24
ENDBRANCH  22  23
ENDBRANCH  21  22
ENDBRANCH  20  21
ENDBRANCH  19  20
ENDBRANCH   1  19
TORSDOF 23
ENDMDL
MODEL 2
REMARK VINA RESULT:      -8.0      6.179     11.360
REMARK SMILES CC#CC[C@](CC)(CCCC)C(=O)OCCOCCOCCOC(=O)c1ccc(-c2c3nc(c(-c4c(F)c(F)c(F)c(F)c4F)c4ccc([nH]4)c(-c4c(F)c(F)c(F)c(F)c4F)c4nc(c(-c5c(F)c(F)c(F)c(F)c5F)c5ccc2[nH]5)C=C4)C=C3)cc1
REMARK SMILES IDX 18 1 17 2 16 3 15 4 14 5 12 6 13 7 5 8 4 9 3 10 1 11 2 12
REMARK SMILES IDX 8 13 9 14 10 15 11 16 6 17 7 18 19 19 20 20 21 21 22 22
REMARK SMILES IDX 23 23 24 24 25 25 26 26 27 27 88 28 28 29 87 30 29 31 30 32
REMARK SMILES IDX 31 33 81 34 32 35 86 36 80 37 82 38 33 39 85 40 79 41 78 42
REMARK SMILES IDX 34 44 66 45 46 46 65 47 47 48 50 49 64 50 83 51 48 52 49 53
REMARK SMILES IDX 63 55 84 56 51 57 35 58 36 59 44 60 37 61 38 62 42 63 45 64
REMARK SMILES IDX 39 65 40 66 43 67 41 68 67 69 68 70 76 71 69 72 70 73 74 74
REMARK SMILES IDX 77 75 71 76 72 77 75 78 73 79 52 80 53 81 61 82 54 83 55 84
REMARK SMILES IDX 59 85 62 86 56 87 57 88 60 89 58 90
REMARK H PARENT 82 43 50 54
REMARK Flexibility Score: inf
ROOT
ATOM      1  C   UNL A   1      34.573  31.933  28.236  1.00  0.00     0.188 C 
ENDROOT
BRANCH   1   2
ATOM      2  O   UNL A   1      35.333  30.777  28.551  1.00  0.00    -0.376 OA
BRANCH   2   3
ATOM      3  C   UNL A   1      35.312  29.730  27.575  1.00  0.00     0.202 C 
BRANCH   3   4
ATOM      4  C   UNL A   1      33.947  29.074  27.293  1.00  0.00     0.261 C 
BRANCH   4   5
ATOM      5  O   UNL A   1      33.687  28.766  25.895  1.00  0.00    -0.463 OA
BRANCH   5   6
ATOM      6  C   UNL A   1      32.470  29.143  25.419  1.00  0.00     0.313 C 
ATOM      7  O   UNL A   1      31.832  30.077  25.899  1.00  0.00    -0.252 OA
BRANCH   6   8
ATOM      8  C   UNL A   1      31.899  28.274  24.273  1.00  0.00     0.079 C 
BRANCH   8   9
ATOM      9  C   UNL A   1      33.223  27.823  23.535  1.00  0.00     0.108 C 
BRANCH   9  10
ATOM     10  C   UNL A   1      33.415  26.367  23.452  1.00  0.00    -0.102 C 
ATOM     11  C   UNL A   1      34.243  23.862  23.181  1.00  0.00     0.107 C 
ATOM     12  C   UNL A   1      33.720  25.214  23.355  1.00  0.00    -0.107 C 
ENDBRANCH   9  10
ENDBRANCH   8   9
BRANCH   8  13
ATOM     13  C   UNL A   1      31.089  28.974  23.122  1.00  0.00     0.020 C 
BRANCH  13  14
ATOM     14  C   UNL A   1      29.563  28.860  23.034  1.00  0.00     0.001 C 
BRANCH  14  15
ATOM     15  C   UNL A   1      28.886  30.086  22.463  1.00  0.00    -0.003 C 
ATOM     16  C   UNL A   1      28.214  30.977  23.494  1.00  0.00     0.004 C 
ENDBRANCH  14  15
ENDBRANCH  13  14
ENDBRANCH   8  13
BRANCH   8  17
ATOM     17  C   UNL A   1      31.069  27.060  24.837  1.00  0.00     0.016 C 
ATOM     18  C   UNL A   1      31.104  26.819  26.344  1.00  0.00     0.005 C 
ENDBRANCH   8  17
ENDBRANCH   6   8
ENDBRANCH   5   6
ENDBRANCH   4   5
ENDBRANCH   3   4
ENDBRANCH   2   3
ENDBRANCH   1   2
BRANCH   1  19
ATOM     19  C   UNL A   1      35.197  33.262  28.652  1.00  0.00     0.188 C 
BRANCH  19  20
ATOM     20  O   UNL A   1      34.589  34.388  28.025  1.00  0.00    -0.376 OA
BRANCH  20  21
ATOM     21  C   UNL A   1      33.225  34.590  28.382  1.00  0.00     0.202 C 
BRANCH  21  22
ATOM     22  C   UNL A   1      33.057  35.701  29.421  1.00  0.00     0.261 C 
BRANCH  22  23
ATOM     23  O   UNL A   1      32.361  35.208  30.580  1.00  0.00    -0.460 OA
BRANCH  23  24
ATOM     24  C   UNL A   1      32.720  35.780  31.757  1.00  0.00     0.338 C 
ATOM     25  O   UNL A   1      32.148  36.679  32.348  1.00  0.00    -0.246 OA
BRANCH  24  26
ATOM     26  C   UNL A   1      33.867  35.036  32.328  1.00  0.00     0.060 A 
ATOM     27  C   UNL A   1      35.140  35.626  32.286  1.00  0.00     0.016 A 
ATOM     28  C   UNL A   1      33.695  33.791  32.937  1.00  0.00     0.016 A 
ATOM     29  C   UNL A   1      36.245  34.962  32.824  1.00  0.00     0.010 A 
ATOM     30  C   UNL A   1      34.800  33.123  33.466  1.00  0.00     0.010 A 
ATOM     31  C   UNL A   1      36.086  33.688  33.385  1.00  0.00    -0.014 A 
BRANCH  31  32
ATOM     32  C   UNL A   1      37.263  32.847  33.713  1.00  0.00     0.031 A 
ATOM     33  C   UNL A   1      38.000  33.131  34.992  1.00  0.00     0.074 A 
ATOM     34  C   UNL A   1      37.699  31.879  32.888  1.00  0.00     0.049 A 
ATOM     35  N   UNL A   1      39.129  32.640  35.435  1.00  0.00    -0.248 NA
ATOM     36  C   UNL A   1      37.377  34.119  35.888  1.00  0.00     0.031 C 
ATOM     37  C   UNL A   1      37.056  31.477  31.643  1.00  0.00     0.029 A 
ATOM     38  N   UNL A   1      38.812  31.076  32.973  1.00  0.00    -0.354 N 
ATOM     39  C   UNL A   1      39.356  33.264  36.655  1.00  0.00     0.074 A 
ATOM     40  C   UNL A   1      38.271  34.201  36.860  1.00  0.00     0.031 C 
ATOM     41  C   UNL A   1      37.799  30.518  31.061  1.00  0.00     0.029 A 
ATOM     42  C   UNL A   1      38.991  30.273  31.874  1.00  0.00     0.049 A 
ATOM     43  H   UNL A   1      39.420  31.078  33.746  1.00  0.00     0.167 HD
ATOM     44  C   UNL A   1      40.371  33.070  37.529  1.00  0.00     0.037 A 
ATOM     45  C   UNL A   1      40.020  29.466  31.545  1.00  0.00     0.037 A 
ATOM     46  C   UNL A   1      41.459  32.153  37.312  1.00  0.00     0.049 A 
ATOM     47  C   UNL A   1      41.195  29.337  32.486  1.00  0.00     0.074 A 
ATOM     48  C   UNL A   1      42.533  31.877  38.139  1.00  0.00     0.029 A 
ATOM     49  N   UNL A   1      41.621  31.376  36.174  1.00  0.00    -0.354 N 
ATOM     50  N   UNL A   1      41.394  29.908  33.650  1.00  0.00    -0.248 NA
ATOM     51  C   UNL A   1      42.291  28.452  32.063  1.00  0.00     0.031 C 
ATOM     52  C   UNL A   1      43.381  30.988  37.472  1.00  0.00     0.029 A 
ATOM     53  C   UNL A   1      42.799  30.649  36.261  1.00  0.00     0.049 A 
ATOM     54  H   UNL A   1      40.992  31.344  35.417  1.00  0.00     0.167 HD
ATOM     55  C   UNL A   1      42.620  29.433  34.108  1.00  0.00     0.074 A 
ATOM     56  C   UNL A   1      43.108  28.511  33.105  1.00  0.00     0.031 C 
ATOM     57  C   UNL A   1      43.280  29.735  35.254  1.00  0.00     0.037 A 
BRANCH  44  58
ATOM     58  C   UNL A   1      40.365  33.898  38.784  1.00  0.00     0.064 A 
ATOM     59  C   UNL A   1      41.064  35.112  38.874  1.00  0.00     0.173 A 
ATOM     60  C   UNL A   1      39.652  33.469  39.914  1.00  0.00     0.173 A 
ATOM     61  F   UNL A   1      41.773  35.564  37.828  1.00  0.00    -0.203 F 
ATOM     62  C   UNL A   1      41.086  35.841  40.060  1.00  0.00     0.198 A 
ATOM     63  C   UNL A   1      39.643  34.222  41.085  1.00  0.00     0.198 A 
ATOM     64  F   UNL A   1      38.962  32.320  39.884  1.00  0.00    -0.203 F 
ATOM     65  F   UNL A   1      41.820  36.959  40.143  1.00  0.00    -0.200 F 
ATOM     66  C   UNL A   1      40.371  35.399  41.162  1.00  0.00     0.200 A 
ATOM     67  F   UNL A   1      38.937  33.802  42.144  1.00  0.00    -0.200 F 
ATOM     68  F   UNL A   1      40.393  36.102  42.303  1.00  0.00    -0.200 F 
ENDBRANCH  44  58
BRANCH  45  69
ATOM     69  C   UNL A   1      40.006  28.737  30.248  1.00  0.00     0.064 A 
ATOM     70  C   UNL A   1      39.399  27.479  30.127  1.00  0.00     0.173 A 
ATOM     71  C   UNL A   1      40.619  29.274  29.105  1.00  0.00     0.173 A 
ATOM     72  F   UNL A   1      38.827  26.906  31.196  1.00  0.00    -0.203 F 
ATOM     73  C   UNL A   1      39.420  26.781  28.921  1.00  0.00     0.198 A 
ATOM     74  C   UNL A   1      40.609  28.591  27.891  1.00  0.00     0.198 A 
ATOM     75  F   UNL A   1      41.224  30.470  29.167  1.00  0.00    -0.203 F 
ATOM     76  F   UNL A   1      38.879  25.556  28.848  1.00  0.00    -0.200 F 
ATOM     77  C   UNL A   1      40.017  27.341  27.802  1.00  0.00     0.200 A 
ATOM     78  F   UNL A   1      41.178  29.142  26.810  1.00  0.00    -0.200 F 
ATOM     79  F   UNL A   1      40.032  26.671  26.641  1.00  0.00    -0.200 F 
ENDBRANCH  45  69
BRANCH  57  80
ATOM     80  C   UNL A   1      44.594  29.044  35.507  1.00  0.00     0.064 A 
ATOM     81  C   UNL A   1      45.815  29.607  35.106  1.00  0.00     0.173 A 
ATOM     82  C   UNL A   1      44.635  27.827  36.207  1.00  0.00     0.173 A 
ATOM     83  F   UNL A   1      45.835  30.763  34.424  1.00  0.00    -0.203 F 
ATOM     84  C   UNL A   1      47.022  28.964  35.369  1.00  0.00     0.198 A 
ATOM     85  C   UNL A   1      45.846  27.207  36.502  1.00  0.00     0.198 A 
ATOM     86  F   UNL A   1      43.499  27.248  36.625  1.00  0.00    -0.203 F 
ATOM     87  F   UNL A   1      48.172  29.495  34.929  1.00  0.00    -0.200 F 
ATOM     88  C   UNL A   1      47.038  27.771  36.075  1.00  0.00     0.200 A 
ATOM     89  F   UNL A   1      45.859  26.066  37.203  1.00  0.00    -0.200 F 
ATOM     90  F   UNL A   1      48.202  27.162  36.339  1.00  0.00    -0.200 F 
ENDBRANCH  57  80
ENDBRANCH  31  32
ENDBRANCH  24  26
ENDBRANCH  23  24
ENDBRANCH  22  23
ENDBRANCH  21  22
ENDBRANCH  20  21
ENDBRANCH  19  20
ENDBRANCH   1  19
TORSDOF 23
ENDMDL
MODEL 3
REMARK VINA RESULT:      -7.8      6.199     11.146
REMARK SMILES CC#CC[C@](CC)(CCCC)C(=O)OCCOCCOCCOC(=O)c1ccc(-c2c3nc(c(-c4c(F)c(F)c(F)c(F)c4F)c4ccc([nH]4)c(-c4c(F)c(F)c(F)c(F)c4F)c4nc(c(-c5c(F)c(F)c(F)c(F)c5F)c5ccc2[nH]5)C=C4)C=C3)cc1
REMARK SMILES IDX 18 1 17 2 16 3 15 4 14 5 12 6 13 7 5 8 4 9 3 10 1 11 2 12
REMARK SMILES IDX 8 13 9 14 10 15 11 16 6 17 7 18 19 19 20 20 21 21 22 22
REMARK SMILES IDX 23 23 24 24 25 25 26 26 27 27 88 28 28 29 87 30 29 31 30 32
REMARK SMILES IDX 31 33 81 34 32 35 86 36 80 37 82 38 33 39 85 40 79 41 78 42
REMARK SMILES IDX 34 44 66 45 46 46 65 47 47 48 50 49 64 50 83 51 48 52 49 53
REMARK SMILES IDX 63 55 84 56 51 57 35 58 36 59 44 60 37 61 38 62 42 63 45 64
REMARK SMILES IDX 39 65 40 66 43 67 41 68 67 69 68 70 76 71 69 72 70 73 74 74
REMARK SMILES IDX 77 75 71 76 72 77 75 78 73 79 52 80 53 81 61 82 54 83 55 84
REMARK SMILES IDX 59 85 62 86 56 87 57 88 60 89 58 90
REMARK H PARENT 82 43 50 54
REMARK Flexibility Score: inf
ROOT
ATOM      1  C   UNL A   1      35.497  32.004  28.438  1.00  0.00     0.188 C 
ENDROOT
BRANCH   1   2
ATOM      2  O   UNL A   1      34.767  31.199  27.526  1.00  0.00    -0.376 OA
BRANCH   2   3
ATOM      3  C   UNL A   1      33.344  31.337  27.570  1.00  0.00     0.202 C 
BRANCH   3   4
ATOM      4  C   UNL A   1      32.515  30.110  27.145  1.00  0.00     0.261 C 
BRANCH   4   5
ATOM      5  O   UNL A   1      33.162  29.230  26.184  1.00  0.00    -0.463 OA
BRANCH   5   6
ATOM      6  C   UNL A   1      32.377  28.777  25.170  1.00  0.00     0.313 C 
ATOM      7  O   UNL A   1      31.695  29.526  24.474  1.00  0.00    -0.252 OA
BRANCH   6   8
ATOM      8  C   UNL A   1      32.337  27.240  24.987  1.00  0.00     0.079 C 
BRANCH   8   9
ATOM      9  C   UNL A   1      30.816  26.930  25.293  1.00  0.00     0.108 C 
BRANCH   9  10
ATOM     10  C   UNL A   1      30.547  25.555  25.739  1.00  0.00    -0.102 C 
ATOM     11  C   UNL A   1      30.541  23.093  26.727  1.00  0.00     0.107 C 
ATOM     12  C   UNL A   1      30.471  24.440  26.167  1.00  0.00    -0.107 C 
ENDBRANCH   9  10
ENDBRANCH   8   9
BRANCH   8  13
ATOM     13  C   UNL A   1      33.086  26.334  26.031  1.00  0.00     0.020 C 
BRANCH  13  14
ATOM     14  C   UNL A   1      34.292  25.479  25.627  1.00  0.00     0.001 C 
BRANCH  14  15
ATOM     15  C   UNL A   1      33.972  24.012  25.441  1.00  0.00    -0.003 C 
ATOM     16  C   UNL A   1      34.868  23.065  26.222  1.00  0.00     0.004 C 
ENDBRANCH  14  15
ENDBRANCH  13  14
ENDBRANCH   8  13
BRANCH   8  17
ATOM     17  C   UNL A   1      32.765  26.827  23.529  1.00  0.00     0.016 C 
ATOM     18  C   UNL A   1      31.662  26.688  22.483  1.00  0.00     0.005 C 
ENDBRANCH   8  17
ENDBRANCH   6   8
ENDBRANCH   5   6
ENDBRANCH   4   5
ENDBRANCH   3   4
ENDBRANCH   2   3
ENDBRANCH   1   2
BRANCH   1  19
ATOM     19  C   UNL A   1      34.668  32.999  29.243  1.00  0.00     0.188 C 
BRANCH  19  20
ATOM     20  O   UNL A   1      35.124  34.343  29.117  1.00  0.00    -0.376 OA
BRANCH  20  21
ATOM     21  C   UNL A   1      34.136  35.254  28.644  1.00  0.00     0.202 C 
BRANCH  21  22
ATOM     22  C   UNL A   1      32.906  35.297  29.553  1.00  0.00     0.261 C 
BRANCH  22  23
ATOM     23  O   UNL A   1      33.147  36.146  30.690  1.00  0.00    -0.460 OA
BRANCH  23  24
ATOM     24  C   UNL A   1      32.808  35.613  31.891  1.00  0.00     0.338 C 
ATOM     25  O   UNL A   1      31.706  35.604  32.413  1.00  0.00    -0.246 OA
BRANCH  24  26
ATOM     26  C   UNL A   1      33.973  34.885  32.446  1.00  0.00     0.060 A 
ATOM     27  C   UNL A   1      35.232  35.504  32.411  1.00  0.00     0.016 A 
ATOM     28  C   UNL A   1      33.831  33.625  33.031  1.00  0.00     0.016 A 
ATOM     29  C   UNL A   1      36.353  34.855  32.934  1.00  0.00     0.010 A 
ATOM     30  C   UNL A   1      34.952  32.972  33.545  1.00  0.00     0.010 A 
ATOM     31  C   UNL A   1      36.224  33.568  33.472  1.00  0.00    -0.014 A 
BRANCH  31  32
ATOM     32  C   UNL A   1      37.421  32.747  33.781  1.00  0.00     0.031 A 
ATOM     33  C   UNL A   1      38.163  33.033  35.056  1.00  0.00     0.074 A 
ATOM     34  C   UNL A   1      37.869  31.797  32.942  1.00  0.00     0.049 A 
ATOM     35  N   UNL A   1      39.306  32.560  35.484  1.00  0.00    -0.248 NA
ATOM     36  C   UNL A   1      37.529  34.000  35.967  1.00  0.00     0.031 C 
ATOM     37  C   UNL A   1      37.223  31.394  31.698  1.00  0.00     0.029 A 
ATOM     38  N   UNL A   1      38.998  31.016  33.009  1.00  0.00    -0.354 N 
ATOM     39  C   UNL A   1      39.531  33.177  36.708  1.00  0.00     0.074 A 
ATOM     40  C   UNL A   1      38.429  34.089  36.933  1.00  0.00     0.031 C 
ATOM     41  C   UNL A   1      37.980  30.456  31.101  1.00  0.00     0.029 A 
ATOM     42  C   UNL A   1      39.184  30.227  31.900  1.00  0.00     0.049 A 
ATOM     43  H   UNL A   1      39.614  31.022  33.776  1.00  0.00     0.167 HD
ATOM     44  C   UNL A   1      40.557  32.994  37.572  1.00  0.00     0.037 A 
ATOM     45  C   UNL A   1      40.226  29.445  31.555  1.00  0.00     0.037 A 
ATOM     46  C   UNL A   1      41.662  32.102  37.336  1.00  0.00     0.049 A 
ATOM     47  C   UNL A   1      41.411  29.329  32.484  1.00  0.00     0.074 A 
ATOM     48  C   UNL A   1      42.748  31.838  38.151  1.00  0.00     0.029 A 
ATOM     49  N   UNL A   1      41.829  31.339  36.189  1.00  0.00    -0.354 N 
ATOM     50  N   UNL A   1      41.610  29.892  33.652  1.00  0.00    -0.248 NA
ATOM     51  C   UNL A   1      42.521  28.470  32.043  1.00  0.00     0.031 C 
ATOM     52  C   UNL A   1      43.608  30.974  37.467  1.00  0.00     0.029 A 
ATOM     53  C   UNL A   1      43.022  30.635  36.258  1.00  0.00     0.049 A 
ATOM     54  H   UNL A   1      41.195  31.302  35.437  1.00  0.00     0.167 HD
ATOM     55  C   UNL A   1      42.848  29.437  34.094  1.00  0.00     0.074 A 
ATOM     56  C   UNL A   1      43.346  28.536  33.078  1.00  0.00     0.031 C 
ATOM     57  C   UNL A   1      43.512  29.741  35.238  1.00  0.00     0.037 A 
BRANCH  44  58
ATOM     58  C   UNL A   1      40.546  33.809  38.835  1.00  0.00     0.064 A 
ATOM     59  C   UNL A   1      41.233  35.029  38.936  1.00  0.00     0.173 A 
ATOM     60  C   UNL A   1      39.839  33.362  39.962  1.00  0.00     0.173 A 
ATOM     61  F   UNL A   1      41.935  35.498  37.893  1.00  0.00    -0.203 F 
ATOM     62  C   UNL A   1      41.251  35.746  40.129  1.00  0.00     0.198 A 
ATOM     63  C   UNL A   1      39.825  34.102  41.141  1.00  0.00     0.198 A 
ATOM     64  F   UNL A   1      39.161  32.206  39.922  1.00  0.00    -0.203 F 
ATOM     65  F   UNL A   1      41.973  36.871  40.223  1.00  0.00    -0.200 F 
ATOM     66  C   UNL A   1      40.542  35.286  41.228  1.00  0.00     0.200 A 
ATOM     67  F   UNL A   1      39.126  33.664  42.197  1.00  0.00    -0.200 F 
ATOM     68  F   UNL A   1      40.559  35.977  42.377  1.00  0.00    -0.200 F 
ENDBRANCH  44  58
BRANCH  45  69
ATOM     69  C   UNL A   1      40.215  28.728  30.250  1.00  0.00     0.064 A 
ATOM     70  C   UNL A   1      40.805  29.288  29.107  1.00  0.00     0.173 A 
ATOM     71  C   UNL A   1      39.595  27.476  30.113  1.00  0.00     0.173 A 
ATOM     72  F   UNL A   1      41.383  30.496  29.176  1.00  0.00    -0.203 F 
ATOM     73  C   UNL A   1      40.760  28.633  27.878  1.00  0.00     0.198 A 
ATOM     74  C   UNL A   1      39.581  26.807  28.892  1.00  0.00     0.198 A 
ATOM     75  F   UNL A   1      39.006  26.899  31.171  1.00  0.00    -0.203 F 
ATOM     76  F   UNL A   1      41.285  29.216  26.791  1.00  0.00    -0.200 F 
ATOM     77  C   UNL A   1      40.157  27.389  27.773  1.00  0.00     0.200 A 
ATOM     78  F   UNL A   1      39.006  25.600  28.798  1.00  0.00    -0.200 F 
ATOM     79  F   UNL A   1      40.119  26.757  26.592  1.00  0.00    -0.200 F 
ENDBRANCH  45  69
BRANCH  57  80
ATOM     80  C   UNL A   1      44.842  29.075  35.472  1.00  0.00     0.064 A 
ATOM     81  C   UNL A   1      44.944  27.827  36.104  1.00  0.00     0.173 A 
ATOM     82  C   UNL A   1      46.027  29.670  35.008  1.00  0.00     0.173 A 
ATOM     83  F   UNL A   1      43.846  27.217  36.577  1.00  0.00    -0.203 F 
ATOM     84  C   UNL A   1      46.181  27.215  36.291  1.00  0.00     0.198 A 
ATOM     85  C   UNL A   1      47.258  29.037  35.162  1.00  0.00     0.198 A 
ATOM     86  F   UNL A   1      45.990  30.858  34.386  1.00  0.00    -0.203 F 
ATOM     87  F   UNL A   1      46.258  26.048  36.946  1.00  0.00    -0.200 F 
ATOM     88  C   UNL A   1      47.335  27.816  35.811  1.00  0.00     0.200 A 
ATOM     89  F   UNL A   1      48.369  29.610  34.678  1.00  0.00    -0.200 F 
ATOM     90  F   UNL A   1      48.523  27.218  35.979  1.00  0.00    -0.200 F 
ENDBRANCH  57  80
ENDBRANCH  31  32
ENDBRANCH  24  26
ENDBRANCH  23  24
ENDBRANCH  22  23
ENDBRANCH  21  22
ENDBRANCH  20  21
ENDBRANCH  19  20
ENDBRANCH   1  19
TORSDOF 23
ENDMDL
