MODEL 1
REMARK VINA RESULT:     -11.6      0.000      0.000
REMARK SMILES CC[C@H]1CC[C@](C(=O)OCCOCCOCCOC(=O)c2ccc(-c3c4nc(c(-c5c(F)c(F)c(F)c(F)c5F)c5ccc([nH]5)c(-c5c(F)c(F)c(F)c(F)c5F)c5nc(c(-c6c(F)c(F)c(F)c(F)c6F)c6ccc3[nH]6)C=C5)C=C4)cc2)([C@H]2CCC[C@@H](S(C)(=O)=O)C2)CC1
REMARK SMILES IDX 13 1 12 2 11 3 10 4 9 5 7 6 8 7 6 8 3 9 95 10 4 11 94 12
REMARK SMILES IDX 5 13 2 14 1 15 84 16 85 17 93 18 86 19 88 20 87 21 89 22
REMARK SMILES IDX 90 23 91 24 92 25 14 26 15 27 16 28 17 29 18 30 19 31 20 32
REMARK SMILES IDX 21 33 22 34 83 35 23 36 82 37 24 38 25 39 26 40 76 41 27 42
REMARK SMILES IDX 81 43 75 44 77 45 28 46 80 47 74 48 73 49 29 51 61 52 41 53
REMARK SMILES IDX 60 54 42 55 45 56 59 57 78 58 43 59 44 60 58 62 79 63 46 64
REMARK SMILES IDX 30 65 31 66 39 67 32 68 33 69 37 70 40 71 34 72 35 73 38 74
REMARK SMILES IDX 36 75 62 76 63 77 71 78 64 79 65 80 69 81 72 82 66 83 67 84
REMARK SMILES IDX 70 85 68 86 47 87 48 88 56 89 49 90 50 91 54 92 57 93 51 94
REMARK SMILES IDX 52 95 55 96 53 97
REMARK H PARENT 77 50 45 61
REMARK Flexibility Score: inf
ROOT
ATOM      1  C   UNL A   1      40.210  21.228  26.568  1.00  0.00     0.188 C 
ENDROOT
BRANCH   1   2
ATOM      2  O   UNL A   1      39.181  20.997  25.605  1.00  0.00    -0.376 OA
BRANCH   2   3
ATOM      3  C   UNL A   1      38.074  21.897  25.609  1.00  0.00     0.202 C 
BRANCH   3   4
ATOM      4  C   UNL A   1      37.120  21.828  24.391  1.00  0.00     0.261 C 
BRANCH   4   5
ATOM      5  O   UNL A   1      35.752  21.388  24.609  1.00  0.00    -0.463 OA
BRANCH   5   6
ATOM      6  C   UNL A   1      34.689  22.031  24.057  1.00  0.00     0.312 C 
ATOM      7  O   UNL A   1      34.742  22.673  23.012  1.00  0.00    -0.252 OA
BRANCH   6   8
ATOM      8  C   UNL A   1      33.385  21.948  24.907  1.00  0.00     0.071 C 
ATOM      9  C   UNL A   1      32.543  19.218  23.807  1.00  0.00    -0.011 C 
ATOM     10  C   UNL A   1      33.640  19.387  24.870  1.00  0.00     0.005 C 
ATOM     11  C   UNL A   1      32.047  20.519  23.165  1.00  0.00     0.005 C 
ATOM     12  C   UNL A   1      33.509  20.641  25.742  1.00  0.00     0.019 C 
ATOM     13  C   UNL A   1      32.077  21.745  24.075  1.00  0.00     0.019 C 
BRANCH   9  14
ATOM     14  C   UNL A   1      32.949  18.173  22.738  1.00  0.00    -0.000 C 
ATOM     15  C   UNL A   1      33.717  16.958  23.255  1.00  0.00     0.004 C 
ENDBRANCH   9  14
BRANCH   8  16
ATOM     16  C   UNL A   1      33.147  23.220  25.871  1.00  0.00     0.008 C 
ATOM     17  C   UNL A   1      34.272  24.249  26.139  1.00  0.00     0.005 C 
ATOM     18  C   UNL A   1      31.780  23.930  25.787  1.00  0.00     0.024 C 
ATOM     19  C   UNL A   1      34.183  25.607  25.450  1.00  0.00     0.002 C 
ATOM     20  C   UNL A   1      31.726  25.310  25.096  1.00  0.00     0.108 C 
ATOM     21  C   UNL A   1      32.812  26.257  25.515  1.00  0.00     0.020 C 
BRANCH  20  22
ATOM     22  S   UNL A   1      31.412  25.272  23.355  1.00  0.00     0.150 S 
ATOM     23  C   UNL A   1      30.927  26.833  22.633  1.00  0.00     0.158 C 
ATOM     24  O   UNL A   1      32.720  24.971  22.830  1.00  0.00    -0.229 OA
ATOM     25  O   UNL A   1      30.324  24.345  23.127  1.00  0.00    -0.229 OA
ENDBRANCH  20  22
ENDBRANCH   8  16
ENDBRANCH   6   8
ENDBRANCH   5   6
ENDBRANCH   4   5
ENDBRANCH   3   4
ENDBRANCH   2   3
ENDBRANCH   1   2
BRANCH   1  26
ATOM     26  C   UNL A   1      40.907  19.923  26.979  1.00  0.00     0.188 C 
BRANCH  26  27
ATOM     27  O   UNL A   1      42.338  19.922  26.969  1.00  0.00    -0.376 OA
BRANCH  27  28
ATOM     28  C   UNL A   1      42.946  20.028  25.692  1.00  0.00     0.202 C 
BRANCH  28  29
ATOM     29  C   UNL A   1      44.066  21.082  25.557  1.00  0.00     0.261 C 
BRANCH  29  30
ATOM     30  O   UNL A   1      43.836  22.352  26.217  1.00  0.00    -0.460 OA
BRANCH  30  31
ATOM     31  C   UNL A   1      43.291  23.343  25.464  1.00  0.00     0.338 C 
ATOM     32  O   UNL A   1      43.178  23.352  24.251  1.00  0.00    -0.246 OA
BRANCH  31  33
ATOM     33  C   UNL A   1      42.698  24.401  26.341  1.00  0.00     0.060 A 
ATOM     34  C   UNL A   1      43.173  25.718  26.224  1.00  0.00     0.016 A 
ATOM     35  C   UNL A   1      41.723  24.119  27.299  1.00  0.00     0.016 A 
ATOM     36  C   UNL A   1      42.691  26.739  27.062  1.00  0.00     0.010 A 
ATOM     37  C   UNL A   1      41.263  25.137  28.162  1.00  0.00     0.010 A 
ATOM     38  C   UNL A   1      41.754  26.453  28.068  1.00  0.00    -0.014 A 
BRANCH  38  39
ATOM     39  C   UNL A   1      41.414  27.466  29.121  1.00  0.00     0.031 A 
ATOM     40  C   UNL A   1      42.237  27.510  30.380  1.00  0.00     0.074 A 
ATOM     41  C   UNL A   1      40.395  28.340  29.003  1.00  0.00     0.049 A 
ATOM     42  N   UNL A   1      42.040  28.197  31.479  1.00  0.00    -0.248 NA
ATOM     43  C   UNL A   1      43.426  26.649  30.410  1.00  0.00     0.031 C 
ATOM     44  C   UNL A   1      39.514  28.433  27.853  1.00  0.00     0.029 A 
ATOM     45  N   UNL A   1      39.918  29.310  29.861  1.00  0.00    -0.354 N 
ATOM     46  C   UNL A   1      43.060  27.827  32.344  1.00  0.00     0.074 A 
ATOM     47  C   UNL A   1      43.877  26.859  31.639  1.00  0.00     0.031 C 
ATOM     48  C   UNL A   1      38.640  29.436  28.037  1.00  0.00     0.029 A 
ATOM     49  C   UNL A   1      38.813  29.979  29.384  1.00  0.00     0.049 A 
ATOM     50  H   UNL A   1      40.330  29.505  30.734  1.00  0.00     0.167 HD
ATOM     51  C   UNL A   1      43.289  28.238  33.615  1.00  0.00     0.037 A 
ATOM     52  C   UNL A   1      37.986  30.868  29.980  1.00  0.00     0.037 A 
ATOM     53  C   UNL A   1      42.478  29.190  34.333  1.00  0.00     0.049 A 
ATOM     54  C   UNL A   1      38.203  31.234  31.431  1.00  0.00     0.074 A 
ATOM     55  C   UNL A   1      42.650  29.663  35.622  1.00  0.00     0.029 A 
ATOM     56  N   UNL A   1      41.336  29.799  33.834  1.00  0.00    -0.354 N 
ATOM     57  N   UNL A   1      39.169  30.878  32.241  1.00  0.00    -0.248 NA
ATOM     58  C   UNL A   1      37.190  32.098  32.062  1.00  0.00     0.031 C 
ATOM     59  C   UNL A   1      41.576  30.506  35.929  1.00  0.00     0.029 A 
ATOM     60  C   UNL A   1      40.772  30.612  34.807  1.00  0.00     0.049 A 
ATOM     61  H   UNL A   1      40.980  29.673  32.926  1.00  0.00     0.167 HD
ATOM     62  C   UNL A   1      38.887  31.478  33.464  1.00  0.00     0.074 A 
ATOM     63  C   UNL A   1      37.676  32.247  33.286  1.00  0.00     0.031 C 
ATOM     64  C   UNL A   1      39.568  31.384  34.632  1.00  0.00     0.037 A 
BRANCH  51  65
ATOM     65  C   UNL A   1      44.440  27.610  34.344  1.00  0.00     0.064 A 
ATOM     66  C   UNL A   1      44.300  26.414  35.063  1.00  0.00     0.173 A 
ATOM     67  C   UNL A   1      45.712  28.202  34.295  1.00  0.00     0.173 A 
ATOM     68  F   UNL A   1      43.102  25.816  35.150  1.00  0.00    -0.203 F 
ATOM     69  C   UNL A   1      45.383  25.852  35.731  1.00  0.00     0.198 A 
ATOM     70  C   UNL A   1      46.800  27.617  34.935  1.00  0.00     0.198 A 
ATOM     71  F   UNL A   1      45.903  29.342  33.613  1.00  0.00    -0.203 F 
ATOM     72  F   UNL A   1      45.214  24.737  36.456  1.00  0.00    -0.200 F 
ATOM     73  C   UNL A   1      46.633  26.449  35.661  1.00  0.00     0.200 A 
ATOM     74  F   UNL A   1      48.011  28.188  34.851  1.00  0.00    -0.200 F 
ATOM     75  F   UNL A   1      47.677  25.901  36.299  1.00  0.00    -0.200 F 
ENDBRANCH  51  65
BRANCH  52  76
ATOM     76  C   UNL A   1      36.809  31.424  29.248  1.00  0.00     0.064 A 
ATOM     77  C   UNL A   1      36.752  32.779  28.887  1.00  0.00     0.173 A 
ATOM     78  C   UNL A   1      35.689  30.631  28.951  1.00  0.00     0.173 A 
ATOM     79  F   UNL A   1      37.774  33.595  29.184  1.00  0.00    -0.203 F 
ATOM     80  C   UNL A   1      35.620  33.318  28.273  1.00  0.00     0.198 A 
ATOM     81  C   UNL A   1      34.577  31.161  28.300  1.00  0.00     0.198 A 
ATOM     82  F   UNL A   1      35.675  29.334  29.290  1.00  0.00    -0.203 F 
ATOM     83  F   UNL A   1      35.571  34.628  27.998  1.00  0.00    -0.200 F 
ATOM     84  C   UNL A   1      34.539  32.507  27.972  1.00  0.00     0.200 A 
ATOM     85  F   UNL A   1      33.540  30.369  27.998  1.00  0.00    -0.200 F 
ATOM     86  F   UNL A   1      33.456  33.023  27.375  1.00  0.00    -0.200 F 
ENDBRANCH  52  76
BRANCH  64  87
ATOM     87  C   UNL A   1      39.045  32.150  35.817  1.00  0.00     0.064 A 
ATOM     88  C   UNL A   1      38.204  31.552  36.769  1.00  0.00     0.173 A 
ATOM     89  C   UNL A   1      39.439  33.479  36.038  1.00  0.00     0.173 A 
ATOM     90  F   UNL A   1      37.783  30.290  36.600  1.00  0.00    -0.203 F 
ATOM     91  C   UNL A   1      37.768  32.259  37.887  1.00  0.00     0.198 A 
ATOM     92  C   UNL A   1      39.027  34.173  37.174  1.00  0.00     0.198 A 
ATOM     93  F   UNL A   1      40.244  34.100  35.163  1.00  0.00    -0.203 F 
ATOM     94  F   UNL A   1      36.934  31.679  38.762  1.00  0.00    -0.200 F 
ATOM     95  C   UNL A   1      38.188  33.565  38.095  1.00  0.00     0.200 A 
ATOM     96  F   UNL A   1      39.447  35.429  37.379  1.00  0.00    -0.200 F 
ATOM     97  F   UNL A   1      37.780  34.238  39.180  1.00  0.00    -0.200 F 
ENDBRANCH  64  87
ENDBRANCH  38  39
ENDBRANCH  31  33
ENDBRANCH  30  31
ENDBRANCH  29  30
ENDBRANCH  28  29
ENDBRANCH  27  28
ENDBRANCH  26  27
ENDBRANCH   1  26
TORSDOF 20
ENDMDL
MODEL 2
REMARK VINA RESULT:     -11.6      1.207      2.356
REMARK SMILES CC[C@H]1CC[C@](C(=O)OCCOCCOCCOC(=O)c2ccc(-c3c4nc(c(-c5c(F)c(F)c(F)c(F)c5F)c5ccc([nH]5)c(-c5c(F)c(F)c(F)c(F)c5F)c5nc(c(-c6c(F)c(F)c(F)c(F)c6F)c6ccc3[nH]6)C=C5)C=C4)cc2)([C@H]2CCC[C@@H](S(C)(=O)=O)C2)CC1
REMARK SMILES IDX 13 1 12 2 11 3 10 4 9 5 7 6 8 7 6 8 3 9 95 10 4 11 94 12
REMARK SMILES IDX 5 13 2 14 1 15 84 16 85 17 93 18 86 19 88 20 87 21 89 22
REMARK SMILES IDX 90 23 91 24 92 25 14 26 15 27 16 28 17 29 18 30 19 31 20 32
REMARK SMILES IDX 21 33 22 34 83 35 23 36 82 37 24 38 25 39 26 40 76 41 27 42
REMARK SMILES IDX 81 43 75 44 77 45 28 46 80 47 74 48 73 49 29 51 61 52 41 53
REMARK SMILES IDX 60 54 42 55 45 56 59 57 78 58 43 59 44 60 58 62 79 63 46 64
REMARK SMILES IDX 30 65 31 66 39 67 32 68 33 69 37 70 40 71 34 72 35 73 38 74
REMARK SMILES IDX 36 75 62 76 63 77 71 78 64 79 65 80 69 81 72 82 66 83 67 84
REMARK SMILES IDX 70 85 68 86 47 87 48 88 56 89 49 90 50 91 54 92 57 93 51 94
REMARK SMILES IDX 52 95 55 96 53 97
REMARK H PARENT 77 50 45 61
REMARK Flexibility Score: inf
ROOT
ATOM      1  C   UNL A   1      38.501  21.427  25.625  1.00  0.00     0.188 C 
ENDROOT
BRANCH   1   2
ATOM      2  O   UNL A   1      38.727  22.781  26.017  1.00  0.00    -0.376 OA
BRANCH   2   3
ATOM      3  C   UNL A   1      37.578  23.611  26.183  1.00  0.00     0.202 C 
BRANCH   3   4
ATOM      4  C   UNL A   1      36.396  23.359  25.215  1.00  0.00     0.261 C 
BRANCH   4   5
ATOM      5  O   UNL A   1      35.358  24.372  25.115  1.00  0.00    -0.463 OA
BRANCH   5   6
ATOM      6  C   UNL A   1      34.191  24.282  25.807  1.00  0.00     0.312 C 
ATOM      7  O   UNL A   1      34.007  23.515  26.747  1.00  0.00    -0.252 OA
BRANCH   6   8
ATOM      8  C   UNL A   1      33.055  25.198  25.257  1.00  0.00     0.071 C 
ATOM      9  C   UNL A   1      31.939  23.088  23.340  1.00  0.00    -0.011 C 
ATOM     10  C   UNL A   1      31.667  23.068  24.853  1.00  0.00     0.005 C 
ATOM     11  C   UNL A   1      32.990  24.104  22.876  1.00  0.00     0.005 C 
ATOM     12  C   UNL A   1      31.728  24.438  25.539  1.00  0.00     0.019 C 
ATOM     13  C   UNL A   1      33.064  25.385  23.705  1.00  0.00     0.019 C 
BRANCH   9  14
ATOM     14  C   UNL A   1      32.244  21.667  22.803  1.00  0.00    -0.000 C 
ATOM     15  C   UNL A   1      32.533  20.604  23.863  1.00  0.00     0.004 C 
ENDBRANCH   9  14
BRANCH   8  16
ATOM     16  C   UNL A   1      33.021  26.670  25.917  1.00  0.00     0.008 C 
ATOM     17  C   UNL A   1      34.032  27.764  25.497  1.00  0.00     0.005 C 
ATOM     18  C   UNL A   1      31.637  27.295  26.190  1.00  0.00     0.024 C 
ATOM     19  C   UNL A   1      33.538  28.893  24.597  1.00  0.00     0.002 C 
ATOM     20  C   UNL A   1      31.172  28.445  25.270  1.00  0.00     0.108 C 
ATOM     21  C   UNL A   1      32.211  29.498  25.019  1.00  0.00     0.020 C 
BRANCH  20  22
ATOM     22  S   UNL A   1      30.266  27.945  23.834  1.00  0.00     0.150 S 
ATOM     23  C   UNL A   1      31.254  27.643  22.376  1.00  0.00     0.158 C 
ATOM     24  O   UNL A   1      29.752  26.664  24.248  1.00  0.00    -0.229 OA
ATOM     25  O   UNL A   1      29.343  29.010  23.506  1.00  0.00    -0.229 OA
ENDBRANCH  20  22
ENDBRANCH   8  16
ENDBRANCH   6   8
ENDBRANCH   5   6
ENDBRANCH   4   5
ENDBRANCH   3   4
ENDBRANCH   2   3
ENDBRANCH   1   2
BRANCH   1  26
ATOM     26  C   UNL A   1      39.728  20.545  25.894  1.00  0.00     0.188 C 
BRANCH  26  27
ATOM     27  O   UNL A   1      40.406  20.738  27.139  1.00  0.00    -0.376 OA
BRANCH  27  28
ATOM     28  C   UNL A   1      41.716  20.200  27.218  1.00  0.00     0.202 C 
BRANCH  28  29
ATOM     29  C   UNL A   1      42.707  20.660  26.127  1.00  0.00     0.261 C 
BRANCH  29  30
ATOM     30  O   UNL A   1      43.387  21.918  26.366  1.00  0.00    -0.460 OA
BRANCH  30  31
ATOM     31  C   UNL A   1      43.030  22.966  25.578  1.00  0.00     0.338 C 
ATOM     32  O   UNL A   1      43.029  22.988  24.359  1.00  0.00    -0.246 OA
BRANCH  31  33
ATOM     33  C   UNL A   1      42.485  24.085  26.409  1.00  0.00     0.060 A 
ATOM     34  C   UNL A   1      43.021  25.372  26.242  1.00  0.00     0.016 A 
ATOM     35  C   UNL A   1      41.495  23.887  27.374  1.00  0.00     0.016 A 
ATOM     36  C   UNL A   1      42.585  26.447  27.036  1.00  0.00     0.010 A 
ATOM     37  C   UNL A   1      41.082  24.959  28.193  1.00  0.00     0.010 A 
ATOM     38  C   UNL A   1      41.634  26.246  28.049  1.00  0.00    -0.014 A 
BRANCH  38  39
ATOM     39  C   UNL A   1      41.339  27.315  29.059  1.00  0.00     0.031 A 
ATOM     40  C   UNL A   1      42.221  27.433  30.272  1.00  0.00     0.074 A 
ATOM     41  C   UNL A   1      40.310  28.177  28.942  1.00  0.00     0.049 A 
ATOM     42  N   UNL A   1      42.074  28.179  31.339  1.00  0.00    -0.248 NA
ATOM     43  C   UNL A   1      43.417  26.579  30.292  1.00  0.00     0.031 C 
ATOM     44  C   UNL A   1      39.373  28.202  27.834  1.00  0.00     0.029 A 
ATOM     45  N   UNL A   1      39.869  29.192  29.767  1.00  0.00    -0.354 N 
ATOM     46  C   UNL A   1      43.138  27.862  32.172  1.00  0.00     0.074 A 
ATOM     47  C   UNL A   1      43.925  26.859  31.483  1.00  0.00     0.031 C 
ATOM     48  C   UNL A   1      38.503  29.211  28.003  1.00  0.00     0.029 A 
ATOM     49  C   UNL A   1      38.738  29.830  29.308  1.00  0.00     0.049 A 
ATOM     50  H   UNL A   1      40.321  29.437  30.607  1.00  0.00     0.167 HD
ATOM     51  C   UNL A   1      43.425  28.345  33.405  1.00  0.00     0.037 A 
ATOM     52  C   UNL A   1      37.935  30.747  29.893  1.00  0.00     0.037 A 
ATOM     53  C   UNL A   1      42.644  29.332  34.108  1.00  0.00     0.049 A 
ATOM     54  C   UNL A   1      38.220  31.195  31.310  1.00  0.00     0.074 A 
ATOM     55  C   UNL A   1      42.875  29.878  35.359  1.00  0.00     0.029 A 
ATOM     56  N   UNL A   1      41.476  29.908  33.633  1.00  0.00    -0.354 N 
ATOM     57  N   UNL A   1      39.226  30.889  32.089  1.00  0.00    -0.248 NA
ATOM     58  C   UNL A   1      37.233  32.089  31.940  1.00  0.00     0.031 C 
ATOM     59  C   UNL A   1      41.812  30.733  35.670  1.00  0.00     0.029 A 
ATOM     60  C   UNL A   1      40.954  30.773  34.585  1.00  0.00     0.049 A 
ATOM     61  H   UNL A   1      41.076  29.730  32.751  1.00  0.00     0.167 HD
ATOM     62  C   UNL A   1      39.000  31.555  33.290  1.00  0.00     0.074 A 
ATOM     63  C   UNL A   1      37.777  32.308  33.129  1.00  0.00     0.031 C 
ATOM     64  C   UNL A   1      39.738  31.529  34.426  1.00  0.00     0.037 A 
BRANCH  51  65
ATOM     65  C   UNL A   1      44.614  27.762  34.112  1.00  0.00     0.064 A 
ATOM     66  C   UNL A   1      45.885  28.349  34.034  1.00  0.00     0.173 A 
ATOM     67  C   UNL A   1      44.468  26.613  34.905  1.00  0.00     0.173 A 
ATOM     68  F   UNL A   1      46.079  29.442  33.279  1.00  0.00    -0.203 F 
ATOM     69  C   UNL A   1      46.972  27.790  34.698  1.00  0.00     0.198 A 
ATOM     70  C   UNL A   1      45.550  26.078  35.597  1.00  0.00     0.198 A 
ATOM     71  F   UNL A   1      43.271  26.018  35.022  1.00  0.00    -0.203 F 
ATOM     72  F   UNL A   1      48.189  28.336  34.566  1.00  0.00    -0.200 F 
ATOM     73  C   UNL A   1      46.803  26.659  35.484  1.00  0.00     0.200 A 
ATOM     74  F   UNL A   1      45.379  24.995  36.370  1.00  0.00    -0.200 F 
ATOM     75  F   UNL A   1      47.850  26.126  36.129  1.00  0.00    -0.200 F 
ENDBRANCH  51  65
BRANCH  52  76
ATOM     76  C   UNL A   1      36.720  31.257  29.191  1.00  0.00     0.064 A 
ATOM     77  C   UNL A   1      35.618  30.423  28.949  1.00  0.00     0.173 A 
ATOM     78  C   UNL A   1      36.658  32.566  28.689  1.00  0.00     0.173 A 
ATOM     79  F   UNL A   1      35.637  29.149  29.367  1.00  0.00    -0.203 F 
ATOM     80  C   UNL A   1      34.512  30.873  28.225  1.00  0.00     0.198 A 
ATOM     81  C   UNL A   1      35.537  33.028  28.002  1.00  0.00     0.198 A 
ATOM     82  F   UNL A   1      37.689  33.405  28.869  1.00  0.00    -0.203 F 
ATOM     83  F   UNL A   1      33.503  30.035  27.957  1.00  0.00    -0.200 F 
ATOM     84  C   UNL A   1      34.470  32.178  27.760  1.00  0.00     0.200 A 
ATOM     85  F   UNL A   1      35.495  34.295  27.568  1.00  0.00    -0.200 F 
ATOM     86  F   UNL A   1      33.406  32.613  27.072  1.00  0.00    -0.200 F 
ENDBRANCH  52  76
BRANCH  64  87
ATOM     87  C   UNL A   1      39.268  32.358  35.591  1.00  0.00     0.064 A 
ATOM     88  C   UNL A   1      38.474  31.813  36.612  1.00  0.00     0.173 A 
ATOM     89  C   UNL A   1      39.669  33.697  35.721  1.00  0.00     0.173 A 
ATOM     90  F   UNL A   1      38.048  30.543  36.531  1.00  0.00    -0.203 F 
ATOM     91  C   UNL A   1      38.088  32.580  37.709  1.00  0.00     0.198 A 
ATOM     92  C   UNL A   1      39.308  34.451  36.836  1.00  0.00     0.198 A 
ATOM     93  F   UNL A   1      40.432  34.270  34.778  1.00  0.00    -0.203 F 
ATOM     94  F   UNL A   1      37.296  32.048  38.652  1.00  0.00    -0.200 F 
ATOM     95  C   UNL A   1      38.514  33.895  37.826  1.00  0.00     0.200 A 
ATOM     96  F   UNL A   1      39.734  35.717  36.953  1.00  0.00    -0.200 F 
ATOM     97  F   UNL A   1      38.155  34.626  38.891  1.00  0.00    -0.200 F 
ENDBRANCH  64  87
ENDBRANCH  38  39
ENDBRANCH  31  33
ENDBRANCH  30  31
ENDBRANCH  29  30
ENDBRANCH  28  29
ENDBRANCH  27  28
ENDBRANCH  26  27
ENDBRANCH   1  26
TORSDOF 20
ENDMDL
MODEL 3
REMARK VINA RESULT:     -11.0      2.924      8.297
REMARK SMILES CC[C@H]1CC[C@](C(=O)OCCOCCOCCOC(=O)c2ccc(-c3c4nc(c(-c5c(F)c(F)c(F)c(F)c5F)c5ccc([nH]5)c(-c5c(F)c(F)c(F)c(F)c5F)c5nc(c(-c6c(F)c(F)c(F)c(F)c6F)c6ccc3[nH]6)C=C5)C=C4)cc2)([C@H]2CCC[C@@H](S(C)(=O)=O)C2)CC1
REMARK SMILES IDX 13 1 12 2 11 3 10 4 9 5 7 6 8 7 6 8 3 9 95 10 4 11 94 12
REMARK SMILES IDX 5 13 2 14 1 15 84 16 85 17 93 18 86 19 88 20 87 21 89 22
REMARK SMILES IDX 90 23 91 24 92 25 14 26 15 27 16 28 17 29 18 30 19 31 20 32
REMARK SMILES IDX 21 33 22 34 83 35 23 36 82 37 24 38 25 39 26 40 76 41 27 42
REMARK SMILES IDX 81 43 75 44 77 45 28 46 80 47 74 48 73 49 29 51 61 52 41 53
REMARK SMILES IDX 60 54 42 55 45 56 59 57 78 58 43 59 44 60 58 62 79 63 46 64
REMARK SMILES IDX 30 65 31 66 39 67 32 68 33 69 37 70 40 71 34 72 35 73 38 74
REMARK SMILES IDX 36 75 62 76 63 77 71 78 64 79 65 80 69 81 72 82 66 83 67 84
REMARK SMILES IDX 70 85 68 86 47 87 48 88 56 89 49 90 50 91 54 92 57 93 51 94
REMARK SMILES IDX 52 95 55 96 53 97
REMARK H PARENT 77 50 45 61
REMARK Flexibility Score: inf
ROOT
ATOM      1  C   UNL A   1      29.826  27.781  22.987  1.00  0.00     0.188 C 
ENDROOT
BRANCH   1   2
ATOM      2  O   UNL A   1      30.655  27.633  21.834  1.00  0.00    -0.376 OA
BRANCH   2   3
ATOM      3  C   UNL A   1      31.516  26.496  21.794  1.00  0.00     0.202 C 
BRANCH   3   4
ATOM      4  C   UNL A   1      33.037  26.779  21.733  1.00  0.00     0.261 C 
BRANCH   4   5
ATOM      5  O   UNL A   1      33.929  25.924  22.497  1.00  0.00    -0.463 OA
BRANCH   5   6
ATOM      6  C   UNL A   1      33.934  25.915  23.857  1.00  0.00     0.312 C 
ATOM      7  O   UNL A   1      33.879  26.926  24.551  1.00  0.00    -0.252 OA
BRANCH   6   8
ATOM      8  C   UNL A   1      34.088  24.495  24.482  1.00  0.00     0.071 C 
ATOM      9  C   UNL A   1      31.238  24.401  25.597  1.00  0.00    -0.011 C 
ATOM     10  C   UNL A   1      31.562  24.164  24.113  1.00  0.00     0.005 C 
ATOM     11  C   UNL A   1      32.407  24.909  26.450  1.00  0.00     0.005 C 
ATOM     12  C   UNL A   1      32.971  23.626  23.836  1.00  0.00     0.019 C 
ATOM     13  C   UNL A   1      33.788  24.423  26.015  1.00  0.00     0.019 C 
BRANCH   9  14
ATOM     14  C   UNL A   1      29.981  25.290  25.765  1.00  0.00    -0.000 C 
ATOM     15  C   UNL A   1      29.003  24.859  26.857  1.00  0.00     0.004 C 
ENDBRANCH   9  14
BRANCH   8  16
ATOM     16  C   UNL A   1      35.538  23.828  24.246  1.00  0.00     0.008 C 
ATOM     17  C   UNL A   1      36.636  23.880  25.336  1.00  0.00     0.005 C 
ATOM     18  C   UNL A   1      35.587  22.477  23.500  1.00  0.00     0.024 C 
ATOM     19  C   UNL A   1      36.927  22.608  26.126  1.00  0.00     0.002 C 
ATOM     20  C   UNL A   1      35.898  21.210  24.326  1.00  0.00     0.108 C 
ATOM     21  C   UNL A   1      37.050  21.355  25.276  1.00  0.00     0.020 C 
BRANCH  20  22
ATOM     22  S   UNL A   1      34.486  20.381  24.999  1.00  0.00     0.150 S 
ATOM     23  C   UNL A   1      33.016  20.434  23.985  1.00  0.00     0.158 C 
ATOM     24  O   UNL A   1      34.929  19.009  24.998  1.00  0.00    -0.229 OA
ATOM     25  O   UNL A   1      34.158  21.022  26.254  1.00  0.00    -0.229 OA
ENDBRANCH  20  22
ENDBRANCH   8  16
ENDBRANCH   6   8
ENDBRANCH   5   6
ENDBRANCH   4   5
ENDBRANCH   3   4
ENDBRANCH   2   3
ENDBRANCH   1   2
BRANCH   1  26
ATOM     26  C   UNL A   1      29.495  29.254  23.265  1.00  0.00     0.188 C 
BRANCH  26  27
ATOM     27  O   UNL A   1      30.427  29.989  24.064  1.00  0.00    -0.376 OA
BRANCH  27  28
ATOM     28  C   UNL A   1      31.328  29.209  24.834  1.00  0.00     0.202 C 
BRANCH  28  29
ATOM     29  C   UNL A   1      32.518  29.967  25.461  1.00  0.00     0.261 C 
BRANCH  29  30
ATOM     30  O   UNL A   1      32.338  30.431  26.823  1.00  0.00    -0.460 OA
BRANCH  30  31
ATOM     31  C   UNL A   1      32.971  31.584  27.165  1.00  0.00     0.338 C 
ATOM     32  O   UNL A   1      32.494  32.705  27.145  1.00  0.00    -0.246 OA
BRANCH  31  33
ATOM     33  C   UNL A   1      34.328  31.290  27.723  1.00  0.00     0.060 A 
ATOM     34  C   UNL A   1      34.632  29.972  28.098  1.00  0.00     0.016 A 
ATOM     35  C   UNL A   1      35.286  32.286  27.925  1.00  0.00     0.016 A 
ATOM     36  C   UNL A   1      35.872  29.651  28.680  1.00  0.00     0.010 A 
ATOM     37  C   UNL A   1      36.517  31.970  28.538  1.00  0.00     0.010 A 
ATOM     38  C   UNL A   1      36.818  30.655  28.941  1.00  0.00    -0.014 A 
BRANCH  38  39
ATOM     39  C   UNL A   1      38.033  30.377  29.776  1.00  0.00     0.031 A 
ATOM     40  C   UNL A   1      39.110  29.487  29.218  1.00  0.00     0.074 A 
ATOM     41  C   UNL A   1      38.207  30.878  31.014  1.00  0.00     0.049 A 
ATOM     42  N   UNL A   1      40.172  28.995  29.809  1.00  0.00    -0.248 NA
ATOM     43  C   UNL A   1      38.958  29.082  27.815  1.00  0.00     0.031 C 
ATOM     44  C   UNL A   1      37.270  31.756  31.692  1.00  0.00     0.029 A 
ATOM     45  N   UNL A   1      39.226  30.716  31.932  1.00  0.00    -0.354 N 
ATOM     46  C   UNL A   1      40.796  28.197  28.861  1.00  0.00     0.074 A 
ATOM     47  C   UNL A   1      39.996  28.275  27.655  1.00  0.00     0.031 C 
ATOM     48  C   UNL A   1      37.769  32.109  32.888  1.00  0.00     0.029 A 
ATOM     49  C   UNL A   1      39.012  31.373  33.122  1.00  0.00     0.049 A 
ATOM     50  H   UNL A   1      40.032  30.180  31.751  1.00  0.00     0.167 HD
ATOM     51  C   UNL A   1      41.920  27.451  28.986  1.00  0.00     0.037 A 
ATOM     52  C   UNL A   1      39.687  31.334  34.294  1.00  0.00     0.037 A 
ATOM     53  C   UNL A   1      42.718  27.353  30.183  1.00  0.00     0.049 A 
ATOM     54  C   UNL A   1      40.879  30.416  34.439  1.00  0.00     0.074 A 
ATOM     55  C   UNL A   1      43.876  26.622  30.385  1.00  0.00     0.029 A 
ATOM     56  N   UNL A   1      42.434  27.987  31.383  1.00  0.00    -0.354 N 
ATOM     57  N   UNL A   1      41.461  29.664  33.538  1.00  0.00    -0.248 NA
ATOM     58  C   UNL A   1      41.486  30.314  35.777  1.00  0.00     0.031 C 
ATOM     59  C   UNL A   1      44.256  26.760  31.724  1.00  0.00     0.029 A 
ATOM     60  C   UNL A   1      43.374  27.632  32.339  1.00  0.00     0.049 A 
ATOM     61  H   UNL A   1      41.678  28.600  31.532  1.00  0.00     0.167 HD
ATOM     62  C   UNL A   1      42.500  29.012  34.194  1.00  0.00     0.074 A 
ATOM     63  C   UNL A   1      42.492  29.478  35.562  1.00  0.00     0.031 C 
ATOM     64  C   UNL A   1      43.372  28.098  33.703  1.00  0.00     0.037 A 
BRANCH  51  65
ATOM     65  C   UNL A   1      42.329  26.621  27.804  1.00  0.00     0.064 A 
ATOM     66  C   UNL A   1      41.756  25.368  27.542  1.00  0.00     0.173 A 
ATOM     67  C   UNL A   1      43.290  27.106  26.902  1.00  0.00     0.173 A 
ATOM     68  F   UNL A   1      40.842  24.855  28.381  1.00  0.00    -0.203 F 
ATOM     69  C   UNL A   1      42.152  24.618  26.440  1.00  0.00     0.198 A 
ATOM     70  C   UNL A   1      43.657  26.368  25.781  1.00  0.00     0.198 A 
ATOM     71  F   UNL A   1      43.863  28.303  27.101  1.00  0.00    -0.203 F 
ATOM     72  F   UNL A   1      41.631  23.400  26.238  1.00  0.00    -0.200 F 
ATOM     73  C   UNL A   1      43.097  25.120  25.556  1.00  0.00     0.200 A 
ATOM     74  F   UNL A   1      44.558  26.865  24.921  1.00  0.00    -0.200 F 
ATOM     75  F   UNL A   1      43.472  24.400  24.491  1.00  0.00    -0.200 F 
ENDBRANCH  51  65
BRANCH  52  76
ATOM     76  C   UNL A   1      39.215  32.120  35.473  1.00  0.00     0.064 A 
ATOM     77  C   UNL A   1      39.595  33.458  35.654  1.00  0.00     0.173 A 
ATOM     78  C   UNL A   1      38.427  31.534  36.477  1.00  0.00     0.173 A 
ATOM     79  F   UNL A   1      40.383  34.059  34.749  1.00  0.00    -0.203 F 
ATOM     80  C   UNL A   1      39.220  34.171  36.793  1.00  0.00     0.198 A 
ATOM     81  C   UNL A   1      38.018  32.259  37.594  1.00  0.00     0.198 A 
ATOM     82  F   UNL A   1      38.049  30.252  36.372  1.00  0.00    -0.203 F 
ATOM     83  F   UNL A   1      39.651  35.428  36.967  1.00  0.00    -0.200 F 
ATOM     84  C   UNL A   1      38.424  33.574  37.757  1.00  0.00     0.200 A 
ATOM     85  F   UNL A   1      37.236  31.681  38.515  1.00  0.00    -0.200 F 
ATOM     86  F   UNL A   1      38.057  34.260  38.848  1.00  0.00    -0.200 F 
ENDBRANCH  52  76
BRANCH  64  87
ATOM     87  C   UNL A   1      44.417  27.548  34.636  1.00  0.00     0.064 A 
ATOM     88  C   UNL A   1      44.224  26.347  35.335  1.00  0.00     0.173 A 
ATOM     89  C   UNL A   1      45.654  28.197  34.784  1.00  0.00     0.173 A 
ATOM     90  F   UNL A   1      43.056  25.693  35.243  1.00  0.00    -0.203 F 
ATOM     91  C   UNL A   1      45.221  25.825  36.157  1.00  0.00     0.198 A 
ATOM     92  C   UNL A   1      46.660  27.656  35.580  1.00  0.00     0.198 A 
ATOM     93  F   UNL A   1      45.896  29.347  34.136  1.00  0.00    -0.203 F 
ATOM     94  F   UNL A   1      44.998  24.696  36.845  1.00  0.00    -0.200 F 
ATOM     95  C   UNL A   1      46.442  26.474  36.270  1.00  0.00     0.200 A 
ATOM     96  F   UNL A   1      47.844  28.278  35.676  1.00  0.00    -0.200 F 
ATOM     97  F   UNL A   1      47.406  25.961  37.048  1.00  0.00    -0.200 F 
ENDBRANCH  64  87
ENDBRANCH  38  39
ENDBRANCH  31  33
ENDBRANCH  30  31
ENDBRANCH  29  30
ENDBRANCH  28  29
ENDBRANCH  27  28
ENDBRANCH  26  27
ENDBRANCH   1  26
TORSDOF 20
ENDMDL
