MODEL 1
REMARK VINA RESULT:     -12.0      0.000      0.000
REMARK SMILES Cc1ccc2oc(C(=O)N[C@@H]3C=C[C@H](C(=O)OCCOCCOCCOC(=O)c4ccc(-c5c6nc(c(-c7c(F)c(F)c(F)c(F)c7F)c7ccc([nH]7)c(-c7c(F)c(F)c(F)c(F)c7F)c7nc(c(-c8c(F)c(F)c(F)c(F)c8F)c8ccc5[nH]8)C=C7)C=C6)cc4)C3)cc2c1
REMARK SMILES IDX 21 1 20 2 19 3 18 4 17 5 15 6 16 7 14 8 11 9 12 10 92 11
REMARK SMILES IDX 13 12 10 13 8 14 9 15 7 17 1 18 2 19 3 20 95 21 4 22 94 23
REMARK SMILES IDX 5 24 93 25 6 26 22 27 23 28 24 29 25 30 26 31 27 32 28 33
REMARK SMILES IDX 29 34 30 35 91 36 31 37 90 38 32 39 33 40 34 41 84 42 35 43
REMARK SMILES IDX 89 44 83 45 85 46 36 47 88 48 82 49 81 50 37 52 69 53 49 54
REMARK SMILES IDX 68 55 50 56 53 57 67 58 86 59 51 60 52 61 66 63 87 64 54 65
REMARK SMILES IDX 38 66 39 67 47 68 40 69 41 70 45 71 48 72 42 73 43 74 46 75
REMARK SMILES IDX 44 76 70 77 71 78 79 79 72 80 73 81 77 82 80 83 74 84 75 85
REMARK SMILES IDX 78 86 76 87 55 88 56 89 64 90 57 91 58 92 62 93 65 94 59 95
REMARK SMILES IDX 60 96 63 97 61 98
REMARK H PARENT 10 16 85 51 53 62
REMARK Flexibility Score: inf
ROOT
ATOM      1  C   UNL A   1      39.393  21.556  26.147  1.00  0.00     0.188 C 
ENDROOT
BRANCH   1   2
ATOM      2  O   UNL A   1      39.111  22.914  26.420  1.00  0.00    -0.376 OA
BRANCH   2   3
ATOM      3  C   UNL A   1      37.810  23.373  26.086  1.00  0.00     0.202 C 
BRANCH   3   4
ATOM      4  C   UNL A   1      37.353  23.236  24.617  1.00  0.00     0.261 C 
BRANCH   4   5
ATOM      5  O   UNL A   1      36.218  22.377  24.366  1.00  0.00    -0.463 OA
BRANCH   5   6
ATOM      6  C   UNL A   1      35.167  22.950  23.726  1.00  0.00     0.312 C 
ATOM      7  O   UNL A   1      35.260  23.453  22.613  1.00  0.00    -0.252 OA
BRANCH   6   8
ATOM      8  C   UNL A   1      33.828  22.679  24.448  1.00  0.00     0.124 C 
ATOM      9  C   UNL A   1      32.034  23.818  23.276  1.00  0.00     0.106 C 
ATOM     10  C   UNL A   1      32.156  24.316  24.665  1.00  0.00    -0.006 C 
ATOM     11  C   UNL A   1      32.743  22.465  23.385  1.00  0.00     0.048 C 
ATOM     12  C   UNL A   1      33.176  23.720  25.305  1.00  0.00    -0.014 C 
BRANCH   9  13
ATOM     13  N   UNL A   1      32.541  24.739  22.255  1.00  0.00    -0.343 N 
ATOM     14  C   UNL A   1      32.508  26.084  21.923  1.00  0.00     0.287 C 
ATOM     15  O   UNL A   1      33.362  26.415  21.094  1.00  0.00    -0.266 OA
ATOM     16  H   UNL A   1      33.075  24.243  21.593  1.00  0.00     0.164 HD
BRANCH  14  17
ATOM     17  C   UNL A   1      31.566  27.044  22.483  1.00  0.00     0.192 A 
ATOM     18  C   UNL A   1      27.807  31.669  23.043  1.00  0.00     0.044 C 
ATOM     19  C   UNL A   1      28.418  30.299  23.139  1.00  0.00    -0.050 A 
ATOM     20  C   UNL A   1      27.629  29.156  23.350  1.00  0.00     0.007 A 
ATOM     21  C   UNL A   1      29.800  30.162  22.954  1.00  0.00     0.015 A 
ATOM     22  C   UNL A   1      28.168  27.859  23.269  1.00  0.00     0.048 A 
ATOM     23  C   UNL A   1      30.358  28.876  22.940  1.00  0.00     0.021 A 
ATOM     24  C   UNL A   1      29.530  27.770  22.994  1.00  0.00     0.135 A 
ATOM     25  C   UNL A   1      31.664  28.352  22.907  1.00  0.00     0.065 A 
ATOM     26  O   UNL A   1      30.255  26.644  22.710  1.00  0.00    -0.451 OA
ENDBRANCH  14  17
ENDBRANCH   9  13
ENDBRANCH   6   8
ENDBRANCH   5   6
ENDBRANCH   4   5
ENDBRANCH   3   4
ENDBRANCH   2   3
ENDBRANCH   1   2
BRANCH   1  27
ATOM     27  C   UNL A   1      40.771  21.109  26.680  1.00  0.00     0.188 C 
BRANCH  27  28
ATOM     28  O   UNL A   1      41.691  20.447  25.833  1.00  0.00    -0.376 OA
BRANCH  28  29
ATOM     29  C   UNL A   1      43.068  20.731  25.984  1.00  0.00     0.202 C 
BRANCH  29  30
ATOM     30  C   UNL A   1      43.742  21.699  24.995  1.00  0.00     0.261 C 
BRANCH  30  31
ATOM     31  O   UNL A   1      43.072  22.957  24.767  1.00  0.00    -0.460 OA
BRANCH  31  32
ATOM     32  C   UNL A   1      43.810  24.079  24.954  1.00  0.00     0.338 C 
ATOM     33  O   UNL A   1      44.840  24.391  24.369  1.00  0.00    -0.246 OA
BRANCH  32  34
ATOM     34  C   UNL A   1      43.095  25.021  25.849  1.00  0.00     0.060 A 
ATOM     35  C   UNL A   1      43.407  26.391  25.790  1.00  0.00     0.016 A 
ATOM     36  C   UNL A   1      42.170  24.560  26.783  1.00  0.00     0.016 A 
ATOM     37  C   UNL A   1      42.807  27.297  26.671  1.00  0.00     0.010 A 
ATOM     38  C   UNL A   1      41.596  25.462  27.689  1.00  0.00     0.010 A 
ATOM     39  C   UNL A   1      41.932  26.830  27.657  1.00  0.00    -0.014 A 
BRANCH  39  40
ATOM     40  C   UNL A   1      41.533  27.720  28.780  1.00  0.00     0.031 A 
ATOM     41  C   UNL A   1      42.325  27.654  30.058  1.00  0.00     0.074 A 
ATOM     42  C   UNL A   1      40.496  28.570  28.681  1.00  0.00     0.049 A 
ATOM     43  N   UNL A   1      42.115  28.251  31.205  1.00  0.00    -0.248 NA
ATOM     44  C   UNL A   1      43.517  26.790  30.040  1.00  0.00     0.031 C 
ATOM     45  C   UNL A   1      39.678  28.774  27.488  1.00  0.00     0.029 A 
ATOM     46  N   UNL A   1      39.943  29.411  29.618  1.00  0.00    -0.354 N 
ATOM     47  C   UNL A   1      43.135  27.823  32.044  1.00  0.00     0.074 A 
ATOM     48  C   UNL A   1      43.949  26.897  31.287  1.00  0.00     0.031 C 
ATOM     49  C   UNL A   1      38.712  29.667  27.771  1.00  0.00     0.029 A 
ATOM     50  C   UNL A   1      38.820  30.067  29.175  1.00  0.00     0.049 A 
ATOM     51  H   UNL A   1      40.316  29.532  30.521  1.00  0.00     0.167 HD
ATOM     52  C   UNL A   1      43.377  28.172  33.331  1.00  0.00     0.037 A 
ATOM     53  C   UNL A   1      37.961  30.869  29.836  1.00  0.00     0.037 A 
ATOM     54  C   UNL A   1      42.566  29.089  34.089  1.00  0.00     0.049 A 
ATOM     55  C   UNL A   1      38.200  31.173  31.297  1.00  0.00     0.074 A 
ATOM     56  C   UNL A   1      42.739  29.518  35.393  1.00  0.00     0.029 A 
ATOM     57  N   UNL A   1      41.419  29.708  33.614  1.00  0.00    -0.354 N 
ATOM     58  N   UNL A   1      39.178  30.785  32.080  1.00  0.00    -0.248 NA
ATOM     59  C   UNL A   1      37.209  32.031  31.967  1.00  0.00     0.031 C 
ATOM     60  C   UNL A   1      41.663  30.347  35.728  1.00  0.00     0.029 A 
ATOM     61  C   UNL A   1      40.858  30.492  34.611  1.00  0.00     0.049 A 
ATOM     62  H   UNL A   1      41.057  29.606  32.704  1.00  0.00     0.167 HD
ATOM     63  C   UNL A   1      38.941  31.377  33.315  1.00  0.00     0.074 A 
ATOM     64  C   UNL A   1      37.734  32.161  33.176  1.00  0.00     0.031 C 
ATOM     65  C   UNL A   1      39.662  31.282  34.460  1.00  0.00     0.037 A 
BRANCH  52  66
ATOM     66  C   UNL A   1      44.550  27.531  34.016  1.00  0.00     0.064 A 
ATOM     67  C   UNL A   1      45.834  28.095  33.971  1.00  0.00     0.173 A 
ATOM     68  C   UNL A   1      44.381  26.348  34.752  1.00  0.00     0.173 A 
ATOM     69  F   UNL A   1      46.053  29.218  33.269  1.00  0.00    -0.203 F 
ATOM     70  C   UNL A   1      46.908  27.485  34.611  1.00  0.00     0.198 A 
ATOM     71  C   UNL A   1      45.450  25.758  35.420  1.00  0.00     0.198 A 
ATOM     72  F   UNL A   1      43.173  25.768  34.832  1.00  0.00    -0.203 F 
ATOM     73  F   UNL A   1      48.135  28.013  34.510  1.00  0.00    -0.200 F 
ATOM     74  C   UNL A   1      46.714  26.321  35.342  1.00  0.00     0.200 A 
ATOM     75  F   UNL A   1      45.256  24.643  36.139  1.00  0.00    -0.200 F 
ATOM     76  F   UNL A   1      47.748  25.739  35.965  1.00  0.00    -0.200 F 
ENDBRANCH  52  66
BRANCH  53  77
ATOM     77  C   UNL A   1      36.777  31.437  29.137  1.00  0.00     0.064 A 
ATOM     78  C   UNL A   1      36.715  32.799  28.808  1.00  0.00     0.173 A 
ATOM     79  C   UNL A   1      35.666  30.642  28.820  1.00  0.00     0.173 A 
ATOM     80  F   UNL A   1      37.738  33.608  29.119  1.00  0.00    -0.203 F 
ATOM     81  C   UNL A   1      35.582  33.346  28.210  1.00  0.00     0.198 A 
ATOM     82  C   UNL A   1      34.545  31.184  28.192  1.00  0.00     0.198 A 
ATOM     83  F   UNL A   1      35.668  29.334  29.119  1.00  0.00    -0.203 F 
ATOM     84  F   UNL A   1      35.529  34.662  27.960  1.00  0.00    -0.200 F 
ATOM     85  C   UNL A   1      34.500  32.538  27.896  1.00  0.00     0.200 A 
ATOM     86  F   UNL A   1      33.506  30.396  27.883  1.00  0.00    -0.200 F 
ATOM     87  F   UNL A   1      33.411  33.065  27.323  1.00  0.00    -0.200 F 
ENDBRANCH  53  77
BRANCH  65  88
ATOM     88  C   UNL A   1      39.202  32.085  35.645  1.00  0.00     0.064 A 
ATOM     89  C   UNL A   1      39.545  33.436  35.807  1.00  0.00     0.173 A 
ATOM     90  C   UNL A   1      38.364  31.504  36.611  1.00  0.00     0.173 A 
ATOM     91  F   UNL A   1      40.352  34.038  34.921  1.00  0.00    -0.203 F 
ATOM     92  C   UNL A   1      39.091  34.165  36.904  1.00  0.00     0.198 A 
ATOM     93  C   UNL A   1      37.884  32.246  37.688  1.00  0.00     0.198 A 
ATOM     94  F   UNL A   1      37.995  30.219  36.502  1.00  0.00    -0.203 F 
ATOM     95  F   UNL A   1      39.476  35.439  37.065  1.00  0.00    -0.200 F 
ATOM     96  C   UNL A   1      38.255  33.573  37.838  1.00  0.00     0.200 A 
ATOM     97  F   UNL A   1      37.060  31.676  38.578  1.00  0.00    -0.200 F 
ATOM     98  F   UNL A   1      37.812  34.278  38.888  1.00  0.00    -0.200 F 
ENDBRANCH  65  88
ENDBRANCH  39  40
ENDBRANCH  32  34
ENDBRANCH  31  32
ENDBRANCH  30  31
ENDBRANCH  29  30
ENDBRANCH  28  29
ENDBRANCH  27  28
ENDBRANCH   1  27
TORSDOF 19
ENDMDL
MODEL 2
REMARK VINA RESULT:     -11.8      4.958      7.380
REMARK SMILES Cc1ccc2oc(C(=O)N[C@@H]3C=C[C@H](C(=O)OCCOCCOCCOC(=O)c4ccc(-c5c6nc(c(-c7c(F)c(F)c(F)c(F)c7F)c7ccc([nH]7)c(-c7c(F)c(F)c(F)c(F)c7F)c7nc(c(-c8c(F)c(F)c(F)c(F)c8F)c8ccc5[nH]8)C=C7)C=C6)cc4)C3)cc2c1
REMARK SMILES IDX 21 1 20 2 19 3 18 4 17 5 15 6 16 7 14 8 11 9 12 10 92 11
REMARK SMILES IDX 13 12 10 13 8 14 9 15 7 17 1 18 2 19 3 20 95 21 4 22 94 23
REMARK SMILES IDX 5 24 93 25 6 26 22 27 23 28 24 29 25 30 26 31 27 32 28 33
REMARK SMILES IDX 29 34 30 35 91 36 31 37 90 38 32 39 33 40 34 41 84 42 35 43
REMARK SMILES IDX 89 44 83 45 85 46 36 47 88 48 82 49 81 50 37 52 69 53 49 54
REMARK SMILES IDX 68 55 50 56 53 57 67 58 86 59 51 60 52 61 66 63 87 64 54 65
REMARK SMILES IDX 38 66 39 67 47 68 40 69 41 70 45 71 48 72 42 73 43 74 46 75
REMARK SMILES IDX 44 76 70 77 71 78 79 79 72 80 73 81 77 82 80 83 74 84 75 85
REMARK SMILES IDX 78 86 76 87 55 88 56 89 64 90 57 91 58 92 62 93 65 94 59 95
REMARK SMILES IDX 60 96 63 97 61 98
REMARK H PARENT 10 16 85 51 53 62
REMARK Flexibility Score: inf
ROOT
ATOM      1  C   UNL A   1      39.793  21.283  26.207  1.00  0.00     0.188 C 
ENDROOT
BRANCH   1   2
ATOM      2  O   UNL A   1      39.665  22.680  26.383  1.00  0.00    -0.376 OA
BRANCH   2   3
ATOM      3  C   UNL A   1      38.377  23.233  26.158  1.00  0.00     0.202 C 
BRANCH   3   4
ATOM      4  C   UNL A   1      37.370  22.399  25.337  1.00  0.00     0.261 C 
BRANCH   4   5
ATOM      5  O   UNL A   1      36.394  21.639  26.084  1.00  0.00    -0.463 OA
BRANCH   5   6
ATOM      6  C   UNL A   1      35.092  21.939  25.844  1.00  0.00     0.312 C 
ATOM      7  O   UNL A   1      34.530  22.905  26.346  1.00  0.00    -0.252 OA
BRANCH   6   8
ATOM      8  C   UNL A   1      34.497  21.081  24.706  1.00  0.00     0.124 C 
ATOM      9  C   UNL A   1      32.074  21.207  24.782  1.00  0.00     0.106 C 
ATOM     10  C   UNL A   1      32.536  19.813  24.973  1.00  0.00    -0.006 C 
ATOM     11  C   UNL A   1      33.300  21.834  24.112  1.00  0.00     0.048 C 
ATOM     12  C   UNL A   1      33.878  19.744  24.976  1.00  0.00    -0.014 C 
BRANCH   9  13
ATOM     13  N   UNL A   1      31.595  21.859  26.003  1.00  0.00    -0.343 N 
ATOM     14  C   UNL A   1      31.079  23.073  26.430  1.00  0.00     0.287 C 
ATOM     15  O   UNL A   1      30.547  23.025  27.544  1.00  0.00    -0.266 OA
ATOM     16  H   UNL A   1      31.662  21.237  26.764  1.00  0.00     0.164 HD
BRANCH  14  17
ATOM     17  C   UNL A   1      31.141  24.307  25.659  1.00  0.00     0.192 A 
ATOM     18  C   UNL A   1      29.541  29.277  22.731  1.00  0.00     0.044 C 
ATOM     19  C   UNL A   1      30.266  28.312  23.625  1.00  0.00    -0.050 A 
ATOM     20  C   UNL A   1      31.046  28.756  24.705  1.00  0.00     0.007 A 
ATOM     21  C   UNL A   1      30.108  26.937  23.405  1.00  0.00     0.015 A 
ATOM     22  C   UNL A   1      31.585  27.861  25.648  1.00  0.00     0.048 A 
ATOM     23  C   UNL A   1      30.698  26.035  24.300  1.00  0.00     0.021 A 
ATOM     24  C   UNL A   1      31.326  26.510  25.437  1.00  0.00     0.135 A 
ATOM     25  C   UNL A   1      30.865  24.638  24.349  1.00  0.00     0.065 A 
ATOM     26  O   UNL A   1      31.595  25.464  26.280  1.00  0.00    -0.451 OA
ENDBRANCH  14  17
ENDBRANCH   9  13
ENDBRANCH   6   8
ENDBRANCH   5   6
ENDBRANCH   4   5
ENDBRANCH   3   4
ENDBRANCH   2   3
ENDBRANCH   1   2
BRANCH   1  27
ATOM     27  C   UNL A   1      41.263  20.823  26.086  1.00  0.00     0.188 C 
BRANCH  27  28
ATOM     28  O   UNL A   1      41.580  19.567  25.519  1.00  0.00    -0.376 OA
BRANCH  28  29
ATOM     29  C   UNL A   1      42.326  18.649  26.295  1.00  0.00     0.202 C 
BRANCH  29  30
ATOM     30  C   UNL A   1      43.751  18.278  25.846  1.00  0.00     0.261 C 
BRANCH  30  31
ATOM     31  O   UNL A   1      44.070  18.513  24.458  1.00  0.00    -0.460 OA
BRANCH  31  32
ATOM     32  C   UNL A   1      45.151  19.292  24.208  1.00  0.00     0.338 C 
ATOM     33  O   UNL A   1      46.125  19.005  23.522  1.00  0.00    -0.246 OA
BRANCH  32  34
ATOM     34  C   UNL A   1      44.926  20.664  24.723  1.00  0.00     0.060 A 
ATOM     35  C   UNL A   1      44.479  21.662  23.839  1.00  0.00     0.016 A 
ATOM     36  C   UNL A   1      45.209  20.988  26.049  1.00  0.00     0.016 A 
ATOM     37  C   UNL A   1      44.328  22.983  24.272  1.00  0.00     0.010 A 
ATOM     38  C   UNL A   1      45.092  22.318  26.473  1.00  0.00     0.010 A 
ATOM     39  C   UNL A   1      44.679  23.328  25.582  1.00  0.00    -0.014 A 
BRANCH  39  40
ATOM     40  C   UNL A   1      44.818  24.759  25.963  1.00  0.00     0.031 A 
ATOM     41  C   UNL A   1      46.175  25.400  25.842  1.00  0.00     0.074 A 
ATOM     42  C   UNL A   1      43.775  25.482  26.406  1.00  0.00     0.049 A 
ATOM     43  N   UNL A   1      46.570  26.595  26.204  1.00  0.00    -0.248 NA
ATOM     44  C   UNL A   1      47.231  24.575  25.233  1.00  0.00     0.031 C 
ATOM     45  C   UNL A   1      42.400  25.005  26.521  1.00  0.00     0.029 A 
ATOM     46  N   UNL A   1      43.722  26.779  26.861  1.00  0.00    -0.354 N 
ATOM     47  C   UNL A   1      47.920  26.657  25.881  1.00  0.00     0.074 A 
ATOM     48  C   UNL A   1      48.283  25.374  25.320  1.00  0.00     0.031 C 
ATOM     49  C   UNL A   1      41.640  25.988  27.037  1.00  0.00     0.029 A 
ATOM     50  C   UNL A   1      42.482  27.150  27.324  1.00  0.00     0.049 A 
ATOM     51  H   UNL A   1      44.498  27.385  26.856  1.00  0.00     0.167 HD
ATOM     52  C   UNL A   1      48.782  27.692  26.035  1.00  0.00     0.037 A 
ATOM     53  C   UNL A   1      42.085  28.283  27.937  1.00  0.00     0.037 A 
ATOM     54  C   UNL A   1      48.425  28.967  26.599  1.00  0.00     0.049 A 
ATOM     55  C   UNL A   1      43.084  29.390  28.181  1.00  0.00     0.074 A 
ATOM     56  C   UNL A   1      49.223  30.084  26.781  1.00  0.00     0.029 A 
ATOM     57  N   UNL A   1      47.167  29.294  27.084  1.00  0.00    -0.354 N 
ATOM     58  N   UNL A   1      44.353  29.453  27.854  1.00  0.00    -0.248 NA
ATOM     59  C   UNL A   1      42.592  30.586  28.882  1.00  0.00     0.031 C 
ATOM     60  C   UNL A   1      48.465  31.062  27.433  1.00  0.00     0.029 A 
ATOM     61  C   UNL A   1      47.176  30.583  27.593  1.00  0.00     0.049 A 
ATOM     62  H   UNL A   1      46.384  28.697  27.069  1.00  0.00     0.167 HD
ATOM     63  C   UNL A   1      44.797  30.702  28.273  1.00  0.00     0.074 A 
ATOM     64  C   UNL A   1      43.660  31.370  28.868  1.00  0.00     0.031 C 
ATOM     65  C   UNL A   1      46.035  31.246  28.171  1.00  0.00     0.037 A 
BRANCH  52  66
ATOM     66  C   UNL A   1      50.209  27.475  25.619  1.00  0.00     0.064 A 
ATOM     67  C   UNL A   1      51.209  27.145  26.546  1.00  0.00     0.173 A 
ATOM     68  C   UNL A   1      50.575  27.571  24.268  1.00  0.00     0.173 A 
ATOM     69  F   UNL A   1      50.916  27.053  27.852  1.00  0.00    -0.203 F 
ATOM     70  C   UNL A   1      52.526  26.948  26.140  1.00  0.00     0.198 A 
ATOM     71  C   UNL A   1      51.885  27.341  23.860  1.00  0.00     0.198 A 
ATOM     72  F   UNL A   1      49.657  27.880  23.338  1.00  0.00    -0.203 F 
ATOM     73  F   UNL A   1      53.474  26.686  27.049  1.00  0.00    -0.200 F 
ATOM     74  C   UNL A   1      52.862  27.039  24.797  1.00  0.00     0.200 A 
ATOM     75  F   UNL A   1      52.203  27.413  22.560  1.00  0.00    -0.200 F 
ATOM     76  F   UNL A   1      54.128  26.841  24.406  1.00  0.00    -0.200 F 
ENDBRANCH  52  66
BRANCH  53  77
ATOM     77  C   UNL A   1      40.675  28.435  28.388  1.00  0.00     0.064 A 
ATOM     78  C   UNL A   1      39.702  28.992  27.545  1.00  0.00     0.173 A 
ATOM     79  C   UNL A   1      40.278  28.067  29.682  1.00  0.00     0.173 A 
ATOM     80  F   UNL A   1      40.037  29.390  26.309  1.00  0.00    -0.203 F 
ATOM     81  C   UNL A   1      38.396  29.194  27.986  1.00  0.00     0.198 A 
ATOM     82  C   UNL A   1      38.963  28.239  30.111  1.00  0.00     0.198 A 
ATOM     83  F   UNL A   1      41.169  27.536  30.533  1.00  0.00    -0.203 F 
ATOM     84  F   UNL A   1      37.502  29.782  27.177  1.00  0.00    -0.200 F 
ATOM     85  C   UNL A   1      38.025  28.811  29.266  1.00  0.00     0.200 A 
ATOM     86  F   UNL A   1      38.608  27.859  31.346  1.00  0.00    -0.200 F 
ATOM     87  F   UNL A   1      36.769  29.007  29.688  1.00  0.00    -0.200 F 
ENDBRANCH  53  77
BRANCH  65  88
ATOM     88  C   UNL A   1      46.222  32.655  28.664  1.00  0.00     0.064 A 
ATOM     89  C   UNL A   1      46.564  32.939  29.994  1.00  0.00     0.173 A 
ATOM     90  C   UNL A   1      46.102  33.737  27.775  1.00  0.00     0.173 A 
ATOM     91  F   UNL A   1      46.681  31.946  30.888  1.00  0.00    -0.203 F 
ATOM     92  C   UNL A   1      46.750  34.252  30.423  1.00  0.00     0.198 A 
ATOM     93  C   UNL A   1      46.322  35.045  28.199  1.00  0.00     0.198 A 
ATOM     94  F   UNL A   1      45.786  33.524  26.489  1.00  0.00    -0.203 F 
ATOM     95  F   UNL A   1      47.024  34.502  31.711  1.00  0.00    -0.200 F 
ATOM     96  C   UNL A   1      46.638  35.303  29.524  1.00  0.00     0.200 A 
ATOM     97  F   UNL A   1      46.232  36.056  27.323  1.00  0.00    -0.200 F 
ATOM     98  F   UNL A   1      46.826  36.563  29.936  1.00  0.00    -0.200 F 
ENDBRANCH  65  88
ENDBRANCH  39  40
ENDBRANCH  32  34
ENDBRANCH  31  32
ENDBRANCH  30  31
ENDBRANCH  29  30
ENDBRANCH  28  29
ENDBRANCH  27  28
ENDBRANCH   1  27
TORSDOF 19
ENDMDL
MODEL 3
REMARK VINA RESULT:     -11.6      3.482      9.360
REMARK SMILES Cc1ccc2oc(C(=O)N[C@@H]3C=C[C@H](C(=O)OCCOCCOCCOC(=O)c4ccc(-c5c6nc(c(-c7c(F)c(F)c(F)c(F)c7F)c7ccc([nH]7)c(-c7c(F)c(F)c(F)c(F)c7F)c7nc(c(-c8c(F)c(F)c(F)c(F)c8F)c8ccc5[nH]8)C=C7)C=C6)cc4)C3)cc2c1
REMARK SMILES IDX 21 1 20 2 19 3 18 4 17 5 15 6 16 7 14 8 11 9 12 10 92 11
REMARK SMILES IDX 13 12 10 13 8 14 9 15 7 17 1 18 2 19 3 20 95 21 4 22 94 23
REMARK SMILES IDX 5 24 93 25 6 26 22 27 23 28 24 29 25 30 26 31 27 32 28 33
REMARK SMILES IDX 29 34 30 35 91 36 31 37 90 38 32 39 33 40 34 41 84 42 35 43
REMARK SMILES IDX 89 44 83 45 85 46 36 47 88 48 82 49 81 50 37 52 69 53 49 54
REMARK SMILES IDX 68 55 50 56 53 57 67 58 86 59 51 60 52 61 66 63 87 64 54 65
REMARK SMILES IDX 38 66 39 67 47 68 40 69 41 70 45 71 48 72 42 73 43 74 46 75
REMARK SMILES IDX 44 76 70 77 71 78 79 79 72 80 73 81 77 82 80 83 74 84 75 85
REMARK SMILES IDX 78 86 76 87 55 88 56 89 64 90 57 91 58 92 62 93 65 94 59 95
REMARK SMILES IDX 60 96 63 97 61 98
REMARK H PARENT 10 16 85 51 53 62
REMARK Flexibility Score: inf
ROOT
ATOM      1  C   UNL A   1      33.903  31.982  27.897  1.00  0.00     0.188 C 
ENDROOT
BRANCH   1   2
ATOM      2  O   UNL A   1      34.079  30.611  27.600  1.00  0.00    -0.376 OA
BRANCH   2   3
ATOM      3  C   UNL A   1      33.306  30.088  26.530  1.00  0.00     0.202 C 
BRANCH   3   4
ATOM      4  C   UNL A   1      32.110  29.178  26.884  1.00  0.00     0.261 C 
BRANCH   4   5
ATOM      5  O   UNL A   1      32.308  27.755  26.731  1.00  0.00    -0.463 OA
BRANCH   5   6
ATOM      6  C   UNL A   1      31.279  27.065  26.176  1.00  0.00     0.312 C 
ATOM      7  O   UNL A   1      30.519  26.364  26.831  1.00  0.00    -0.252 OA
BRANCH   6   8
ATOM      8  C   UNL A   1      31.046  27.456  24.699  1.00  0.00     0.124 C 
ATOM      9  C   UNL A   1      30.205  25.534  23.479  1.00  0.00     0.106 C 
ATOM     10  C   UNL A   1      31.497  25.990  22.918  1.00  0.00    -0.006 C 
ATOM     11  C   UNL A   1      29.748  26.790  24.226  1.00  0.00     0.048 C 
ATOM     12  C   UNL A   1      31.989  27.026  23.618  1.00  0.00    -0.014 C 
BRANCH   9  13
ATOM     13  N   UNL A   1      30.287  24.302  24.268  1.00  0.00    -0.343 N 
ATOM     14  C   UNL A   1      31.200  23.573  25.014  1.00  0.00     0.287 C 
ATOM     15  O   UNL A   1      30.682  22.718  25.740  1.00  0.00    -0.266 OA
ATOM     16  H   UNL A   1      29.414  23.845  24.267  1.00  0.00     0.164 HD
BRANCH  14  17
ATOM     17  C   UNL A   1      32.642  23.775  24.968  1.00  0.00     0.192 A 
ATOM     18  C   UNL A   1      38.497  23.286  26.114  1.00  0.00     0.044 C 
ATOM     19  C   UNL A   1      37.184  23.413  25.395  1.00  0.00    -0.050 A 
ATOM     20  C   UNL A   1      37.034  23.004  24.060  1.00  0.00     0.007 A 
ATOM     21  C   UNL A   1      36.072  23.896  26.099  1.00  0.00     0.015 A 
ATOM     22  C   UNL A   1      35.775  22.958  23.435  1.00  0.00     0.048 A 
ATOM     23  C   UNL A   1      34.824  23.918  25.463  1.00  0.00     0.021 A 
ATOM     24  C   UNL A   1      34.687  23.363  24.204  1.00  0.00     0.135 A 
ATOM     25  C   UNL A   1      33.549  24.423  25.779  1.00  0.00     0.065 A 
ATOM     26  O   UNL A   1      33.357  23.263  23.892  1.00  0.00    -0.451 OA
ENDBRANCH  14  17
ENDBRANCH   9  13
ENDBRANCH   6   8
ENDBRANCH   5   6
ENDBRANCH   4   5
ENDBRANCH   3   4
ENDBRANCH   2   3
ENDBRANCH   1   2
BRANCH   1  27
ATOM     27  C   UNL A   1      34.691  32.433  29.146  1.00  0.00     0.188 C 
BRANCH  27  28
ATOM     28  O   UNL A   1      34.987  33.800  29.356  1.00  0.00    -0.376 OA
BRANCH  28  29
ATOM     29  C   UNL A   1      34.167  34.769  28.730  1.00  0.00     0.202 C 
BRANCH  29  30
ATOM     30  C   UNL A   1      32.924  35.287  29.476  1.00  0.00     0.261 C 
BRANCH  30  31
ATOM     31  O   UNL A   1      33.166  36.140  30.615  1.00  0.00    -0.460 OA
BRANCH  31  32
ATOM     32  C   UNL A   1      32.811  35.646  31.827  1.00  0.00     0.338 C 
ATOM     33  O   UNL A   1      31.684  35.602  32.305  1.00  0.00    -0.246 OA
BRANCH  32  34
ATOM     34  C   UNL A   1      33.963  34.959  32.459  1.00  0.00     0.060 A 
ATOM     35  C   UNL A   1      35.237  35.549  32.385  1.00  0.00     0.016 A 
ATOM     36  C   UNL A   1      33.810  33.713  33.066  1.00  0.00     0.016 A 
ATOM     37  C   UNL A   1      36.358  34.893  32.903  1.00  0.00     0.010 A 
ATOM     38  C   UNL A   1      34.938  33.040  33.553  1.00  0.00     0.010 A 
ATOM     39  C   UNL A   1      36.222  33.612  33.449  1.00  0.00    -0.014 A 
BRANCH  39  40
ATOM     40  C   UNL A   1      37.428  32.784  33.717  1.00  0.00     0.031 A 
ATOM     41  C   UNL A   1      38.197  33.034  34.987  1.00  0.00     0.074 A 
ATOM     42  C   UNL A   1      37.841  31.831  32.863  1.00  0.00     0.049 A 
ATOM     43  N   UNL A   1      39.328  32.517  35.396  1.00  0.00    -0.248 NA
ATOM     44  C   UNL A   1      37.607  34.007  35.922  1.00  0.00     0.031 C 
ATOM     45  C   UNL A   1      37.165  31.448  31.628  1.00  0.00     0.029 A 
ATOM     46  N   UNL A   1      38.952  31.021  32.906  1.00  0.00    -0.354 N 
ATOM     47  C   UNL A   1      39.592  33.112  36.623  1.00  0.00     0.074 A 
ATOM     48  C   UNL A   1      38.518  34.047  36.882  1.00  0.00     0.031 C 
ATOM     49  C   UNL A   1      37.886  30.492  31.015  1.00  0.00     0.029 A 
ATOM     50  C   UNL A   1      39.094  30.223  31.796  1.00  0.00     0.049 A 
ATOM     51  H   UNL A   1      39.585  31.013  33.660  1.00  0.00     0.167 HD
ATOM     52  C   UNL A   1      40.633  32.897  37.463  1.00  0.00     0.037 A 
ATOM     53  C   UNL A   1      40.099  29.398  31.439  1.00  0.00     0.037 A 
ATOM     54  C   UNL A   1      41.705  31.971  37.206  1.00  0.00     0.049 A 
ATOM     55  C   UNL A   1      41.295  29.242  32.350  1.00  0.00     0.074 A 
ATOM     56  C   UNL A   1      42.795  31.671  38.004  1.00  0.00     0.029 A 
ATOM     57  N   UNL A   1      41.829  31.205  36.057  1.00  0.00    -0.354 N 
ATOM     58  N   UNL A   1      41.528  29.789  33.519  1.00  0.00    -0.248 NA
ATOM     59  C   UNL A   1      42.370  28.350  31.887  1.00  0.00     0.031 C 
ATOM     60  C   UNL A   1      43.611  30.772  37.310  1.00  0.00     0.029 A 
ATOM     61  C   UNL A   1      42.994  30.455  36.112  1.00  0.00     0.049 A 
ATOM     62  H   UNL A   1      41.185  31.194  35.313  1.00  0.00     0.167 HD
ATOM     63  C   UNL A   1      42.751  29.281  33.944  1.00  0.00     0.074 A 
ATOM     64  C   UNL A   1      43.206  28.373  32.914  1.00  0.00     0.031 C 
ATOM     65  C   UNL A   1      43.433  29.542  35.087  1.00  0.00     0.037 A 
BRANCH  52  66
ATOM     66  C   UNL A   1      40.683  33.705  38.729  1.00  0.00     0.064 A 
ATOM     67  C   UNL A   1      39.967  33.331  39.876  1.00  0.00     0.173 A 
ATOM     68  C   UNL A   1      41.481  34.857  38.802  1.00  0.00     0.173 A 
ATOM     69  F   UNL A   1      39.177  32.247  39.855  1.00  0.00    -0.203 F 
ATOM     70  C   UNL A   1      40.025  34.095  41.038  1.00  0.00     0.198 A 
ATOM     71  C   UNL A   1      41.565  35.600  39.976  1.00  0.00     0.198 A 
ATOM     72  F   UNL A   1      42.190  35.258  37.735  1.00  0.00    -0.203 F 
ATOM     73  F   UNL A   1      39.292  33.748  42.104  1.00  0.00    -0.200 F 
ATOM     74  C   UNL A   1      40.831  35.224  41.090  1.00  0.00     0.200 A 
ATOM     75  F   UNL A   1      42.356  36.680  40.029  1.00  0.00    -0.200 F 
ATOM     76  F   UNL A   1      40.893  35.953  42.212  1.00  0.00    -0.200 F 
ENDBRANCH  52  66
BRANCH  53  77
ATOM     77  C   UNL A   1      40.039  28.660  30.149  1.00  0.00     0.064 A 
ATOM     78  C   UNL A   1      39.435  27.397  30.064  1.00  0.00     0.173 A 
ATOM     79  C   UNL A   1      40.620  29.181  28.983  1.00  0.00     0.173 A 
ATOM     80  F   UNL A   1      38.893  26.842  31.158  1.00  0.00    -0.203 F 
ATOM     81  C   UNL A   1      39.433  26.676  28.872  1.00  0.00     0.198 A 
ATOM     82  C   UNL A   1      40.589  28.472  27.782  1.00  0.00     0.198 A 
ATOM     83  F   UNL A   1      41.219  30.380  29.008  1.00  0.00    -0.203 F 
ATOM     84  F   UNL A   1      38.898  25.447  28.837  1.00  0.00    -0.200 F 
ATOM     85  C   UNL A   1      40.004  27.217  27.730  1.00  0.00     0.200 A 
ATOM     86  F   UNL A   1      41.135  29.003  26.679  1.00  0.00    -0.200 F 
ATOM     87  F   UNL A   1      40.002  26.522  26.585  1.00  0.00    -0.200 F 
ENDBRANCH  53  77
BRANCH  65  88
ATOM     88  C   UNL A   1      44.720  28.799  35.319  1.00  0.00     0.064 A 
ATOM     89  C   UNL A   1      44.753  27.551  35.958  1.00  0.00     0.173 A 
ATOM     90  C   UNL A   1      45.935  29.325  34.850  1.00  0.00     0.173 A 
ATOM     91  F   UNL A   1      43.624  27.006  36.436  1.00  0.00    -0.203 F 
ATOM     92  C   UNL A   1      45.956  26.872  36.145  1.00  0.00     0.198 A 
ATOM     93  C   UNL A   1      47.130  28.628  35.008  1.00  0.00     0.198 A 
ATOM     94  F   UNL A   1      45.961  30.511  34.223  1.00  0.00    -0.203 F 
ATOM     95  F   UNL A   1      45.970  25.706  36.806  1.00  0.00    -0.200 F 
ATOM     96  C   UNL A   1      47.141  27.407  35.663  1.00  0.00     0.200 A 
ATOM     97  F   UNL A   1      48.271  29.138  34.523  1.00  0.00    -0.200 F 
ATOM     98  F   UNL A   1      48.295  26.748  35.835  1.00  0.00    -0.200 F 
ENDBRANCH  65  88
ENDBRANCH  39  40
ENDBRANCH  32  34
ENDBRANCH  31  32
ENDBRANCH  30  31
ENDBRANCH  29  30
ENDBRANCH  28  29
ENDBRANCH  27  28
ENDBRANCH   1  27
TORSDOF 19
ENDMDL
