MODEL 1
REMARK VINA RESULT:     -13.3      0.000      0.000
REMARK SMILES O=C(OCCOCCOCCOC(=O)c1ccc(-c2c3nc(c(-c4c(F)c(F)c(F)c(F)c4F)c4ccc([nH]4)c(-c4c(F)c(F)c(F)c(F)c4F)c4nc(c(-c5c(F)c(F)c(F)c(F)c5F)c5ccc2[nH]5)C=C4)C=C3)cc1)C1=Cc2cc(Cl)c(Cl)c(Cl)c2O[C@@H]1C(F)(F)F
REMARK SMILES IDX 8 1 7 2 6 3 5 4 4 5 3 6 2 7 1 8 78 9 79 10 90 11 80 12 89 13
REMARK SMILES IDX 81 14 88 15 82 16 86 17 83 18 84 19 87 20 85 21 91 22 92 23
REMARK SMILES IDX 93 24 94 25 9 26 10 27 11 28 12 29 13 30 14 31 15 32 16 33
REMARK SMILES IDX 77 34 17 35 76 36 18 37 19 38 20 39 70 40 21 41 75 42 69 43
REMARK SMILES IDX 71 44 22 45 74 46 68 47 67 48 23 50 55 51 35 52 54 53 36 54
REMARK SMILES IDX 39 55 53 56 72 57 37 58 38 59 52 61 73 62 40 63 24 64 25 65
REMARK SMILES IDX 33 66 26 67 27 68 31 69 34 70 28 71 29 72 32 73 30 74 56 75
REMARK SMILES IDX 57 76 65 77 58 78 59 79 63 80 66 81 60 82 61 83 64 84 62 85
REMARK SMILES IDX 41 86 42 87 50 88 43 89 44 90 48 91 51 92 45 93 46 94 49 95
REMARK SMILES IDX 47 96
REMARK H PARENT 71 49 39 60
REMARK Flexibility Score: inf
ROOT
ATOM      1  C   UNL A   1      41.817  20.964  26.497  1.00  0.00     0.188 C 
ENDROOT
BRANCH   1   2
ATOM      2  C   UNL A   1      40.495  21.644  26.114  1.00  0.00     0.188 C 
BRANCH   2   3
ATOM      3  O   UNL A   1      39.761  22.593  27.002  1.00  0.00    -0.376 OA
BRANCH   3   4
ATOM      4  C   UNL A   1      38.637  23.822  26.565  1.00  0.00     0.202 C 
BRANCH   4   5
ATOM      5  C   UNL A   1      37.094  23.617  25.048  1.00  0.00     0.261 C 
BRANCH   5   6
ATOM      6  O   UNL A   1      35.610  23.402  25.293  1.00  0.00    -0.460 OA
BRANCH   6   7
ATOM      7  C   UNL A   1      35.356  22.183  25.789  1.00  0.00     0.338 C 
ATOM      8  O   UNL A   1      36.049  21.197  25.736  1.00  0.00    -0.246 OA
BRANCH   7   9
ATOM      9  C   UNL A   1      33.910  22.324  25.858  1.00  0.00     0.087 C 
ATOM     10  C   UNL A   1      33.403  23.575  26.413  1.00  0.00     0.027 C 
ATOM     11  C   UNL A   1      33.672  21.758  24.042  1.00  0.00     0.316 C 
ATOM     12  C   UNL A   1      32.749  24.924  25.423  1.00  0.00     0.020 A 
ATOM     13  O   UNL A   1      33.128  23.261  22.916  1.00  0.00    -0.474 OA
ATOM     14  C   UNL A   1      32.412  26.093  26.042  1.00  0.00     0.034 A 
ATOM     15  C   UNL A   1      32.666  24.854  23.698  1.00  0.00     0.148 A 
ATOM     16  C   UNL A   1      31.995  27.136  25.187  1.00  0.00     0.062 A 
ATOM     17  C   UNL A   1      32.275  25.925  22.931  1.00  0.00     0.103 A 
ATOM     18  Cl  UNL A   1      31.569  28.604  26.036  1.00  0.00    -0.083 Cl
ATOM     19  C   UNL A   1      31.924  27.067  23.714  1.00  0.00     0.082 A 
ATOM     20  Cl  UNL A   1      32.297  25.907  21.226  1.00  0.00    -0.079 Cl
ATOM     21  Cl  UNL A   1      31.377  28.509  22.879  1.00  0.00    -0.081 Cl
BRANCH  11  22
ATOM     22  C   UNL A   1      32.886  20.347  24.534  1.00  0.00     0.430 C 
ATOM     23  F   UNL A   1      33.494  19.412  25.258  1.00  0.00    -0.167 F 
ATOM     24  F   UNL A   1      31.785  20.710  25.249  1.00  0.00    -0.167 F 
ATOM     25  F   UNL A   1      32.377  19.647  23.470  1.00  0.00    -0.167 F 
ENDBRANCH  11  22
ENDBRANCH   7   9
ENDBRANCH   6   7
ENDBRANCH   5   6
ENDBRANCH   4   5
ENDBRANCH   3   4
ENDBRANCH   2   3
ENDBRANCH   1   2
BRANCH   1  26
ATOM     26  O   UNL A   1      42.669  20.493  25.489  1.00  0.00    -0.376 OA
BRANCH  26  27
ATOM     27  C   UNL A   1      43.922  21.150  25.378  1.00  0.00     0.202 C 
BRANCH  27  28
ATOM     28  C   UNL A   1      44.062  22.249  24.316  1.00  0.00     0.261 C 
BRANCH  28  29
ATOM     29  O   UNL A   1      43.370  23.474  24.641  1.00  0.00    -0.460 OA
BRANCH  29  30
ATOM     30  C   UNL A   1      44.129  24.537  25.011  1.00  0.00     0.338 C 
ATOM     31  O   UNL A   1      45.248  24.822  24.623  1.00  0.00    -0.246 OA
BRANCH  30  32
ATOM     32  C   UNL A   1      43.338  25.419  25.891  1.00  0.00     0.060 A 
ATOM     33  C   UNL A   1      43.561  26.805  25.872  1.00  0.00     0.016 A 
ATOM     34  C   UNL A   1      42.422  24.862  26.783  1.00  0.00     0.016 A 
ATOM     35  C   UNL A   1      42.842  27.642  26.729  1.00  0.00     0.010 A 
ATOM     36  C   UNL A   1      41.742  25.693  27.674  1.00  0.00     0.010 A 
ATOM     37  C   UNL A   1      41.965  27.083  27.666  1.00  0.00    -0.014 A 
BRANCH  37  38
ATOM     38  C   UNL A   1      41.497  27.897  28.813  1.00  0.00     0.031 A 
ATOM     39  C   UNL A   1      42.258  27.772  30.102  1.00  0.00     0.074 A 
ATOM     40  C   UNL A   1      40.429  28.708  28.726  1.00  0.00     0.049 A 
ATOM     41  N   UNL A   1      42.027  28.319  31.267  1.00  0.00    -0.248 NA
ATOM     42  C   UNL A   1      43.439  26.894  30.071  1.00  0.00     0.031 C 
ATOM     43  C   UNL A   1      39.637  28.939  27.524  1.00  0.00     0.029 A 
ATOM     44  N   UNL A   1      39.822  29.478  29.688  1.00  0.00    -0.354 N 
ATOM     45  C   UNL A   1      43.031  27.849  32.105  1.00  0.00     0.074 A 
ATOM     46  C   UNL A   1      43.844  26.941  31.329  1.00  0.00     0.031 C 
ATOM     47  C   UNL A   1      38.638  29.790  27.819  1.00  0.00     0.029 A 
ATOM     48  C   UNL A   1      38.700  30.133  29.241  1.00  0.00     0.049 A 
ATOM     49  H   UNL A   1      40.158  29.555  30.610  1.00  0.00     0.167 HD
ATOM     50  C   UNL A   1      43.256  28.154  33.404  1.00  0.00     0.037 A 
ATOM     51  C   UNL A   1      37.821  30.902  29.913  1.00  0.00     0.037 A 
ATOM     52  C   UNL A   1      42.421  29.033  34.177  1.00  0.00     0.049 A 
ATOM     53  C   UNL A   1      38.038  31.153  31.388  1.00  0.00     0.074 A 
ATOM     54  C   UNL A   1      42.561  29.415  35.498  1.00  0.00     0.029 A 
ATOM     55  N   UNL A   1      41.270  29.647  33.701  1.00  0.00    -0.354 N 
ATOM     56  N   UNL A   1      39.008  30.739  32.168  1.00  0.00    -0.248 NA
ATOM     57  C   UNL A   1      37.038  31.984  32.073  1.00  0.00     0.031 C 
ATOM     58  C   UNL A   1      41.453  30.194  35.844  1.00  0.00     0.029 A 
ATOM     59  C   UNL A   1      40.669  30.375  34.714  1.00  0.00     0.049 A 
ATOM     60  H   UNL A   1      40.932  29.576  32.779  1.00  0.00     0.167 HD
ATOM     61  C   UNL A   1      38.757  31.288  33.421  1.00  0.00     0.074 A 
ATOM     62  C   UNL A   1      37.549  32.074  33.292  1.00  0.00     0.031 C 
ATOM     63  C   UNL A   1      39.467  31.158  34.571  1.00  0.00     0.037 A 
BRANCH  50  64
ATOM     64  C   UNL A   1      44.423  27.483  34.073  1.00  0.00     0.064 A 
ATOM     65  C   UNL A   1      45.699  28.069  34.107  1.00  0.00     0.173 A 
ATOM     66  C   UNL A   1      44.265  26.228  34.681  1.00  0.00     0.173 A 
ATOM     67  F   UNL A   1      45.911  29.261  33.529  1.00  0.00    -0.203 F 
ATOM     68  C   UNL A   1      46.780  27.402  34.679  1.00  0.00     0.198 A 
ATOM     69  C   UNL A   1      45.339  25.584  35.290  1.00  0.00     0.198 A 
ATOM     70  F   UNL A   1      43.068  25.621  34.682  1.00  0.00    -0.203 F 
ATOM     71  F   UNL A   1      48.004  27.947  34.629  1.00  0.00    -0.200 F 
ATOM     72  C   UNL A   1      46.598  26.164  35.275  1.00  0.00     0.200 A 
ATOM     73  F   UNL A   1      45.155  24.396  35.882  1.00  0.00    -0.200 F 
ATOM     74  F   UNL A   1      47.637  25.524  35.826  1.00  0.00    -0.200 F 
ENDBRANCH  50  64
BRANCH  51  75
ATOM     75  C   UNL A   1      36.651  31.492  29.206  1.00  0.00     0.064 A 
ATOM     76  C   UNL A   1      36.596  32.863  28.916  1.00  0.00     0.173 A 
ATOM     77  C   UNL A   1      35.556  30.704  28.821  1.00  0.00     0.173 A 
ATOM     78  F   UNL A   1      37.603  33.667  29.288  1.00  0.00    -0.203 F 
ATOM     79  C   UNL A   1      35.486  33.424  28.286  1.00  0.00     0.198 A 
ATOM     80  C   UNL A   1      34.461  31.260  28.161  1.00  0.00     0.198 A 
ATOM     81  F   UNL A   1      35.550  29.389  29.082  1.00  0.00    -0.203 F 
ATOM     82  F   UNL A   1      35.437  34.746  28.072  1.00  0.00    -0.200 F 
ATOM     83  C   UNL A   1      34.423  32.620  27.901  1.00  0.00     0.200 A 
ATOM     84  F   UNL A   1      33.442  30.477  27.781  1.00  0.00    -0.200 F 
ATOM     85  F   UNL A   1      33.359  33.160  27.292  1.00  0.00    -0.200 F 
ENDBRANCH  51  75
BRANCH  63  86
ATOM     86  C   UNL A   1      38.989  31.924  35.775  1.00  0.00     0.064 A 
ATOM     87  C   UNL A   1      38.189  31.336  36.767  1.00  0.00     0.173 A 
ATOM     88  C   UNL A   1      39.385  33.259  35.963  1.00  0.00     0.173 A 
ATOM     89  F   UNL A   1      37.776  30.067  36.637  1.00  0.00    -0.203 F 
ATOM     90  C   UNL A   1      37.773  32.066  37.878  1.00  0.00     0.198 A 
ATOM     91  C   UNL A   1      39.004  33.971  37.096  1.00  0.00     0.198 A 
ATOM     92  F   UNL A   1      40.161  33.869  35.055  1.00  0.00    -0.203 F 
ATOM     93  F   UNL A   1      36.959  31.501  38.781  1.00  0.00    -0.200 F 
ATOM     94  C   UNL A   1      38.188  33.378  38.047  1.00  0.00     0.200 A 
ATOM     95  F   UNL A   1      39.428  35.231  37.268  1.00  0.00    -0.200 F 
ATOM     96  F   UNL A   1      37.797  34.074  39.123  1.00  0.00    -0.200 F 
ENDBRANCH  63  86
ENDBRANCH  37  38
ENDBRANCH  30  32
ENDBRANCH  29  30
ENDBRANCH  28  29
ENDBRANCH  27  28
ENDBRANCH  26  27
ENDBRANCH   1  26
TORSDOF 18
ENDMDL
MODEL 2
REMARK VINA RESULT:     -12.7      5.364     10.614
REMARK SMILES O=C(OCCOCCOCCOC(=O)c1ccc(-c2c3nc(c(-c4c(F)c(F)c(F)c(F)c4F)c4ccc([nH]4)c(-c4c(F)c(F)c(F)c(F)c4F)c4nc(c(-c5c(F)c(F)c(F)c(F)c5F)c5ccc2[nH]5)C=C4)C=C3)cc1)C1=Cc2cc(Cl)c(Cl)c(Cl)c2O[C@@H]1C(F)(F)F
REMARK SMILES IDX 8 1 7 2 6 3 5 4 4 5 3 6 2 7 1 8 78 9 79 10 90 11 80 12 89 13
REMARK SMILES IDX 81 14 88 15 82 16 86 17 83 18 84 19 87 20 85 21 91 22 92 23
REMARK SMILES IDX 93 24 94 25 9 26 10 27 11 28 12 29 13 30 14 31 15 32 16 33
REMARK SMILES IDX 77 34 17 35 76 36 18 37 19 38 20 39 70 40 21 41 75 42 69 43
REMARK SMILES IDX 71 44 22 45 74 46 68 47 67 48 23 50 55 51 35 52 54 53 36 54
REMARK SMILES IDX 39 55 53 56 72 57 37 58 38 59 52 61 73 62 40 63 24 64 25 65
REMARK SMILES IDX 33 66 26 67 27 68 31 69 34 70 28 71 29 72 32 73 30 74 56 75
REMARK SMILES IDX 57 76 65 77 58 78 59 79 63 80 66 81 60 82 61 83 64 84 62 85
REMARK SMILES IDX 41 86 42 87 50 88 43 89 44 90 48 91 51 92 45 93 46 94 49 95
REMARK SMILES IDX 47 96
REMARK H PARENT 71 49 39 60
REMARK Flexibility Score: inf
ROOT
ATOM      1  C   UNL A   1      35.620  33.920  28.473  1.00  0.00     0.188 C 
ENDROOT
BRANCH   1   2
ATOM      2  C   UNL A   1      34.491  32.990  28.006  1.00  0.00     0.188 C 
BRANCH   2   3
ATOM      3  O   UNL A   1      33.069  33.418  27.864  1.00  0.00    -0.376 OA
BRANCH   3   4
ATOM      4  C   UNL A   1      31.854  32.781  26.822  1.00  0.00     0.202 C 
BRANCH   4   5
ATOM      5  C   UNL A   1      31.719  30.706  26.189  1.00  0.00     0.261 C 
BRANCH   5   6
ATOM      6  O   UNL A   1      32.593  29.557  26.666  1.00  0.00    -0.460 OA
BRANCH   6   7
ATOM      7  C   UNL A   1      31.897  28.419  26.790  1.00  0.00     0.338 C 
ATOM      8  O   UNL A   1      31.443  27.928  27.795  1.00  0.00    -0.246 OA
BRANCH   7   9
ATOM      9  C   UNL A   1      32.360  27.800  25.557  1.00  0.00     0.087 C 
ATOM     10  C   UNL A   1      33.535  26.942  25.660  1.00  0.00     0.027 C 
ATOM     11  C   UNL A   1      30.602  27.194  25.089  1.00  0.00     0.316 C 
ATOM     12  C   UNL A   1      33.475  25.147  25.671  1.00  0.00     0.020 A 
ATOM     13  O   UNL A   1      30.472  25.251  25.268  1.00  0.00    -0.474 OA
ATOM     14  C   UNL A   1      34.628  24.450  25.890  1.00  0.00     0.034 A 
ATOM     15  C   UNL A   1      31.991  24.268  25.562  1.00  0.00     0.148 A 
ATOM     16  C   UNL A   1      34.484  23.048  25.978  1.00  0.00     0.062 A 
ATOM     17  C   UNL A   1      31.929  22.900  25.687  1.00  0.00     0.103 A 
ATOM     18  Cl  UNL A   1      35.994  22.209  26.250  1.00  0.00    -0.083 Cl
ATOM     19  C   UNL A   1      33.213  22.305  25.882  1.00  0.00     0.082 A 
ATOM     20  Cl  UNL A   1      30.462  22.032  25.696  1.00  0.00    -0.079 Cl
ATOM     21  Cl  UNL A   1      33.303  20.560  26.031  1.00  0.00    -0.081 Cl
BRANCH  11  22
ATOM     22  C   UNL A   1      30.545  28.232  23.759  1.00  0.00     0.430 C 
ATOM     23  F   UNL A   1      31.643  28.752  23.217  1.00  0.00    -0.167 F 
ATOM     24  F   UNL A   1      29.908  27.580  22.747  1.00  0.00    -0.167 F 
ATOM     25  F   UNL A   1      29.757  29.328  23.998  1.00  0.00    -0.167 F 
ENDBRANCH  11  22
ENDBRANCH   7   9
ENDBRANCH   6   7
ENDBRANCH   5   6
ENDBRANCH   4   5
ENDBRANCH   3   4
ENDBRANCH   2   3
ENDBRANCH   1   2
BRANCH   1  26
ATOM     26  O   UNL A   1      35.773  34.186  29.840  1.00  0.00    -0.376 OA
BRANCH  26  27
ATOM     27  C   UNL A   1      34.579  34.457  30.558  1.00  0.00     0.202 C 
BRANCH  27  28
ATOM     28  C   UNL A   1      34.247  33.563  31.760  1.00  0.00     0.261 C 
BRANCH  28  29
ATOM     29  O   UNL A   1      34.842  32.248  31.697  1.00  0.00    -0.460 OA
BRANCH  29  30
ATOM     30  C   UNL A   1      35.838  31.973  32.577  1.00  0.00     0.338 C 
ATOM     31  O   UNL A   1      35.872  32.235  33.767  1.00  0.00    -0.246 OA
BRANCH  30  32
ATOM     32  C   UNL A   1      36.874  31.165  31.906  1.00  0.00     0.060 A 
ATOM     33  C   UNL A   1      37.890  30.563  32.666  1.00  0.00     0.016 A 
ATOM     34  C   UNL A   1      36.874  31.059  30.517  1.00  0.00     0.016 A 
ATOM     35  C   UNL A   1      38.896  29.827  32.034  1.00  0.00     0.010 A 
ATOM     36  C   UNL A   1      37.907  30.367  29.882  1.00  0.00     0.010 A 
ATOM     37  C   UNL A   1      38.933  29.767  30.636  1.00  0.00    -0.014 A 
BRANCH  37  38
ATOM     38  C   UNL A   1      40.173  29.330  29.951  1.00  0.00     0.031 A 
ATOM     39  C   UNL A   1      41.259  30.352  29.773  1.00  0.00     0.074 A 
ATOM     40  C   UNL A   1      40.331  28.079  29.488  1.00  0.00     0.049 A 
ATOM     41  N   UNL A   1      42.409  30.254  29.161  1.00  0.00    -0.248 NA
ATOM     42  C   UNL A   1      40.999  31.677  30.362  1.00  0.00     0.031 C 
ATOM     43  C   UNL A   1      39.367  26.993  29.634  1.00  0.00     0.029 A 
ATOM     44  N   UNL A   1      41.369  27.520  28.784  1.00  0.00    -0.354 N 
ATOM     45  C   UNL A   1      43.007  31.502  29.288  1.00  0.00     0.074 A 
ATOM     46  C   UNL A   1      42.075  32.351  29.996  1.00  0.00     0.031 C 
ATOM     47  C   UNL A   1      39.854  25.896  29.028  1.00  0.00     0.029 A 
ATOM     48  C   UNL A   1      41.149  26.214  28.421  1.00  0.00     0.049 A 
ATOM     49  H   UNL A   1      42.195  28.008  28.561  1.00  0.00     0.167 HD
ATOM     50  C   UNL A   1      44.226  31.901  28.857  1.00  0.00     0.037 A 
ATOM     51  C   UNL A   1      41.900  25.385  27.670  1.00  0.00     0.037 A 
ATOM     52  C   UNL A   1      45.131  31.058  28.124  1.00  0.00     0.049 A 
ATOM     53  C   UNL A   1      43.217  25.880  27.117  1.00  0.00     0.074 A 
ATOM     54  C   UNL A   1      46.393  31.358  27.646  1.00  0.00     0.029 A 
ATOM     55  N   UNL A   1      44.856  29.752  27.741  1.00  0.00    -0.354 N 
ATOM     56  N   UNL A   1      43.797  27.047  27.271  1.00  0.00    -0.248 NA
ATOM     57  C   UNL A   1      43.985  24.939  26.291  1.00  0.00     0.031 C 
ATOM     58  C   UNL A   1      46.847  30.263  26.904  1.00  0.00     0.029 A 
ATOM     59  C   UNL A   1      45.910  29.246  26.997  1.00  0.00     0.049 A 
ATOM     60  H   UNL A   1      44.035  29.259  27.964  1.00  0.00     0.167 HD
ATOM     61  C   UNL A   1      45.010  26.968  26.595  1.00  0.00     0.074 A 
ATOM     62  C   UNL A   1      45.086  25.633  26.040  1.00  0.00     0.031 C 
ATOM     63  C   UNL A   1      45.975  27.912  26.454  1.00  0.00     0.037 A 
BRANCH  50  64
ATOM     64  C   UNL A   1      44.616  33.327  29.127  1.00  0.00     0.064 A 
ATOM     65  C   UNL A   1      44.309  34.364  28.231  1.00  0.00     0.173 A 
ATOM     66  C   UNL A   1      45.318  33.661  30.296  1.00  0.00     0.173 A 
ATOM     67  F   UNL A   1      43.653  34.101  27.090  1.00  0.00    -0.203 F 
ATOM     68  C   UNL A   1      44.733  35.669  28.471  1.00  0.00     0.198 A 
ATOM     69  C   UNL A   1      45.702  34.974  30.553  1.00  0.00     0.198 A 
ATOM     70  F   UNL A   1      45.637  32.712  31.189  1.00  0.00    -0.203 F 
ATOM     71  F   UNL A   1      44.497  36.627  27.563  1.00  0.00    -0.200 F 
ATOM     72  C   UNL A   1      45.423  35.974  29.634  1.00  0.00     0.200 A 
ATOM     73  F   UNL A   1      46.353  35.268  31.687  1.00  0.00    -0.200 F 
ATOM     74  F   UNL A   1      45.830  37.229  29.866  1.00  0.00    -0.200 F 
ENDBRANCH  50  64
BRANCH  51  75
ATOM     75  C   UNL A   1      41.432  23.999  27.389  1.00  0.00     0.064 A 
ATOM     76  C   UNL A   1      40.348  23.760  26.531  1.00  0.00     0.173 A 
ATOM     77  C   UNL A   1      42.043  22.887  27.986  1.00  0.00     0.173 A 
ATOM     78  F   UNL A   1      39.709  24.791  25.957  1.00  0.00    -0.203 F 
ATOM     79  C   UNL A   1      39.885  22.467  26.295  1.00  0.00     0.198 A 
ATOM     80  C   UNL A   1      41.601  21.591  27.723  1.00  0.00     0.198 A 
ATOM     81  F   UNL A   1      43.076  23.056  28.823  1.00  0.00    -0.203 F 
ATOM     82  F   UNL A   1      38.814  22.274  25.514  1.00  0.00    -0.200 F 
ATOM     83  C   UNL A   1      40.517  21.382  26.885  1.00  0.00     0.200 A 
ATOM     84  F   UNL A   1      42.222  20.546  28.287  1.00  0.00    -0.200 F 
ATOM     85  F   UNL A   1      40.074  20.139  26.655  1.00  0.00    -0.200 F 
ENDBRANCH  51  75
BRANCH  63  86
ATOM     86  C   UNL A   1      47.226  27.524  25.713  1.00  0.00     0.064 A 
ATOM     87  C   UNL A   1      48.337  26.964  26.363  1.00  0.00     0.173 A 
ATOM     88  C   UNL A   1      47.293  27.670  24.317  1.00  0.00     0.173 A 
ATOM     89  F   UNL A   1      48.332  26.807  27.695  1.00  0.00    -0.203 F 
ATOM     90  C   UNL A   1      49.477  26.601  25.650  1.00  0.00     0.198 A 
ATOM     91  C   UNL A   1      48.416  27.265  23.603  1.00  0.00     0.198 A 
ATOM     92  F   UNL A   1      46.256  28.187  23.641  1.00  0.00    -0.203 F 
ATOM     93  F   UNL A   1      50.548  26.125  26.300  1.00  0.00    -0.200 F 
ATOM     94  C   UNL A   1      49.512  26.743  24.271  1.00  0.00     0.200 A 
ATOM     95  F   UNL A   1      48.437  27.381  22.268  1.00  0.00    -0.200 F 
ATOM     96  F   UNL A   1      50.606  26.382  23.586  1.00  0.00    -0.200 F 
ENDBRANCH  63  86
ENDBRANCH  37  38
ENDBRANCH  30  32
ENDBRANCH  29  30
ENDBRANCH  28  29
ENDBRANCH  27  28
ENDBRANCH  26  27
ENDBRANCH   1  26
TORSDOF 18
ENDMDL
MODEL 3
REMARK VINA RESULT:     -12.6      5.411     10.650
REMARK SMILES O=C(OCCOCCOCCOC(=O)c1ccc(-c2c3nc(c(-c4c(F)c(F)c(F)c(F)c4F)c4ccc([nH]4)c(-c4c(F)c(F)c(F)c(F)c4F)c4nc(c(-c5c(F)c(F)c(F)c(F)c5F)c5ccc2[nH]5)C=C4)C=C3)cc1)C1=Cc2cc(Cl)c(Cl)c(Cl)c2O[C@@H]1C(F)(F)F
REMARK SMILES IDX 8 1 7 2 6 3 5 4 4 5 3 6 2 7 1 8 78 9 79 10 90 11 80 12 89 13
REMARK SMILES IDX 81 14 88 15 82 16 86 17 83 18 84 19 87 20 85 21 91 22 92 23
REMARK SMILES IDX 93 24 94 25 9 26 10 27 11 28 12 29 13 30 14 31 15 32 16 33
REMARK SMILES IDX 77 34 17 35 76 36 18 37 19 38 20 39 70 40 21 41 75 42 69 43
REMARK SMILES IDX 71 44 22 45 74 46 68 47 67 48 23 50 55 51 35 52 54 53 36 54
REMARK SMILES IDX 39 55 53 56 72 57 37 58 38 59 52 61 73 62 40 63 24 64 25 65
REMARK SMILES IDX 33 66 26 67 27 68 31 69 34 70 28 71 29 72 32 73 30 74 56 75
REMARK SMILES IDX 57 76 65 77 58 78 59 79 63 80 66 81 60 82 61 83 64 84 62 85
REMARK SMILES IDX 41 86 42 87 50 88 43 89 44 90 48 91 51 92 45 93 46 94 49 95
REMARK SMILES IDX 47 96
REMARK H PARENT 71 49 39 60
REMARK Flexibility Score: inf
ROOT
ATOM      1  C   UNL A   1      34.346  33.586  29.564  1.00  0.00     0.188 C 
ENDROOT
BRANCH   1   2
ATOM      2  C   UNL A   1      34.564  33.514  28.046  1.00  0.00     0.188 C 
BRANCH   2   3
ATOM      3  O   UNL A   1      34.531  32.246  27.261  1.00  0.00    -0.376 OA
BRANCH   3   4
ATOM      4  C   UNL A   1      35.053  30.675  27.737  1.00  0.00     0.202 C 
BRANCH   4   5
ATOM      5  C   UNL A   1      34.058  28.816  27.208  1.00  0.00     0.261 C 
BRANCH   5   6
ATOM      6  O   UNL A   1      33.773  28.313  25.803  1.00  0.00    -0.460 OA
BRANCH   6   7
ATOM      7  C   UNL A   1      32.979  29.151  25.123  1.00  0.00     0.338 C 
ATOM      8  O   UNL A   1      32.387  30.118  25.535  1.00  0.00    -0.246 OA
BRANCH   7   9
ATOM      9  C   UNL A   1      32.668  28.242  24.030  1.00  0.00     0.087 C 
ATOM     10  C   UNL A   1      33.648  27.198  23.751  1.00  0.00     0.027 C 
ATOM     11  C   UNL A   1      30.889  27.927  24.672  1.00  0.00     0.316 C 
ATOM     12  C   UNL A   1      33.464  25.483  24.253  1.00  0.00     0.020 A 
ATOM     13  O   UNL A   1      30.723  26.114  25.384  1.00  0.00    -0.474 OA
ATOM     14  C   UNL A   1      34.500  24.619  24.041  1.00  0.00     0.034 A 
ATOM     15  C   UNL A   1      32.085  24.914  25.127  1.00  0.00     0.148 A 
ATOM     16  C   UNL A   1      34.316  23.314  24.546  1.00  0.00     0.062 A 
ATOM     17  C   UNL A   1      31.993  23.632  25.612  1.00  0.00     0.103 A 
ATOM     18  Cl  UNL A   1      35.670  22.251  24.237  1.00  0.00    -0.083 Cl
ATOM     19  C   UNL A   1      33.134  22.836  25.289  1.00  0.00     0.082 A 
ATOM     20  Cl  UNL A   1      30.692  23.092  26.572  1.00  0.00    -0.079 Cl
ATOM     21  Cl  UNL A   1      33.154  21.164  25.817  1.00  0.00    -0.081 Cl
BRANCH  11  22
ATOM     22  C   UNL A   1      30.216  28.701  23.330  1.00  0.00     0.430 C 
ATOM     23  F   UNL A   1      30.820  28.720  22.145  1.00  0.00    -0.167 F 
ATOM     24  F   UNL A   1      28.986  28.159  23.109  1.00  0.00    -0.167 F 
ATOM     25  F   UNL A   1      29.957  30.024  23.578  1.00  0.00    -0.167 F 
ENDBRANCH  11  22
ENDBRANCH   7   9
ENDBRANCH   6   7
ENDBRANCH   5   6
ENDBRANCH   4   5
ENDBRANCH   3   4
ENDBRANCH   2   3
ENDBRANCH   1   2
BRANCH   1  26
ATOM     26  O   UNL A   1      34.397  34.828  30.211  1.00  0.00    -0.376 OA
BRANCH  26  27
ATOM     27  C   UNL A   1      34.097  34.819  31.598  1.00  0.00     0.202 C 
BRANCH  27  28
ATOM     28  C   UNL A   1      35.259  34.999  32.583  1.00  0.00     0.261 C 
BRANCH  28  29
ATOM     29  O   UNL A   1      36.384  34.128  32.333  1.00  0.00    -0.460 OA
BRANCH  29  30
ATOM     30  C   UNL A   1      36.315  32.867  32.828  1.00  0.00     0.338 C 
ATOM     31  O   UNL A   1      35.536  32.436  33.660  1.00  0.00    -0.246 OA
BRANCH  30  32
ATOM     32  C   UNL A   1      37.270  32.005  32.105  1.00  0.00     0.060 A 
ATOM     33  C   UNL A   1      38.187  31.222  32.824  1.00  0.00     0.016 A 
ATOM     34  C   UNL A   1      37.297  32.024  30.711  1.00  0.00     0.016 A 
ATOM     35  C   UNL A   1      39.117  30.431  32.145  1.00  0.00     0.010 A 
ATOM     36  C   UNL A   1      38.260  31.274  30.034  1.00  0.00     0.010 A 
ATOM     37  C   UNL A   1      39.187  30.492  30.748  1.00  0.00    -0.014 A 
BRANCH  37  38
ATOM     38  C   UNL A   1      40.387  29.974  30.048  1.00  0.00     0.031 A 
ATOM     39  C   UNL A   1      41.520  30.934  29.822  1.00  0.00     0.074 A 
ATOM     40  C   UNL A   1      40.470  28.706  29.613  1.00  0.00     0.049 A 
ATOM     41  N   UNL A   1      42.650  30.761  29.187  1.00  0.00    -0.248 NA
ATOM     42  C   UNL A   1      41.343  32.284  30.382  1.00  0.00     0.031 C 
ATOM     43  C   UNL A   1      39.454  27.677  29.806  1.00  0.00     0.029 A 
ATOM     44  N   UNL A   1      41.461  28.077  28.901  1.00  0.00    -0.354 N 
ATOM     45  C   UNL A   1      43.314  31.978  29.270  1.00  0.00     0.074 A 
ATOM     46  C   UNL A   1      42.445  32.892  29.976  1.00  0.00     0.031 C 
ATOM     47  C   UNL A   1      39.870  26.541  29.218  1.00  0.00     0.029 A 
ATOM     48  C   UNL A   1      41.165  26.776  28.576  1.00  0.00     0.049 A 
ATOM     49  H   UNL A   1      42.306  28.515  28.649  1.00  0.00     0.167 HD
ATOM     50  C   UNL A   1      44.543  32.302  28.804  1.00  0.00     0.037 A 
ATOM     51  C   UNL A   1      41.855  25.891  27.830  1.00  0.00     0.037 A 
ATOM     52  C   UNL A   1      45.386  31.396  28.073  1.00  0.00     0.049 A 
ATOM     53  C   UNL A   1      43.183  26.303  27.237  1.00  0.00     0.074 A 
ATOM     54  C   UNL A   1      46.651  31.618  27.561  1.00  0.00     0.029 A 
ATOM     55  N   UNL A   1      45.035  30.097  27.729  1.00  0.00    -0.354 N 
ATOM     56  N   UNL A   1      43.826  27.441  27.349  1.00  0.00    -0.248 NA
ATOM     57  C   UNL A   1      43.883  25.304  26.418  1.00  0.00     0.031 C 
ATOM     58  C   UNL A   1      47.031  30.483  26.837  1.00  0.00     0.029 A 
ATOM     59  C   UNL A   1      46.045  29.519  26.976  1.00  0.00     0.049 A 
ATOM     60  H   UNL A   1      44.194  29.653  27.981  1.00  0.00     0.167 HD
ATOM     61  C   UNL A   1      45.018  27.283  26.650  1.00  0.00     0.074 A 
ATOM     62  C   UNL A   1      45.012  25.933  26.127  1.00  0.00     0.031 C 
ATOM     63  C   UNL A   1      46.027  28.171  26.465  1.00  0.00     0.037 A 
BRANCH  50  64
ATOM     64  C   UNL A   1      45.012  33.712  29.030  1.00  0.00     0.064 A 
ATOM     65  C   UNL A   1      45.752  34.078  30.166  1.00  0.00     0.173 A 
ATOM     66  C   UNL A   1      44.707  34.717  28.098  1.00  0.00     0.173 A 
ATOM     67  F   UNL A   1      46.059  33.161  31.097  1.00  0.00    -0.203 F 
ATOM     68  C   UNL A   1      46.124  35.402  30.386  1.00  0.00     0.198 A 
ATOM     69  C   UNL A   1      45.119  36.032  28.300  1.00  0.00     0.198 A 
ATOM     70  F   UNL A   1      44.006  34.427  26.993  1.00  0.00    -0.203 F 
ATOM     71  F   UNL A   1      46.761  35.739  31.516  1.00  0.00    -0.200 F 
ATOM     72  C   UNL A   1      45.813  36.376  29.450  1.00  0.00     0.200 A 
ATOM     73  F   UNL A   1      44.833  36.968  27.385  1.00  0.00    -0.200 F 
ATOM     74  F   UNL A   1      46.172  37.649  29.660  1.00  0.00    -0.200 F 
ENDBRANCH  50  64
BRANCH  51  75
ATOM     75  C   UNL A   1      41.309  24.525  27.594  1.00  0.00     0.064 A 
ATOM     76  C   UNL A   1      41.887  23.400  28.200  1.00  0.00     0.173 A 
ATOM     77  C   UNL A   1      40.213  24.313  26.746  1.00  0.00     0.173 A 
ATOM     78  F   UNL A   1      42.956  23.543  28.997  1.00  0.00    -0.203 F 
ATOM     79  C   UNL A   1      41.400  22.117  27.953  1.00  0.00     0.198 A 
ATOM     80  C   UNL A   1      39.705  23.034  26.526  1.00  0.00     0.198 A 
ATOM     81  F   UNL A   1      39.627  25.352  26.132  1.00  0.00    -0.203 F 
ATOM     82  F   UNL A   1      42.006  21.056  28.502  1.00  0.00    -0.200 F 
ATOM     83  C   UNL A   1      40.304  21.936  27.123  1.00  0.00     0.200 A 
ATOM     84  F   UNL A   1      38.639  22.865  25.732  1.00  0.00    -0.200 F 
ATOM     85  F   UNL A   1      39.835  20.703  26.889  1.00  0.00    -0.200 F 
ENDBRANCH  51  75
BRANCH  63  86
ATOM     86  C   UNL A   1      47.240  27.700  25.707  1.00  0.00     0.064 A 
ATOM     87  C   UNL A   1      47.308  27.738  24.306  1.00  0.00     0.173 A 
ATOM     88  C   UNL A   1      48.375  27.251  26.404  1.00  0.00     0.173 A 
ATOM     89  F   UNL A   1      46.253  28.152  23.590  1.00  0.00    -0.203 F 
ATOM     90  C   UNL A   1      48.449  27.309  23.632  1.00  0.00     0.198 A 
ATOM     91  C   UNL A   1      49.528  26.864  25.728  1.00  0.00     0.198 A 
ATOM     92  F   UNL A   1      48.372  27.206  27.745  1.00  0.00    -0.203 F 
ATOM     93  F   UNL A   1      48.468  27.296  22.292  1.00  0.00    -0.200 F 
ATOM     94  C   UNL A   1      49.561  26.882  24.343  1.00  0.00     0.200 A 
ATOM     95  F   UNL A   1      50.609  26.476  26.420  1.00  0.00    -0.200 F 
ATOM     96  F   UNL A   1      50.661  26.481  23.693  1.00  0.00    -0.200 F 
ENDBRANCH  63  86
ENDBRANCH  37  38
ENDBRANCH  30  32
ENDBRANCH  29  30
ENDBRANCH  28  29
ENDBRANCH  27  28
ENDBRANCH  26  27
ENDBRANCH   1  26
TORSDOF 18
ENDMDL
