MODEL 1
REMARK VINA RESULT:      -9.0      0.000      0.000
REMARK SMILES CC(C)CN(C)c1cc2c(cc1Cl)C=C(C(=O)OCCOCCOCCOC(=O)c1ccc(-c3c4nc(c(-c5c(F)c(F)c(F)c(F)c5F)c5ccc([nH]5)c(-c5c(F)c(F)c(F)c(F)c5F)c5nc(c(-c6c(F)c(F)c(F)c(F)c6F)c6ccc3[nH]6)C=C5)C=C4)cc1)[C@H](C(F)(F)F)O2
REMARK SMILES IDX 22 1 21 2 20 3 19 4 18 5 16 6 17 7 15 8 7 9 8 10 12 11 9 12
REMARK SMILES IDX 11 13 13 14 10 15 98 16 14 17 93 18 5 19 6 20 4 21 2 22 1 23
REMARK SMILES IDX 3 24 94 25 95 26 96 27 97 28 23 29 24 30 25 31 26 32 27 33
REMARK SMILES IDX 28 34 29 35 30 36 31 37 92 38 32 39 91 40 33 41 34 42 35 43
REMARK SMILES IDX 85 44 36 45 90 46 84 47 86 48 37 49 89 50 83 51 82 52 38 54
REMARK SMILES IDX 70 55 50 56 69 57 51 58 54 59 68 60 87 61 52 62 53 63 67 65
REMARK SMILES IDX 88 66 55 67 39 68 40 69 48 70 41 71 42 72 46 73 49 74 43 75
REMARK SMILES IDX 44 76 47 77 45 78 71 79 72 80 80 81 73 82 74 83 78 84 81 85
REMARK SMILES IDX 75 86 76 87 79 88 77 89 56 90 57 91 65 92 58 93 59 94 63 95
REMARK SMILES IDX 66 96 60 97 61 98 64 99 62 100
REMARK H PARENT 86 53 54 64
REMARK Flexibility Score: inf
ROOT
ATOM      1  C   UNL A   1      32.957  36.097  30.867  1.00  0.00     0.188 C 
ENDROOT
BRANCH   1   2
ATOM      2  O   UNL A   1      33.103  34.883  31.592  1.00  0.00    -0.376 OA
BRANCH   2   3
ATOM      3  C   UNL A   1      34.368  34.551  32.160  1.00  0.00     0.202 C 
BRANCH   3   4
ATOM      4  C   UNL A   1      34.392  33.844  33.525  1.00  0.00     0.261 C 
BRANCH   4   5
ATOM      5  O   UNL A   1      35.615  33.125  33.791  1.00  0.00    -0.460 OA
BRANCH   5   6
ATOM      6  C   UNL A   1      36.214  33.400  34.967  1.00  0.00     0.338 C 
ATOM      7  O   UNL A   1      35.682  33.918  35.938  1.00  0.00    -0.246 OA
BRANCH   6   8
ATOM      8  C   UNL A   1      37.576  32.826  35.041  1.00  0.00     0.087 C 
ATOM      9  C   UNL A   1      40.924  29.086  34.478  1.00  0.00     0.059 A 
ATOM     10  C   UNL A   1      40.763  30.142  35.403  1.00  0.00     0.074 A 
ATOM     11  C   UNL A   1      40.020  29.058  33.395  1.00  0.00     0.065 A 
ATOM     12  C   UNL A   1      39.751  31.103  35.260  1.00  0.00     0.130 A 
ATOM     13  C   UNL A   1      39.105  30.093  33.179  1.00  0.00     0.034 A 
ATOM     14  Cl  UNL A   1      39.823  27.684  32.358  1.00  0.00    -0.082 Cl
ATOM     15  C   UNL A   1      38.955  31.104  34.123  1.00  0.00     0.019 A 
ATOM     16  O   UNL A   1      39.560  31.961  36.306  1.00  0.00    -0.475 OA
ATOM     17  C   UNL A   1      37.853  32.034  33.997  1.00  0.00     0.027 C 
ATOM     18  C   UNL A   1      38.428  32.894  36.285  1.00  0.00     0.316 C 
BRANCH   9  19
ATOM     19  N   UNL A   1      41.886  28.087  34.689  1.00  0.00    -0.373 N 
ATOM     20  C   UNL A   1      41.940  27.527  36.040  1.00  0.00     0.143 C 
BRANCH  19  21
ATOM     21  C   UNL A   1      43.179  28.166  33.966  1.00  0.00     0.119 C 
BRANCH  21  22
ATOM     22  C   UNL A   1      44.108  26.966  34.235  1.00  0.00     0.002 C 
ATOM     23  C   UNL A   1      44.172  26.020  33.031  1.00  0.00     0.009 C 
ATOM     24  C   UNL A   1      45.532  27.400  34.595  1.00  0.00     0.009 C 
ENDBRANCH  21  22
ENDBRANCH  19  21
ENDBRANCH   9  19
BRANCH  18  25
ATOM     25  C   UNL A   1      39.015  34.275  36.627  1.00  0.00     0.430 C 
ATOM     26  F   UNL A   1      40.344  34.217  36.876  1.00  0.00    -0.167 F 
ATOM     27  F   UNL A   1      38.805  35.185  35.653  1.00  0.00    -0.167 F 
ATOM     28  F   UNL A   1      38.430  34.777  37.746  1.00  0.00    -0.167 F 
ENDBRANCH  18  25
ENDBRANCH   6   8
ENDBRANCH   5   6
ENDBRANCH   4   5
ENDBRANCH   3   4
ENDBRANCH   2   3
ENDBRANCH   1   2
BRANCH   1  29
ATOM     29  C   UNL A   1      32.947  36.075  29.328  1.00  0.00     0.188 C 
BRANCH  29  30
ATOM     30  O   UNL A   1      32.789  34.786  28.776  1.00  0.00    -0.376 OA
BRANCH  30  31
ATOM     31  C   UNL A   1      33.953  34.133  28.302  1.00  0.00     0.202 C 
BRANCH  31  32
ATOM     32  C   UNL A   1      33.825  32.652  27.911  1.00  0.00     0.261 C 
BRANCH  32  33
ATOM     33  O   UNL A   1      34.608  31.720  28.673  1.00  0.00    -0.460 OA
BRANCH  33  34
ATOM     34  C   UNL A   1      34.721  30.455  28.206  1.00  0.00     0.338 C 
ATOM     35  O   UNL A   1      33.892  29.823  27.575  1.00  0.00    -0.246 OA
BRANCH  34  36
ATOM     36  C   UNL A   1      36.129  30.050  28.416  1.00  0.00     0.060 A 
ATOM     37  C   UNL A   1      37.047  30.158  27.370  1.00  0.00     0.016 A 
ATOM     38  C   UNL A   1      36.519  29.498  29.646  1.00  0.00     0.016 A 
ATOM     39  C   UNL A   1      38.362  29.726  27.559  1.00  0.00     0.010 A 
ATOM     40  C   UNL A   1      37.834  29.057  29.829  1.00  0.00     0.010 A 
ATOM     41  C   UNL A   1      38.769  29.183  28.790  1.00  0.00    -0.014 A 
BRANCH  41  42
ATOM     42  C   UNL A   1      40.211  28.923  29.024  1.00  0.00     0.031 A 
ATOM     43  C   UNL A   1      41.086  29.866  29.790  1.00  0.00     0.074 A 
ATOM     44  C   UNL A   1      40.727  27.780  28.533  1.00  0.00     0.049 A 
ATOM     45  N   UNL A   1      42.325  29.699  30.185  1.00  0.00    -0.248 NA
ATOM     46  C   UNL A   1      40.508  31.166  30.149  1.00  0.00     0.031 C 
ATOM     47  C   UNL A   1      39.980  26.808  27.736  1.00  0.00     0.029 A 
ATOM     48  N   UNL A   1      41.981  27.236  28.644  1.00  0.00    -0.354 N 
ATOM     49  C   UNL A   1      42.671  30.861  30.858  1.00  0.00     0.074 A 
ATOM     50  C   UNL A   1      41.526  31.747  30.773  1.00  0.00     0.031 C 
ATOM     51  C   UNL A   1      40.779  25.769  27.458  1.00  0.00     0.029 A 
ATOM     52  C   UNL A   1      42.097  26.011  28.038  1.00  0.00     0.049 A 
ATOM     53  H   UNL A   1      42.724  27.681  29.112  1.00  0.00     0.167 HD
ATOM     54  C   UNL A   1      43.830  31.146  31.502  1.00  0.00     0.037 A 
ATOM     55  C   UNL A   1      43.143  25.166  27.964  1.00  0.00     0.037 A 
ATOM     56  C   UNL A   1      44.969  30.261  31.565  1.00  0.00     0.049 A 
ATOM     57  C   UNL A   1      44.426  25.516  28.662  1.00  0.00     0.074 A 
ATOM     58  C   UNL A   1      46.161  30.437  32.248  1.00  0.00     0.029 A 
ATOM     59  N   UNL A   1      45.070  29.045  30.902  1.00  0.00    -0.354 N 
ATOM     60  N   UNL A   1      44.708  26.570  29.387  1.00  0.00    -0.248 NA
ATOM     61  C   UNL A   1      45.531  24.556  28.538  1.00  0.00     0.031 C 
ATOM     62  C   UNL A   1      47.006  29.365  31.944  1.00  0.00     0.029 A 
ATOM     63  C   UNL A   1      46.320  28.484  31.125  1.00  0.00     0.049 A 
ATOM     64  H   UNL A   1      44.359  28.640  30.355  1.00  0.00     0.167 HD
ATOM     65  C   UNL A   1      46.017  26.398  29.817  1.00  0.00     0.074 A 
ATOM     66  C   UNL A   1      46.465  25.126  29.288  1.00  0.00     0.031 C 
ATOM     67  C   UNL A   1      46.772  27.225  30.580  1.00  0.00     0.037 A 
BRANCH  54  68
ATOM     68  C   UNL A   1      43.937  32.475  32.198  1.00  0.00     0.064 A 
ATOM     69  C   UNL A   1      44.311  33.638  31.505  1.00  0.00     0.173 A 
ATOM     70  C   UNL A   1      43.591  32.605  33.551  1.00  0.00     0.173 A 
ATOM     71  F   UNL A   1      44.647  33.572  30.207  1.00  0.00    -0.203 F 
ATOM     72  C   UNL A   1      44.362  34.873  32.148  1.00  0.00     0.198 A 
ATOM     73  C   UNL A   1      43.614  33.846  34.183  1.00  0.00     0.198 A 
ATOM     74  F   UNL A   1      43.210  31.531  34.259  1.00  0.00    -0.203 F 
ATOM     75  F   UNL A   1      44.761  35.961  31.474  1.00  0.00    -0.200 F 
ATOM     76  C   UNL A   1      44.007  34.977  33.484  1.00  0.00     0.200 A 
ATOM     77  F   UNL A   1      43.249  33.949  35.469  1.00  0.00    -0.200 F 
ATOM     78  F   UNL A   1      44.043  36.168  34.097  1.00  0.00    -0.200 F 
ENDBRANCH  54  68
BRANCH  55  79
ATOM     79  C   UNL A   1      42.975  23.884  27.235  1.00  0.00     0.064 A 
ATOM     80  C   UNL A   1      43.357  23.767  25.893  1.00  0.00     0.173 A 
ATOM     81  C   UNL A   1      42.510  22.734  27.889  1.00  0.00     0.173 A 
ATOM     82  F   UNL A   1      43.794  24.843  25.222  1.00  0.00    -0.203 F 
ATOM     83  C   UNL A   1      43.287  22.542  25.232  1.00  0.00     0.198 A 
ATOM     84  C   UNL A   1      42.466  21.505  27.235  1.00  0.00     0.198 A 
ATOM     85  F   UNL A   1      42.143  22.796  29.177  1.00  0.00    -0.203 F 
ATOM     86  F   UNL A   1      43.645  22.457  23.944  1.00  0.00    -0.200 F 
ATOM     87  C   UNL A   1      42.854  21.410  25.908  1.00  0.00     0.200 A 
ATOM     88  F   UNL A   1      42.068  20.411  27.898  1.00  0.00    -0.200 F 
ATOM     89  F   UNL A   1      42.814  20.227  25.279  1.00  0.00    -0.200 F 
ENDBRANCH  55  79
BRANCH  67  90
ATOM     90  C   UNL A   1      48.179  26.793  30.892  1.00  0.00     0.064 A 
ATOM     91  C   UNL A   1      49.272  27.264  30.150  1.00  0.00     0.173 A 
ATOM     92  C   UNL A   1      48.444  25.954  31.987  1.00  0.00     0.173 A 
ATOM     93  F   UNL A   1      49.074  28.055  29.085  1.00  0.00    -0.203 F 
ATOM     94  C   UNL A   1      50.575  26.902  30.483  1.00  0.00     0.198 A 
ATOM     95  C   UNL A   1      49.749  25.620  32.336  1.00  0.00     0.198 A 
ATOM     96  F   UNL A   1      47.437  25.478  32.734  1.00  0.00    -0.203 F 
ATOM     97  F   UNL A   1      51.601  27.335  29.737  1.00  0.00    -0.200 F 
ATOM     98  C   UNL A   1      50.814  26.090  31.582  1.00  0.00     0.200 A 
ATOM     99  F   UNL A   1      49.979  24.848  33.407  1.00  0.00    -0.200 F 
ATOM    100  F   UNL A   1      52.070  25.759  31.911  1.00  0.00    -0.200 F 
ENDBRANCH  67  90
ENDBRANCH  41  42
ENDBRANCH  34  36
ENDBRANCH  33  34
ENDBRANCH  32  33
ENDBRANCH  31  32
ENDBRANCH  30  31
ENDBRANCH  29  30
ENDBRANCH   1  29
TORSDOF 21
ENDMDL
MODEL 2
REMARK VINA RESULT:      -8.8      5.695     11.516
REMARK SMILES CC(C)CN(C)c1cc2c(cc1Cl)C=C(C(=O)OCCOCCOCCOC(=O)c1ccc(-c3c4nc(c(-c5c(F)c(F)c(F)c(F)c5F)c5ccc([nH]5)c(-c5c(F)c(F)c(F)c(F)c5F)c5nc(c(-c6c(F)c(F)c(F)c(F)c6F)c6ccc3[nH]6)C=C5)C=C4)cc1)[C@H](C(F)(F)F)O2
REMARK SMILES IDX 22 1 21 2 20 3 19 4 18 5 16 6 17 7 15 8 7 9 8 10 12 11 9 12
REMARK SMILES IDX 11 13 13 14 10 15 98 16 14 17 93 18 5 19 6 20 4 21 2 22 1 23
REMARK SMILES IDX 3 24 94 25 95 26 96 27 97 28 23 29 24 30 25 31 26 32 27 33
REMARK SMILES IDX 28 34 29 35 30 36 31 37 92 38 32 39 91 40 33 41 34 42 35 43
REMARK SMILES IDX 85 44 36 45 90 46 84 47 86 48 37 49 89 50 83 51 82 52 38 54
REMARK SMILES IDX 70 55 50 56 69 57 51 58 54 59 68 60 87 61 52 62 53 63 67 65
REMARK SMILES IDX 88 66 55 67 39 68 40 69 48 70 41 71 42 72 46 73 49 74 43 75
REMARK SMILES IDX 44 76 47 77 45 78 71 79 72 80 80 81 73 82 74 83 78 84 81 85
REMARK SMILES IDX 75 86 76 87 79 88 77 89 56 90 57 91 65 92 58 93 59 94 63 95
REMARK SMILES IDX 66 96 60 97 61 98 64 99 62 100
REMARK H PARENT 86 53 54 64
REMARK Flexibility Score: inf
ROOT
ATOM      1  C   UNL A   1      35.866  23.075  24.655  1.00  0.00     0.188 C 
ENDROOT
BRANCH   1   2
ATOM      2  O   UNL A   1      35.822  23.454  26.025  1.00  0.00    -0.376 OA
BRANCH   2   3
ATOM      3  C   UNL A   1      34.827  22.890  26.878  1.00  0.00     0.202 C 
BRANCH   3   4
ATOM      4  C   UNL A   1      34.345  21.459  26.590  1.00  0.00     0.261 C 
BRANCH   4   5
ATOM      5  O   UNL A   1      32.928  21.268  26.781  1.00  0.00    -0.460 OA
BRANCH   5   6
ATOM      6  C   UNL A   1      32.162  21.416  25.683  1.00  0.00     0.338 C 
ATOM      7  O   UNL A   1      31.833  20.526  24.913  1.00  0.00    -0.246 OA
BRANCH   6   8
ATOM      8  C   UNL A   1      31.580  22.775  25.593  1.00  0.00     0.087 C 
ATOM      9  C   UNL A   1      31.780  27.693  24.462  1.00  0.00     0.059 A 
ATOM     10  C   UNL A   1      31.149  26.933  25.472  1.00  0.00     0.074 A 
ATOM     11  C   UNL A   1      32.464  26.966  23.464  1.00  0.00     0.065 A 
ATOM     12  C   UNL A   1      31.212  25.531  25.491  1.00  0.00     0.130 A 
ATOM     13  C   UNL A   1      32.405  25.570  23.407  1.00  0.00     0.034 A 
ATOM     14  Cl  UNL A   1      33.573  27.695  22.352  1.00  0.00    -0.082 Cl
ATOM     15  C   UNL A   1      31.798  24.852  24.433  1.00  0.00     0.019 A 
ATOM     16  O   UNL A   1      30.739  24.906  26.610  1.00  0.00    -0.475 OA
ATOM     17  C   UNL A   1      31.945  23.412  24.473  1.00  0.00     0.027 C 
ATOM     18  C   UNL A   1      30.904  23.456  26.758  1.00  0.00     0.316 C 
BRANCH   9  19
ATOM     19  N   UNL A   1      31.780  29.095  24.512  1.00  0.00    -0.373 N 
ATOM     20  C   UNL A   1      32.723  29.700  25.454  1.00  0.00     0.143 C 
BRANCH  19  21
ATOM     21  C   UNL A   1      30.504  29.824  24.312  1.00  0.00     0.119 C 
BRANCH  21  22
ATOM     22  C   UNL A   1      29.680  29.304  23.117  1.00  0.00     0.002 C 
ATOM     23  C   UNL A   1      28.218  29.760  23.198  1.00  0.00     0.009 C 
ATOM     24  C   UNL A   1      30.259  29.750  21.771  1.00  0.00     0.009 C 
ENDBRANCH  21  22
ENDBRANCH  19  21
ENDBRANCH   9  19
BRANCH  18  25
ATOM     25  C   UNL A   1      29.518  22.912  27.147  1.00  0.00     0.430 C 
ATOM     26  F   UNL A   1      28.548  23.847  27.017  1.00  0.00    -0.167 F 
ATOM     27  F   UNL A   1      29.163  21.829  26.425  1.00  0.00    -0.167 F 
ATOM     28  F   UNL A   1      29.509  22.519  28.448  1.00  0.00    -0.167 F 
ENDBRANCH  18  25
ENDBRANCH   6   8
ENDBRANCH   5   6
ENDBRANCH   4   5
ENDBRANCH   3   4
ENDBRANCH   2   3
ENDBRANCH   1   2
BRANCH   1  29
ATOM     29  C   UNL A   1      37.054  22.251  24.127  1.00  0.00     0.188 C 
BRANCH  29  30
ATOM     30  O   UNL A   1      37.447  21.200  24.982  1.00  0.00    -0.376 OA
BRANCH  30  31
ATOM     31  C   UNL A   1      38.755  21.255  25.523  1.00  0.00     0.202 C 
BRANCH  31  32
ATOM     32  C   UNL A   1      39.399  19.928  25.955  1.00  0.00     0.261 C 
BRANCH  32  33
ATOM     33  O   UNL A   1      40.590  19.538  25.254  1.00  0.00    -0.460 OA
BRANCH  33  34
ATOM     34  C   UNL A   1      41.703  19.289  25.982  1.00  0.00     0.338 C 
ATOM     35  O   UNL A   1      42.276  18.223  26.115  1.00  0.00    -0.246 OA
BRANCH  34  36
ATOM     36  C   UNL A   1      42.226  20.604  26.418  1.00  0.00     0.060 A 
ATOM     37  C   UNL A   1      42.755  21.489  25.477  1.00  0.00     0.016 A 
ATOM     38  C   UNL A   1      42.248  20.926  27.783  1.00  0.00     0.016 A 
ATOM     39  C   UNL A   1      43.295  22.705  25.901  1.00  0.00     0.010 A 
ATOM     40  C   UNL A   1      42.798  22.141  28.206  1.00  0.00     0.010 A 
ATOM     41  C   UNL A   1      43.310  23.047  27.265  1.00  0.00    -0.014 A 
BRANCH  41  42
ATOM     42  C   UNL A   1      43.703  24.422  27.661  1.00  0.00     0.031 A 
ATOM     43  C   UNL A   1      45.126  24.884  27.664  1.00  0.00     0.074 A 
ATOM     44  C   UNL A   1      42.721  25.275  28.011  1.00  0.00     0.049 A 
ATOM     45  N   UNL A   1      45.597  26.093  27.855  1.00  0.00    -0.248 NA
ATOM     46  C   UNL A   1      46.157  23.864  27.438  1.00  0.00     0.031 C 
ATOM     47  C   UNL A   1      41.304  24.923  28.086  1.00  0.00     0.029 A 
ATOM     48  N   UNL A   1      42.759  26.602  28.350  1.00  0.00    -0.354 N 
ATOM     49  C   UNL A   1      46.975  25.987  27.751  1.00  0.00     0.074 A 
ATOM     50  C   UNL A   1      47.269  24.584  27.532  1.00  0.00     0.031 C 
ATOM     51  C   UNL A   1      40.601  26.016  28.414  1.00  0.00     0.029 A 
ATOM     52  C   UNL A   1      41.519  27.138  28.593  1.00  0.00     0.049 A 
ATOM     53  H   UNL A   1      43.594  27.121  28.414  1.00  0.00     0.167 HD
ATOM     54  C   UNL A   1      47.902  26.975  27.815  1.00  0.00     0.037 A 
ATOM     55  C   UNL A   1      41.154  28.393  28.912  1.00  0.00     0.037 A 
ATOM     56  C   UNL A   1      47.597  28.367  28.051  1.00  0.00     0.049 A 
ATOM     57  C   UNL A   1      42.201  29.466  29.004  1.00  0.00     0.074 A 
ATOM     58  C   UNL A   1      48.463  29.448  28.066  1.00  0.00     0.029 A 
ATOM     59  N   UNL A   1      46.335  28.868  28.337  1.00  0.00    -0.354 N 
ATOM     60  N   UNL A   1      43.492  29.377  28.799  1.00  0.00    -0.248 NA
ATOM     61  C   UNL A   1      41.740  30.814  29.363  1.00  0.00     0.031 C 
ATOM     62  C   UNL A   1      47.738  30.588  28.428  1.00  0.00     0.029 A 
ATOM     63  C   UNL A   1      46.407  30.234  28.574  1.00  0.00     0.049 A 
ATOM     64  H   UNL A   1      45.509  28.333  28.366  1.00  0.00     0.167 HD
ATOM     65  C   UNL A   1      43.999  30.655  28.991  1.00  0.00     0.074 A 
ATOM     66  C   UNL A   1      42.870  31.507  29.308  1.00  0.00     0.031 C 
ATOM     67  C   UNL A   1      45.284  31.077  28.910  1.00  0.00     0.037 A 
BRANCH  54  68
ATOM     68  C   UNL A   1      49.345  26.596  27.626  1.00  0.00     0.064 A 
ATOM     69  C   UNL A   1      49.914  26.486  26.348  1.00  0.00     0.173 A 
ATOM     70  C   UNL A   1      50.188  26.413  28.733  1.00  0.00     0.173 A 
ATOM     71  F   UNL A   1      49.155  26.656  25.254  1.00  0.00    -0.203 F 
ATOM     72  C   UNL A   1      51.264  26.180  26.185  1.00  0.00     0.198 A 
ATOM     73  C   UNL A   1      51.543  26.137  28.568  1.00  0.00     0.198 A 
ATOM     74  F   UNL A   1      49.703  26.523  29.979  1.00  0.00    -0.203 F 
ATOM     75  F   UNL A   1      51.773  26.041  24.953  1.00  0.00    -0.200 F 
ATOM     76  C   UNL A   1      52.078  26.013  27.294  1.00  0.00     0.200 A 
ATOM     77  F   UNL A   1      52.334  25.998  29.641  1.00  0.00    -0.200 F 
ATOM     78  F   UNL A   1      53.379  25.732  27.136  1.00  0.00    -0.200 F 
ENDBRANCH  54  68
BRANCH  55  79
ATOM     79  C   UNL A   1      39.714  28.689  29.114  1.00  0.00     0.064 A 
ATOM     80  C   UNL A   1      39.116  28.525  30.369  1.00  0.00     0.173 A 
ATOM     81  C   UNL A   1      38.932  29.220  28.077  1.00  0.00     0.173 A 
ATOM     82  F   UNL A   1      39.821  28.007  31.386  1.00  0.00    -0.203 F 
ATOM     83  C   UNL A   1      37.788  28.888  30.584  1.00  0.00     0.198 A 
ATOM     84  C   UNL A   1      37.612  29.608  28.300  1.00  0.00     0.198 A 
ATOM     85  F   UNL A   1      39.464  29.405  26.861  1.00  0.00    -0.203 F 
ATOM     86  F   UNL A   1      37.234  28.709  31.790  1.00  0.00    -0.200 F 
ATOM     87  C   UNL A   1      37.042  29.442  29.553  1.00  0.00     0.200 A 
ATOM     88  F   UNL A   1      36.903  30.162  27.309  1.00  0.00    -0.200 F 
ATOM     89  F   UNL A   1      35.774  29.817  29.769  1.00  0.00    -0.200 F 
ENDBRANCH  55  79
BRANCH  67  90
ATOM     90  C   UNL A   1      45.557  32.531  29.178  1.00  0.00     0.064 A 
ATOM     91  C   UNL A   1      45.902  32.988  30.459  1.00  0.00     0.173 A 
ATOM     92  C   UNL A   1      45.541  33.468  28.132  1.00  0.00     0.173 A 
ATOM     93  F   UNL A   1      45.918  32.140  31.497  1.00  0.00    -0.203 F 
ATOM     94  C   UNL A   1      46.209  34.329  30.683  1.00  0.00     0.198 A 
ATOM     95  C   UNL A   1      45.878  34.800  28.354  1.00  0.00     0.198 A 
ATOM     96  F   UNL A   1      45.221  33.085  26.886  1.00  0.00    -0.203 F 
ATOM     97  F   UNL A   1      46.501  34.749  31.923  1.00  0.00    -0.200 F 
ATOM     98  C   UNL A   1      46.208  35.231  29.630  1.00  0.00     0.200 A 
ATOM     99  F   UNL A   1      45.891  35.667  27.332  1.00  0.00    -0.200 F 
ATOM    100  F   UNL A   1      46.521  36.516  29.846  1.00  0.00    -0.200 F 
ENDBRANCH  67  90
ENDBRANCH  41  42
ENDBRANCH  34  36
ENDBRANCH  33  34
ENDBRANCH  32  33
ENDBRANCH  31  32
ENDBRANCH  30  31
ENDBRANCH  29  30
ENDBRANCH   1  29
TORSDOF 21
ENDMDL
MODEL 3
REMARK VINA RESULT:      -8.8      5.912     11.149
REMARK SMILES CC(C)CN(C)c1cc2c(cc1Cl)C=C(C(=O)OCCOCCOCCOC(=O)c1ccc(-c3c4nc(c(-c5c(F)c(F)c(F)c(F)c5F)c5ccc([nH]5)c(-c5c(F)c(F)c(F)c(F)c5F)c5nc(c(-c6c(F)c(F)c(F)c(F)c6F)c6ccc3[nH]6)C=C5)C=C4)cc1)[C@H](C(F)(F)F)O2
REMARK SMILES IDX 22 1 21 2 20 3 19 4 18 5 16 6 17 7 15 8 7 9 8 10 12 11 9 12
REMARK SMILES IDX 11 13 13 14 10 15 98 16 14 17 93 18 5 19 6 20 4 21 2 22 1 23
REMARK SMILES IDX 3 24 94 25 95 26 96 27 97 28 23 29 24 30 25 31 26 32 27 33
REMARK SMILES IDX 28 34 29 35 30 36 31 37 92 38 32 39 91 40 33 41 34 42 35 43
REMARK SMILES IDX 85 44 36 45 90 46 84 47 86 48 37 49 89 50 83 51 82 52 38 54
REMARK SMILES IDX 70 55 50 56 69 57 51 58 54 59 68 60 87 61 52 62 53 63 67 65
REMARK SMILES IDX 88 66 55 67 39 68 40 69 48 70 41 71 42 72 46 73 49 74 43 75
REMARK SMILES IDX 44 76 47 77 45 78 71 79 72 80 80 81 73 82 74 83 78 84 81 85
REMARK SMILES IDX 75 86 76 87 79 88 77 89 56 90 57 91 65 92 58 93 59 94 63 95
REMARK SMILES IDX 66 96 60 97 61 98 64 99 62 100
REMARK H PARENT 86 53 54 64
REMARK Flexibility Score: inf
ROOT
ATOM      1  C   UNL A   1      36.314  23.131  24.922  1.00  0.00     0.188 C 
ENDROOT
BRANCH   1   2
ATOM      2  O   UNL A   1      36.124  23.343  26.315  1.00  0.00    -0.376 OA
BRANCH   2   3
ATOM      3  C   UNL A   1      34.959  22.822  26.952  1.00  0.00     0.202 C 
BRANCH   3   4
ATOM      4  C   UNL A   1      34.408  21.470  26.471  1.00  0.00     0.261 C 
BRANCH   4   5
ATOM      5  O   UNL A   1      33.000  21.285  26.730  1.00  0.00    -0.460 OA
BRANCH   5   6
ATOM      6  C   UNL A   1      32.186  21.400  25.661  1.00  0.00     0.338 C 
ATOM      7  O   UNL A   1      31.828  20.486  24.933  1.00  0.00    -0.246 OA
BRANCH   6   8
ATOM      8  C   UNL A   1      31.597  22.754  25.557  1.00  0.00     0.087 C 
ATOM      9  C   UNL A   1      31.751  27.648  24.321  1.00  0.00     0.059 A 
ATOM     10  C   UNL A   1      31.147  26.907  25.361  1.00  0.00     0.074 A 
ATOM     11  C   UNL A   1      32.415  26.903  23.322  1.00  0.00     0.065 A 
ATOM     12  C   UNL A   1      31.216  25.506  25.407  1.00  0.00     0.130 A 
ATOM     13  C   UNL A   1      32.360  25.506  23.295  1.00  0.00     0.034 A 
ATOM     14  Cl  UNL A   1      33.495  27.613  22.169  1.00  0.00    -0.082 Cl
ATOM     15  C   UNL A   1      31.780  24.807  24.349  1.00  0.00     0.019 A 
ATOM     16  O   UNL A   1      30.772  24.903  26.549  1.00  0.00    -0.475 OA
ATOM     17  C   UNL A   1      31.934  23.369  24.416  1.00  0.00     0.027 C 
ATOM     18  C   UNL A   1      30.946  23.457  26.723  1.00  0.00     0.316 C 
BRANCH   9  19
ATOM     19  N   UNL A   1      31.747  29.051  24.342  1.00  0.00    -0.373 N 
ATOM     20  C   UNL A   1      32.600  29.677  25.353  1.00  0.00     0.143 C 
BRANCH  19  21
ATOM     21  C   UNL A   1      30.495  29.774  24.010  1.00  0.00     0.119 C 
BRANCH  21  22
ATOM     22  C   UNL A   1      29.828  29.283  22.709  1.00  0.00     0.002 C 
ATOM     23  C   UNL A   1      28.615  28.391  22.998  1.00  0.00     0.009 C 
ATOM     24  C   UNL A   1      29.383  30.440  21.810  1.00  0.00     0.009 C 
ENDBRANCH  21  22
ENDBRANCH  19  21
ENDBRANCH   9  19
BRANCH  18  25
ATOM     25  C   UNL A   1      29.571  22.916  27.156  1.00  0.00     0.430 C 
ATOM     26  F   UNL A   1      28.609  23.865  27.098  1.00  0.00    -0.167 F 
ATOM     27  F   UNL A   1      29.172  21.861  26.416  1.00  0.00    -0.167 F 
ATOM     28  F   UNL A   1      29.614  22.481  28.442  1.00  0.00    -0.167 F 
ENDBRANCH  18  25
ENDBRANCH   6   8
ENDBRANCH   5   6
ENDBRANCH   4   5
ENDBRANCH   3   4
ENDBRANCH   2   3
ENDBRANCH   1   2
BRANCH   1  29
ATOM     29  C   UNL A   1      37.425  22.181  24.437  1.00  0.00     0.188 C 
BRANCH  29  30
ATOM     30  O   UNL A   1      37.781  21.190  25.376  1.00  0.00    -0.376 OA
BRANCH  30  31
ATOM     31  C   UNL A   1      39.153  21.069  25.706  1.00  0.00     0.202 C 
BRANCH  31  32
ATOM     32  C   UNL A   1      39.689  19.660  26.001  1.00  0.00     0.261 C 
BRANCH  32  33
ATOM     33  O   UNL A   1      40.954  19.322  25.412  1.00  0.00    -0.460 OA
BRANCH  33  34
ATOM     34  C   UNL A   1      42.035  19.253  26.223  1.00  0.00     0.338 C 
ATOM     35  O   UNL A   1      42.637  18.252  26.570  1.00  0.00    -0.246 OA
BRANCH  34  36
ATOM     36  C   UNL A   1      42.488  20.645  26.444  1.00  0.00     0.060 A 
ATOM     37  C   UNL A   1      42.887  21.427  25.358  1.00  0.00     0.016 A 
ATOM     38  C   UNL A   1      42.577  21.149  27.750  1.00  0.00     0.016 A 
ATOM     39  C   UNL A   1      43.363  22.721  25.578  1.00  0.00     0.010 A 
ATOM     40  C   UNL A   1      43.064  22.444  27.968  1.00  0.00     0.010 A 
ATOM     41  C   UNL A   1      43.444  23.244  26.881  1.00  0.00    -0.014 A 
BRANCH  41  42
ATOM     42  C   UNL A   1      43.760  24.683  27.064  1.00  0.00     0.031 A 
ATOM     43  C   UNL A   1      42.750  25.672  27.557  1.00  0.00     0.074 A 
ATOM     44  C   UNL A   1      45.013  25.088  26.786  1.00  0.00     0.049 A 
ATOM     45  N   UNL A   1      42.926  26.927  27.892  1.00  0.00    -0.248 NA
ATOM     46  C   UNL A   1      41.364  25.204  27.678  1.00  0.00     0.031 C 
ATOM     47  C   UNL A   1      46.067  24.221  26.260  1.00  0.00     0.029 A 
ATOM     48  N   UNL A   1      45.616  26.312  26.920  1.00  0.00    -0.354 N 
ATOM     49  C   UNL A   1      41.682  27.396  28.285  1.00  0.00     0.074 A 
ATOM     50  C   UNL A   1      40.747  26.303  28.098  1.00  0.00     0.031 C 
ATOM     51  C   UNL A   1      47.198  24.931  26.148  1.00  0.00     0.029 A 
ATOM     52  C   UNL A   1      46.944  26.305  26.574  1.00  0.00     0.049 A 
ATOM     53  H   UNL A   1      45.142  27.116  27.234  1.00  0.00     0.167 HD
ATOM     54  C   UNL A   1      41.360  28.619  28.776  1.00  0.00     0.037 A 
ATOM     55  C   UNL A   1      47.862  27.289  26.605  1.00  0.00     0.037 A 
ATOM     56  C   UNL A   1      42.298  29.705  28.942  1.00  0.00     0.049 A 
ATOM     57  C   UNL A   1      47.476  28.644  27.126  1.00  0.00     0.074 A 
ATOM     58  C   UNL A   1      42.077  30.957  29.491  1.00  0.00     0.029 A 
ATOM     59  N   UNL A   1      43.626  29.679  28.539  1.00  0.00    -0.354 N 
ATOM     60  N   UNL A   1      46.321  29.047  27.596  1.00  0.00    -0.248 NA
ATOM     61  C   UNL A   1      48.520  29.676  27.128  1.00  0.00     0.031 C 
ATOM     62  C   UNL A   1      43.249  31.709  29.358  1.00  0.00     0.029 A 
ATOM     63  C   UNL A   1      44.223  30.907  28.787  1.00  0.00     0.049 A 
ATOM     64  H   UNL A   1      44.078  28.902  28.138  1.00  0.00     0.167 HD
ATOM     65  C   UNL A   1      46.500  30.374  27.962  1.00  0.00     0.074 A 
ATOM     66  C   UNL A   1      47.883  30.701  27.679  1.00  0.00     0.031 C 
ATOM     67  C   UNL A   1      45.596  31.238  28.485  1.00  0.00     0.037 A 
BRANCH  54  68
ATOM     68  C   UNL A   1      39.930  28.861  29.172  1.00  0.00     0.064 A 
ATOM     69  C   UNL A   1      38.978  29.314  28.245  1.00  0.00     0.173 A 
ATOM     70  C   UNL A   1      39.487  28.569  30.472  1.00  0.00     0.173 A 
ATOM     71  F   UNL A   1      39.345  29.604  26.987  1.00  0.00    -0.203 F 
ATOM     72  C   UNL A   1      37.645  29.491  28.612  1.00  0.00     0.198 A 
ATOM     73  C   UNL A   1      38.149  28.718  30.826  1.00  0.00     0.198 A 
ATOM     74  F   UNL A   1      40.350  28.117  31.395  1.00  0.00    -0.203 F 
ATOM     75  F   UNL A   1      36.764  29.962  27.718  1.00  0.00    -0.200 F 
ATOM     76  C   UNL A   1      37.231  29.186  29.899  1.00  0.00     0.200 A 
ATOM     77  F   UNL A   1      37.745  28.402  32.065  1.00  0.00    -0.200 F 
ATOM     78  F   UNL A   1      35.946  29.344  30.246  1.00  0.00    -0.200 F 
ENDBRANCH  54  68
BRANCH  55  79
ATOM     79  C   UNL A   1      49.248  26.986  26.170  1.00  0.00     0.064 A 
ATOM     80  C   UNL A   1      50.179  26.442  27.064  1.00  0.00     0.173 A 
ATOM     81  C   UNL A   1      49.642  27.157  24.835  1.00  0.00     0.173 A 
ATOM     82  F   UNL A   1      49.852  26.275  28.354  1.00  0.00    -0.203 F 
ATOM     83  C   UNL A   1      51.452  26.072  26.636  1.00  0.00     0.198 A 
ATOM     84  C   UNL A   1      50.906  26.762  24.402  1.00  0.00     0.198 A 
ATOM     85  F   UNL A   1      48.781  27.666  23.941  1.00  0.00    -0.203 F 
ATOM     86  F   UNL A   1      52.330  25.566  27.512  1.00  0.00    -0.200 F 
ATOM     87  C   UNL A   1      51.809  26.220  25.303  1.00  0.00     0.200 A 
ATOM     88  F   UNL A   1      51.238  26.887  23.111  1.00  0.00    -0.200 F 
ATOM     89  F   UNL A   1      53.024  25.838  24.887  1.00  0.00    -0.200 F 
ENDBRANCH  55  79
BRANCH  67  90
ATOM     90  C   UNL A   1      46.060  32.636  28.782  1.00  0.00     0.064 A 
ATOM     91  C   UNL A   1      46.647  32.968  30.012  1.00  0.00     0.173 A 
ATOM     92  C   UNL A   1      45.979  33.641  27.804  1.00  0.00     0.173 A 
ATOM     93  F   UNL A   1      46.735  32.052  30.987  1.00  0.00    -0.203 F 
ATOM     94  C   UNL A   1      47.125  34.254  30.256  1.00  0.00     0.198 A 
ATOM     95  C   UNL A   1      46.486  34.916  28.039  1.00  0.00     0.198 A 
ATOM     96  F   UNL A   1      45.431  33.378  26.608  1.00  0.00    -0.203 F 
ATOM     97  F   UNL A   1      47.650  34.557  31.451  1.00  0.00    -0.200 F 
ATOM     98  C   UNL A   1      47.055  35.223  29.266  1.00  0.00     0.200 A 
ATOM     99  F   UNL A   1      46.431  35.846  27.076  1.00  0.00    -0.200 F 
ATOM    100  F   UNL A   1      47.533  36.454  29.497  1.00  0.00    -0.200 F 
ENDBRANCH  67  90
ENDBRANCH  41  42
ENDBRANCH  34  36
ENDBRANCH  33  34
ENDBRANCH  32  33
ENDBRANCH  31  32
ENDBRANCH  30  31
ENDBRANCH  29  30
ENDBRANCH   1  29
TORSDOF 21
ENDMDL
