MODEL 1
REMARK VINA RESULT:     -12.3      0.000      0.000
REMARK SMILES C[C@H](C(=O)Nc1ccc(C(F)(F)F)cc1)n1nc(C(=O)OCCOCCOCCOC(=O)c2ccc(-c3c4nc(c(-c5c(F)c(F)c(F)c(F)c5F)c5ccc([nH]5)c(-c5c(F)c(F)c(F)c(F)c5F)c5nc(c(-c6c(F)c(F)c(F)c(F)c6F)c6ccc3[nH]6)C=C5)C=C4)cc2)c2ccccc2c1=O
REMARK SMILES IDX 25 1 24 2 23 3 22 4 21 5 19 6 20 7 18 8 16 9 17 10 102 11
REMARK SMILES IDX 101 12 103 13 96 14 100 15 97 16 99 17 98 18 2 19 1 20 3 21
REMARK SMILES IDX 4 22 5 23 6 25 7 26 15 27 8 28 14 29 9 30 10 31 11 32 12 33
REMARK SMILES IDX 13 34 26 35 27 36 28 37 29 38 30 39 31 40 32 41 33 42 34 43
REMARK SMILES IDX 95 44 35 45 94 46 36 47 37 48 38 49 88 50 39 51 93 52 87 53
REMARK SMILES IDX 89 54 40 55 92 56 86 57 85 58 41 60 73 61 53 62 72 63 54 64
REMARK SMILES IDX 57 65 71 66 90 67 55 68 56 69 70 71 91 72 58 73 42 74 43 75
REMARK SMILES IDX 51 76 44 77 45 78 49 79 52 80 46 81 47 82 50 83 48 84 74 85
REMARK SMILES IDX 75 86 83 87 76 88 77 89 81 90 84 91 78 92 79 93 82 94 80 95
REMARK SMILES IDX 59 96 60 97 68 98 61 99 62 100 66 101 69 102 63 103 64 104
REMARK SMILES IDX 67 105 65 106
REMARK H PARENT 5 24 89 59 57 70
REMARK Flexibility Score: inf
ROOT
ATOM      1  C   UNL A   1      33.551  33.035  28.002  1.00  0.00     0.188 C 
ENDROOT
BRANCH   1   2
ATOM      2  O   UNL A   1      33.659  31.646  27.758  1.00  0.00    -0.376 OA
BRANCH   2   3
ATOM      3  C   UNL A   1      34.937  31.038  27.628  1.00  0.00     0.202 C 
BRANCH   3   4
ATOM      4  C   UNL A   1      35.029  29.523  27.481  1.00  0.00     0.261 C 
BRANCH   4   5
ATOM      5  O   UNL A   1      34.364  29.058  26.298  1.00  0.00    -0.458 OA
BRANCH   5   6
ATOM      6  C   UNL A   1      33.274  28.295  26.508  1.00  0.00     0.359 C 
ATOM      7  O   UNL A   1      32.616  28.212  27.531  1.00  0.00    -0.244 OA
BRANCH   6   8
ATOM      8  C   UNL A   1      32.897  27.511  25.255  1.00  0.00     0.176 A 
ATOM      9  N   UNL A   1      31.809  27.520  23.216  1.00  0.00    -0.216 N 
ATOM     10  N   UNL A   1      31.987  28.019  24.486  1.00  0.00    -0.161 NA
ATOM     11  C   UNL A   1      32.686  26.596  22.646  1.00  0.00     0.275 A 
ATOM     12  C   UNL A   1      33.622  25.927  23.579  1.00  0.00     0.051 A 
ATOM     13  O   UNL A   1      32.690  26.260  21.468  1.00  0.00    -0.267 OA
ATOM     14  C   UNL A   1      33.625  26.289  24.918  1.00  0.00     0.022 A 
ATOM     15  C   UNL A   1      34.427  24.869  23.149  1.00  0.00     0.014 A 
ATOM     16  C   UNL A   1      34.295  25.508  25.865  1.00  0.00     0.011 A 
ATOM     17  C   UNL A   1      35.148  24.120  24.082  1.00  0.00     0.001 A 
ATOM     18  C   UNL A   1      35.048  24.413  25.443  1.00  0.00     0.001 A 
BRANCH   9  19
ATOM     19  C   UNL A   1      30.651  28.068  22.472  1.00  0.00     0.197 C 
ATOM     20  C   UNL A   1      30.832  29.559  22.166  1.00  0.00     0.044 C 
BRANCH  19  21
ATOM     21  C   UNL A   1      29.302  27.791  23.156  1.00  0.00     0.249 C 
ATOM     22  O   UNL A   1      28.348  28.569  23.024  1.00  0.00    -0.272 OA
ATOM     23  N   UNL A   1      29.041  26.677  23.908  1.00  0.00    -0.324 N 
ATOM     24  H   UNL A   1      28.123  26.677  24.262  1.00  0.00     0.170 HD
BRANCH  23  25
ATOM     25  C   UNL A   1      29.759  25.533  24.299  1.00  0.00     0.041 A 
ATOM     26  C   UNL A   1      30.111  24.628  23.290  1.00  0.00     0.027 A 
ATOM     27  C   UNL A   1      30.151  25.226  25.594  1.00  0.00     0.027 A 
ATOM     28  C   UNL A   1      30.881  23.488  23.574  1.00  0.00     0.015 A 
ATOM     29  C   UNL A   1      30.893  24.082  25.894  1.00  0.00     0.015 A 
ATOM     30  C   UNL A   1      31.291  23.210  24.884  1.00  0.00     0.056 A 
BRANCH  30  31
ATOM     31  C   UNL A   1      32.155  22.017  25.198  1.00  0.00     0.416 C 
ATOM     32  F   UNL A   1      31.432  20.885  25.413  1.00  0.00    -0.166 F 
ATOM     33  F   UNL A   1      33.025  21.726  24.192  1.00  0.00    -0.166 F 
ATOM     34  F   UNL A   1      32.923  22.185  26.313  1.00  0.00    -0.166 F 
ENDBRANCH  30  31
ENDBRANCH  23  25
ENDBRANCH  19  21
ENDBRANCH   9  19
ENDBRANCH   6   8
ENDBRANCH   5   6
ENDBRANCH   4   5
ENDBRANCH   3   4
ENDBRANCH   2   3
ENDBRANCH   1   2
BRANCH   1  35
ATOM     35  C   UNL A   1      34.803  33.893  28.290  1.00  0.00     0.188 C 
BRANCH  35  36
ATOM     36  O   UNL A   1      35.196  34.199  29.612  1.00  0.00    -0.376 OA
BRANCH  36  37
ATOM     37  C   UNL A   1      34.219  34.557  30.578  1.00  0.00     0.202 C 
BRANCH  37  38
ATOM     38  C   UNL A   1      34.313  34.036  32.013  1.00  0.00     0.261 C 
BRANCH  38  39
ATOM     39  O   UNL A   1      34.622  32.638  32.105  1.00  0.00    -0.460 OA
BRANCH  39  40
ATOM     40  C   UNL A   1      35.706  32.349  32.872  1.00  0.00     0.338 C 
ATOM     41  O   UNL A   1      35.885  32.634  34.033  1.00  0.00    -0.246 OA
BRANCH  40  42
ATOM     42  C   UNL A   1      36.606  31.436  32.135  1.00  0.00     0.060 A 
ATOM     43  C   UNL A   1      37.620  30.802  32.866  1.00  0.00     0.016 A 
ATOM     44  C   UNL A   1      36.512  31.260  30.754  1.00  0.00     0.016 A 
ATOM     45  C   UNL A   1      38.585  30.041  32.210  1.00  0.00     0.010 A 
ATOM     46  C   UNL A   1      37.495  30.517  30.092  1.00  0.00     0.010 A 
ATOM     47  C   UNL A   1      38.561  29.947  30.813  1.00  0.00    -0.014 A 
BRANCH  47  48
ATOM     48  C   UNL A   1      39.780  29.489  30.101  1.00  0.00     0.031 A 
ATOM     49  C   UNL A   1      40.902  30.478  29.919  1.00  0.00     0.074 A 
ATOM     50  C   UNL A   1      39.915  28.228  29.657  1.00  0.00     0.049 A 
ATOM     51  N   UNL A   1      42.049  30.335  29.305  1.00  0.00    -0.248 NA
ATOM     52  C   UNL A   1      40.701  31.810  30.516  1.00  0.00     0.031 C 
ATOM     53  C   UNL A   1      38.927  27.164  29.807  1.00  0.00     0.029 A 
ATOM     54  N   UNL A   1      40.950  27.636  28.975  1.00  0.00    -0.354 N 
ATOM     55  C   UNL A   1      42.707  31.549  29.454  1.00  0.00     0.074 A 
ATOM     56  C   UNL A   1      41.821  32.430  30.183  1.00  0.00     0.031 C 
ATOM     57  C   UNL A   1      39.394  26.051  29.210  1.00  0.00     0.029 A 
ATOM     58  C   UNL A   1      40.702  26.334  28.618  1.00  0.00     0.049 A 
ATOM     59  H   UNL A   1      41.791  28.102  28.761  1.00  0.00     0.167 HD
ATOM     60  C   UNL A   1      43.944  31.900  29.031  1.00  0.00     0.037 A 
ATOM     61  C   UNL A   1      41.439  25.483  27.879  1.00  0.00     0.037 A 
ATOM     62  C   UNL A   1      44.819  31.044  28.278  1.00  0.00     0.049 A 
ATOM     63  C   UNL A   1      42.781  25.926  27.345  1.00  0.00     0.074 A 
ATOM     64  C   UNL A   1      46.069  31.327  27.758  1.00  0.00     0.029 A 
ATOM     65  N   UNL A   1      44.528  29.733  27.934  1.00  0.00    -0.354 N 
ATOM     66  N   UNL A   1      43.398  27.073  27.496  1.00  0.00    -0.248 NA
ATOM     67  C   UNL A   1      43.535  24.947  26.547  1.00  0.00     0.031 C 
ATOM     68  C   UNL A   1      46.524  30.196  27.071  1.00  0.00     0.029 A 
ATOM     69  C   UNL A   1      45.577  29.195  27.206  1.00  0.00     0.049 A 
ATOM     70  H   UNL A   1      43.701  29.257  28.171  1.00  0.00     0.167 HD
ATOM     71  C   UNL A   1      44.622  26.939  26.848  1.00  0.00     0.074 A 
ATOM     72  C   UNL A   1      44.665  25.597  26.312  1.00  0.00     0.031 C 
ATOM     73  C   UNL A   1      45.620  27.845  26.709  1.00  0.00     0.037 A 
BRANCH  60  74
ATOM     74  C   UNL A   1      44.417  33.283  29.365  1.00  0.00     0.064 A 
ATOM     75  C   UNL A   1      45.152  33.538  30.532  1.00  0.00     0.173 A 
ATOM     76  C   UNL A   1      44.158  34.355  28.501  1.00  0.00     0.173 A 
ATOM     77  F   UNL A   1      45.406  32.547  31.400  1.00  0.00    -0.203 F 
ATOM     78  C   UNL A   1      45.598  34.823  30.830  1.00  0.00     0.198 A 
ATOM     79  C   UNL A   1      44.627  35.635  28.788  1.00  0.00     0.198 A 
ATOM     80  F   UNL A   1      43.457  34.162  27.373  1.00  0.00    -0.203 F 
ATOM     81  F   UNL A   1      46.264  35.052  31.969  1.00  0.00    -0.200 F 
ATOM     82  C   UNL A   1      45.341  35.868  29.955  1.00  0.00     0.200 A 
ATOM     83  F   UNL A   1      44.386  36.641  27.938  1.00  0.00    -0.200 F 
ATOM     84  F   UNL A   1      45.778  37.103  30.237  1.00  0.00    -0.200 F 
ENDBRANCH  60  74
BRANCH  61  85
ATOM     85  C   UNL A   1      40.930  24.120  27.567  1.00  0.00     0.064 A 
ATOM     86  C   UNL A   1      41.535  22.977  28.109  1.00  0.00     0.173 A 
ATOM     87  C   UNL A   1      39.873  23.933  26.664  1.00  0.00     0.173 A 
ATOM     88  F   UNL A   1      42.567  23.104  28.956  1.00  0.00    -0.203 F 
ATOM     89  C   UNL A   1      41.125  21.699  27.732  1.00  0.00     0.198 A 
ATOM     90  C   UNL A   1      39.445  22.655  26.311  1.00  0.00     0.198 A 
ATOM     91  F   UNL A   1      39.262  24.993  26.115  1.00  0.00    -0.203 F 
ATOM     92  F   UNL A   1      41.765  20.625  28.214  1.00  0.00    -0.200 F 
ATOM     93  C   UNL A   1      40.080  21.539  26.835  1.00  0.00     0.200 A 
ATOM     94  F   UNL A   1      38.428  22.505  25.452  1.00  0.00    -0.200 F 
ATOM     95  F   UNL A   1      39.695  20.311  26.464  1.00  0.00    -0.200 F 
ENDBRANCH  61  85
BRANCH  73  96
ATOM     96  C   UNL A   1      46.873  27.400  26.013  1.00  0.00     0.064 A 
ATOM     97  C   UNL A   1      47.082  27.625  24.645  1.00  0.00     0.173 A 
ATOM     98  C   UNL A   1      47.900  26.776  26.739  1.00  0.00     0.173 A 
ATOM     99  F   UNL A   1      46.129  28.209  23.903  1.00  0.00    -0.203 F 
ATOM    100  C   UNL A   1      48.259  27.215  24.023  1.00  0.00     0.198 A 
ATOM    101  C   UNL A   1      49.086  26.393  26.122  1.00  0.00     0.198 A 
ATOM    102  F   UNL A   1      47.754  26.545  28.054  1.00  0.00    -0.203 F 
ATOM    103  F   UNL A   1      48.418  27.397  22.705  1.00  0.00    -0.200 F 
ATOM    104  C   UNL A   1      49.263  26.606  24.763  1.00  0.00     0.200 A 
ATOM    105  F   UNL A   1      50.060  25.818  26.841  1.00  0.00    -0.200 F 
ATOM    106  F   UNL A   1      50.397  26.217  24.165  1.00  0.00    -0.200 F 
ENDBRANCH  73  96
ENDBRANCH  47  48
ENDBRANCH  40  42
ENDBRANCH  39  40
ENDBRANCH  38  39
ENDBRANCH  37  38
ENDBRANCH  36  37
ENDBRANCH  35  36
ENDBRANCH   1  35
TORSDOF 21
ENDMDL
MODEL 2
REMARK VINA RESULT:     -10.6      4.171      6.471
REMARK SMILES C[C@H](C(=O)Nc1ccc(C(F)(F)F)cc1)n1nc(C(=O)OCCOCCOCCOC(=O)c2ccc(-c3c4nc(c(-c5c(F)c(F)c(F)c(F)c5F)c5ccc([nH]5)c(-c5c(F)c(F)c(F)c(F)c5F)c5nc(c(-c6c(F)c(F)c(F)c(F)c6F)c6ccc3[nH]6)C=C5)C=C4)cc2)c2ccccc2c1=O
REMARK SMILES IDX 25 1 24 2 23 3 22 4 21 5 19 6 20 7 18 8 16 9 17 10 102 11
REMARK SMILES IDX 101 12 103 13 96 14 100 15 97 16 99 17 98 18 2 19 1 20 3 21
REMARK SMILES IDX 4 22 5 23 6 25 7 26 15 27 8 28 14 29 9 30 10 31 11 32 12 33
REMARK SMILES IDX 13 34 26 35 27 36 28 37 29 38 30 39 31 40 32 41 33 42 34 43
REMARK SMILES IDX 95 44 35 45 94 46 36 47 37 48 38 49 88 50 39 51 93 52 87 53
REMARK SMILES IDX 89 54 40 55 92 56 86 57 85 58 41 60 73 61 53 62 72 63 54 64
REMARK SMILES IDX 57 65 71 66 90 67 55 68 56 69 70 71 91 72 58 73 42 74 43 75
REMARK SMILES IDX 51 76 44 77 45 78 49 79 52 80 46 81 47 82 50 83 48 84 74 85
REMARK SMILES IDX 75 86 83 87 76 88 77 89 81 90 84 91 78 92 79 93 82 94 80 95
REMARK SMILES IDX 59 96 60 97 68 98 61 99 62 100 66 101 69 102 63 103 64 104
REMARK SMILES IDX 67 105 65 106
REMARK H PARENT 5 24 89 59 57 70
REMARK Flexibility Score: inf
ROOT
ATOM      1  C   UNL A   1      30.995  29.407  24.292  1.00  0.00     0.188 C 
ENDROOT
BRANCH   1   2
ATOM      2  O   UNL A   1      30.061  29.263  23.241  1.00  0.00    -0.376 OA
BRANCH   2   3
ATOM      3  C   UNL A   1      29.492  27.991  22.956  1.00  0.00     0.202 C 
BRANCH   3   4
ATOM      4  C   UNL A   1      28.696  27.272  24.039  1.00  0.00     0.261 C 
BRANCH   4   5
ATOM      5  O   UNL A   1      29.083  25.897  24.164  1.00  0.00    -0.458 OA
BRANCH   5   6
ATOM      6  C   UNL A   1      29.728  25.578  25.302  1.00  0.00     0.359 C 
ATOM      7  O   UNL A   1      29.274  25.572  26.433  1.00  0.00    -0.244 OA
BRANCH   6   8
ATOM      8  C   UNL A   1      31.172  25.171  25.024  1.00  0.00     0.176 A 
ATOM      9  N   UNL A   1      33.131  25.629  23.886  1.00  0.00    -0.216 N 
ATOM     10  N   UNL A   1      31.765  25.730  24.017  1.00  0.00    -0.161 NA
ATOM     11  C   UNL A   1      33.941  25.093  24.888  1.00  0.00     0.275 A 
ATOM     12  C   UNL A   1      33.242  24.337  25.953  1.00  0.00     0.051 A 
ATOM     13  O   UNL A   1      35.164  25.147  24.912  1.00  0.00    -0.267 OA
ATOM     14  C   UNL A   1      31.857  24.258  25.937  1.00  0.00     0.022 A 
ATOM     15  C   UNL A   1      33.963  23.619  26.912  1.00  0.00     0.014 A 
ATOM     16  C   UNL A   1      31.186  23.347  26.759  1.00  0.00     0.011 A 
ATOM     17  C   UNL A   1      33.293  22.752  27.778  1.00  0.00     0.001 A 
ATOM     18  C   UNL A   1      31.912  22.583  27.673  1.00  0.00     0.001 A 
BRANCH   9  19
ATOM     19  C   UNL A   1      33.694  26.175  22.629  1.00  0.00     0.197 C 
ATOM     20  C   UNL A   1      33.431  27.680  22.501  1.00  0.00     0.044 C 
BRANCH  19  21
ATOM     21  C   UNL A   1      33.234  25.414  21.375  1.00  0.00     0.249 C 
ATOM     22  O   UNL A   1      33.081  25.997  20.294  1.00  0.00    -0.272 OA
ATOM     23  N   UNL A   1      33.003  24.064  21.343  1.00  0.00    -0.324 N 
ATOM     24  H   UNL A   1      32.717  23.759  20.452  1.00  0.00     0.170 HD
BRANCH  23  25
ATOM     25  C   UNL A   1      33.074  23.006  22.266  1.00  0.00     0.041 A 
ATOM     26  C   UNL A   1      34.343  22.675  22.756  1.00  0.00     0.027 A 
ATOM     27  C   UNL A   1      31.999  22.266  22.734  1.00  0.00     0.027 A 
ATOM     28  C   UNL A   1      34.508  21.674  23.726  1.00  0.00     0.015 A 
ATOM     29  C   UNL A   1      32.152  21.249  23.680  1.00  0.00     0.015 A 
ATOM     30  C   UNL A   1      33.406  20.956  24.208  1.00  0.00     0.056 A 
BRANCH  30  31
ATOM     31  C   UNL A   1      33.559  19.912  25.283  1.00  0.00     0.416 C 
ATOM     32  F   UNL A   1      32.366  19.433  25.725  1.00  0.00    -0.166 F 
ATOM     33  F   UNL A   1      34.267  18.830  24.858  1.00  0.00    -0.166 F 
ATOM     34  F   UNL A   1      34.211  20.368  26.391  1.00  0.00    -0.166 F 
ENDBRANCH  30  31
ENDBRANCH  23  25
ENDBRANCH  19  21
ENDBRANCH   9  19
ENDBRANCH   6   8
ENDBRANCH   5   6
ENDBRANCH   4   5
ENDBRANCH   3   4
ENDBRANCH   2   3
ENDBRANCH   1   2
BRANCH   1  35
ATOM     35  C   UNL A   1      30.981  30.653  25.206  1.00  0.00     0.188 C 
BRANCH  35  36
ATOM     36  O   UNL A   1      31.514  30.611  26.514  1.00  0.00    -0.376 OA
BRANCH  36  37
ATOM     37  C   UNL A   1      32.531  31.526  26.895  1.00  0.00     0.202 C 
BRANCH  37  38
ATOM     38  C   UNL A   1      32.179  32.960  27.296  1.00  0.00     0.261 C 
BRANCH  38  39
ATOM     39  O   UNL A   1      33.319  33.816  27.455  1.00  0.00    -0.460 OA
BRANCH  39  40
ATOM     40  C   UNL A   1      33.775  33.916  28.731  1.00  0.00     0.338 C 
ATOM     41  O   UNL A   1      33.231  34.449  29.670  1.00  0.00    -0.246 OA
BRANCH  40  42
ATOM     42  C   UNL A   1      34.994  33.092  28.889  1.00  0.00     0.060 A 
ATOM     43  C   UNL A   1      34.826  31.768  29.315  1.00  0.00     0.016 A 
ATOM     44  C   UNL A   1      36.272  33.619  28.698  1.00  0.00     0.016 A 
ATOM     45  C   UNL A   1      35.937  30.984  29.617  1.00  0.00     0.010 A 
ATOM     46  C   UNL A   1      37.387  32.840  29.025  1.00  0.00     0.010 A 
ATOM     47  C   UNL A   1      37.221  31.538  29.532  1.00  0.00    -0.014 A 
BRANCH  47  48
ATOM     48  C   UNL A   1      38.346  30.856  30.218  1.00  0.00     0.031 A 
ATOM     49  C   UNL A   1      38.603  31.204  31.662  1.00  0.00     0.074 A 
ATOM     50  C   UNL A   1      39.101  29.931  29.604  1.00  0.00     0.049 A 
ATOM     51  N   UNL A   1      39.540  30.777  32.469  1.00  0.00    -0.248 NA
ATOM     52  C   UNL A   1      37.670  32.163  32.278  1.00  0.00     0.031 C 
ATOM     53  C   UNL A   1      38.932  29.473  28.228  1.00  0.00     0.029 A 
ATOM     54  N   UNL A   1      40.179  29.216  30.068  1.00  0.00    -0.354 N 
ATOM     55  C   UNL A   1      39.301  31.402  33.686  1.00  0.00     0.074 A 
ATOM     56  C   UNL A   1      38.155  32.265  33.505  1.00  0.00     0.031 C 
ATOM     57  C   UNL A   1      39.889  28.569  27.950  1.00  0.00     0.029 A 
ATOM     58  C   UNL A   1      40.751  28.404  29.122  1.00  0.00     0.049 A 
ATOM     59  H   UNL A   1      40.509  29.282  30.994  1.00  0.00     0.167 HD
ATOM     60  C   UNL A   1      39.969  31.266  34.855  1.00  0.00     0.037 A 
ATOM     61  C   UNL A   1      41.857  27.637  29.193  1.00  0.00     0.037 A 
ATOM     62  C   UNL A   1      41.128  30.436  35.036  1.00  0.00     0.049 A 
ATOM     63  C   UNL A   1      42.635  27.566  30.485  1.00  0.00     0.074 A 
ATOM     64  C   UNL A   1      41.907  30.273  36.169  1.00  0.00     0.029 A 
ATOM     65  N   UNL A   1      41.679  29.632  34.051  1.00  0.00    -0.354 N 
ATOM     66  N   UNL A   1      42.398  28.156  31.632  1.00  0.00    -0.248 NA
ATOM     67  C   UNL A   1      43.831  26.710  30.494  1.00  0.00     0.031 C 
ATOM     68  C   UNL A   1      42.948  29.391  35.860  1.00  0.00     0.029 A 
ATOM     69  C   UNL A   1      42.789  28.970  34.550  1.00  0.00     0.049 A 
ATOM     70  H   UNL A   1      41.333  29.544  33.134  1.00  0.00     0.167 HD
ATOM     71  C   UNL A   1      43.387  27.712  32.503  1.00  0.00     0.074 A 
ATOM     72  C   UNL A   1      44.221  26.797  31.756  1.00  0.00     0.031 C 
ATOM     73  C   UNL A   1      43.588  28.034  33.804  1.00  0.00     0.037 A 
BRANCH  60  74
ATOM     74  C   UNL A   1      39.464  32.048  36.029  1.00  0.00     0.064 A 
ATOM     75  C   UNL A   1      39.980  33.316  36.336  1.00  0.00     0.173 A 
ATOM     76  C   UNL A   1      38.439  31.540  36.839  1.00  0.00     0.173 A 
ATOM     77  F   UNL A   1      40.977  33.834  35.602  1.00  0.00    -0.203 F 
ATOM     78  C   UNL A   1      39.498  34.041  37.421  1.00  0.00     0.198 A 
ATOM     79  C   UNL A   1      37.940  32.279  37.909  1.00  0.00     0.198 A 
ATOM     80  F   UNL A   1      37.914  30.331  36.588  1.00  0.00    -0.203 F 
ATOM     81  F   UNL A   1      40.032  35.232  37.720  1.00  0.00    -0.200 F 
ATOM     82  C   UNL A   1      38.474  33.526  38.202  1.00  0.00     0.200 A 
ATOM     83  F   UNL A   1      36.945  31.784  38.657  1.00  0.00    -0.200 F 
ATOM     84  F   UNL A   1      38.004  34.228  39.242  1.00  0.00    -0.200 F 
ENDBRANCH  60  74
BRANCH  61  85
ATOM     85  C   UNL A   1      42.326  26.881  28.000  1.00  0.00     0.064 A 
ATOM     86  C   UNL A   1      43.140  27.486  27.032  1.00  0.00     0.173 A 
ATOM     87  C   UNL A   1      41.910  25.562  27.772  1.00  0.00     0.173 A 
ATOM     88  F   UNL A   1      43.542  28.755  27.192  1.00  0.00    -0.203 F 
ATOM     89  C   UNL A   1      43.491  26.811  25.864  1.00  0.00     0.198 A 
ATOM     90  C   UNL A   1      42.286  24.878  26.617  1.00  0.00     0.198 A 
ATOM     91  F   UNL A   1      41.128  24.939  28.665  1.00  0.00    -0.203 F 
ATOM     92  F   UNL A   1      44.213  27.436  24.924  1.00  0.00    -0.200 F 
ATOM     93  C   UNL A   1      43.065  25.508  25.658  1.00  0.00     0.200 A 
ATOM     94  F   UNL A   1      41.880  23.616  26.427  1.00  0.00    -0.200 F 
ATOM     95  F   UNL A   1      43.392  24.864  24.529  1.00  0.00    -0.200 F 
ENDBRANCH  61  85
BRANCH  73  96
ATOM     96  C   UNL A   1      44.707  27.342  34.528  1.00  0.00     0.064 A 
ATOM     97  C   UNL A   1      46.006  27.868  34.563  1.00  0.00     0.173 A 
ATOM     98  C   UNL A   1      44.460  26.154  35.235  1.00  0.00     0.173 A 
ATOM     99  F   UNL A   1      46.296  28.995  33.897  1.00  0.00    -0.203 F 
ATOM    100  C   UNL A   1      47.024  27.215  35.254  1.00  0.00     0.198 A 
ATOM    101  C   UNL A   1      45.473  25.520  35.948  1.00  0.00     0.198 A 
ATOM    102  F   UNL A   1      43.232  25.614  35.241  1.00  0.00    -0.203 F 
ATOM    103  F   UNL A   1      48.269  27.710  35.234  1.00  0.00    -0.200 F 
ATOM    104  C   UNL A   1      46.755  26.045  35.950  1.00  0.00     0.200 A 
ATOM    105  F   UNL A   1      45.208  24.398  36.632  1.00  0.00    -0.200 F 
ATOM    106  F   UNL A   1      47.735  25.422  36.618  1.00  0.00    -0.200 F 
ENDBRANCH  73  96
ENDBRANCH  47  48
ENDBRANCH  40  42
ENDBRANCH  39  40
ENDBRANCH  38  39
ENDBRANCH  37  38
ENDBRANCH  36  37
ENDBRANCH  35  36
ENDBRANCH   1  35
TORSDOF 21
ENDMDL
MODEL 3
REMARK VINA RESULT:     -10.5      4.811      7.443
REMARK SMILES C[C@H](C(=O)Nc1ccc(C(F)(F)F)cc1)n1nc(C(=O)OCCOCCOCCOC(=O)c2ccc(-c3c4nc(c(-c5c(F)c(F)c(F)c(F)c5F)c5ccc([nH]5)c(-c5c(F)c(F)c(F)c(F)c5F)c5nc(c(-c6c(F)c(F)c(F)c(F)c6F)c6ccc3[nH]6)C=C5)C=C4)cc2)c2ccccc2c1=O
REMARK SMILES IDX 25 1 24 2 23 3 22 4 21 5 19 6 20 7 18 8 16 9 17 10 102 11
REMARK SMILES IDX 101 12 103 13 96 14 100 15 97 16 99 17 98 18 2 19 1 20 3 21
REMARK SMILES IDX 4 22 5 23 6 25 7 26 15 27 8 28 14 29 9 30 10 31 11 32 12 33
REMARK SMILES IDX 13 34 26 35 27 36 28 37 29 38 30 39 31 40 32 41 33 42 34 43
REMARK SMILES IDX 95 44 35 45 94 46 36 47 37 48 38 49 88 50 39 51 93 52 87 53
REMARK SMILES IDX 89 54 40 55 92 56 86 57 85 58 41 60 73 61 53 62 72 63 54 64
REMARK SMILES IDX 57 65 71 66 90 67 55 68 56 69 70 71 91 72 58 73 42 74 43 75
REMARK SMILES IDX 51 76 44 77 45 78 49 79 52 80 46 81 47 82 50 83 48 84 74 85
REMARK SMILES IDX 75 86 83 87 76 88 77 89 81 90 84 91 78 92 79 93 82 94 80 95
REMARK SMILES IDX 59 96 60 97 68 98 61 99 62 100 66 101 69 102 63 103 64 104
REMARK SMILES IDX 67 105 65 106
REMARK H PARENT 5 24 89 59 57 70
REMARK Flexibility Score: inf
ROOT
ATOM      1  C   UNL A   1      35.511  32.068  27.982  1.00  0.00     0.188 C 
ENDROOT
BRANCH   1   2
ATOM      2  O   UNL A   1      35.176  30.694  27.966  1.00  0.00    -0.376 OA
BRANCH   2   3
ATOM      3  C   UNL A   1      33.951  30.262  27.386  1.00  0.00     0.202 C 
BRANCH   3   4
ATOM      4  C   UNL A   1      33.977  29.168  26.324  1.00  0.00     0.261 C 
BRANCH   4   5
ATOM      5  O   UNL A   1      33.146  29.493  25.201  1.00  0.00    -0.458 OA
BRANCH   5   6
ATOM      6  C   UNL A   1      33.257  28.671  24.140  1.00  0.00     0.359 C 
ATOM      7  O   UNL A   1      34.225  28.531  23.412  1.00  0.00    -0.244 OA
BRANCH   6   8
ATOM      8  C   UNL A   1      31.985  27.855  23.936  1.00  0.00     0.176 A 
ATOM      9  N   UNL A   1      30.746  26.006  24.559  1.00  0.00    -0.216 N 
ATOM     10  N   UNL A   1      31.946  26.670  24.458  1.00  0.00    -0.161 NA
ATOM     11  C   UNL A   1      29.524  26.621  24.278  1.00  0.00     0.275 A 
ATOM     12  C   UNL A   1      29.598  27.911  23.553  1.00  0.00     0.051 A 
ATOM     13  O   UNL A   1      28.422  26.149  24.527  1.00  0.00    -0.267 OA
ATOM     14  C   UNL A   1      30.839  28.456  23.256  1.00  0.00     0.022 A 
ATOM     15  C   UNL A   1      28.440  28.531  23.075  1.00  0.00     0.014 A 
ATOM     16  C   UNL A   1      30.952  29.520  22.354  1.00  0.00     0.011 A 
ATOM     17  C   UNL A   1      28.543  29.631  22.222  1.00  0.00     0.001 A 
ATOM     18  C   UNL A   1      29.797  30.098  21.828  1.00  0.00     0.001 A 
BRANCH   9  19
ATOM     19  C   UNL A   1      30.828  24.606  25.035  1.00  0.00     0.197 C 
ATOM     20  C   UNL A   1      31.799  24.467  26.213  1.00  0.00     0.044 C 
BRANCH  19  21
ATOM     21  C   UNL A   1      31.151  23.601  23.916  1.00  0.00     0.249 C 
ATOM     22  O   UNL A   1      30.277  23.223  23.125  1.00  0.00    -0.272 OA
ATOM     23  N   UNL A   1      32.401  23.091  23.685  1.00  0.00    -0.324 N 
ATOM     24  H   UNL A   1      32.411  22.466  22.925  1.00  0.00     0.170 HD
BRANCH  23  25
ATOM     25  C   UNL A   1      33.674  23.241  24.262  1.00  0.00     0.041 A 
ATOM     26  C   UNL A   1      34.217  22.122  24.905  1.00  0.00     0.027 A 
ATOM     27  C   UNL A   1      34.439  24.399  24.247  1.00  0.00     0.027 A 
ATOM     28  C   UNL A   1      35.507  22.157  25.457  1.00  0.00     0.015 A 
ATOM     29  C   UNL A   1      35.713  24.455  24.816  1.00  0.00     0.015 A 
ATOM     30  C   UNL A   1      36.276  23.327  25.407  1.00  0.00     0.056 A 
BRANCH  30  31
ATOM     31  C   UNL A   1      37.679  23.368  25.953  1.00  0.00     0.416 C 
ATOM     32  F   UNL A   1      37.716  23.609  27.291  1.00  0.00    -0.166 F 
ATOM     33  F   UNL A   1      38.345  22.196  25.762  1.00  0.00    -0.166 F 
ATOM     34  F   UNL A   1      38.454  24.332  25.379  1.00  0.00    -0.166 F 
ENDBRANCH  30  31
ENDBRANCH  23  25
ENDBRANCH  19  21
ENDBRANCH   9  19
ENDBRANCH   6   8
ENDBRANCH   5   6
ENDBRANCH   4   5
ENDBRANCH   3   4
ENDBRANCH   2   3
ENDBRANCH   1   2
BRANCH   1  35
ATOM     35  C   UNL A   1      34.936  33.016  29.057  1.00  0.00     0.188 C 
BRANCH  35  36
ATOM     36  O   UNL A   1      35.169  34.409  29.009  1.00  0.00    -0.376 OA
BRANCH  36  37
ATOM     37  C   UNL A   1      34.229  35.264  28.376  1.00  0.00     0.202 C 
BRANCH  37  38
ATOM     38  C   UNL A   1      33.084  35.892  29.175  1.00  0.00     0.261 C 
BRANCH  38  39
ATOM     39  O   UNL A   1      32.607  35.071  30.250  1.00  0.00    -0.460 OA
BRANCH  39  40
ATOM     40  C   UNL A   1      32.696  35.644  31.479  1.00  0.00     0.338 C 
ATOM     41  O   UNL A   1      31.944  36.450  31.974  1.00  0.00    -0.246 OA
BRANCH  40  42
ATOM     42  C   UNL A   1      33.775  34.992  32.253  1.00  0.00     0.060 A 
ATOM     43  C   UNL A   1      35.012  35.648  32.315  1.00  0.00     0.016 A 
ATOM     44  C   UNL A   1      33.608  33.737  32.842  1.00  0.00     0.016 A 
ATOM     45  C   UNL A   1      36.106  35.024  32.908  1.00  0.00     0.010 A 
ATOM     46  C   UNL A   1      34.714  33.099  33.415  1.00  0.00     0.010 A 
ATOM     47  C   UNL A   1      35.976  33.721  33.406  1.00  0.00    -0.014 A 
BRANCH  47  48
ATOM     48  C   UNL A   1      37.201  32.924  33.664  1.00  0.00     0.031 A 
ATOM     49  C   UNL A   1      37.955  33.187  34.942  1.00  0.00     0.074 A 
ATOM     50  C   UNL A   1      37.621  31.968  32.819  1.00  0.00     0.049 A 
ATOM     51  N   UNL A   1      39.067  32.653  35.380  1.00  0.00    -0.248 NA
ATOM     52  C   UNL A   1      37.372  34.190  35.849  1.00  0.00     0.031 C 
ATOM     53  C   UNL A   1      36.962  31.584  31.574  1.00  0.00     0.029 A 
ATOM     54  N   UNL A   1      38.724  31.151  32.884  1.00  0.00    -0.354 N 
ATOM     55  C   UNL A   1      39.305  33.243  36.615  1.00  0.00     0.074 A 
ATOM     56  C   UNL A   1      38.246  34.201  36.842  1.00  0.00     0.031 C 
ATOM     57  C   UNL A   1      37.686  30.620  30.978  1.00  0.00     0.029 A 
ATOM     58  C   UNL A   1      38.871  30.337  31.789  1.00  0.00     0.049 A 
ATOM     59  H   UNL A   1      39.349  31.150  33.645  1.00  0.00     0.167 HD
ATOM     60  C   UNL A   1      40.310  33.003  37.489  1.00  0.00     0.037 A 
ATOM     61  C   UNL A   1      39.865  29.482  31.473  1.00  0.00     0.037 A 
ATOM     62  C   UNL A   1      41.384  32.077  37.258  1.00  0.00     0.049 A 
ATOM     63  C   UNL A   1      41.020  29.294  32.427  1.00  0.00     0.074 A 
ATOM     64  C   UNL A   1      42.479  31.804  38.060  1.00  0.00     0.029 A 
ATOM     65  N   UNL A   1      41.500  31.274  36.134  1.00  0.00    -0.354 N 
ATOM     66  N   UNL A   1      41.234  29.851  33.594  1.00  0.00    -0.248 NA
ATOM     67  C   UNL A   1      42.069  28.346  32.020  1.00  0.00     0.031 C 
ATOM     68  C   UNL A   1      43.274  30.857  37.406  1.00  0.00     0.029 A 
ATOM     69  C   UNL A   1      42.649  30.506  36.221  1.00  0.00     0.049 A 
ATOM     70  H   UNL A   1      40.861  31.254  35.386  1.00  0.00     0.167 HD
ATOM     71  C   UNL A   1      42.414  29.293  34.075  1.00  0.00     0.074 A 
ATOM     72  C   UNL A   1      42.865  28.347  33.079  1.00  0.00     0.031 C 
ATOM     73  C   UNL A   1      43.066  29.542  35.237  1.00  0.00     0.037 A 
BRANCH  60  74
ATOM     74  C   UNL A   1      40.298  33.772  38.775  1.00  0.00     0.064 A 
ATOM     75  C   UNL A   1      39.525  33.350  39.868  1.00  0.00     0.173 A 
ATOM     76  C   UNL A   1      41.085  34.921  38.929  1.00  0.00     0.173 A 
ATOM     77  F   UNL A   1      38.740  32.268  39.761  1.00  0.00    -0.203 F 
ATOM     78  C   UNL A   1      39.528  34.063  41.063  1.00  0.00     0.198 A 
ATOM     79  C   UNL A   1      41.106  35.618  40.135  1.00  0.00     0.198 A 
ATOM     80  F   UNL A   1      41.839  35.366  37.913  1.00  0.00    -0.203 F 
ATOM     81  F   UNL A   1      38.752  33.665  42.080  1.00  0.00    -0.200 F 
ATOM     82  C   UNL A   1      40.323  35.191  41.198  1.00  0.00     0.200 A 
ATOM     83  F   UNL A   1      41.881  36.702  40.267  1.00  0.00    -0.200 F 
ATOM     84  F   UNL A   1      40.333  35.871  42.352  1.00  0.00    -0.200 F 
ENDBRANCH  60  74
BRANCH  61  85
ATOM     85  C   UNL A   1      39.839  28.743  30.182  1.00  0.00     0.064 A 
ATOM     86  C   UNL A   1      39.291  27.456  30.094  1.00  0.00     0.173 A 
ATOM     87  C   UNL A   1      40.427  29.282  29.028  1.00  0.00     0.173 A 
ATOM     88  F   UNL A   1      38.742  26.886  31.177  1.00  0.00    -0.203 F 
ATOM     89  C   UNL A   1      39.364  26.722  28.911  1.00  0.00     0.198 A 
ATOM     90  C   UNL A   1      40.472  28.559  27.838  1.00  0.00     0.198 A 
ATOM     91  F   UNL A   1      40.968  30.509  29.060  1.00  0.00    -0.203 F 
ATOM     92  F   UNL A   1      38.893  25.468  28.874  1.00  0.00    -0.200 F 
ATOM     93  C   UNL A   1      39.953  27.275  27.784  1.00  0.00     0.200 A 
ATOM     94  F   UNL A   1      41.034  29.101  26.749  1.00  0.00    -0.200 F 
ATOM     95  F   UNL A   1      40.034  26.564  26.651  1.00  0.00    -0.200 F 
ENDBRANCH  61  85
BRANCH  73  96
ATOM     96  C   UNL A   1      44.296  28.733  35.533  1.00  0.00     0.064 A 
ATOM     97  C   UNL A   1      45.574  29.154  35.139  1.00  0.00     0.173 A 
ATOM     98  C   UNL A   1      44.194  27.537  36.261  1.00  0.00     0.173 A 
ATOM     99  F   UNL A   1      45.724  30.284  34.432  1.00  0.00    -0.203 F 
ATOM    100  C   UNL A   1      46.701  28.393  35.437  1.00  0.00     0.198 A 
ATOM    101  C   UNL A   1      45.325  26.794  36.583  1.00  0.00     0.198 A 
ATOM    102  F   UNL A   1      42.995  27.095  36.670  1.00  0.00    -0.203 F 
ATOM    103  F   UNL A   1      47.908  28.789  35.009  1.00  0.00    -0.200 F 
ATOM    104  C   UNL A   1      46.577  27.217  36.164  1.00  0.00     0.200 A 
ATOM    105  F   UNL A   1      45.205  25.667  37.298  1.00  0.00    -0.200 F 
ATOM    106  F   UNL A   1      47.664  26.490  36.455  1.00  0.00    -0.200 F 
ENDBRANCH  73  96
ENDBRANCH  47  48
ENDBRANCH  40  42
ENDBRANCH  39  40
ENDBRANCH  38  39
ENDBRANCH  37  38
ENDBRANCH  36  37
ENDBRANCH  35  36
ENDBRANCH   1  35
TORSDOF 21
ENDMDL
