MODEL 1
REMARK VINA RESULT:     -10.2      0.000      0.000
REMARK SMILES COC(=O)[C@H]1CCN(S(=O)(=O)N2CCC[C@H](C(=O)OCCOCCOCCOC(=O)c3ccc(-c4c5nc(c(-c6c(F)c(F)c(F)c(F)c6F)c6ccc([nH]6)c(-c6c(F)c(F)c(F)c(F)c6F)c6nc(c(-c7c(F)c(F)c(F)c(F)c7F)c7ccc4[nH]7)C=C6)C=C5)cc3)C2)C1
REMARK SMILES IDX 23 1 22 2 21 3 20 4 19 5 17 6 18 7 16 8 12 9 13 10 94 11
REMARK SMILES IDX 14 12 15 13 9 14 10 15 11 16 8 17 5 18 6 19 95 20 7 21 3 22
REMARK SMILES IDX 4 23 2 24 1 25 24 26 25 27 26 28 27 29 28 30 29 31 30 32
REMARK SMILES IDX 31 33 32 34 93 35 33 36 92 37 34 38 35 39 36 40 86 41 37 42
REMARK SMILES IDX 91 43 85 44 87 45 38 46 90 47 84 48 83 49 39 51 71 52 51 53
REMARK SMILES IDX 70 54 52 55 55 56 69 57 88 58 53 59 54 60 68 62 89 63 56 64
REMARK SMILES IDX 40 65 41 66 49 67 42 68 43 69 47 70 50 71 44 72 45 73 48 74
REMARK SMILES IDX 46 75 72 76 73 77 81 78 74 79 75 80 79 81 82 82 76 83 77 84
REMARK SMILES IDX 80 85 78 86 57 87 58 88 66 89 59 90 60 91 64 92 67 93 61 94
REMARK SMILES IDX 62 95 65 96 63 97
REMARK H PARENT 87 50 55 61
REMARK Flexibility Score: inf
ROOT
ATOM      1  C   UNL A   1      34.699  32.318  28.966  1.00  0.00     0.188 C 
ENDROOT
BRANCH   1   2
ATOM      2  O   UNL A   1      34.691  31.676  27.700  1.00  0.00    -0.376 OA
BRANCH   2   3
ATOM      3  C   UNL A   1      35.172  30.331  27.634  1.00  0.00     0.202 C 
BRANCH   3   4
ATOM      4  C   UNL A   1      34.138  29.194  27.569  1.00  0.00     0.261 C 
BRANCH   4   5
ATOM      5  O   UNL A   1      32.784  29.644  27.335  1.00  0.00    -0.463 OA
BRANCH   5   6
ATOM      6  C   UNL A   1      31.870  28.672  27.116  1.00  0.00     0.310 C 
ATOM      7  O   UNL A   1      31.398  27.956  27.997  1.00  0.00    -0.252 OA
BRANCH   6   8
ATOM      8  C   UNL A   1      31.345  28.590  25.694  1.00  0.00     0.114 C 
ATOM      9  N   UNL A   1      32.715  26.659  25.130  1.00  0.00    -0.188 NA
ATOM     10  C   UNL A   1      33.395  27.290  23.987  1.00  0.00     0.103 C 
ATOM     11  C   UNL A   1      31.335  27.120  25.348  1.00  0.00     0.118 C 
ATOM     12  C   UNL A   1      33.366  28.813  24.146  1.00  0.00     0.018 C 
ATOM     13  C   UNL A   1      31.990  29.345  24.529  1.00  0.00     0.018 C 
BRANCH   9  14
ATOM     14  S   UNL A   1      33.109  25.090  25.544  1.00  0.00     0.282 S 
ATOM     15  O   UNL A   1      32.179  24.621  26.537  1.00  0.00    -0.195 OA
ATOM     16  O   UNL A   1      34.536  25.039  25.783  1.00  0.00    -0.195 OA
BRANCH  14  17
ATOM     17  N   UNL A   1      32.809  24.227  24.110  1.00  0.00    -0.188 NA
ATOM     18  C   UNL A   1      34.501  22.726  23.206  1.00  0.00     0.116 C 
ATOM     19  C   UNL A   1      33.614  21.988  24.194  1.00  0.00     0.033 C 
ATOM     20  C   UNL A   1      34.029  24.181  23.227  1.00  0.00     0.118 C 
ATOM     21  C   UNL A   1      32.355  22.818  24.189  1.00  0.00     0.104 C 
BRANCH  18  22
ATOM     22  C   UNL A   1      35.982  22.668  23.488  1.00  0.00     0.310 C 
ATOM     23  O   UNL A   1      36.817  23.138  22.725  1.00  0.00    -0.252 OA
BRANCH  22  24
ATOM     24  O   UNL A   1      36.259  22.090  24.682  1.00  0.00    -0.469 OA
ATOM     25  C   UNL A   1      37.407  21.242  24.694  1.00  0.00     0.282 C 
ENDBRANCH  22  24
ENDBRANCH  18  22
ENDBRANCH  14  17
ENDBRANCH   9  14
ENDBRANCH   6   8
ENDBRANCH   5   6
ENDBRANCH   4   5
ENDBRANCH   3   4
ENDBRANCH   2   3
ENDBRANCH   1   2
BRANCH   1  26
ATOM     26  C   UNL A   1      34.769  33.845  28.952  1.00  0.00     0.188 C 
BRANCH  26  27
ATOM     27  O   UNL A   1      33.522  34.491  29.075  1.00  0.00    -0.376 OA
BRANCH  27  28
ATOM     28  C   UNL A   1      33.430  35.909  29.150  1.00  0.00     0.202 C 
BRANCH  28  29
ATOM     29  C   UNL A   1      32.453  36.615  30.119  1.00  0.00     0.261 C 
BRANCH  29  30
ATOM     30  O   UNL A   1      32.867  36.801  31.487  1.00  0.00    -0.460 OA
BRANCH  30  31
ATOM     31  C   UNL A   1      32.623  35.801  32.367  1.00  0.00     0.338 C 
ATOM     32  O   UNL A   1      31.532  35.454  32.779  1.00  0.00    -0.246 OA
BRANCH  31  33
ATOM     33  C   UNL A   1      33.877  34.998  32.516  1.00  0.00     0.060 A 
ATOM     34  C   UNL A   1      33.745  33.626  32.781  1.00  0.00     0.016 A 
ATOM     35  C   UNL A   1      35.150  35.533  32.291  1.00  0.00     0.016 A 
ATOM     36  C   UNL A   1      34.873  32.799  32.854  1.00  0.00     0.010 A 
ATOM     37  C   UNL A   1      36.282  34.707  32.385  1.00  0.00     0.010 A 
ATOM     38  C   UNL A   1      36.156  33.341  32.694  1.00  0.00    -0.014 A 
BRANCH  38  39
ATOM     39  C   UNL A   1      37.360  32.532  33.035  1.00  0.00     0.031 A 
ATOM     40  C   UNL A   1      38.073  32.823  34.330  1.00  0.00     0.074 A 
ATOM     41  C   UNL A   1      37.824  31.554  32.234  1.00  0.00     0.049 A 
ATOM     42  N   UNL A   1      39.181  32.317  34.809  1.00  0.00    -0.248 NA
ATOM     43  C   UNL A   1      37.445  33.828  35.201  1.00  0.00     0.031 C 
ATOM     44  C   UNL A   1      37.217  31.127  30.977  1.00  0.00     0.029 A 
ATOM     45  N   UNL A   1      38.935  30.751  32.359  1.00  0.00    -0.354 N 
ATOM     46  C   UNL A   1      39.390  32.952  36.027  1.00  0.00     0.074 A 
ATOM     47  C   UNL A   1      38.309  33.897  36.202  1.00  0.00     0.031 C 
ATOM     48  C   UNL A   1      37.972  30.155  30.435  1.00  0.00     0.029 A 
ATOM     49  C   UNL A   1      39.140  29.917  31.285  1.00  0.00     0.049 A 
ATOM     50  H   UNL A   1      39.528  30.771  33.145  1.00  0.00     0.167 HD
ATOM     51  C   UNL A   1      40.389  32.764  36.922  1.00  0.00     0.037 A 
ATOM     52  C   UNL A   1      40.166  29.086  31.004  1.00  0.00     0.037 A 
ATOM     53  C   UNL A   1      41.469  31.826  36.754  1.00  0.00     0.049 A 
ATOM     54  C   UNL A   1      41.315  28.957  31.976  1.00  0.00     0.074 A 
ATOM     55  C   UNL A   1      42.508  31.543  37.625  1.00  0.00     0.029 A 
ATOM     56  N   UNL A   1      41.660  31.030  35.635  1.00  0.00    -0.354 N 
ATOM     57  N   UNL A   1      41.488  29.534  33.140  1.00  0.00    -0.248 NA
ATOM     58  C   UNL A   1      42.416  28.059  31.590  1.00  0.00     0.031 C 
ATOM     59  C   UNL A   1      43.365  30.631  37.003  1.00  0.00     0.029 A 
ATOM     60  C   UNL A   1      42.822  30.289  35.775  1.00  0.00     0.049 A 
ATOM     61  H   UNL A   1      41.057  30.996  34.856  1.00  0.00     0.167 HD
ATOM     62  C   UNL A   1      42.697  29.054  33.633  1.00  0.00     0.074 A 
ATOM     63  C   UNL A   1      43.207  28.120  32.652  1.00  0.00     0.031 C 
ATOM     64  C   UNL A   1      43.328  29.360  34.795  1.00  0.00     0.037 A 
BRANCH  51  65
ATOM     65  C   UNL A   1      40.388  33.624  38.154  1.00  0.00     0.064 A 
ATOM     66  C   UNL A   1      41.198  34.764  38.265  1.00  0.00     0.173 A 
ATOM     67  C   UNL A   1      39.536  33.320  39.227  1.00  0.00     0.173 A 
ATOM     68  F   UNL A   1      42.040  35.094  37.275  1.00  0.00    -0.203 F 
ATOM     69  C   UNL A   1      41.178  35.547  39.416  1.00  0.00     0.198 A 
ATOM     70  C   UNL A   1      39.493  34.124  40.362  1.00  0.00     0.198 A 
ATOM     71  F   UNL A   1      38.736  32.243  39.171  1.00  0.00    -0.203 F 
ATOM     72  F   UNL A   1      42.001  36.601  39.522  1.00  0.00    -0.200 F 
ATOM     73  C   UNL A   1      40.321  35.232  40.460  1.00  0.00     0.200 A 
ATOM     74  F   UNL A   1      38.652  33.825  41.361  1.00  0.00    -0.200 F 
ATOM     75  F   UNL A   1      40.297  35.992  41.563  1.00  0.00    -0.200 F 
ENDBRANCH  51  65
BRANCH  52  76
ATOM     76  C   UNL A   1      40.179  28.326  29.724  1.00  0.00     0.064 A 
ATOM     77  C   UNL A   1      39.513  27.098  29.599  1.00  0.00     0.173 A 
ATOM     78  C   UNL A   1      40.888  28.796  28.607  1.00  0.00     0.173 A 
ATOM     79  F   UNL A   1      38.851  26.586  30.646  1.00  0.00    -0.203 F 
ATOM     80  C   UNL A   1      39.570  26.364  28.414  1.00  0.00     0.198 A 
ATOM     81  C   UNL A   1      40.917  28.078  27.413  1.00  0.00     0.198 A 
ATOM     82  F   UNL A   1      41.554  29.958  28.676  1.00  0.00    -0.203 F 
ATOM     83  F   UNL A   1      38.970  25.168  28.341  1.00  0.00    -0.200 F 
ATOM     84  C   UNL A   1      40.264  26.859  27.320  1.00  0.00     0.200 A 
ATOM     85  F   UNL A   1      41.582  28.564  26.357  1.00  0.00    -0.200 F 
ATOM     86  F   UNL A   1      40.314  26.153  26.181  1.00  0.00    -0.200 F 
ENDBRANCH  52  76
BRANCH  64  87
ATOM     87  C   UNL A   1      44.628  28.664  35.092  1.00  0.00     0.064 A 
ATOM     88  C   UNL A   1      45.865  29.223  34.738  1.00  0.00     0.173 A 
ATOM     89  C   UNL A   1      44.639  27.441  35.784  1.00  0.00     0.173 A 
ATOM     90  F   UNL A   1      45.914  30.383  34.065  1.00  0.00    -0.203 F 
ATOM     91  C   UNL A   1      47.060  28.575  35.042  1.00  0.00     0.198 A 
ATOM     92  C   UNL A   1      45.837  26.814  36.117  1.00  0.00     0.198 A 
ATOM     93  F   UNL A   1      43.487  26.864  36.156  1.00  0.00    -0.203 F 
ATOM     94  F   UNL A   1      48.227  29.106  34.650  1.00  0.00    -0.200 F 
ATOM     95  C   UNL A   1      47.045  27.377  35.739  1.00  0.00     0.200 A 
ATOM     96  F   UNL A   1      45.820  25.664  36.807  1.00  0.00    -0.200 F 
ATOM     97  F   UNL A   1      48.197  26.760  36.041  1.00  0.00    -0.200 F 
ENDBRANCH  64  87
ENDBRANCH  38  39
ENDBRANCH  31  33
ENDBRANCH  30  31
ENDBRANCH  29  30
ENDBRANCH  28  29
ENDBRANCH  27  28
ENDBRANCH  26  27
ENDBRANCH   1  26
TORSDOF 21
ENDMDL
MODEL 2
REMARK VINA RESULT:     -10.2      6.276     12.239
REMARK SMILES COC(=O)[C@H]1CCN(S(=O)(=O)N2CCC[C@H](C(=O)OCCOCCOCCOC(=O)c3ccc(-c4c5nc(c(-c6c(F)c(F)c(F)c(F)c6F)c6ccc([nH]6)c(-c6c(F)c(F)c(F)c(F)c6F)c6nc(c(-c7c(F)c(F)c(F)c(F)c7F)c7ccc4[nH]7)C=C6)C=C5)cc3)C2)C1
REMARK SMILES IDX 23 1 22 2 21 3 20 4 19 5 17 6 18 7 16 8 12 9 13 10 94 11
REMARK SMILES IDX 14 12 15 13 9 14 10 15 11 16 8 17 5 18 6 19 95 20 7 21 3 22
REMARK SMILES IDX 4 23 2 24 1 25 24 26 25 27 26 28 27 29 28 30 29 31 30 32
REMARK SMILES IDX 31 33 32 34 93 35 33 36 92 37 34 38 35 39 36 40 86 41 37 42
REMARK SMILES IDX 91 43 85 44 87 45 38 46 90 47 84 48 83 49 39 51 71 52 51 53
REMARK SMILES IDX 70 54 52 55 55 56 69 57 88 58 53 59 54 60 68 62 89 63 56 64
REMARK SMILES IDX 40 65 41 66 49 67 42 68 43 69 47 70 50 71 44 72 45 73 48 74
REMARK SMILES IDX 46 75 72 76 73 77 81 78 74 79 75 80 79 81 82 82 76 83 77 84
REMARK SMILES IDX 80 85 78 86 57 87 58 88 66 89 59 90 60 91 64 92 67 93 61 94
REMARK SMILES IDX 62 95 65 96 63 97
REMARK H PARENT 87 50 55 61
REMARK Flexibility Score: inf
ROOT
ATOM      1  C   UNL A   1      40.160  21.734  26.561  1.00  0.00     0.188 C 
ENDROOT
BRANCH   1   2
ATOM      2  O   UNL A   1      39.891  23.119  26.408  1.00  0.00    -0.376 OA
BRANCH   2   3
ATOM      3  C   UNL A   1      38.522  23.535  26.426  1.00  0.00     0.202 C 
BRANCH   3   4
ATOM      4  C   UNL A   1      37.473  22.599  25.801  1.00  0.00     0.261 C 
BRANCH   4   5
ATOM      5  O   UNL A   1      36.106  22.973  26.088  1.00  0.00    -0.463 OA
BRANCH   5   6
ATOM      6  C   UNL A   1      35.222  21.954  26.168  1.00  0.00     0.310 C 
ATOM      7  O   UNL A   1      34.483  21.754  27.131  1.00  0.00    -0.252 OA
BRANCH   6   8
ATOM      8  C   UNL A   1      35.093  21.112  24.912  1.00  0.00     0.114 C 
ATOM      9  N   UNL A   1      33.434  22.582  23.906  1.00  0.00    -0.188 NA
ATOM     10  C   UNL A   1      32.402  21.545  23.738  1.00  0.00     0.103 C 
ATOM     11  C   UNL A   1      34.815  22.090  23.794  1.00  0.00     0.118 C 
ATOM     12  C   UNL A   1      32.642  20.411  24.739  1.00  0.00     0.018 C 
ATOM     13  C   UNL A   1      34.097  19.957  24.787  1.00  0.00     0.018 C 
BRANCH   9  14
ATOM     14  S   UNL A   1      33.100  24.145  23.425  1.00  0.00     0.282 S 
ATOM     15  O   UNL A   1      31.699  24.248  23.113  1.00  0.00    -0.195 OA
ATOM     16  O   UNL A   1      34.104  24.537  22.458  1.00  0.00    -0.195 OA
BRANCH  14  17
ATOM     17  N   UNL A   1      33.381  25.051  24.835  1.00  0.00    -0.188 NA
ATOM     18  C   UNL A   1      31.826  26.805  25.497  1.00  0.00     0.116 C 
ATOM     19  C   UNL A   1      31.393  25.469  26.077  1.00  0.00     0.033 C 
ATOM     20  C   UNL A   1      33.053  26.507  24.632  1.00  0.00     0.118 C 
ATOM     21  C   UNL A   1      32.681  24.684  26.090  1.00  0.00     0.104 C 
BRANCH  18  22
ATOM     22  C   UNL A   1      30.787  27.527  24.675  1.00  0.00     0.310 C 
ATOM     23  O   UNL A   1      29.848  26.947  24.144  1.00  0.00    -0.252 OA
BRANCH  22  24
ATOM     24  O   UNL A   1      30.993  28.866  24.640  1.00  0.00    -0.469 OA
ATOM     25  C   UNL A   1      30.193  29.579  23.698  1.00  0.00     0.282 C 
ENDBRANCH  22  24
ENDBRANCH  18  22
ENDBRANCH  14  17
ENDBRANCH   9  14
ENDBRANCH   6   8
ENDBRANCH   5   6
ENDBRANCH   4   5
ENDBRANCH   3   4
ENDBRANCH   2   3
ENDBRANCH   1   2
BRANCH   1  26
ATOM     26  C   UNL A   1      41.612  21.299  26.357  1.00  0.00     0.188 C 
BRANCH  26  27
ATOM     27  O   UNL A   1      41.766  20.066  25.691  1.00  0.00    -0.376 OA
BRANCH  27  28
ATOM     28  C   UNL A   1      42.572  19.028  26.239  1.00  0.00     0.202 C 
BRANCH  28  29
ATOM     29  C   UNL A   1      43.471  18.136  25.352  1.00  0.00     0.261 C 
BRANCH  29  30
ATOM     30  O   UNL A   1      44.845  18.530  25.162  1.00  0.00    -0.460 OA
BRANCH  30  31
ATOM     31  C   UNL A   1      45.129  19.374  24.141  1.00  0.00     0.338 C 
ATOM     32  O   UNL A   1      45.160  19.089  22.958  1.00  0.00    -0.246 OA
BRANCH  31  33
ATOM     33  C   UNL A   1      45.100  20.772  24.672  1.00  0.00     0.060 A 
ATOM     34  C   UNL A   1      44.623  21.783  23.824  1.00  0.00     0.016 A 
ATOM     35  C   UNL A   1      45.417  21.084  25.999  1.00  0.00     0.016 A 
ATOM     36  C   UNL A   1      44.494  23.101  24.281  1.00  0.00     0.010 A 
ATOM     37  C   UNL A   1      45.307  22.409  26.451  1.00  0.00     0.010 A 
ATOM     38  C   UNL A   1      44.872  23.433  25.589  1.00  0.00    -0.014 A 
BRANCH  38  39
ATOM     39  C   UNL A   1      44.993  24.861  25.997  1.00  0.00     0.031 A 
ATOM     40  C   UNL A   1      46.345  25.519  25.899  1.00  0.00     0.074 A 
ATOM     41  C   UNL A   1      43.943  25.579  26.437  1.00  0.00     0.049 A 
ATOM     42  N   UNL A   1      46.723  26.717  26.266  1.00  0.00    -0.248 NA
ATOM     43  C   UNL A   1      47.418  24.706  25.307  1.00  0.00     0.031 C 
ATOM     44  C   UNL A   1      42.569  25.096  26.541  1.00  0.00     0.029 A 
ATOM     45  N   UNL A   1      43.878  26.874  26.898  1.00  0.00    -0.354 N 
ATOM     46  C   UNL A   1      48.076  26.795  25.964  1.00  0.00     0.074 A 
ATOM     47  C   UNL A   1      48.460  25.516  25.408  1.00  0.00     0.031 C 
ATOM     48  C   UNL A   1      41.800  26.073  27.054  1.00  0.00     0.029 A 
ATOM     49  C   UNL A   1      42.633  27.239  27.353  1.00  0.00     0.049 A 
ATOM     50  H   UNL A   1      44.652  27.484  26.902  1.00  0.00     0.167 HD
ATOM     51  C   UNL A   1      48.926  27.838  26.132  1.00  0.00     0.037 A 
ATOM     52  C   UNL A   1      42.221  28.367  27.970  1.00  0.00     0.037 A 
ATOM     53  C   UNL A   1      48.551  29.113  26.686  1.00  0.00     0.049 A 
ATOM     54  C   UNL A   1      43.205  29.484  28.227  1.00  0.00     0.074 A 
ATOM     55  C   UNL A   1      49.337  30.239  26.862  1.00  0.00     0.029 A 
ATOM     56  N   UNL A   1      47.290  29.427  27.170  1.00  0.00    -0.354 N 
ATOM     57  N   UNL A   1      44.474  29.563  27.908  1.00  0.00    -0.248 NA
ATOM     58  C   UNL A   1      42.696  30.671  28.934  1.00  0.00     0.031 C 
ATOM     59  C   UNL A   1      48.572  31.209  27.517  1.00  0.00     0.029 A 
ATOM     60  C   UNL A   1      47.288  30.715  27.683  1.00  0.00     0.049 A 
ATOM     61  H   UNL A   1      46.512  28.824  27.151  1.00  0.00     0.167 HD
ATOM     62  C   UNL A   1      44.906  30.810  28.351  1.00  0.00     0.074 A 
ATOM     63  C   UNL A   1      43.759  31.463  28.943  1.00  0.00     0.031 C 
ATOM     64  C   UNL A   1      46.144  31.361  28.274  1.00  0.00     0.037 A 
BRANCH  51  65
ATOM     65  C   UNL A   1      50.363  27.630  25.748  1.00  0.00     0.064 A 
ATOM     66  C   UNL A   1      50.803  27.756  24.421  1.00  0.00     0.173 A 
ATOM     67  C   UNL A   1      51.321  27.334  26.730  1.00  0.00     0.173 A 
ATOM     68  F   UNL A   1      49.928  28.025  23.441  1.00  0.00    -0.203 F 
ATOM     69  C   UNL A   1      52.142  27.561  24.090  1.00  0.00     0.198 A 
ATOM     70  C   UNL A   1      52.663  27.174  26.400  1.00  0.00     0.198 A 
ATOM     71  F   UNL A   1      50.955  27.208  28.015  1.00  0.00    -0.203 F 
ATOM     72  F   UNL A   1      52.529  27.632  22.808  1.00  0.00    -0.200 F 
ATOM     73  C   UNL A   1      53.072  27.278  25.079  1.00  0.00     0.200 A 
ATOM     74  F   UNL A   1      53.561  26.917  27.361  1.00  0.00    -0.200 F 
ATOM     75  F   UNL A   1      54.360  27.100  24.759  1.00  0.00    -0.200 F 
ENDBRANCH  51  65
BRANCH  52  76
ATOM     76  C   UNL A   1      40.810  28.493  28.427  1.00  0.00     0.064 A 
ATOM     77  C   UNL A   1      39.819  29.027  27.590  1.00  0.00     0.173 A 
ATOM     78  C   UNL A   1      40.429  28.114  29.724  1.00  0.00     0.173 A 
ATOM     79  F   UNL A   1      40.137  29.439  26.354  1.00  0.00    -0.203 F 
ATOM     80  C   UNL A   1      38.508  29.191  28.038  1.00  0.00     0.198 A 
ATOM     81  C   UNL A   1      39.112  28.248  30.159  1.00  0.00     0.198 A 
ATOM     82  F   UNL A   1      41.339  27.611  30.570  1.00  0.00    -0.203 F 
ATOM     83  F   UNL A   1      37.595  29.755  27.236  1.00  0.00    -0.200 F 
ATOM     84  C   UNL A   1      38.154  28.794  29.318  1.00  0.00     0.200 A 
ATOM     85  F   UNL A   1      38.774  27.856  31.394  1.00  0.00    -0.200 F 
ATOM     86  F   UNL A   1      36.893  28.949  29.746  1.00  0.00    -0.200 F 
ENDBRANCH  52  76
BRANCH  64  87
ATOM     87  C   UNL A   1      46.326  32.753  28.817  1.00  0.00     0.064 A 
ATOM     88  C   UNL A   1      46.718  32.984  30.144  1.00  0.00     0.173 A 
ATOM     89  C   UNL A   1      46.153  33.871  27.984  1.00  0.00     0.173 A 
ATOM     90  F   UNL A   1      46.885  31.954  30.988  1.00  0.00    -0.203 F 
ATOM     91  C   UNL A   1      46.905  34.278  30.624  1.00  0.00     0.198 A 
ATOM     92  C   UNL A   1      46.375  35.162  28.457  1.00  0.00     0.198 A 
ATOM     93  F   UNL A   1      45.788  33.710  26.703  1.00  0.00    -0.203 F 
ATOM     94  F   UNL A   1      47.232  34.475  31.909  1.00  0.00    -0.200 F 
ATOM     95  C   UNL A   1      46.742  35.365  29.777  1.00  0.00     0.200 A 
ATOM     96  F   UNL A   1      46.235  36.209  27.632  1.00  0.00    -0.200 F 
ATOM     97  F   UNL A   1      46.934  36.610  30.238  1.00  0.00    -0.200 F 
ENDBRANCH  64  87
ENDBRANCH  38  39
ENDBRANCH  31  33
ENDBRANCH  30  31
ENDBRANCH  29  30
ENDBRANCH  28  29
ENDBRANCH  27  28
ENDBRANCH  26  27
ENDBRANCH   1  26
TORSDOF 21
ENDMDL
MODEL 3
REMARK VINA RESULT:     -10.2      5.891     10.796
REMARK SMILES COC(=O)[C@H]1CCN(S(=O)(=O)N2CCC[C@H](C(=O)OCCOCCOCCOC(=O)c3ccc(-c4c5nc(c(-c6c(F)c(F)c(F)c(F)c6F)c6ccc([nH]6)c(-c6c(F)c(F)c(F)c(F)c6F)c6nc(c(-c7c(F)c(F)c(F)c(F)c7F)c7ccc4[nH]7)C=C6)C=C5)cc3)C2)C1
REMARK SMILES IDX 23 1 22 2 21 3 20 4 19 5 17 6 18 7 16 8 12 9 13 10 94 11
REMARK SMILES IDX 14 12 15 13 9 14 10 15 11 16 8 17 5 18 6 19 95 20 7 21 3 22
REMARK SMILES IDX 4 23 2 24 1 25 24 26 25 27 26 28 27 29 28 30 29 31 30 32
REMARK SMILES IDX 31 33 32 34 93 35 33 36 92 37 34 38 35 39 36 40 86 41 37 42
REMARK SMILES IDX 91 43 85 44 87 45 38 46 90 47 84 48 83 49 39 51 71 52 51 53
REMARK SMILES IDX 70 54 52 55 55 56 69 57 88 58 53 59 54 60 68 62 89 63 56 64
REMARK SMILES IDX 40 65 41 66 49 67 42 68 43 69 47 70 50 71 44 72 45 73 48 74
REMARK SMILES IDX 46 75 72 76 73 77 81 78 74 79 75 80 79 81 82 82 76 83 77 84
REMARK SMILES IDX 80 85 78 86 57 87 58 88 66 89 59 90 60 91 64 92 67 93 61 94
REMARK SMILES IDX 62 95 65 96 63 97
REMARK H PARENT 87 50 55 61
REMARK Flexibility Score: inf
ROOT
ATOM      1  C   UNL A   1      35.753  18.752  24.613  1.00  0.00     0.188 C 
ENDROOT
BRANCH   1   2
ATOM      2  O   UNL A   1      34.397  18.396  24.836  1.00  0.00    -0.376 OA
BRANCH   2   3
ATOM      3  C   UNL A   1      33.388  19.234  24.263  1.00  0.00     0.202 C 
BRANCH   3   4
ATOM      4  C   UNL A   1      32.566  20.126  25.209  1.00  0.00     0.261 C 
BRANCH   4   5
ATOM      5  O   UNL A   1      32.364  21.472  24.720  1.00  0.00    -0.463 OA
BRANCH   5   6
ATOM      6  C   UNL A   1      31.807  22.339  25.595  1.00  0.00     0.310 C 
ATOM      7  O   UNL A   1      30.601  22.573  25.662  1.00  0.00    -0.252 OA
BRANCH   6   8
ATOM      8  C   UNL A   1      32.764  22.933  26.612  1.00  0.00     0.114 C 
ATOM      9  N   UNL A   1      32.354  25.223  25.896  1.00  0.00    -0.188 NA
ATOM     10  C   UNL A   1      33.760  25.534  25.587  1.00  0.00     0.103 C 
ATOM     11  C   UNL A   1      32.171  24.267  26.999  1.00  0.00     0.118 C 
ATOM     12  C   UNL A   1      34.522  24.239  25.296  1.00  0.00     0.018 C 
ATOM     13  C   UNL A   1      34.252  23.144  26.322  1.00  0.00     0.018 C 
BRANCH   9  14
ATOM     14  S   UNL A   1      31.190  26.394  25.652  1.00  0.00     0.282 S 
ATOM     15  O   UNL A   1      30.889  27.025  26.910  1.00  0.00    -0.195 OA
ATOM     16  O   UNL A   1      30.138  25.814  24.844  1.00  0.00    -0.195 OA
BRANCH  14  17
ATOM     17  N   UNL A   1      31.993  27.537  24.682  1.00  0.00    -0.188 NA
ATOM     18  C   UNL A   1      30.727  28.967  23.170  1.00  0.00     0.116 C 
ATOM     19  C   UNL A   1      30.830  29.610  24.543  1.00  0.00     0.033 C 
ATOM     20  C   UNL A   1      31.403  27.600  23.298  1.00  0.00     0.118 C 
ATOM     21  C   UNL A   1      32.057  28.951  25.123  1.00  0.00     0.104 C 
BRANCH  18  22
ATOM     22  C   UNL A   1      29.328  28.796  22.632  1.00  0.00     0.310 C 
ATOM     23  O   UNL A   1      28.492  28.092  23.186  1.00  0.00    -0.252 OA
BRANCH  22  24
ATOM     24  O   UNL A   1      29.106  29.536  21.520  1.00  0.00    -0.469 OA
ATOM     25  C   UNL A   1      29.126  30.950  21.717  1.00  0.00     0.282 C 
ENDBRANCH  22  24
ENDBRANCH  18  22
ENDBRANCH  14  17
ENDBRANCH   9  14
ENDBRANCH   6   8
ENDBRANCH   5   6
ENDBRANCH   4   5
ENDBRANCH   3   4
ENDBRANCH   2   3
ENDBRANCH   1   2
BRANCH   1  26
ATOM     26  C   UNL A   1      36.146  20.184  24.979  1.00  0.00     0.188 C 
BRANCH  26  27
ATOM     27  O   UNL A   1      37.483  20.519  24.678  1.00  0.00    -0.376 OA
BRANCH  27  28
ATOM     28  C   UNL A   1      38.194  21.478  25.453  1.00  0.00     0.202 C 
BRANCH  28  29
ATOM     29  C   UNL A   1      39.573  21.164  26.077  1.00  0.00     0.261 C 
BRANCH  29  30
ATOM     30  O   UNL A   1      40.049  19.804  26.028  1.00  0.00    -0.460 OA
BRANCH  30  31
ATOM     31  C   UNL A   1      41.383  19.593  26.129  1.00  0.00     0.338 C 
ATOM     32  O   UNL A   1      41.986  18.602  25.758  1.00  0.00    -0.246 OA
BRANCH  31  33
ATOM     33  C   UNL A   1      42.033  20.891  26.488  1.00  0.00     0.060 A 
ATOM     34  C   UNL A   1      42.103  21.232  27.848  1.00  0.00     0.016 A 
ATOM     35  C   UNL A   1      42.665  21.708  25.545  1.00  0.00     0.016 A 
ATOM     36  C   UNL A   1      42.767  22.393  28.263  1.00  0.00     0.010 A 
ATOM     37  C   UNL A   1      43.313  22.883  25.959  1.00  0.00     0.010 A 
ATOM     38  C   UNL A   1      43.346  23.249  27.317  1.00  0.00    -0.014 A 
BRANCH  38  39
ATOM     39  C   UNL A   1      43.812  24.607  27.719  1.00  0.00     0.031 A 
ATOM     40  C   UNL A   1      42.777  25.645  28.062  1.00  0.00     0.074 A 
ATOM     41  C   UNL A   1      45.117  24.930  27.791  1.00  0.00     0.049 A 
ATOM     42  N   UNL A   1      42.926  26.911  28.361  1.00  0.00    -0.248 NA
ATOM     43  C   UNL A   1      41.379  25.187  28.067  1.00  0.00     0.031 C 
ATOM     44  C   UNL A   1      46.232  24.022  27.536  1.00  0.00     0.029 A 
ATOM     45  N   UNL A   1      45.724  26.129  28.089  1.00  0.00    -0.354 N 
ATOM     46  C   UNL A   1      41.643  27.402  28.571  1.00  0.00     0.074 A 
ATOM     47  C   UNL A   1      40.728  26.306  28.343  1.00  0.00     0.031 C 
ATOM     48  C   UNL A   1      47.386  24.700  27.666  1.00  0.00     0.029 A 
ATOM     49  C   UNL A   1      47.093  26.101  27.976  1.00  0.00     0.049 A 
ATOM     50  H   UNL A   1      45.223  26.933  28.359  1.00  0.00     0.167 HD
ATOM     51  C   UNL A   1      41.260  28.653  28.926  1.00  0.00     0.037 A 
ATOM     52  C   UNL A   1      48.002  27.094  28.075  1.00  0.00     0.037 A 
ATOM     53  C   UNL A   1      42.166  29.749  29.155  1.00  0.00     0.049 A 
ATOM     54  C   UNL A   1      47.546  28.501  28.385  1.00  0.00     0.074 A 
ATOM     55  C   UNL A   1      41.871  31.042  29.550  1.00  0.00     0.029 A 
ATOM     56  N   UNL A   1      43.542  29.687  28.990  1.00  0.00    -0.354 N 
ATOM     57  N   UNL A   1      46.336  28.949  28.616  1.00  0.00    -0.248 NA
ATOM     58  C   UNL A   1      48.586  29.540  28.445  1.00  0.00     0.031 C 
ATOM     59  C   UNL A   1      43.057  31.780  29.556  1.00  0.00     0.029 A 
ATOM     60  C   UNL A   1      44.103  30.930  29.235  1.00  0.00     0.049 A 
ATOM     61  H   UNL A   1      44.045  28.879  28.738  1.00  0.00     0.167 HD
ATOM     62  C   UNL A   1      46.472  30.311  28.872  1.00  0.00     0.074 A 
ATOM     63  C   UNL A   1      47.885  30.612  28.788  1.00  0.00     0.031 C 
ATOM     64  C   UNL A   1      45.511  31.227  29.150  1.00  0.00     0.037 A 
BRANCH  51  65
ATOM     65  C   UNL A   1      39.787  28.918  29.051  1.00  0.00     0.064 A 
ATOM     66  C   UNL A   1      39.007  29.309  27.952  1.00  0.00     0.173 A 
ATOM     67  C   UNL A   1      39.140  28.745  30.284  1.00  0.00     0.173 A 
ATOM     68  F   UNL A   1      39.577  29.502  26.753  1.00  0.00    -0.203 F 
ATOM     69  C   UNL A   1      37.642  29.547  28.091  1.00  0.00     0.198 A 
ATOM     70  C   UNL A   1      37.769  28.950  30.411  1.00  0.00     0.198 A 
ATOM     71  F   UNL A   1      39.837  28.366  31.367  1.00  0.00    -0.203 F 
ATOM     72  F   UNL A   1      36.928  29.973  27.039  1.00  0.00    -0.200 F 
ATOM     73  C   UNL A   1      37.023  29.360  29.318  1.00  0.00     0.200 A 
ATOM     74  F   UNL A   1      37.172  28.753  31.595  1.00  0.00    -0.200 F 
ATOM     75  F   UNL A   1      35.708  29.582  29.447  1.00  0.00    -0.200 F 
ENDBRANCH  51  65
BRANCH  52  76
ATOM     76  C   UNL A   1      49.445  26.809  27.844  1.00  0.00     0.064 A 
ATOM     77  C   UNL A   1      50.307  26.508  28.909  1.00  0.00     0.173 A 
ATOM     78  C   UNL A   1      50.001  26.867  26.557  1.00  0.00     0.173 A 
ATOM     79  F   UNL A   1      49.835  26.476  30.164  1.00  0.00    -0.203 F 
ATOM     80  C   UNL A   1      51.668  26.292  28.696  1.00  0.00     0.198 A 
ATOM     81  C   UNL A   1      51.355  26.619  26.341  1.00  0.00     0.198 A 
ATOM     82  F   UNL A   1      49.225  27.165  25.504  1.00  0.00    -0.203 F 
ATOM     83  F   UNL A   1      52.477  26.060  29.739  1.00  0.00    -0.200 F 
ATOM     84  C   UNL A   1      52.189  26.338  27.412  1.00  0.00     0.200 A 
ATOM     85  F   UNL A   1      51.852  26.658  25.098  1.00  0.00    -0.200 F 
ATOM     86  F   UNL A   1      53.497  26.127  27.209  1.00  0.00    -0.200 F 
ENDBRANCH  52  76
BRANCH  64  87
ATOM     87  C   UNL A   1      45.948  32.643  29.413  1.00  0.00     0.064 A 
ATOM     88  C   UNL A   1      46.317  33.077  30.695  1.00  0.00     0.173 A 
ATOM     89  C   UNL A   1      46.046  33.566  28.359  1.00  0.00     0.173 A 
ATOM     90  F   UNL A   1      46.232  32.241  31.741  1.00  0.00    -0.203 F 
ATOM     91  C   UNL A   1      46.742  34.385  30.916  1.00  0.00     0.198 A 
ATOM     92  C   UNL A   1      46.504  34.863  28.577  1.00  0.00     0.198 A 
ATOM     93  F   UNL A   1      45.715  33.204  27.110  1.00  0.00    -0.203 F 
ATOM     94  F   UNL A   1      47.043  34.790  32.158  1.00  0.00    -0.200 F 
ATOM     95  C   UNL A   1      46.844  35.273  29.856  1.00  0.00     0.200 A 
ATOM     96  F   UNL A   1      46.620  35.714  27.548  1.00  0.00    -0.200 F 
ATOM     97  F   UNL A   1      47.264  36.529  30.069  1.00  0.00    -0.200 F 
ENDBRANCH  64  87
ENDBRANCH  38  39
ENDBRANCH  31  33
ENDBRANCH  30  31
ENDBRANCH  29  30
ENDBRANCH  28  29
ENDBRANCH  27  28
ENDBRANCH  26  27
ENDBRANCH   1  26
TORSDOF 21
ENDMDL
