MODEL 1
REMARK VINA RESULT:     -11.5      0.000      0.000
REMARK SMILES C[C@@H]1C[N@@H+](Cc2cccc(C(=O)OCCOCCOCCOC(=O)c3ccc(-c4c5nc(c(-c6c(F)c(F)c(F)c(F)c6F)c6ccc([nH]6)c(-c6c(F)c(F)c(F)c(F)c6F)c6nc(c(-c7c(F)c(F)c(F)c(F)c7F)c7ccc4[nH]7)C=C6)C=C5)cc3)c2)CCN1C(=O)OC(C)(C)C
REMARK SMILES IDX 16 1 15 2 14 3 13 4 11 5 12 6 10 7 6 8 7 9 88 10 8 11 9 12
REMARK SMILES IDX 5 13 4 14 1 15 2 16 3 17 91 18 90 19 89 20 92 22 93 23 94 24
REMARK SMILES IDX 95 25 96 26 97 27 98 28 17 29 18 30 19 31 20 32 21 33 22 34
REMARK SMILES IDX 23 35 24 36 25 37 26 38 87 39 27 40 86 41 28 42 29 43 30 44
REMARK SMILES IDX 80 45 31 46 85 47 79 48 81 49 32 50 84 51 78 52 77 53 33 55
REMARK SMILES IDX 65 56 45 57 64 58 46 59 49 60 63 61 82 62 47 63 48 64 62 66
REMARK SMILES IDX 83 67 50 68 34 69 35 70 43 71 36 72 37 73 41 74 44 75 38 76
REMARK SMILES IDX 39 77 42 78 40 79 66 80 67 81 75 82 68 83 69 84 73 85 76 86
REMARK SMILES IDX 70 87 71 88 74 89 72 90 51 91 52 92 60 93 53 94 54 95 58 96
REMARK SMILES IDX 61 97 55 98 56 99 59 100 57 101
REMARK H PARENT 4 21 81 54 49 65
REMARK Flexibility Score: inf
ROOT
ATOM      1  O   UNL A   1      40.428  21.102  27.330  1.00  0.00    -0.376 OA
ENDROOT
BRANCH   1   2
ATOM      2  C   UNL A   1      39.804  21.520  26.125  1.00  0.00     0.202 C 
BRANCH   2   3
ATOM      3  C   UNL A   1      38.414  22.170  26.099  1.00  0.00     0.261 C 
BRANCH   3   4
ATOM      4  O   UNL A   1      37.652  21.907  24.919  1.00  0.00    -0.460 OA
BRANCH   4   5
ATOM      5  C   UNL A   1      36.774  20.871  24.993  1.00  0.00     0.338 C 
ATOM      6  O   UNL A   1      37.037  19.688  24.998  1.00  0.00    -0.246 OA
BRANCH   5   7
ATOM      7  C   UNL A   1      35.406  21.406  25.220  1.00  0.00     0.060 A 
ATOM      8  C   UNL A   1      33.261  22.106  24.318  1.00  0.00     0.007 A 
ATOM      9  C   UNL A   1      32.773  22.234  25.625  1.00  0.00     0.009 A 
ATOM     10  C   UNL A   1      34.616  21.813  24.148  1.00  0.00     0.025 A 
ATOM     11  C   UNL A   1      33.603  21.969  26.719  1.00  0.00     0.001 A 
ATOM     12  C   UNL A   1      34.904  21.504  26.517  1.00  0.00     0.016 A 
BRANCH   8  13
ATOM     13  C   UNL A   1      32.341  22.158  23.112  1.00  0.00     0.299 C 
BRANCH  13  14
ATOM     14  N   UNL A   1      32.093  23.508  22.552  1.00  0.00    -0.328 N 
ATOM     15  C   UNL A   1      32.374  25.532  20.153  1.00  0.00     0.037 C 
ATOM     16  C   UNL A   1      33.084  25.610  21.508  1.00  0.00     0.140 C 
ATOM     17  C   UNL A   1      33.331  24.187  22.092  1.00  0.00     0.287 C 
ATOM     18  N   UNL A   1      32.304  26.391  22.484  1.00  0.00    -0.294 N 
ATOM     19  C   UNL A   1      31.031  25.782  22.859  1.00  0.00     0.185 C 
ATOM     20  C   UNL A   1      31.291  24.384  23.437  1.00  0.00     0.284 C 
ATOM     21  H   UNL A   1      31.521  23.338  21.724  1.00  0.00     0.348 HD
BRANCH  18  22
ATOM     22  C   UNL A   1      32.839  27.376  23.298  1.00  0.00     0.410 C 
ATOM     23  O   UNL A   1      33.770  28.095  22.951  1.00  0.00    -0.224 OA
BRANCH  22  24
ATOM     24  O   UNL A   1      32.240  27.449  24.518  1.00  0.00    -0.444 OA
BRANCH  24  25
ATOM     25  C   UNL A   1      33.007  27.196  25.729  1.00  0.00     0.106 C 
ATOM     26  C   UNL A   1      33.677  25.815  25.694  1.00  0.00     0.056 C 
ATOM     27  C   UNL A   1      34.022  28.314  26.001  1.00  0.00     0.056 C 
ATOM     28  C   UNL A   1      31.975  27.194  26.869  1.00  0.00     0.056 C 
ENDBRANCH  24  25
ENDBRANCH  22  24
ENDBRANCH  18  22
ENDBRANCH  13  14
ENDBRANCH   8  13
ENDBRANCH   5   7
ENDBRANCH   4   5
ENDBRANCH   3   4
ENDBRANCH   2   3
ENDBRANCH   1   2
BRANCH   1  29
ATOM     29  C   UNL A   1      41.500  20.179  27.313  1.00  0.00     0.188 C 
BRANCH  29  30
ATOM     30  C   UNL A   1      41.659  19.168  26.160  1.00  0.00     0.188 C 
BRANCH  30  31
ATOM     31  O   UNL A   1      42.600  19.444  25.155  1.00  0.00    -0.376 OA
BRANCH  31  32
ATOM     32  C   UNL A   1      43.795  20.134  25.474  1.00  0.00     0.202 C 
BRANCH  32  33
ATOM     33  C   UNL A   1      44.161  21.568  25.031  1.00  0.00     0.261 C 
BRANCH  33  34
ATOM     34  O   UNL A   1      43.364  22.660  25.503  1.00  0.00    -0.460 OA
BRANCH  34  35
ATOM     35  C   UNL A   1      43.845  23.901  25.238  1.00  0.00     0.338 C 
ATOM     36  O   UNL A   1      44.567  24.235  24.316  1.00  0.00    -0.246 OA
BRANCH  35  37
ATOM     37  C   UNL A   1      43.196  24.871  26.145  1.00  0.00     0.060 A 
ATOM     38  C   UNL A   1      43.680  26.186  26.192  1.00  0.00     0.016 A 
ATOM     39  C   UNL A   1      42.140  24.478  26.967  1.00  0.00     0.016 A 
ATOM     40  C   UNL A   1      43.123  27.109  27.079  1.00  0.00     0.010 A 
ATOM     41  C   UNL A   1      41.600  25.396  27.873  1.00  0.00     0.010 A 
ATOM     42  C   UNL A   1      42.105  26.707  27.954  1.00  0.00    -0.014 A 
BRANCH  42  43
ATOM     43  C   UNL A   1      41.691  27.595  29.070  1.00  0.00     0.031 A 
ATOM     44  C   UNL A   1      42.432  27.496  30.378  1.00  0.00     0.074 A 
ATOM     45  C   UNL A   1      40.680  28.472  28.933  1.00  0.00     0.049 A 
ATOM     46  N   UNL A   1      42.197  28.098  31.516  1.00  0.00    -0.248 NA
ATOM     47  C   UNL A   1      43.593  26.591  30.404  1.00  0.00     0.031 C 
ATOM     48  C   UNL A   1      39.913  28.696  27.712  1.00  0.00     0.029 A 
ATOM     49  N   UNL A   1      40.115  29.329  29.849  1.00  0.00    -0.354 N 
ATOM     50  C   UNL A   1      43.167  27.632  32.395  1.00  0.00     0.074 A 
ATOM     51  C   UNL A   1      43.983  26.685  31.667  1.00  0.00     0.031 C 
ATOM     52  C   UNL A   1      38.959  29.612  27.958  1.00  0.00     0.029 A 
ATOM     53  C   UNL A   1      39.026  30.012  29.363  1.00  0.00     0.049 A 
ATOM     54  H   UNL A   1      40.459  29.443  30.764  1.00  0.00     0.167 HD
ATOM     55  C   UNL A   1      43.361  27.968  33.691  1.00  0.00     0.037 A 
ATOM     56  C   UNL A   1      38.165  30.836  29.994  1.00  0.00     0.037 A 
ATOM     57  C   UNL A   1      42.556  28.919  34.413  1.00  0.00     0.049 A 
ATOM     58  C   UNL A   1      38.365  31.138  31.460  1.00  0.00     0.074 A 
ATOM     59  C   UNL A   1      42.698  29.349  35.721  1.00  0.00     0.029 A 
ATOM     60  N   UNL A   1      41.455  29.578  33.893  1.00  0.00    -0.354 N 
ATOM     61  N   UNL A   1      39.308  30.726  32.273  1.00  0.00    -0.248 NA
ATOM     62  C   UNL A   1      37.381  32.027  32.096  1.00  0.00     0.031 C 
ATOM     63  C   UNL A   1      41.645  30.220  36.011  1.00  0.00     0.029 A 
ATOM     64  C   UNL A   1      40.889  30.388  34.864  1.00  0.00     0.049 A 
ATOM     65  H   UNL A   1      41.123  29.484  32.970  1.00  0.00     0.167 HD
ATOM     66  C   UNL A   1      39.053  31.333  33.497  1.00  0.00     0.074 A 
ATOM     67  C   UNL A   1      37.875  32.154  33.319  1.00  0.00     0.031 C 
ATOM     68  C   UNL A   1      39.731  31.221  34.666  1.00  0.00     0.037 A 
BRANCH  55  69
ATOM     69  C   UNL A   1      44.473  27.288  34.437  1.00  0.00     0.064 A 
ATOM     70  C   UNL A   1      44.286  26.057  35.080  1.00  0.00     0.173 A 
ATOM     71  C   UNL A   1      45.762  27.843  34.438  1.00  0.00     0.173 A 
ATOM     72  F   UNL A   1      43.070  25.492  35.119  1.00  0.00    -0.203 F 
ATOM     73  C   UNL A   1      45.349  25.409  35.706  1.00  0.00     0.198 A 
ATOM     74  C   UNL A   1      46.828  27.178  35.038  1.00  0.00     0.198 A 
ATOM     75  F   UNL A   1      45.994  29.018  33.833  1.00  0.00    -0.203 F 
ATOM     76  F   UNL A   1      45.142  24.247  36.341  1.00  0.00    -0.200 F 
ATOM     77  C   UNL A   1      46.619  25.964  35.674  1.00  0.00     0.200 A 
ATOM     78  F   UNL A   1      48.058  27.709  34.993  1.00  0.00    -0.200 F 
ATOM     79  F   UNL A   1      47.645  25.329  36.257  1.00  0.00    -0.200 F 
ENDBRANCH  55  69
BRANCH  56  80
ATOM     80  C   UNL A   1      37.005  31.419  29.264  1.00  0.00     0.064 A 
ATOM     81  C   UNL A   1      36.972  32.779  28.920  1.00  0.00     0.173 A 
ATOM     82  C   UNL A   1      35.874  30.646  28.960  1.00  0.00     0.173 A 
ATOM     83  F   UNL A   1      38.015  33.569  29.215  1.00  0.00    -0.203 F 
ATOM     84  C   UNL A   1      35.841  33.349  28.338  1.00  0.00     0.198 A 
ATOM     85  C   UNL A   1      34.758  31.210  28.344  1.00  0.00     0.198 A 
ATOM     86  F   UNL A   1      35.847  29.342  29.272  1.00  0.00    -0.203 F 
ATOM     87  F   UNL A   1      35.810  34.666  28.091  1.00  0.00    -0.200 F 
ATOM     88  C   UNL A   1      34.737  32.564  28.048  1.00  0.00     0.200 A 
ATOM     89  F   UNL A   1      33.696  30.444  28.057  1.00  0.00    -0.200 F 
ATOM     90  F   UNL A   1      33.645  33.114  27.499  1.00  0.00    -0.200 F 
ENDBRANCH  56  80
BRANCH  68  91
ATOM     91  C   UNL A   1      39.260  32.049  35.830  1.00  0.00     0.064 A 
ATOM     92  C   UNL A   1      39.679  33.374  36.017  1.00  0.00     0.173 A 
ATOM     93  C   UNL A   1      38.341  31.518  36.748  1.00  0.00     0.173 A 
ATOM     94  F   UNL A   1      40.566  33.928  35.176  1.00  0.00    -0.203 F 
ATOM     95  C   UNL A   1      39.218  34.127  37.095  1.00  0.00     0.198 A 
ATOM     96  C   UNL A   1      37.854  32.284  37.804  1.00  0.00     0.198 A 
ATOM     97  F   UNL A   1      37.898  30.259  36.611  1.00  0.00    -0.203 F 
ATOM     98  F   UNL A   1      39.673  35.372  37.283  1.00  0.00    -0.200 F 
ATOM     99  C   UNL A   1      38.300  33.584  37.982  1.00  0.00     0.200 A 
ATOM    100  F   UNL A   1      36.952  31.764  38.647  1.00  0.00    -0.200 F 
ATOM    101  F   UNL A   1      37.850  34.313  39.012  1.00  0.00    -0.200 F 
ENDBRANCH  68  91
ENDBRANCH  42  43
ENDBRANCH  35  37
ENDBRANCH  34  35
ENDBRANCH  33  34
ENDBRANCH  32  33
ENDBRANCH  31  32
ENDBRANCH  30  31
ENDBRANCH  29  30
ENDBRANCH   1  29
TORSDOF 22
ENDMDL
MODEL 2
REMARK VINA RESULT:     -10.7      4.437      9.114
REMARK SMILES C[C@@H]1C[N@@H+](Cc2cccc(C(=O)OCCOCCOCCOC(=O)c3ccc(-c4c5nc(c(-c6c(F)c(F)c(F)c(F)c6F)c6ccc([nH]6)c(-c6c(F)c(F)c(F)c(F)c6F)c6nc(c(-c7c(F)c(F)c(F)c(F)c7F)c7ccc4[nH]7)C=C6)C=C5)cc3)c2)CCN1C(=O)OC(C)(C)C
REMARK SMILES IDX 16 1 15 2 14 3 13 4 11 5 12 6 10 7 6 8 7 9 88 10 8 11 9 12
REMARK SMILES IDX 5 13 4 14 1 15 2 16 3 17 91 18 90 19 89 20 92 22 93 23 94 24
REMARK SMILES IDX 95 25 96 26 97 27 98 28 17 29 18 30 19 31 20 32 21 33 22 34
REMARK SMILES IDX 23 35 24 36 25 37 26 38 87 39 27 40 86 41 28 42 29 43 30 44
REMARK SMILES IDX 80 45 31 46 85 47 79 48 81 49 32 50 84 51 78 52 77 53 33 55
REMARK SMILES IDX 65 56 45 57 64 58 46 59 49 60 63 61 82 62 47 63 48 64 62 66
REMARK SMILES IDX 83 67 50 68 34 69 35 70 43 71 36 72 37 73 41 74 44 75 38 76
REMARK SMILES IDX 39 77 42 78 40 79 66 80 67 81 75 82 68 83 69 84 73 85 76 86
REMARK SMILES IDX 70 87 71 88 74 89 72 90 51 91 52 92 60 93 53 94 54 95 58 96
REMARK SMILES IDX 61 97 55 98 56 99 59 100 57 101
REMARK H PARENT 4 21 81 54 49 65
REMARK Flexibility Score: inf
ROOT
ATOM      1  O   UNL A   1      33.980  26.001  23.109  1.00  0.00    -0.376 OA
ENDROOT
BRANCH   1   2
ATOM      2  C   UNL A   1      33.221  26.260  21.936  1.00  0.00     0.202 C 
BRANCH   2   3
ATOM      3  C   UNL A   1      31.686  26.267  21.932  1.00  0.00     0.261 C 
BRANCH   3   4
ATOM      4  O   UNL A   1      31.090  27.389  22.585  1.00  0.00    -0.460 OA
BRANCH   4   5
ATOM      5  C   UNL A   1      30.194  27.102  23.568  1.00  0.00     0.338 C 
ATOM      6  O   UNL A   1      28.986  27.089  23.475  1.00  0.00    -0.246 OA
BRANCH   5   7
ATOM      7  C   UNL A   1      30.927  26.649  24.779  1.00  0.00     0.060 A 
ATOM      8  C   UNL A   1      31.478  24.875  26.344  1.00  0.00     0.007 A 
ATOM      9  C   UNL A   1      32.429  25.715  26.935  1.00  0.00     0.009 A 
ATOM     10  C   UNL A   1      30.655  25.409  25.351  1.00  0.00     0.025 A 
ATOM     11  C   UNL A   1      32.613  27.019  26.463  1.00  0.00     0.001 A 
ATOM     12  C   UNL A   1      31.899  27.469  25.351  1.00  0.00     0.016 A 
BRANCH   8  13
ATOM     13  C   UNL A   1      31.408  23.393  26.668  1.00  0.00     0.299 C 
BRANCH  13  14
ATOM     14  N   UNL A   1      32.215  22.507  25.795  1.00  0.00    -0.328 N 
ATOM     15  C   UNL A   1      32.973  21.532  22.897  1.00  0.00     0.037 C 
ATOM     16  C   UNL A   1      32.227  20.732  23.967  1.00  0.00     0.140 C 
ATOM     17  C   UNL A   1      31.389  21.672  24.885  1.00  0.00     0.287 C 
ATOM     18  N   UNL A   1      33.154  19.956  24.809  1.00  0.00    -0.294 N 
ATOM     19  C   UNL A   1      34.047  20.772  25.628  1.00  0.00     0.185 C 
ATOM     20  C   UNL A   1      33.208  21.689  26.529  1.00  0.00     0.284 C 
ATOM     21  H   UNL A   1      32.750  23.148  25.209  1.00  0.00     0.348 HD
BRANCH  18  22
ATOM     22  C   UNL A   1      32.972  18.624  25.143  1.00  0.00     0.410 C 
ATOM     23  O   UNL A   1      31.866  18.126  25.322  1.00  0.00    -0.224 OA
BRANCH  22  24
ATOM     24  O   UNL A   1      34.141  17.937  25.268  1.00  0.00    -0.444 OA
BRANCH  24  25
ATOM     25  C   UNL A   1      34.223  16.545  24.850  1.00  0.00     0.106 C 
ATOM     26  C   UNL A   1      35.546  15.901  25.290  1.00  0.00     0.056 C 
ATOM     27  C   UNL A   1      33.010  15.737  25.329  1.00  0.00     0.056 C 
ATOM     28  C   UNL A   1      34.202  16.582  23.313  1.00  0.00     0.056 C 
ENDBRANCH  24  25
ENDBRANCH  22  24
ENDBRANCH  18  22
ENDBRANCH  13  14
ENDBRANCH   8  13
ENDBRANCH   5   7
ENDBRANCH   4   5
ENDBRANCH   3   4
ENDBRANCH   2   3
ENDBRANCH   1   2
BRANCH   1  29
ATOM     29  C   UNL A   1      33.995  24.715  23.697  1.00  0.00     0.188 C 
BRANCH  29  30
ATOM     30  C   UNL A   1      35.164  24.269  24.599  1.00  0.00     0.188 C 
BRANCH  30  31
ATOM     31  O   UNL A   1      36.381  23.923  23.992  1.00  0.00    -0.376 OA
BRANCH  31  32
ATOM     32  C   UNL A   1      36.600  22.596  23.549  1.00  0.00     0.202 C 
BRANCH  32  33
ATOM     33  C   UNL A   1      37.284  21.470  24.355  1.00  0.00     0.261 C 
BRANCH  33  34
ATOM     34  O   UNL A   1      37.605  21.704  25.731  1.00  0.00    -0.460 OA
BRANCH  34  35
ATOM     35  C   UNL A   1      38.881  21.426  26.098  1.00  0.00     0.338 C 
ATOM     36  O   UNL A   1      39.510  20.407  25.875  1.00  0.00    -0.246 OA
BRANCH  35  37
ATOM     37  C   UNL A   1      39.496  22.646  26.662  1.00  0.00     0.060 A 
ATOM     38  C   UNL A   1      39.010  23.899  26.261  1.00  0.00     0.016 A 
ATOM     39  C   UNL A   1      40.563  22.556  27.555  1.00  0.00     0.016 A 
ATOM     40  C   UNL A   1      39.607  25.068  26.735  1.00  0.00     0.010 A 
ATOM     41  C   UNL A   1      41.176  23.728  28.009  1.00  0.00     0.010 A 
ATOM     42  C   UNL A   1      40.720  24.989  27.581  1.00  0.00    -0.014 A 
BRANCH  42  43
ATOM     43  C   UNL A   1      41.517  26.206  27.878  1.00  0.00     0.031 A 
ATOM     44  C   UNL A   1      40.862  27.321  28.650  1.00  0.00     0.074 A 
ATOM     45  C   UNL A   1      42.795  26.326  27.475  1.00  0.00     0.049 A 
ATOM     46  N   UNL A   1      41.323  28.509  28.950  1.00  0.00    -0.248 NA
ATOM     47  C   UNL A   1      39.502  27.061  29.147  1.00  0.00     0.031 C 
ATOM     48  C   UNL A   1      43.556  25.306  26.760  1.00  0.00     0.029 A 
ATOM     49  N   UNL A   1      43.673  27.377  27.598  1.00  0.00    -0.354 N 
ATOM     50  C   UNL A   1      40.305  29.141  29.653  1.00  0.00     0.074 A 
ATOM     51  C   UNL A   1      39.195  28.216  29.720  1.00  0.00     0.031 C 
ATOM     52  C   UNL A   1      44.781  25.789  26.485  1.00  0.00     0.029 A 
ATOM     53  C   UNL A   1      44.878  27.164  26.972  1.00  0.00     0.049 A 
ATOM     54  H   UNL A   1      43.459  28.203  28.089  1.00  0.00     0.167 HD
ATOM     55  C   UNL A   1      40.298  30.381  30.195  1.00  0.00     0.037 A 
ATOM     56  C   UNL A   1      45.920  27.999  26.787  1.00  0.00     0.037 A 
ATOM     57  C   UNL A   1      41.406  31.298  30.138  1.00  0.00     0.049 A 
ATOM     58  C   UNL A   1      45.856  29.402  27.343  1.00  0.00     0.074 A 
ATOM     59  C   UNL A   1      41.504  32.565  30.688  1.00  0.00     0.029 A 
ATOM     60  N   UNL A   1      42.602  31.053  29.483  1.00  0.00    -0.354 N 
ATOM     61  N   UNL A   1      44.907  29.978  28.041  1.00  0.00    -0.248 NA
ATOM     62  C   UNL A   1      47.016  30.271  27.089  1.00  0.00     0.031 C 
ATOM     63  C   UNL A   1      42.735  33.109  30.314  1.00  0.00     0.029 A 
ATOM     64  C   UNL A   1      43.432  32.157  29.590  1.00  0.00     0.049 A 
ATOM     65  H   UNL A   1      42.828  30.218  29.012  1.00  0.00     0.167 HD
ATOM     66  C   UNL A   1      45.369  31.254  28.340  1.00  0.00     0.074 A 
ATOM     67  C   UNL A   1      46.691  31.366  27.761  1.00  0.00     0.031 C 
ATOM     68  C   UNL A   1      44.756  32.247  29.031  1.00  0.00     0.037 A 
BRANCH  55  69
ATOM     69  C   UNL A   1      39.046  30.843  30.883  1.00  0.00     0.064 A 
ATOM     70  C   UNL A   1      38.847  30.658  32.258  1.00  0.00     0.173 A 
ATOM     71  C   UNL A   1      38.069  31.549  30.165  1.00  0.00     0.173 A 
ATOM     72  F   UNL A   1      39.745  29.977  32.986  1.00  0.00    -0.203 F 
ATOM     73  C   UNL A   1      37.709  31.157  32.889  1.00  0.00     0.198 A 
ATOM     74  C   UNL A   1      36.948  32.073  30.805  1.00  0.00     0.198 A 
ATOM     75  F   UNL A   1      38.214  31.756  28.847  1.00  0.00    -0.203 F 
ATOM     76  F   UNL A   1      37.525  30.943  34.199  1.00  0.00    -0.200 F 
ATOM     77  C   UNL A   1      36.768  31.873  32.165  1.00  0.00     0.200 A 
ATOM     78  F   UNL A   1      36.048  32.778  30.105  1.00  0.00    -0.200 F 
ATOM     79  F   UNL A   1      35.686  32.371  32.777  1.00  0.00    -0.200 F 
ENDBRANCH  55  69
BRANCH  56  80
ATOM     80  C   UNL A   1      47.112  27.559  26.010  1.00  0.00     0.064 A 
ATOM     81  C   UNL A   1      48.262  27.081  26.655  1.00  0.00     0.173 A 
ATOM     82  C   UNL A   1      47.153  27.674  24.612  1.00  0.00     0.173 A 
ATOM     83  F   UNL A   1      48.287  26.980  27.992  1.00  0.00    -0.203 F 
ATOM     84  C   UNL A   1      49.418  26.775  25.938  1.00  0.00     0.198 A 
ATOM     85  C   UNL A   1      48.296  27.332  23.892  1.00  0.00     0.198 A 
ATOM     86  F   UNL A   1      46.084  28.131  23.944  1.00  0.00    -0.203 F 
ATOM     87  F   UNL A   1      50.526  26.394  26.587  1.00  0.00    -0.200 F 
ATOM     88  C   UNL A   1      49.432  26.897  24.557  1.00  0.00     0.200 A 
ATOM     89  F   UNL A   1      48.303  27.443  22.557  1.00  0.00    -0.200 F 
ATOM     90  F   UNL A   1      50.547  26.613  23.868  1.00  0.00    -0.200 F 
ENDBRANCH  56  80
BRANCH  68  91
ATOM     91  C   UNL A   1      45.524  33.519  29.257  1.00  0.00     0.064 A 
ATOM     92  C   UNL A   1      45.452  34.600  28.365  1.00  0.00     0.173 A 
ATOM     93  C   UNL A   1      46.310  33.674  30.410  1.00  0.00     0.173 A 
ATOM     94  F   UNL A   1      44.725  34.501  27.242  1.00  0.00    -0.203 F 
ATOM     95  C   UNL A   1      46.161  35.775  28.604  1.00  0.00     0.198 A 
ATOM     96  C   UNL A   1      46.988  34.863  30.664  1.00  0.00     0.198 A 
ATOM     97  F   UNL A   1      46.406  32.677  31.303  1.00  0.00    -0.203 F 
ATOM     98  F   UNL A   1      46.119  36.773  27.711  1.00  0.00    -0.200 F 
ATOM     99  C   UNL A   1      46.921  35.909  29.756  1.00  0.00     0.200 A 
ATOM    100  F   UNL A   1      47.706  34.997  31.788  1.00  0.00    -0.200 F 
ATOM    101  F   UNL A   1      47.595  37.043  29.989  1.00  0.00    -0.200 F 
ENDBRANCH  68  91
ENDBRANCH  42  43
ENDBRANCH  35  37
ENDBRANCH  34  35
ENDBRANCH  33  34
ENDBRANCH  32  33
ENDBRANCH  31  32
ENDBRANCH  30  31
ENDBRANCH  29  30
ENDBRANCH   1  29
TORSDOF 22
ENDMDL
MODEL 3
REMARK VINA RESULT:     -10.4      4.334      7.307
REMARK SMILES C[C@@H]1C[N@@H+](Cc2cccc(C(=O)OCCOCCOCCOC(=O)c3ccc(-c4c5nc(c(-c6c(F)c(F)c(F)c(F)c6F)c6ccc([nH]6)c(-c6c(F)c(F)c(F)c(F)c6F)c6nc(c(-c7c(F)c(F)c(F)c(F)c7F)c7ccc4[nH]7)C=C6)C=C5)cc3)c2)CCN1C(=O)OC(C)(C)C
REMARK SMILES IDX 16 1 15 2 14 3 13 4 11 5 12 6 10 7 6 8 7 9 88 10 8 11 9 12
REMARK SMILES IDX 5 13 4 14 1 15 2 16 3 17 91 18 90 19 89 20 92 22 93 23 94 24
REMARK SMILES IDX 95 25 96 26 97 27 98 28 17 29 18 30 19 31 20 32 21 33 22 34
REMARK SMILES IDX 23 35 24 36 25 37 26 38 87 39 27 40 86 41 28 42 29 43 30 44
REMARK SMILES IDX 80 45 31 46 85 47 79 48 81 49 32 50 84 51 78 52 77 53 33 55
REMARK SMILES IDX 65 56 45 57 64 58 46 59 49 60 63 61 82 62 47 63 48 64 62 66
REMARK SMILES IDX 83 67 50 68 34 69 35 70 43 71 36 72 37 73 41 74 44 75 38 76
REMARK SMILES IDX 39 77 42 78 40 79 66 80 67 81 75 82 68 83 69 84 73 85 76 86
REMARK SMILES IDX 70 87 71 88 74 89 72 90 51 91 52 92 60 93 53 94 54 95 58 96
REMARK SMILES IDX 61 97 55 98 56 99 59 100 57 101
REMARK H PARENT 4 21 81 54 49 65
REMARK Flexibility Score: inf
ROOT
ATOM      1  O   UNL A   1      33.750  25.820  23.332  1.00  0.00    -0.376 OA
ENDROOT
BRANCH   1   2
ATOM      2  C   UNL A   1      33.045  26.245  22.175  1.00  0.00     0.202 C 
BRANCH   2   3
ATOM      3  C   UNL A   1      31.522  26.102  22.039  1.00  0.00     0.261 C 
BRANCH   3   4
ATOM      4  O   UNL A   1      30.777  27.269  22.390  1.00  0.00    -0.460 OA
BRANCH   4   5
ATOM      5  C   UNL A   1      29.924  27.140  23.442  1.00  0.00     0.338 C 
ATOM      6  O   UNL A   1      28.713  27.134  23.405  1.00  0.00    -0.246 OA
BRANCH   5   7
ATOM      7  C   UNL A   1      30.708  26.852  24.672  1.00  0.00     0.060 A 
ATOM      8  C   UNL A   1      31.423  25.267  26.369  1.00  0.00     0.007 A 
ATOM      9  C   UNL A   1      32.310  26.229  26.868  1.00  0.00     0.009 A 
ATOM     10  C   UNL A   1      30.545  25.648  25.352  1.00  0.00     0.025 A 
ATOM     11  C   UNL A   1      32.380  27.498  26.285  1.00  0.00     0.001 A 
ATOM     12  C   UNL A   1      31.617  27.793  25.153  1.00  0.00     0.016 A 
BRANCH   8  13
ATOM     13  C   UNL A   1      31.478  23.818  26.817  1.00  0.00     0.299 C 
BRANCH  13  14
ATOM     14  N   UNL A   1      32.176  22.888  25.896  1.00  0.00    -0.328 N 
ATOM     15  C   UNL A   1      32.654  21.842  22.963  1.00  0.00     0.037 C 
ATOM     16  C   UNL A   1      31.969  21.088  24.106  1.00  0.00     0.140 C 
ATOM     17  C   UNL A   1      31.247  22.073  25.072  1.00  0.00     0.287 C 
ATOM     18  N   UNL A   1      32.933  20.288  24.881  1.00  0.00    -0.294 N 
ATOM     19  C   UNL A   1      33.921  21.080  25.609  1.00  0.00     0.185 C 
ATOM     20  C   UNL A   1      33.194  22.042  26.560  1.00  0.00     0.284 C 
ATOM     21  H   UNL A   1      32.684  23.499  25.257  1.00  0.00     0.348 HD
BRANCH  18  22
ATOM     22  C   UNL A   1      32.729  18.969  25.253  1.00  0.00     0.410 C 
ATOM     23  O   UNL A   1      32.490  18.631  26.407  1.00  0.00    -0.224 OA
BRANCH  22  24
ATOM     24  O   UNL A   1      32.838  18.096  24.215  1.00  0.00    -0.444 OA
BRANCH  24  25
ATOM     25  C   UNL A   1      33.921  17.123  24.184  1.00  0.00     0.106 C 
ATOM     26  C   UNL A   1      35.246  17.741  24.655  1.00  0.00     0.056 C 
ATOM     27  C   UNL A   1      33.570  15.857  24.975  1.00  0.00     0.056 C 
ATOM     28  C   UNL A   1      34.077  16.738  22.703  1.00  0.00     0.056 C 
ENDBRANCH  24  25
ENDBRANCH  22  24
ENDBRANCH  18  22
ENDBRANCH  13  14
ENDBRANCH   8  13
ENDBRANCH   5   7
ENDBRANCH   4   5
ENDBRANCH   3   4
ENDBRANCH   2   3
ENDBRANCH   1   2
BRANCH   1  29
ATOM     29  C   UNL A   1      34.358  24.543  23.386  1.00  0.00     0.188 C 
BRANCH  29  30
ATOM     30  C   UNL A   1      35.392  24.203  24.478  1.00  0.00     0.188 C 
BRANCH  30  31
ATOM     31  O   UNL A   1      36.619  23.644  24.085  1.00  0.00    -0.376 OA
BRANCH  31  32
ATOM     32  C   UNL A   1      36.745  22.240  23.943  1.00  0.00     0.202 C 
BRANCH  32  33
ATOM     33  C   UNL A   1      37.696  21.328  24.748  1.00  0.00     0.261 C 
BRANCH  33  34
ATOM     34  O   UNL A   1      38.054  21.709  26.081  1.00  0.00    -0.460 OA
BRANCH  34  35
ATOM     35  C   UNL A   1      39.381  21.700  26.364  1.00  0.00     0.338 C 
ATOM     36  O   UNL A   1      40.187  20.823  26.108  1.00  0.00    -0.246 OA
BRANCH  35  37
ATOM     37  C   UNL A   1      39.772  23.029  26.877  1.00  0.00     0.060 A 
ATOM     38  C   UNL A   1      39.252  24.176  26.258  1.00  0.00     0.016 A 
ATOM     39  C   UNL A   1      40.669  23.146  27.939  1.00  0.00     0.016 A 
ATOM     40  C   UNL A   1      39.647  25.445  26.686  1.00  0.00     0.010 A 
ATOM     41  C   UNL A   1      41.082  24.417  28.349  1.00  0.00     0.010 A 
ATOM     42  C   UNL A   1      40.595  25.572  27.708  1.00  0.00    -0.014 A 
BRANCH  42  43
ATOM     43  C   UNL A   1      41.213  26.893  27.989  1.00  0.00     0.031 A 
ATOM     44  C   UNL A   1      42.659  27.101  27.620  1.00  0.00     0.074 A 
ATOM     45  C   UNL A   1      40.514  27.890  28.559  1.00  0.00     0.049 A 
ATOM     46  N   UNL A   1      43.437  28.129  27.846  1.00  0.00    -0.248 NA
ATOM     47  C   UNL A   1      43.315  25.998  26.900  1.00  0.00     0.031 C 
ATOM     48  C   UNL A   1      39.102  27.832  28.926  1.00  0.00     0.029 A 
ATOM     49  N   UNL A   1      40.911  29.148  28.947  1.00  0.00    -0.354 N 
ATOM     50  C   UNL A   1      44.674  27.789  27.314  1.00  0.00     0.074 A 
ATOM     51  C   UNL A   1      44.552  26.454  26.770  1.00  0.00     0.031 C 
ATOM     52  C   UNL A   1      38.754  28.993  29.508  1.00  0.00     0.029 A 
ATOM     53  C   UNL A   1      39.928  29.863  29.589  1.00  0.00     0.049 A 
ATOM     54  H   UNL A   1      41.814  29.504  28.781  1.00  0.00     0.167 HD
ATOM     55  C   UNL A   1      45.809  28.526  27.280  1.00  0.00     0.037 A 
ATOM     56  C   UNL A   1      39.983  31.063  30.199  1.00  0.00     0.037 A 
ATOM     57  C   UNL A   1      45.928  29.858  27.813  1.00  0.00     0.049 A 
ATOM     58  C   UNL A   1      41.283  31.833  30.207  1.00  0.00     0.074 A 
ATOM     59  C   UNL A   1      47.030  30.696  27.794  1.00  0.00     0.029 A 
ATOM     60  N   UNL A   1      44.916  30.541  28.467  1.00  0.00    -0.354 N 
ATOM     61  N   UNL A   1      42.437  31.522  29.668  1.00  0.00    -0.248 NA
ATOM     62  C   UNL A   1      41.286  33.126  30.908  1.00  0.00     0.031 C 
ATOM     63  C   UNL A   1      46.703  31.861  28.492  1.00  0.00     0.029 A 
ATOM     64  C   UNL A   1      45.377  31.779  28.884  1.00  0.00     0.049 A 
ATOM     65  H   UNL A   1      44.005  30.197  28.613  1.00  0.00     0.167 HD
ATOM     66  C   UNL A   1      43.285  32.592  29.928  1.00  0.00     0.074 A 
ATOM     67  C   UNL A   1      42.510  33.569  30.662  1.00  0.00     0.031 C 
ATOM     68  C   UNL A   1      44.588  32.754  29.592  1.00  0.00     0.037 A 
BRANCH  55  69
ATOM     69  C   UNL A   1      47.033  27.907  26.671  1.00  0.00     0.064 A 
ATOM     70  C   UNL A   1      47.952  27.177  27.438  1.00  0.00     0.173 A 
ATOM     71  C   UNL A   1      47.244  27.981  25.286  1.00  0.00     0.173 A 
ATOM     72  F   UNL A   1      47.802  27.087  28.768  1.00  0.00    -0.203 F 
ATOM     73  C   UNL A   1      49.044  26.551  26.840  1.00  0.00     0.198 A 
ATOM     74  C   UNL A   1      48.320  27.330  24.688  1.00  0.00     0.198 A 
ATOM     75  F   UNL A   1      46.392  28.665  24.507  1.00  0.00    -0.203 F 
ATOM     76  F   UNL A   1      49.926  25.883  27.596  1.00  0.00    -0.200 F 
ATOM     77  C   UNL A   1      49.220  26.618  25.466  1.00  0.00     0.200 A 
ATOM     78  F   UNL A   1      48.479  27.383  23.358  1.00  0.00    -0.200 F 
ATOM     79  F   UNL A   1      50.258  25.997  24.890  1.00  0.00    -0.200 F 
ENDBRANCH  55  69
BRANCH  56  80
ATOM     80  C   UNL A   1      38.786  31.615  30.892  1.00  0.00     0.064 A 
ATOM     81  C   UNL A   1      37.906  32.488  30.235  1.00  0.00     0.173 A 
ATOM     82  C   UNL A   1      38.537  31.340  32.245  1.00  0.00     0.173 A 
ATOM     83  F   UNL A   1      38.116  32.809  28.950  1.00  0.00    -0.203 F 
ATOM     84  C   UNL A   1      36.849  33.094  30.914  1.00  0.00     0.198 A 
ATOM     85  C   UNL A   1      37.458  31.916  32.913  1.00  0.00     0.198 A 
ATOM     86  F   UNL A   1      39.349  30.517  32.924  1.00  0.00    -0.203 F 
ATOM     87  F   UNL A   1      36.071  33.982  30.281  1.00  0.00    -0.200 F 
ATOM     88  C   UNL A   1      36.624  32.804  32.251  1.00  0.00     0.200 A 
ATOM     89  F   UNL A   1      37.239  31.627  34.202  1.00  0.00    -0.200 F 
ATOM     90  F   UNL A   1      35.615  33.395  32.906  1.00  0.00    -0.200 F 
ENDBRANCH  56  80
BRANCH  68  91
ATOM     91  C   UNL A   1      45.249  34.055  29.955  1.00  0.00     0.064 A 
ATOM     92  C   UNL A   1      45.273  35.147  29.076  1.00  0.00     0.173 A 
ATOM     93  C   UNL A   1      45.829  34.222  31.223  1.00  0.00     0.173 A 
ATOM     94  F   UNL A   1      44.744  35.038  27.848  1.00  0.00    -0.203 F 
ATOM     95  C   UNL A   1      45.878  36.348  29.440  1.00  0.00     0.198 A 
ATOM     96  C   UNL A   1      46.400  35.435  31.598  1.00  0.00     0.198 A 
ATOM     97  F   UNL A   1      45.824  33.214  32.108  1.00  0.00    -0.203 F 
ATOM     98  F   UNL A   1      45.936  37.359  28.565  1.00  0.00    -0.200 F 
ATOM     99  C   UNL A   1      46.433  36.493  30.703  1.00  0.00     0.200 A 
ATOM    100  F   UNL A   1      46.918  35.579  32.826  1.00  0.00    -0.200 F 
ATOM    101  F   UNL A   1      47.006  37.652  31.056  1.00  0.00    -0.200 F 
ENDBRANCH  68  91
ENDBRANCH  42  43
ENDBRANCH  35  37
ENDBRANCH  34  35
ENDBRANCH  33  34
ENDBRANCH  32  33
ENDBRANCH  31  32
ENDBRANCH  30  31
ENDBRANCH  29  30
ENDBRANCH   1  29
TORSDOF 22
ENDMDL
