MODEL 1
REMARK VINA RESULT:     -10.8      0.000      0.000
REMARK SMILES COc1cc(OC)cc(-c2cc3nc(C)c(CCC(=O)OCCOCCOCCOC(=O)c4ccc(-c5c6nc(c(-c7c(F)c(F)c(F)c(F)c7F)c7ccc([nH]7)c(-c7c(F)c(F)c(F)c(F)c7F)c7nc(c(-c8c(F)c(F)c(F)c(F)c8F)c8ccc5[nH]8)C=C7)C=C6)cc4)c(C)n3n2)c1
REMARK SMILES IDX 25 1 24 2 23 3 22 4 21 5 19 6 20 7 18 8 17 9 16 10 10 11
REMARK SMILES IDX 11 12 99 13 12 14 98 15 13 16 96 17 14 18 97 19 15 20 9 21
REMARK SMILES IDX 3 22 4 23 100 24 5 25 8 26 2 27 1 28 6 29 7 30 26 31 27 32
REMARK SMILES IDX 28 33 29 34 30 35 31 36 32 37 33 38 34 39 95 40 35 41 94 42
REMARK SMILES IDX 36 43 37 44 38 45 88 46 39 47 93 48 87 49 89 50 40 51 92 52
REMARK SMILES IDX 86 53 85 54 41 56 73 57 53 58 72 59 54 60 57 61 71 62 90 63
REMARK SMILES IDX 55 64 56 65 70 67 91 68 58 69 42 70 43 71 51 72 44 73 45 74
REMARK SMILES IDX 49 75 52 76 46 77 47 78 50 79 48 80 74 81 75 82 83 83 76 84
REMARK SMILES IDX 77 85 81 86 84 87 78 88 79 89 82 90 80 91 59 92 60 93 68 94
REMARK SMILES IDX 61 95 62 96 66 97 69 98 63 99 64 100 67 101 65 102
REMARK H PARENT 89 55 57 66
REMARK Flexibility Score: inf
ROOT
ATOM      1  C   UNL A   1      43.681  22.349  26.035  1.00  0.00     0.188 C 
ENDROOT
BRANCH   1   2
ATOM      2  O   UNL A   1      42.392  22.543  26.595  1.00  0.00    -0.376 OA
BRANCH   2   3
ATOM      3  C   UNL A   1      41.358  21.742  26.033  1.00  0.00     0.202 C 
BRANCH   3   4
ATOM      4  C   UNL A   1      40.018  21.827  26.798  1.00  0.00     0.261 C 
BRANCH   4   5
ATOM      5  O   UNL A   1      38.859  21.429  26.015  1.00  0.00    -0.463 OA
BRANCH   5   6
ATOM      6  C   UNL A   1      37.867  22.317  25.768  1.00  0.00     0.306 C 
ATOM      7  O   UNL A   1      38.049  23.512  25.572  1.00  0.00    -0.252 OA
BRANCH   6   8
ATOM      8  C   UNL A   1      36.479  21.670  25.751  1.00  0.00     0.127 C 
BRANCH   8   9
ATOM      9  C   UNL A   1      35.676  21.634  24.427  1.00  0.00     0.051 C 
BRANCH   9  10
ATOM     10  C   UNL A   1      34.303  22.298  24.424  1.00  0.00    -0.005 A 
ATOM     11  C   UNL A   1      31.332  25.671  24.211  1.00  0.00     0.095 A 
ATOM     12  C   UNL A   1      30.704  24.425  24.472  1.00  0.00     0.080 A 
ATOM     13  N   UNL A   1      32.638  25.505  24.053  1.00  0.00    -0.166 NA
ATOM     14  C   UNL A   1      31.721  23.481  24.472  1.00  0.00     0.156 A 
ATOM     15  N   UNL A   1      32.872  24.205  24.274  1.00  0.00    -0.219 N 
ATOM     16  N   UNL A   1      31.786  22.132  24.679  1.00  0.00    -0.234 NA
ATOM     17  C   UNL A   1      34.128  23.630  24.307  1.00  0.00     0.046 A 
ATOM     18  C   UNL A   1      32.976  21.574  24.684  1.00  0.00     0.045 A 
ATOM     19  C   UNL A   1      35.188  24.658  24.261  1.00  0.00     0.067 C 
ATOM     20  C   UNL A   1      32.986  20.092  25.009  1.00  0.00     0.067 C 
BRANCH  11  21
ATOM     21  C   UNL A   1      30.859  27.046  24.122  1.00  0.00     0.009 A 
ATOM     22  C   UNL A   1      29.842  28.771  22.734  1.00  0.00     0.123 A 
ATOM     23  C   UNL A   1      30.298  29.732  23.633  1.00  0.00     0.092 A 
ATOM     24  C   UNL A   1      30.138  27.433  22.973  1.00  0.00     0.057 A 
ATOM     25  C   UNL A   1      31.029  29.365  24.771  1.00  0.00     0.123 A 
ATOM     26  C   UNL A   1      31.296  28.017  25.025  1.00  0.00     0.057 A 
BRANCH  22  27
ATOM     27  O   UNL A   1      29.188  29.249  21.633  1.00  0.00    -0.497 OA
ATOM     28  C   UNL A   1      28.351  30.379  21.857  1.00  0.00     0.278 C 
ENDBRANCH  22  27
BRANCH  25  29
ATOM     29  O   UNL A   1      31.435  30.417  25.546  1.00  0.00    -0.497 OA
ATOM     30  C   UNL A   1      31.979  30.088  26.818  1.00  0.00     0.278 C 
ENDBRANCH  25  29
ENDBRANCH  11  21
ENDBRANCH   9  10
ENDBRANCH   8   9
ENDBRANCH   6   8
ENDBRANCH   5   6
ENDBRANCH   4   5
ENDBRANCH   3   4
ENDBRANCH   2   3
ENDBRANCH   1   2
BRANCH   1  31
ATOM     31  C   UNL A   1      44.797  22.936  26.881  1.00  0.00     0.188 C 
BRANCH  31  32
ATOM     32  O   UNL A   1      44.925  24.359  26.921  1.00  0.00    -0.376 OA
BRANCH  32  33
ATOM     33  C   UNL A   1      44.430  24.998  28.109  1.00  0.00     0.202 C 
BRANCH  33  34
ATOM     34  C   UNL A   1      43.422  26.136  27.924  1.00  0.00     0.261 C 
BRANCH  34  35
ATOM     35  O   UNL A   1      42.111  25.625  27.823  1.00  0.00    -0.460 OA
BRANCH  35  36
ATOM     36  C   UNL A   1      41.485  25.916  26.659  1.00  0.00     0.338 C 
ATOM     37  O   UNL A   1      41.804  25.579  25.526  1.00  0.00    -0.246 OA
BRANCH  36  38
ATOM     38  C   UNL A   1      40.353  26.785  27.012  1.00  0.00     0.060 A 
ATOM     39  C   UNL A   1      40.435  28.092  26.555  1.00  0.00     0.016 A 
ATOM     40  C   UNL A   1      39.564  26.409  28.113  1.00  0.00     0.016 A 
ATOM     41  C   UNL A   1      40.161  29.060  27.481  1.00  0.00     0.010 A 
ATOM     42  C   UNL A   1      39.335  27.356  29.046  1.00  0.00     0.010 A 
ATOM     43  C   UNL A   1      39.794  28.630  28.756  1.00  0.00    -0.014 A 
BRANCH  43  44
ATOM     44  C   UNL A   1      40.049  29.485  29.875  1.00  0.00     0.031 A 
ATOM     45  C   UNL A   1      38.950  30.420  30.103  1.00  0.00     0.074 A 
ATOM     46  C   UNL A   1      41.096  29.262  30.686  1.00  0.00     0.049 A 
ATOM     47  N   UNL A   1      38.868  31.632  29.669  1.00  0.00    -0.248 NA
ATOM     48  C   UNL A   1      37.677  29.850  30.574  1.00  0.00     0.031 C 
ATOM     49  C   UNL A   1      42.003  28.110  30.743  1.00  0.00     0.029 A 
ATOM     50  N   UNL A   1      41.508  30.034  31.716  1.00  0.00    -0.354 N 
ATOM     51  C   UNL A   1      37.592  32.030  30.035  1.00  0.00     0.074 A 
ATOM     52  C   UNL A   1      36.843  30.823  30.214  1.00  0.00     0.031 C 
ATOM     53  C   UNL A   1      42.730  28.177  31.884  1.00  0.00     0.029 A 
ATOM     54  C   UNL A   1      42.419  29.424  32.562  1.00  0.00     0.049 A 
ATOM     55  H   UNL A   1      41.186  30.953  31.854  1.00  0.00     0.167 HD
ATOM     56  C   UNL A   1      37.377  33.269  30.550  1.00  0.00     0.037 A 
ATOM     57  C   UNL A   1      42.759  29.912  33.779  1.00  0.00     0.037 A 
ATOM     58  C   UNL A   1      38.509  34.128  30.274  1.00  0.00     0.049 A 
ATOM     59  C   UNL A   1      42.324  31.341  33.814  1.00  0.00     0.074 A 
ATOM     60  C   UNL A   1      39.133  34.566  29.121  1.00  0.00     0.029 A 
ATOM     61  N   UNL A   1      39.415  34.332  31.292  1.00  0.00    -0.354 N 
ATOM     62  N   UNL A   1      42.855  32.283  33.082  1.00  0.00    -0.248 NA
ATOM     63  C   UNL A   1      40.979  31.629  34.303  1.00  0.00     0.031 C 
ATOM     64  C   UNL A   1      40.524  34.619  29.435  1.00  0.00     0.029 A 
ATOM     65  C   UNL A   1      40.683  34.255  30.774  1.00  0.00     0.049 A 
ATOM     66  H   UNL A   1      39.190  34.505  32.233  1.00  0.00     0.167 HD
ATOM     67  C   UNL A   1      41.790  33.090  32.691  1.00  0.00     0.074 A 
ATOM     68  C   UNL A   1      40.679  32.688  33.544  1.00  0.00     0.031 C 
ATOM     69  C   UNL A   1      41.834  33.791  31.519  1.00  0.00     0.037 A 
BRANCH  56  70
ATOM     70  C   UNL A   1      36.373  33.562  31.649  1.00  0.00     0.064 A 
ATOM     71  C   UNL A   1      35.249  34.339  31.313  1.00  0.00     0.173 A 
ATOM     72  C   UNL A   1      36.566  33.365  33.039  1.00  0.00     0.173 A 
ATOM     73  F   UNL A   1      34.942  34.575  30.029  1.00  0.00    -0.203 F 
ATOM     74  C   UNL A   1      34.465  34.966  32.283  1.00  0.00     0.198 A 
ATOM     75  C   UNL A   1      35.755  33.956  34.002  1.00  0.00     0.198 A 
ATOM     76  F   UNL A   1      37.585  32.676  33.557  1.00  0.00    -0.203 F 
ATOM     77  F   UNL A   1      33.490  35.802  31.904  1.00  0.00    -0.200 F 
ATOM     78  C   UNL A   1      34.729  34.790  33.626  1.00  0.00     0.200 A 
ATOM     79  F   UNL A   1      36.035  33.766  35.301  1.00  0.00    -0.200 F 
ATOM     80  F   UNL A   1      34.027  35.447  34.557  1.00  0.00    -0.200 F 
ENDBRANCH  56  70
BRANCH  57  81
ATOM     81  C   UNL A   1      43.085  29.137  34.996  1.00  0.00     0.064 A 
ATOM     82  C   UNL A   1      42.117  28.343  35.626  1.00  0.00     0.173 A 
ATOM     83  C   UNL A   1      44.416  28.961  35.424  1.00  0.00     0.173 A 
ATOM     84  F   UNL A   1      40.834  28.416  35.242  1.00  0.00    -0.203 F 
ATOM     85  C   UNL A   1      42.461  27.417  36.616  1.00  0.00     0.198 A 
ATOM     86  C   UNL A   1      44.758  28.045  36.418  1.00  0.00     0.198 A 
ATOM     87  F   UNL A   1      45.425  29.608  34.822  1.00  0.00    -0.203 F 
ATOM     88  F   UNL A   1      41.517  26.634  37.157  1.00  0.00    -0.200 F 
ATOM     89  C   UNL A   1      43.782  27.264  37.007  1.00  0.00     0.200 A 
ATOM     90  F   UNL A   1      46.045  27.883  36.759  1.00  0.00    -0.200 F 
ATOM     91  F   UNL A   1      44.119  26.339  37.916  1.00  0.00    -0.200 F 
ENDBRANCH  57  81
BRANCH  69  92
ATOM     92  C   UNL A   1      43.166  33.881  30.825  1.00  0.00     0.064 A 
ATOM     93  C   UNL A   1      43.633  32.923  29.908  1.00  0.00     0.173 A 
ATOM     94  C   UNL A   1      43.934  35.041  30.989  1.00  0.00     0.173 A 
ATOM     95  F   UNL A   1      42.905  31.837  29.621  1.00  0.00    -0.203 F 
ATOM     96  C   UNL A   1      44.835  33.098  29.224  1.00  0.00     0.198 A 
ATOM     97  C   UNL A   1      45.115  35.232  30.276  1.00  0.00     0.198 A 
ATOM     98  F   UNL A   1      43.507  36.016  31.807  1.00  0.00    -0.203 F 
ATOM     99  F   UNL A   1      45.263  32.163  28.363  1.00  0.00    -0.200 F 
ATOM    100  C   UNL A   1      45.571  34.258  29.403  1.00  0.00     0.200 A 
ATOM    101  F   UNL A   1      45.798  36.378  30.416  1.00  0.00    -0.200 F 
ATOM    102  F   UNL A   1      46.705  34.449  28.715  1.00  0.00    -0.200 F 
ENDBRANCH  69  92
ENDBRANCH  43  44
ENDBRANCH  36  38
ENDBRANCH  35  36
ENDBRANCH  34  35
ENDBRANCH  33  34
ENDBRANCH  32  33
ENDBRANCH  31  32
ENDBRANCH   1  31
TORSDOF 22
ENDMDL
MODEL 2
REMARK VINA RESULT:     -10.7      3.458      8.873
REMARK SMILES COc1cc(OC)cc(-c2cc3nc(C)c(CCC(=O)OCCOCCOCCOC(=O)c4ccc(-c5c6nc(c(-c7c(F)c(F)c(F)c(F)c7F)c7ccc([nH]7)c(-c7c(F)c(F)c(F)c(F)c7F)c7nc(c(-c8c(F)c(F)c(F)c(F)c8F)c8ccc5[nH]8)C=C7)C=C6)cc4)c(C)n3n2)c1
REMARK SMILES IDX 25 1 24 2 23 3 22 4 21 5 19 6 20 7 18 8 17 9 16 10 10 11
REMARK SMILES IDX 11 12 99 13 12 14 98 15 13 16 96 17 14 18 97 19 15 20 9 21
REMARK SMILES IDX 3 22 4 23 100 24 5 25 8 26 2 27 1 28 6 29 7 30 26 31 27 32
REMARK SMILES IDX 28 33 29 34 30 35 31 36 32 37 33 38 34 39 95 40 35 41 94 42
REMARK SMILES IDX 36 43 37 44 38 45 88 46 39 47 93 48 87 49 89 50 40 51 92 52
REMARK SMILES IDX 86 53 85 54 41 56 73 57 53 58 72 59 54 60 57 61 71 62 90 63
REMARK SMILES IDX 55 64 56 65 70 67 91 68 58 69 42 70 43 71 51 72 44 73 45 74
REMARK SMILES IDX 49 75 52 76 46 77 47 78 50 79 48 80 74 81 75 82 83 83 76 84
REMARK SMILES IDX 77 85 81 86 84 87 78 88 79 89 82 90 80 91 59 92 60 93 68 94
REMARK SMILES IDX 61 95 62 96 66 97 69 98 63 99 64 100 67 101 65 102
REMARK H PARENT 89 55 57 66
REMARK Flexibility Score: inf
ROOT
ATOM      1  C   UNL A   1      33.442  34.302  28.992  1.00  0.00     0.188 C 
ENDROOT
BRANCH   1   2
ATOM      2  O   UNL A   1      34.243  33.143  29.163  1.00  0.00    -0.376 OA
BRANCH   2   3
ATOM      3  C   UNL A   1      34.748  32.571  27.962  1.00  0.00     0.202 C 
BRANCH   3   4
ATOM      4  C   UNL A   1      34.684  31.027  27.932  1.00  0.00     0.261 C 
BRANCH   4   5
ATOM      5  O   UNL A   1      34.137  30.477  26.702  1.00  0.00    -0.463 OA
BRANCH   5   6
ATOM      6  C   UNL A   1      32.798  30.461  26.500  1.00  0.00     0.306 C 
ATOM      7  O   UNL A   1      31.987  31.001  27.240  1.00  0.00    -0.252 OA
BRANCH   6   8
ATOM      8  C   UNL A   1      32.397  29.697  25.235  1.00  0.00     0.127 C 
BRANCH   8   9
ATOM      9  C   UNL A   1      31.162  28.761  25.275  1.00  0.00     0.051 C 
BRANCH   9  10
ATOM     10  C   UNL A   1      31.273  27.426  24.548  1.00  0.00    -0.005 A 
ATOM     11  C   UNL A   1      32.660  23.207  23.820  1.00  0.00     0.095 A 
ATOM     12  C   UNL A   1      31.862  23.696  22.753  1.00  0.00     0.080 A 
ATOM     13  N   UNL A   1      32.752  24.116  24.781  1.00  0.00    -0.166 NA
ATOM     14  C   UNL A   1      31.476  24.976  23.124  1.00  0.00     0.156 A 
ATOM     15  N   UNL A   1      32.097  25.194  24.331  1.00  0.00    -0.219 N 
ATOM     16  N   UNL A   1      30.737  25.969  22.544  1.00  0.00    -0.234 NA
ATOM     17  C   UNL A   1      32.038  26.406  24.991  1.00  0.00     0.046 A 
ATOM     18  C   UNL A   1      30.654  27.116  23.179  1.00  0.00     0.045 A 
ATOM     19  C   UNL A   1      32.947  26.427  26.155  1.00  0.00     0.067 C 
ATOM     20  C   UNL A   1      29.897  28.203  22.440  1.00  0.00     0.067 C 
BRANCH  11  21
ATOM     21  C   UNL A   1      33.403  21.974  24.049  1.00  0.00     0.009 A 
ATOM     22  C   UNL A   1      33.308  19.557  24.335  1.00  0.00     0.123 A 
ATOM     23  C   UNL A   1      34.583  19.596  24.895  1.00  0.00     0.092 A 
ATOM     24  C   UNL A   1      32.715  20.748  23.930  1.00  0.00     0.057 A 
ATOM     25  C   UNL A   1      35.272  20.807  25.035  1.00  0.00     0.123 A 
ATOM     26  C   UNL A   1      34.687  21.999  24.596  1.00  0.00     0.057 A 
BRANCH  22  27
ATOM     27  O   UNL A   1      32.710  18.327  24.299  1.00  0.00    -0.497 OA
ATOM     28  C   UNL A   1      32.523  17.698  25.563  1.00  0.00     0.278 C 
ENDBRANCH  22  27
BRANCH  25  29
ATOM     29  O   UNL A   1      36.500  20.695  25.627  1.00  0.00    -0.497 OA
ATOM     30  C   UNL A   1      37.594  21.268  24.922  1.00  0.00     0.278 C 
ENDBRANCH  25  29
ENDBRANCH  11  21
ENDBRANCH   9  10
ENDBRANCH   8   9
ENDBRANCH   6   8
ENDBRANCH   5   6
ENDBRANCH   4   5
ENDBRANCH   3   4
ENDBRANCH   2   3
ENDBRANCH   1   2
BRANCH   1  31
ATOM     31  C   UNL A   1      33.471  35.233  30.191  1.00  0.00     0.188 C 
BRANCH  31  32
ATOM     32  O   UNL A   1      33.226  34.668  31.480  1.00  0.00    -0.376 OA
BRANCH  32  33
ATOM     33  C   UNL A   1      34.374  34.543  32.336  1.00  0.00     0.202 C 
BRANCH  33  34
ATOM     34  C   UNL A   1      34.539  33.226  33.099  1.00  0.00     0.261 C 
BRANCH  34  35
ATOM     35  O   UNL A   1      35.015  32.212  32.242  1.00  0.00    -0.460 OA
BRANCH  35  36
ATOM     36  C   UNL A   1      36.286  31.821  32.488  1.00  0.00     0.338 C 
ATOM     37  O   UNL A   1      36.841  31.696  33.572  1.00  0.00    -0.246 OA
BRANCH  36  38
ATOM     38  C   UNL A   1      36.913  31.624  31.173  1.00  0.00     0.060 A 
ATOM     39  C   UNL A   1      36.614  30.427  30.540  1.00  0.00     0.016 A 
ATOM     40  C   UNL A   1      38.066  32.374  30.884  1.00  0.00     0.016 A 
ATOM     41  C   UNL A   1      37.683  29.746  30.027  1.00  0.00     0.010 A 
ATOM     42  C   UNL A   1      39.133  31.690  30.421  1.00  0.00     0.010 A 
ATOM     43  C   UNL A   1      38.937  30.345  30.160  1.00  0.00    -0.014 A 
BRANCH  43  44
ATOM     44  C   UNL A   1      40.100  29.512  30.194  1.00  0.00     0.031 A 
ATOM     45  C   UNL A   1      40.578  29.305  31.559  1.00  0.00     0.074 A 
ATOM     46  C   UNL A   1      40.521  28.876  29.089  1.00  0.00     0.049 A 
ATOM     47  N   UNL A   1      41.499  29.978  32.162  1.00  0.00    -0.248 NA
ATOM     48  C   UNL A   1      39.728  28.495  32.447  1.00  0.00     0.031 C 
ATOM     49  C   UNL A   1      39.859  28.726  27.789  1.00  0.00     0.029 A 
ATOM     50  N   UNL A   1      41.645  28.137  28.953  1.00  0.00    -0.354 N 
ATOM     51  C   UNL A   1      41.473  29.487  33.458  1.00  0.00     0.074 A 
ATOM     52  C   UNL A   1      40.175  28.908  33.631  1.00  0.00     0.031 C 
ATOM     53  C   UNL A   1      40.509  27.780  27.069  1.00  0.00     0.029 A 
ATOM     54  C   UNL A   1      41.683  27.355  27.811  1.00  0.00     0.049 A 
ATOM     55  H   UNL A   1      42.376  28.153  29.612  1.00  0.00     0.167 HD
ATOM     56  C   UNL A   1      42.632  29.232  34.121  1.00  0.00     0.037 A 
ATOM     57  C   UNL A   1      42.581  26.361  27.609  1.00  0.00     0.037 A 
ATOM     58  C   UNL A   1      43.740  29.895  33.465  1.00  0.00     0.049 A 
ATOM     59  C   UNL A   1      43.691  26.570  28.588  1.00  0.00     0.074 A 
ATOM     60  C   UNL A   1      44.040  31.210  33.165  1.00  0.00     0.029 A 
ATOM     61  N   UNL A   1      44.543  29.131  32.648  1.00  0.00    -0.354 N 
ATOM     62  N   UNL A   1      44.520  27.579  28.546  1.00  0.00    -0.248 NA
ATOM     63  C   UNL A   1      43.578  25.923  29.891  1.00  0.00     0.031 C 
ATOM     64  C   UNL A   1      44.696  31.173  31.898  1.00  0.00     0.029 A 
ATOM     65  C   UNL A   1      44.806  29.839  31.503  1.00  0.00     0.049 A 
ATOM     66  H   UNL A   1      44.874  28.227  32.852  1.00  0.00     0.167 HD
ATOM     67  C   UNL A   1      44.725  27.941  29.874  1.00  0.00     0.074 A 
ATOM     68  C   UNL A   1      44.190  26.833  30.655  1.00  0.00     0.031 C 
ATOM     69  C   UNL A   1      45.035  29.230  30.209  1.00  0.00     0.037 A 
BRANCH  56  70
ATOM     70  C   UNL A   1      42.821  28.065  35.071  1.00  0.00     0.064 A 
ATOM     71  C   UNL A   1      43.374  28.338  36.336  1.00  0.00     0.173 A 
ATOM     72  C   UNL A   1      42.749  26.690  34.738  1.00  0.00     0.173 A 
ATOM     73  F   UNL A   1      43.472  29.599  36.780  1.00  0.00    -0.203 F 
ATOM     74  C   UNL A   1      43.920  27.334  37.138  1.00  0.00     0.198 A 
ATOM     75  C   UNL A   1      43.254  25.688  35.561  1.00  0.00     0.198 A 
ATOM     76  F   UNL A   1      42.276  26.231  33.577  1.00  0.00    -0.203 F 
ATOM     77  F   UNL A   1      44.553  27.666  38.271  1.00  0.00    -0.200 F 
ATOM     78  C   UNL A   1      43.876  26.012  36.742  1.00  0.00     0.200 A 
ATOM     79  F   UNL A   1      43.197  24.412  35.150  1.00  0.00    -0.200 F 
ATOM     80  F   UNL A   1      44.464  25.057  37.472  1.00  0.00    -0.200 F 
ENDBRANCH  56  70
BRANCH  57  81
ATOM     81  C   UNL A   1      42.357  25.080  26.903  1.00  0.00     0.064 A 
ATOM     82  C   UNL A   1      43.137  24.724  25.793  1.00  0.00     0.173 A 
ATOM     83  C   UNL A   1      41.545  24.068  27.451  1.00  0.00     0.173 A 
ATOM     84  F   UNL A   1      43.972  25.617  25.244  1.00  0.00    -0.203 F 
ATOM     85  C   UNL A   1      43.116  23.427  25.271  1.00  0.00     0.198 A 
ATOM     86  C   UNL A   1      41.517  22.777  26.924  1.00  0.00     0.198 A 
ATOM     87  F   UNL A   1      40.833  24.284  28.566  1.00  0.00    -0.203 F 
ATOM     88  F   UNL A   1      43.915  23.106  24.244  1.00  0.00    -0.200 F 
ATOM     89  C   UNL A   1      42.311  22.453  25.840  1.00  0.00     0.200 A 
ATOM     90  F   UNL A   1      40.761  21.837  27.509  1.00  0.00    -0.200 F 
ATOM     91  F   UNL A   1      42.331  21.197  25.375  1.00  0.00    -0.200 F 
ENDBRANCH  57  81
BRANCH  69  92
ATOM     92  C   UNL A   1      45.420  30.155  29.088  1.00  0.00     0.064 A 
ATOM     93  C   UNL A   1      46.719  30.235  28.556  1.00  0.00     0.173 A 
ATOM     94  C   UNL A   1      44.415  30.884  28.440  1.00  0.00     0.173 A 
ATOM     95  F   UNL A   1      47.712  29.489  29.056  1.00  0.00    -0.203 F 
ATOM     96  C   UNL A   1      47.005  31.044  27.457  1.00  0.00     0.198 A 
ATOM     97  C   UNL A   1      44.694  31.662  27.319  1.00  0.00     0.198 A 
ATOM     98  F   UNL A   1      43.145  30.800  28.868  1.00  0.00    -0.203 F 
ATOM     99  F   UNL A   1      48.255  31.111  26.976  1.00  0.00    -0.200 F 
ATOM    100  C   UNL A   1      45.989  31.750  26.834  1.00  0.00     0.200 A 
ATOM    101  F   UNL A   1      43.699  32.303  26.690  1.00  0.00    -0.200 F 
ATOM    102  F   UNL A   1      46.252  32.494  25.751  1.00  0.00    -0.200 F 
ENDBRANCH  69  92
ENDBRANCH  43  44
ENDBRANCH  36  38
ENDBRANCH  35  36
ENDBRANCH  34  35
ENDBRANCH  33  34
ENDBRANCH  32  33
ENDBRANCH  31  32
ENDBRANCH   1  31
TORSDOF 22
ENDMDL
MODEL 3
REMARK VINA RESULT:     -10.7      4.459     10.390
REMARK SMILES COc1cc(OC)cc(-c2cc3nc(C)c(CCC(=O)OCCOCCOCCOC(=O)c4ccc(-c5c6nc(c(-c7c(F)c(F)c(F)c(F)c7F)c7ccc([nH]7)c(-c7c(F)c(F)c(F)c(F)c7F)c7nc(c(-c8c(F)c(F)c(F)c(F)c8F)c8ccc5[nH]8)C=C7)C=C6)cc4)c(C)n3n2)c1
REMARK SMILES IDX 25 1 24 2 23 3 22 4 21 5 19 6 20 7 18 8 17 9 16 10 10 11
REMARK SMILES IDX 11 12 99 13 12 14 98 15 13 16 96 17 14 18 97 19 15 20 9 21
REMARK SMILES IDX 3 22 4 23 100 24 5 25 8 26 2 27 1 28 6 29 7 30 26 31 27 32
REMARK SMILES IDX 28 33 29 34 30 35 31 36 32 37 33 38 34 39 95 40 35 41 94 42
REMARK SMILES IDX 36 43 37 44 38 45 88 46 39 47 93 48 87 49 89 50 40 51 92 52
REMARK SMILES IDX 86 53 85 54 41 56 73 57 53 58 72 59 54 60 57 61 71 62 90 63
REMARK SMILES IDX 55 64 56 65 70 67 91 68 58 69 42 70 43 71 51 72 44 73 45 74
REMARK SMILES IDX 49 75 52 76 46 77 47 78 50 79 48 80 74 81 75 82 83 83 76 84
REMARK SMILES IDX 77 85 81 86 84 87 78 88 79 89 82 90 80 91 59 92 60 93 68 94
REMARK SMILES IDX 61 95 62 96 66 97 69 98 63 99 64 100 67 101 65 102
REMARK H PARENT 89 55 57 66
REMARK Flexibility Score: inf
ROOT
ATOM      1  C   UNL A   1      35.672  34.162  34.199  1.00  0.00     0.188 C 
ENDROOT
BRANCH   1   2
ATOM      2  O   UNL A   1      35.795  35.352  33.435  1.00  0.00    -0.376 OA
BRANCH   2   3
ATOM      3  C   UNL A   1      34.568  36.000  33.117  1.00  0.00     0.202 C 
BRANCH   3   4
ATOM      4  C   UNL A   1      33.414  35.024  32.792  1.00  0.00     0.261 C 
BRANCH   4   5
ATOM      5  O   UNL A   1      33.295  34.691  31.382  1.00  0.00    -0.463 OA
BRANCH   5   6
ATOM      6  C   UNL A   1      34.163  33.822  30.811  1.00  0.00     0.306 C 
ATOM      7  O   UNL A   1      34.343  32.676  31.203  1.00  0.00    -0.252 OA
BRANCH   6   8
ATOM      8  C   UNL A   1      34.901  34.419  29.610  1.00  0.00     0.127 C 
BRANCH   8   9
ATOM      9  C   UNL A   1      34.420  34.075  28.177  1.00  0.00     0.051 C 
BRANCH   9  10
ATOM     10  C   UNL A   1      34.443  32.607  27.766  1.00  0.00    -0.005 A 
ATOM     11  C   UNL A   1      32.821  28.727  26.162  1.00  0.00     0.095 A 
ATOM     12  C   UNL A   1      34.152  28.592  26.637  1.00  0.00     0.080 A 
ATOM     13  N   UNL A   1      32.417  29.985  26.277  1.00  0.00    -0.166 NA
ATOM     14  C   UNL A   1      34.534  29.857  27.061  1.00  0.00     0.156 A 
ATOM     15  N   UNL A   1      33.420  30.640  26.873  1.00  0.00    -0.219 N 
ATOM     16  N   UNL A   1      35.658  30.387  27.629  1.00  0.00    -0.234 NA
ATOM     17  C   UNL A   1      33.366  31.963  27.269  1.00  0.00     0.046 A 
ATOM     18  C   UNL A   1      35.623  31.652  27.983  1.00  0.00     0.045 A 
ATOM     19  C   UNL A   1      32.000  32.507  27.130  1.00  0.00     0.067 C 
ATOM     20  C   UNL A   1      36.868  32.153  28.689  1.00  0.00     0.067 C 
BRANCH  11  21
ATOM     21  C   UNL A   1      31.834  27.796  25.631  1.00  0.00     0.009 A 
ATOM     22  C   UNL A   1      30.504  25.791  26.015  1.00  0.00     0.123 A 
ATOM     23  C   UNL A   1      30.294  25.696  24.641  1.00  0.00     0.092 A 
ATOM     24  C   UNL A   1      31.288  26.832  26.503  1.00  0.00     0.057 A 
ATOM     25  C   UNL A   1      30.843  26.636  23.760  1.00  0.00     0.123 A 
ATOM     26  C   UNL A   1      31.603  27.700  24.258  1.00  0.00     0.057 A 
BRANCH  22  27
ATOM     27  O   UNL A   1      29.966  24.788  26.772  1.00  0.00    -0.497 OA
ATOM     28  C   UNL A   1      30.641  23.536  26.701  1.00  0.00     0.278 C 
ENDBRANCH  22  27
BRANCH  25  29
ATOM     29  O   UNL A   1      30.577  26.397  22.439  1.00  0.00    -0.497 OA
ATOM     30  C   UNL A   1      31.701  26.135  21.609  1.00  0.00     0.278 C 
ENDBRANCH  25  29
ENDBRANCH  11  21
ENDBRANCH   9  10
ENDBRANCH   8   9
ENDBRANCH   6   8
ENDBRANCH   5   6
ENDBRANCH   4   5
ENDBRANCH   3   4
ENDBRANCH   2   3
ENDBRANCH   1   2
BRANCH   1  31
ATOM     31  C   UNL A   1      36.960  33.760  34.894  1.00  0.00     0.188 C 
BRANCH  31  32
ATOM     32  O   UNL A   1      37.547  32.507  34.536  1.00  0.00    -0.376 OA
BRANCH  32  33
ATOM     33  C   UNL A   1      38.333  32.506  33.333  1.00  0.00     0.202 C 
BRANCH  33  34
ATOM     34  C   UNL A   1      38.961  31.176  32.906  1.00  0.00     0.261 C 
BRANCH  34  35
ATOM     35  O   UNL A   1      38.440  30.758  31.665  1.00  0.00    -0.460 OA
BRANCH  35  36
ATOM     36  C   UNL A   1      37.341  29.974  31.753  1.00  0.00     0.338 C 
ATOM     37  O   UNL A   1      36.311  30.185  32.380  1.00  0.00    -0.246 OA
BRANCH  36  38
ATOM     38  C   UNL A   1      37.645  28.759  30.982  1.00  0.00     0.060 A 
ATOM     39  C   UNL A   1      38.268  27.742  31.688  1.00  0.00     0.016 A 
ATOM     40  C   UNL A   1      37.728  28.881  29.584  1.00  0.00     0.016 A 
ATOM     41  C   UNL A   1      39.359  27.183  31.081  1.00  0.00     0.010 A 
ATOM     42  C   UNL A   1      38.828  28.367  28.995  1.00  0.00     0.010 A 
ATOM     43  C   UNL A   1      39.694  27.665  29.815  1.00  0.00    -0.014 A 
BRANCH  43  44
ATOM     44  C   UNL A   1      41.055  27.581  29.382  1.00  0.00     0.031 A 
ATOM     45  C   UNL A   1      41.342  26.300  28.741  1.00  0.00     0.074 A 
ATOM     46  C   UNL A   1      41.854  28.660  29.413  1.00  0.00     0.049 A 
ATOM     47  N   UNL A   1      41.847  25.254  29.304  1.00  0.00    -0.248 NA
ATOM     48  C   UNL A   1      40.702  26.047  27.440  1.00  0.00     0.031 C 
ATOM     49  C   UNL A   1      41.515  30.065  29.669  1.00  0.00     0.029 A 
ATOM     50  N   UNL A   1      43.173  28.707  29.123  1.00  0.00    -0.354 N 
ATOM     51  C   UNL A   1      41.784  24.284  28.317  1.00  0.00     0.074 A 
ATOM     52  C   UNL A   1      40.768  24.718  27.405  1.00  0.00     0.031 C 
ATOM     53  C   UNL A   1      42.570  30.843  29.327  1.00  0.00     0.029 A 
ATOM     54  C   UNL A   1      43.678  29.984  28.946  1.00  0.00     0.049 A 
ATOM     55  H   UNL A   1      43.729  27.899  29.044  1.00  0.00     0.167 HD
ATOM     56  C   UNL A   1      42.829  23.439  28.113  1.00  0.00     0.037 A 
ATOM     57  C   UNL A   1      44.891  30.245  28.404  1.00  0.00     0.037 A 
ATOM     58  C   UNL A   1      43.719  23.461  29.255  1.00  0.00     0.049 A 
ATOM     59  C   UNL A   1      45.674  28.973  28.453  1.00  0.00     0.074 A 
ATOM     60  C   UNL A   1      43.575  23.177  30.600  1.00  0.00     0.029 A 
ATOM     61  N   UNL A   1      44.866  24.215  29.151  1.00  0.00    -0.354 N 
ATOM     62  N   UNL A   1      46.082  28.410  29.560  1.00  0.00    -0.248 NA
ATOM     63  C   UNL A   1      45.584  28.076  27.306  1.00  0.00     0.031 C 
ATOM     64  C   UNL A   1      44.402  24.120  31.280  1.00  0.00     0.029 A 
ATOM     65  C   UNL A   1      45.046  24.906  30.323  1.00  0.00     0.049 A 
ATOM     66  H   UNL A   1      45.459  24.253  28.367  1.00  0.00     0.167 HD
ATOM     67  C   UNL A   1      45.920  27.043  29.357  1.00  0.00     0.074 A 
ATOM     68  C   UNL A   1      45.695  26.896  27.925  1.00  0.00     0.031 C 
ATOM     69  C   UNL A   1      45.688  26.201  30.409  1.00  0.00     0.037 A 
BRANCH  56  70
ATOM     70  C   UNL A   1      43.262  22.949  26.745  1.00  0.00     0.064 A 
ATOM     71  C   UNL A   1      43.102  21.579  26.463  1.00  0.00     0.173 A 
ATOM     72  C   UNL A   1      44.052  23.660  25.808  1.00  0.00     0.173 A 
ATOM     73  F   UNL A   1      42.354  20.802  27.259  1.00  0.00    -0.203 F 
ATOM     74  C   UNL A   1      43.776  20.956  25.411  1.00  0.00     0.198 A 
ATOM     75  C   UNL A   1      44.685  23.042  24.734  1.00  0.00     0.198 A 
ATOM     76  F   UNL A   1      44.336  24.960  25.911  1.00  0.00    -0.203 F 
ATOM     77  F   UNL A   1      43.692  19.626  25.271  1.00  0.00    -0.200 F 
ATOM     78  C   UNL A   1      44.581  21.683  24.559  1.00  0.00     0.200 A 
ATOM     79  F   UNL A   1      45.462  23.775  23.921  1.00  0.00    -0.200 F 
ATOM     80  F   UNL A   1      45.286  21.078  23.596  1.00  0.00    -0.200 F 
ENDBRANCH  56  70
BRANCH  57  81
ATOM     81  C   UNL A   1      45.261  31.387  27.540  1.00  0.00     0.064 A 
ATOM     82  C   UNL A   1      44.421  31.804  26.497  1.00  0.00     0.173 A 
ATOM     83  C   UNL A   1      46.322  32.251  27.874  1.00  0.00     0.173 A 
ATOM     84  F   UNL A   1      43.360  31.060  26.151  1.00  0.00    -0.203 F 
ATOM     85  C   UNL A   1      44.623  33.020  25.837  1.00  0.00     0.198 A 
ATOM     86  C   UNL A   1      46.530  33.459  27.208  1.00  0.00     0.198 A 
ATOM     87  F   UNL A   1      47.126  31.987  28.915  1.00  0.00    -0.203 F 
ATOM     88  F   UNL A   1      43.768  33.412  24.882  1.00  0.00    -0.200 F 
ATOM     89  C   UNL A   1      45.673  33.849  26.197  1.00  0.00     0.200 A 
ATOM     90  F   UNL A   1      47.527  34.268  27.594  1.00  0.00    -0.200 F 
ATOM     91  F   UNL A   1      45.834  35.039  25.602  1.00  0.00    -0.200 F 
ENDBRANCH  57  81
BRANCH  69  92
ATOM     92  C   UNL A   1      45.899  26.758  31.791  1.00  0.00     0.064 A 
ATOM     93  C   UNL A   1      47.152  26.817  32.424  1.00  0.00     0.173 A 
ATOM     94  C   UNL A   1      44.821  27.375  32.439  1.00  0.00     0.173 A 
ATOM     95  F   UNL A   1      48.248  26.340  31.821  1.00  0.00    -0.203 F 
ATOM     96  C   UNL A   1      47.308  27.425  33.669  1.00  0.00     0.198 A 
ATOM     97  C   UNL A   1      44.986  28.016  33.665  1.00  0.00     0.198 A 
ATOM     98  F   UNL A   1      43.613  27.401  31.854  1.00  0.00    -0.203 F 
ATOM     99  F   UNL A   1      48.514  27.458  34.257  1.00  0.00    -0.200 F 
ATOM    100  C   UNL A   1      46.225  28.031  34.284  1.00  0.00     0.200 A 
ATOM    101  F   UNL A   1      43.947  28.644  34.232  1.00  0.00    -0.200 F 
ATOM    102  F   UNL A   1      46.381  28.654  35.460  1.00  0.00    -0.200 F 
ENDBRANCH  69  92
ENDBRANCH  43  44
ENDBRANCH  36  38
ENDBRANCH  35  36
ENDBRANCH  34  35
ENDBRANCH  33  34
ENDBRANCH  32  33
ENDBRANCH  31  32
ENDBRANCH   1  31
TORSDOF 22
ENDMDL
