MODEL 1
REMARK VINA RESULT:     -11.3      0.000      0.000
REMARK SMILES Cn1ncc(C(=O)OCCOCCOCCOC(=O)c2ccc(-c3c4nc(c(-c5c(F)c(F)c(F)c(F)c5F)c5ccc([nH]5)c(-c5c(F)c(F)c(F)c(F)c5F)c5nc(c(-c6c(F)c(F)c(F)c(F)c6F)c6ccc3[nH]6)C=C5)C=C4)cc2)c1C(=O)Nc1ccccn1
REMARK SMILES IDX 12 1 11 2 10 3 9 4 8 5 6 6 7 7 5 8 1 9 2 10 3 11 83 12 4 13
REMARK SMILES IDX 84 14 85 15 86 16 87 18 88 19 92 20 89 21 91 22 90 23 13 24
REMARK SMILES IDX 14 25 15 26 16 27 17 28 18 29 19 30 20 31 21 32 82 33 22 34
REMARK SMILES IDX 81 35 23 36 24 37 25 38 75 39 26 40 80 41 74 42 76 43 27 44
REMARK SMILES IDX 79 45 73 46 72 47 28 49 60 50 40 51 59 52 41 53 44 54 58 55
REMARK SMILES IDX 77 56 42 57 43 58 57 60 78 61 45 62 29 63 30 64 38 65 31 66
REMARK SMILES IDX 32 67 36 68 39 69 33 70 34 71 37 72 35 73 61 74 62 75 70 76
REMARK SMILES IDX 63 77 64 78 68 79 71 80 65 81 66 82 69 83 67 84 46 85 47 86
REMARK SMILES IDX 55 87 48 88 49 89 53 90 56 91 50 92 51 93 54 94 52 95
REMARK H PARENT 86 17 76 48 44 59
REMARK Flexibility Score: inf
ROOT
ATOM      1  C   UNL A   1      29.980  27.872  23.205  1.00  0.00     0.188 C 
ENDROOT
BRANCH   1   2
ATOM      2  O   UNL A   1      30.545  27.471  21.965  1.00  0.00    -0.376 OA
BRANCH   2   3
ATOM      3  C   UNL A   1      31.480  26.395  21.937  1.00  0.00     0.202 C 
BRANCH   3   4
ATOM      4  C   UNL A   1      31.673  25.625  23.238  1.00  0.00     0.261 C 
BRANCH   4   5
ATOM      5  O   UNL A   1      30.710  24.570  23.327  1.00  0.00    -0.460 OA
BRANCH   5   6
ATOM      6  C   UNL A   1      31.229  23.346  23.617  1.00  0.00     0.342 C 
ATOM      7  O   UNL A   1      31.743  22.595  22.810  1.00  0.00    -0.246 OA
BRANCH   6   8
ATOM      8  C   UNL A   1      31.307  23.100  25.045  1.00  0.00     0.111 A 
ATOM      9  C   UNL A   1      33.057  22.495  28.001  1.00  0.00     0.174 C 
ATOM     10  N   UNL A   1      31.990  22.574  27.027  1.00  0.00    -0.262 N 
ATOM     11  N   UNL A   1      31.073  23.543  27.251  1.00  0.00    -0.180 NA
ATOM     12  C   UNL A   1      31.929  22.056  25.746  1.00  0.00     0.140 A 
ATOM     13  C   UNL A   1      30.778  23.958  26.024  1.00  0.00     0.151 A 
BRANCH  12  14
ATOM     14  C   UNL A   1      32.544  20.888  25.140  1.00  0.00     0.275 C 
ATOM     15  O   UNL A   1      31.887  19.856  24.972  1.00  0.00    -0.267 OA
ATOM     16  N   UNL A   1      33.809  20.840  24.621  1.00  0.00    -0.305 N 
ATOM     17  H   UNL A   1      33.972  20.014  24.112  1.00  0.00     0.171 HD
BRANCH  16  18
ATOM     18  C   UNL A   1      34.912  21.670  24.640  1.00  0.00     0.132 A 
ATOM     19  C   UNL A   1      35.189  22.627  23.678  1.00  0.00     0.047 A 
ATOM     20  N   UNL A   1      35.719  21.437  25.696  1.00  0.00    -0.239 NA
ATOM     21  C   UNL A   1      36.402  23.315  23.767  1.00  0.00     0.005 A 
ATOM     22  C   UNL A   1      36.901  22.085  25.738  1.00  0.00     0.113 A 
ATOM     23  C   UNL A   1      37.291  23.017  24.797  1.00  0.00     0.020 A 
ENDBRANCH  16  18
ENDBRANCH  12  14
ENDBRANCH   6   8
ENDBRANCH   5   6
ENDBRANCH   4   5
ENDBRANCH   3   4
ENDBRANCH   2   3
ENDBRANCH   1   2
BRANCH   1  24
ATOM     24  C   UNL A   1      30.639  28.981  24.054  1.00  0.00     0.188 C 
BRANCH  24  25
ATOM     25  O   UNL A   1      32.039  29.202  24.000  1.00  0.00    -0.376 OA
BRANCH  25  26
ATOM     26  C   UNL A   1      32.694  29.786  25.117  1.00  0.00     0.202 C 
BRANCH  26  27
ATOM     27  C   UNL A   1      31.867  30.710  26.005  1.00  0.00     0.261 C 
BRANCH  27  28
ATOM     28  O   UNL A   1      32.446  30.851  27.311  1.00  0.00    -0.460 OA
BRANCH  28  29
ATOM     29  C   UNL A   1      33.255  31.925  27.464  1.00  0.00     0.338 C 
ATOM     30  O   UNL A   1      32.958  33.102  27.366  1.00  0.00    -0.246 OA
BRANCH  29  31
ATOM     31  C   UNL A   1      34.578  31.479  27.932  1.00  0.00     0.060 A 
ATOM     32  C   UNL A   1      34.714  30.141  28.322  1.00  0.00     0.016 A 
ATOM     33  C   UNL A   1      35.640  32.375  28.063  1.00  0.00     0.016 A 
ATOM     34  C   UNL A   1      35.905  29.704  28.896  1.00  0.00     0.010 A 
ATOM     35  C   UNL A   1      36.828  31.939  28.655  1.00  0.00     0.010 A 
ATOM     36  C   UNL A   1      36.951  30.613  29.106  1.00  0.00    -0.014 A 
BRANCH  36  37
ATOM     37  C   UNL A   1      38.104  30.219  29.946  1.00  0.00     0.031 A 
ATOM     38  C   UNL A   1      39.104  29.246  29.389  1.00  0.00     0.074 A 
ATOM     39  C   UNL A   1      38.264  30.727  31.179  1.00  0.00     0.049 A 
ATOM     40  N   UNL A   1      40.168  28.732  29.952  1.00  0.00    -0.248 NA
ATOM     41  C   UNL A   1      38.873  28.789  28.009  1.00  0.00     0.031 C 
ATOM     42  C   UNL A   1      37.382  31.704  31.811  1.00  0.00     0.029 A 
ATOM     43  N   UNL A   1      39.230  30.479  32.122  1.00  0.00    -0.354 N 
ATOM     44  C   UNL A   1      40.733  27.898  28.998  1.00  0.00     0.074 A 
ATOM     45  C   UNL A   1      39.883  27.951  27.828  1.00  0.00     0.031 C 
ATOM     46  C   UNL A   1      37.837  31.962  33.050  1.00  0.00     0.029 A 
ATOM     47  C   UNL A   1      39.027  31.150  33.302  1.00  0.00     0.049 A 
ATOM     48  H   UNL A   1      39.994  29.879  31.967  1.00  0.00     0.167 HD
ATOM     49  C   UNL A   1      41.865  27.161  29.087  1.00  0.00     0.037 A 
ATOM     50  C   UNL A   1      39.714  31.093  34.459  1.00  0.00     0.037 A 
ATOM     51  C   UNL A   1      42.705  27.100  30.252  1.00  0.00     0.049 A 
ATOM     52  C   UNL A   1      40.926  30.202  34.558  1.00  0.00     0.074 A 
ATOM     53  C   UNL A   1      43.881  26.395  30.433  1.00  0.00     0.029 A 
ATOM     54  N   UNL A   1      42.449  27.766  31.442  1.00  0.00    -0.354 N 
ATOM     55  N   UNL A   1      41.473  29.441  33.641  1.00  0.00    -0.248 NA
ATOM     56  C   UNL A   1      41.614  30.163  35.857  1.00  0.00     0.031 C 
ATOM     57  C   UNL A   1      44.316  26.601  31.748  1.00  0.00     0.029 A 
ATOM     58  C   UNL A   1      43.431  27.467  32.371  1.00  0.00     0.049 A 
ATOM     59  H   UNL A   1      41.682  28.363  31.601  1.00  0.00     0.167 HD
ATOM     60  C   UNL A   1      42.579  28.854  34.242  1.00  0.00     0.074 A 
ATOM     61  C   UNL A   1      42.633  29.355  35.599  1.00  0.00     0.031 C 
ATOM     62  C   UNL A   1      43.472  27.980  33.716  1.00  0.00     0.037 A 
BRANCH  49  63
ATOM     63  C   UNL A   1      42.247  26.342  27.892  1.00  0.00     0.064 A 
ATOM     64  C   UNL A   1      43.154  26.820  26.936  1.00  0.00     0.173 A 
ATOM     65  C   UNL A   1      41.723  25.053  27.717  1.00  0.00     0.173 A 
ATOM     66  F   UNL A   1      43.670  28.053  27.051  1.00  0.00    -0.203 F 
ATOM     67  C   UNL A   1      43.509  26.043  25.836  1.00  0.00     0.198 A 
ATOM     68  C   UNL A   1      42.097  24.270  26.629  1.00  0.00     0.198 A 
ATOM     69  F   UNL A   1      40.852  24.551  28.606  1.00  0.00    -0.203 F 
ATOM     70  F   UNL A   1      44.350  26.534  24.914  1.00  0.00    -0.200 F 
ATOM     71  C   UNL A   1      42.985  24.768  25.687  1.00  0.00     0.200 A 
ATOM     72  F   UNL A   1      41.596  23.035  26.489  1.00  0.00    -0.200 F 
ATOM     73  F   UNL A   1      43.331  24.020  24.630  1.00  0.00    -0.200 F 
ENDBRANCH  49  63
BRANCH  50  74
ATOM     74  C   UNL A   1      39.267  31.891  35.627  1.00  0.00     0.064 A 
ATOM     75  C   UNL A   1      39.784  33.170  35.869  1.00  0.00     0.173 A 
ATOM     76  C   UNL A   1      38.333  31.379  36.540  1.00  0.00     0.173 A 
ATOM     77  F   UNL A   1      40.701  33.689  35.039  1.00  0.00    -0.203 F 
ATOM     78  C   UNL A   1      39.398  33.902  36.991  1.00  0.00     0.198 A 
ATOM     79  C   UNL A   1      37.929  32.120  37.648  1.00  0.00     0.198 A 
ATOM     80  F   UNL A   1      37.814  30.156  36.355  1.00  0.00    -0.203 F 
ATOM     81  F   UNL A   1      39.943  35.103  37.225  1.00  0.00    -0.200 F 
ATOM     82  C   UNL A   1      38.468  33.378  37.876  1.00  0.00     0.200 A 
ATOM     83  F   UNL A   1      37.028  31.613  38.498  1.00  0.00    -0.200 F 
ATOM     84  F   UNL A   1      38.100  34.080  38.957  1.00  0.00    -0.200 F 
ENDBRANCH  50  74
BRANCH  62  85
ATOM     85  C   UNL A   1      44.596  27.527  34.599  1.00  0.00     0.064 A 
ATOM     86  C   UNL A   1      45.819  28.212  34.639  1.00  0.00     0.173 A 
ATOM     87  C   UNL A   1      44.430  26.425  35.451  1.00  0.00     0.173 A 
ATOM     88  F   UNL A   1      46.029  29.263  33.833  1.00  0.00    -0.203 F 
ATOM     89  C   UNL A   1      46.842  27.798  35.487  1.00  0.00     0.198 A 
ATOM     90  C   UNL A   1      45.447  26.028  36.315  1.00  0.00     0.198 A 
ATOM     91  F   UNL A   1      43.276  25.740  35.454  1.00  0.00    -0.203 F 
ATOM     92  F   UNL A   1      48.017  28.444  35.482  1.00  0.00    -0.200 F 
ATOM     93  C   UNL A   1      46.653  26.712  36.328  1.00  0.00     0.200 A 
ATOM     94  F   UNL A   1      45.258  24.986  37.136  1.00  0.00    -0.200 F 
ATOM     95  F   UNL A   1      47.637  26.319  37.150  1.00  0.00    -0.200 F 
ENDBRANCH  62  85
ENDBRANCH  36  37
ENDBRANCH  29  31
ENDBRANCH  28  29
ENDBRANCH  27  28
ENDBRANCH  26  27
ENDBRANCH  25  26
ENDBRANCH  24  25
ENDBRANCH   1  24
TORSDOF 19
ENDMDL
MODEL 2
REMARK VINA RESULT:     -11.2      3.466      8.330
REMARK SMILES Cn1ncc(C(=O)OCCOCCOCCOC(=O)c2ccc(-c3c4nc(c(-c5c(F)c(F)c(F)c(F)c5F)c5ccc([nH]5)c(-c5c(F)c(F)c(F)c(F)c5F)c5nc(c(-c6c(F)c(F)c(F)c(F)c6F)c6ccc3[nH]6)C=C5)C=C4)cc2)c1C(=O)Nc1ccccn1
REMARK SMILES IDX 12 1 11 2 10 3 9 4 8 5 6 6 7 7 5 8 1 9 2 10 3 11 83 12 4 13
REMARK SMILES IDX 84 14 85 15 86 16 87 18 88 19 92 20 89 21 91 22 90 23 13 24
REMARK SMILES IDX 14 25 15 26 16 27 17 28 18 29 19 30 20 31 21 32 82 33 22 34
REMARK SMILES IDX 81 35 23 36 24 37 25 38 75 39 26 40 80 41 74 42 76 43 27 44
REMARK SMILES IDX 79 45 73 46 72 47 28 49 60 50 40 51 59 52 41 53 44 54 58 55
REMARK SMILES IDX 77 56 42 57 43 58 57 60 78 61 45 62 29 63 30 64 38 65 31 66
REMARK SMILES IDX 32 67 36 68 39 69 33 70 34 71 37 72 35 73 61 74 62 75 70 76
REMARK SMILES IDX 63 77 64 78 68 79 71 80 65 81 66 82 69 83 67 84 46 85 47 86
REMARK SMILES IDX 55 87 48 88 49 89 53 90 56 91 50 92 51 93 54 94 52 95
REMARK H PARENT 86 17 76 48 44 59
REMARK Flexibility Score: inf
ROOT
ATOM      1  C   UNL A   1      40.032  21.103  26.395  1.00  0.00     0.188 C 
ENDROOT
BRANCH   1   2
ATOM      2  O   UNL A   1      39.726  22.369  25.829  1.00  0.00    -0.376 OA
BRANCH   2   3
ATOM      3  C   UNL A   1      38.793  23.223  26.487  1.00  0.00     0.202 C 
BRANCH   3   4
ATOM      4  C   UNL A   1      37.610  23.708  25.659  1.00  0.00     0.261 C 
BRANCH   4   5
ATOM      5  O   UNL A   1      36.458  22.903  25.936  1.00  0.00    -0.460 OA
BRANCH   5   6
ATOM      6  C   UNL A   1      36.170  21.973  24.985  1.00  0.00     0.342 C 
ATOM      7  O   UNL A   1      36.815  20.964  24.775  1.00  0.00    -0.246 OA
BRANCH   6   8
ATOM      8  C   UNL A   1      34.873  22.191  24.371  1.00  0.00     0.111 A 
ATOM      9  C   UNL A   1      31.629  23.472  24.336  1.00  0.00     0.174 C 
ATOM     10  N   UNL A   1      32.796  22.677  24.023  1.00  0.00    -0.262 N 
ATOM     11  N   UNL A   1      33.395  22.968  22.845  1.00  0.00    -0.180 NA
ATOM     12  C   UNL A   1      33.588  21.910  24.858  1.00  0.00     0.140 A 
ATOM     13  C   UNL A   1      34.684  22.809  23.124  1.00  0.00     0.151 A 
BRANCH  12  14
ATOM     14  C   UNL A   1      33.295  21.193  26.087  1.00  0.00     0.275 C 
ATOM     15  O   UNL A   1      33.109  21.814  27.139  1.00  0.00    -0.267 OA
ATOM     16  N   UNL A   1      33.098  19.844  26.188  1.00  0.00    -0.305 N 
ATOM     17  H   UNL A   1      32.749  19.583  27.071  1.00  0.00     0.171 HD
BRANCH  16  18
ATOM     18  C   UNL A   1      33.270  18.759  25.352  1.00  0.00     0.132 A 
ATOM     19  C   UNL A   1      34.425  18.501  24.632  1.00  0.00     0.047 A 
ATOM     20  N   UNL A   1      32.175  17.975  25.287  1.00  0.00    -0.239 NA
ATOM     21  C   UNL A   1      34.413  17.427  23.738  1.00  0.00     0.005 A 
ATOM     22  C   UNL A   1      32.174  16.969  24.389  1.00  0.00     0.113 A 
ATOM     23  C   UNL A   1      33.257  16.665  23.588  1.00  0.00     0.020 A 
ENDBRANCH  16  18
ENDBRANCH  12  14
ENDBRANCH   6   8
ENDBRANCH   5   6
ENDBRANCH   4   5
ENDBRANCH   3   4
ENDBRANCH   2   3
ENDBRANCH   1   2
BRANCH   1  24
ATOM     24  C   UNL A   1      41.197  20.943  27.396  1.00  0.00     0.188 C 
BRANCH  24  25
ATOM     25  O   UNL A   1      42.419  20.343  26.998  1.00  0.00    -0.376 OA
BRANCH  25  26
ATOM     26  C   UNL A   1      42.947  20.630  25.710  1.00  0.00     0.202 C 
BRANCH  26  27
ATOM     27  C   UNL A   1      43.830  21.867  25.579  1.00  0.00     0.261 C 
BRANCH  27  28
ATOM     28  O   UNL A   1      43.080  23.013  25.148  1.00  0.00    -0.460 OA
BRANCH  28  29
ATOM     29  C   UNL A   1      43.736  24.192  25.243  1.00  0.00     0.338 C 
ATOM     30  O   UNL A   1      44.719  24.552  24.621  1.00  0.00    -0.246 OA
BRANCH  29  31
ATOM     31  C   UNL A   1      42.989  25.096  26.135  1.00  0.00     0.060 A 
ATOM     32  C   UNL A   1      43.350  26.449  26.142  1.00  0.00     0.016 A 
ATOM     33  C   UNL A   1      42.013  24.611  27.007  1.00  0.00     0.016 A 
ATOM     34  C   UNL A   1      42.768  27.317  27.061  1.00  0.00     0.010 A 
ATOM     35  C   UNL A   1      41.443  25.479  27.940  1.00  0.00     0.010 A 
ATOM     36  C   UNL A   1      41.845  26.826  27.994  1.00  0.00    -0.014 A 
BRANCH  36  37
ATOM     37  C   UNL A   1      41.428  27.679  29.129  1.00  0.00     0.031 A 
ATOM     38  C   UNL A   1      42.200  27.598  30.416  1.00  0.00     0.074 A 
ATOM     39  C   UNL A   1      40.389  28.522  29.013  1.00  0.00     0.049 A 
ATOM     40  N   UNL A   1      41.998  28.222  31.548  1.00  0.00    -0.248 NA
ATOM     41  C   UNL A   1      43.357  26.688  30.428  1.00  0.00     0.031 C 
ATOM     42  C   UNL A   1      39.589  28.715  27.807  1.00  0.00     0.029 A 
ATOM     43  N   UNL A   1      39.825  29.368  29.935  1.00  0.00    -0.354 N 
ATOM     44  C   UNL A   1      43.001  27.785  32.403  1.00  0.00     0.074 A 
ATOM     45  C   UNL A   1      43.796  26.823  31.671  1.00  0.00     0.031 C 
ATOM     46  C   UNL A   1      38.623  29.613  28.066  1.00  0.00     0.029 A 
ATOM     47  C   UNL A   1      38.724  30.036  29.462  1.00  0.00     0.049 A 
ATOM     48  H   UNL A   1      40.178  29.485  30.847  1.00  0.00     0.167 HD
ATOM     49  C   UNL A   1      43.242  28.159  33.681  1.00  0.00     0.037 A 
ATOM     50  C   UNL A   1      37.883  30.875  30.097  1.00  0.00     0.037 A 
ATOM     51  C   UNL A   1      42.446  29.107  34.413  1.00  0.00     0.049 A 
ATOM     52  C   UNL A   1      38.126  31.215  31.545  1.00  0.00     0.074 A 
ATOM     53  C   UNL A   1      42.620  29.564  35.707  1.00  0.00     0.029 A 
ATOM     54  N   UNL A   1      41.316  29.737  33.913  1.00  0.00    -0.354 N 
ATOM     55  N   UNL A   1      39.095  30.823  32.337  1.00  0.00    -0.248 NA
ATOM     56  C   UNL A   1      37.155  32.113  32.186  1.00  0.00     0.031 C 
ATOM     57  C   UNL A   1      41.570  30.439  36.006  1.00  0.00     0.029 A 
ATOM     58  C   UNL A   1      40.766  30.559  34.882  1.00  0.00     0.049 A 
ATOM     59  H   UNL A   1      40.958  29.618  33.003  1.00  0.00     0.167 HD
ATOM     60  C   UNL A   1      38.866  31.443  33.557  1.00  0.00     0.074 A 
ATOM     61  C   UNL A   1      37.672  32.247  33.400  1.00  0.00     0.031 C 
ATOM     62  C   UNL A   1      39.580  31.356  34.706  1.00  0.00     0.037 A 
BRANCH  49  63
ATOM     63  C   UNL A   1      44.405  27.521  34.377  1.00  0.00     0.064 A 
ATOM     64  C   UNL A   1      45.670  28.126  34.393  1.00  0.00     0.173 A 
ATOM     65  C   UNL A   1      44.246  26.306  35.059  1.00  0.00     0.173 A 
ATOM     66  F   UNL A   1      45.875  29.280  33.742  1.00  0.00    -0.203 F 
ATOM     67  C   UNL A   1      46.740  27.527  35.053  1.00  0.00     0.198 A 
ATOM     68  C   UNL A   1      45.312  25.722  35.737  1.00  0.00     0.198 A 
ATOM     69  F   UNL A   1      43.055  25.690  35.072  1.00  0.00    -0.203 F 
ATOM     70  F   UNL A   1      47.950  28.104  35.025  1.00  0.00    -0.200 F 
ATOM     71  C   UNL A   1      46.558  26.329  35.728  1.00  0.00     0.200 A 
ATOM     72  F   UNL A   1      45.134  24.568  36.395  1.00  0.00    -0.200 F 
ATOM     73  F   UNL A   1      47.588  25.756  36.367  1.00  0.00    -0.200 F 
ENDBRANCH  49  63
BRANCH  50  74
ATOM     74  C   UNL A   1      36.718  31.445  29.374  1.00  0.00     0.064 A 
ATOM     75  C   UNL A   1      35.630  30.641  29.010  1.00  0.00     0.173 A 
ATOM     76  C   UNL A   1      36.683  32.799  29.008  1.00  0.00     0.173 A 
ATOM     77  F   UNL A   1      35.634  29.334  29.312  1.00  0.00    -0.203 F 
ATOM     78  C   UNL A   1      34.558  31.165  28.291  1.00  0.00     0.198 A 
ATOM     79  C   UNL A   1      35.600  33.328  28.311  1.00  0.00     0.198 A 
ATOM     80  F   UNL A   1      37.705  33.607  29.328  1.00  0.00    -0.203 F 
ATOM     81  F   UNL A   1      33.552  30.365  27.914  1.00  0.00    -0.200 F 
ATOM     82  C   UNL A   1      34.542  32.509  27.947  1.00  0.00     0.200 A 
ATOM     83  F   UNL A   1      35.586  34.626  27.984  1.00  0.00    -0.200 F 
ATOM     84  F   UNL A   1      33.512  33.012  27.252  1.00  0.00    -0.200 F 
ENDBRANCH  50  74
BRANCH  62  85
ATOM     85  C   UNL A   1      39.108  32.168  35.875  1.00  0.00     0.064 A 
ATOM     86  C   UNL A   1      38.248  31.630  36.843  1.00  0.00     0.173 A 
ATOM     87  C   UNL A   1      39.559  33.485  36.055  1.00  0.00     0.173 A 
ATOM     88  F   UNL A   1      37.778  30.381  36.707  1.00  0.00    -0.203 F 
ATOM     89  C   UNL A   1      37.842  32.386  37.939  1.00  0.00     0.198 A 
ATOM     90  C   UNL A   1      39.171  34.230  37.164  1.00  0.00     0.198 A 
ATOM     91  F   UNL A   1      40.388  34.043  35.159  1.00  0.00    -0.203 F 
ATOM     92  F   UNL A   1      36.989  31.865  38.832  1.00  0.00    -0.200 F 
ATOM     93  C   UNL A   1      38.309  33.682  38.102  1.00  0.00     0.200 A 
ATOM     94  F   UNL A   1      39.632  35.477  37.327  1.00  0.00    -0.200 F 
ATOM     95  F   UNL A   1      37.923  34.406  39.162  1.00  0.00    -0.200 F 
ENDBRANCH  62  85
ENDBRANCH  36  37
ENDBRANCH  29  31
ENDBRANCH  28  29
ENDBRANCH  27  28
ENDBRANCH  26  27
ENDBRANCH  25  26
ENDBRANCH  24  25
ENDBRANCH   1  24
TORSDOF 19
ENDMDL
MODEL 3
REMARK VINA RESULT:     -11.1      0.670      7.208
REMARK SMILES Cn1ncc(C(=O)OCCOCCOCCOC(=O)c2ccc(-c3c4nc(c(-c5c(F)c(F)c(F)c(F)c5F)c5ccc([nH]5)c(-c5c(F)c(F)c(F)c(F)c5F)c5nc(c(-c6c(F)c(F)c(F)c(F)c6F)c6ccc3[nH]6)C=C5)C=C4)cc2)c1C(=O)Nc1ccccn1
REMARK SMILES IDX 12 1 11 2 10 3 9 4 8 5 6 6 7 7 5 8 1 9 2 10 3 11 83 12 4 13
REMARK SMILES IDX 84 14 85 15 86 16 87 18 88 19 92 20 89 21 91 22 90 23 13 24
REMARK SMILES IDX 14 25 15 26 16 27 17 28 18 29 19 30 20 31 21 32 82 33 22 34
REMARK SMILES IDX 81 35 23 36 24 37 25 38 75 39 26 40 80 41 74 42 76 43 27 44
REMARK SMILES IDX 79 45 73 46 72 47 28 49 60 50 40 51 59 52 41 53 44 54 58 55
REMARK SMILES IDX 77 56 42 57 43 58 57 60 78 61 45 62 29 63 30 64 38 65 31 66
REMARK SMILES IDX 32 67 36 68 39 69 33 70 34 71 37 72 35 73 61 74 62 75 70 76
REMARK SMILES IDX 63 77 64 78 68 79 71 80 65 81 66 82 69 83 67 84 46 85 47 86
REMARK SMILES IDX 55 87 48 88 49 89 53 90 56 91 50 92 51 93 54 94 52 95
REMARK H PARENT 86 17 76 48 44 59
REMARK Flexibility Score: inf
ROOT
ATOM      1  C   UNL A   1      30.111  28.009  23.080  1.00  0.00     0.188 C 
ENDROOT
BRANCH   1   2
ATOM      2  O   UNL A   1      30.746  27.603  21.876  1.00  0.00    -0.376 OA
BRANCH   2   3
ATOM      3  C   UNL A   1      31.359  26.317  21.807  1.00  0.00     0.202 C 
BRANCH   3   4
ATOM      4  C   UNL A   1      31.662  25.634  23.135  1.00  0.00     0.261 C 
BRANCH   4   5
ATOM      5  O   UNL A   1      30.727  24.574  23.362  1.00  0.00    -0.460 OA
BRANCH   5   6
ATOM      6  C   UNL A   1      31.289  23.366  23.637  1.00  0.00     0.342 C 
ATOM      7  O   UNL A   1      31.812  22.636  22.817  1.00  0.00    -0.246 OA
BRANCH   6   8
ATOM      8  C   UNL A   1      31.400  23.116  25.062  1.00  0.00     0.111 A 
ATOM      9  C   UNL A   1      33.211  22.423  27.962  1.00  0.00     0.174 C 
ATOM     10  N   UNL A   1      32.119  22.556  27.022  1.00  0.00    -0.262 N 
ATOM     11  N   UNL A   1      31.258  23.569  27.274  1.00  0.00    -0.180 NA
ATOM     12  C   UNL A   1      31.992  22.042  25.745  1.00  0.00     0.140 A 
ATOM     13  C   UNL A   1      30.945  23.998  26.056  1.00  0.00     0.151 A 
BRANCH  12  14
ATOM     14  C   UNL A   1      32.529  20.846  25.120  1.00  0.00     0.275 C 
ATOM     15  O   UNL A   1      31.809  19.858  24.946  1.00  0.00    -0.267 OA
ATOM     16  N   UNL A   1      33.784  20.726  24.591  1.00  0.00    -0.305 N 
ATOM     17  H   UNL A   1      33.892  19.897  24.071  1.00  0.00     0.171 HD
BRANCH  16  18
ATOM     18  C   UNL A   1      34.937  21.486  24.609  1.00  0.00     0.132 A 
ATOM     19  C   UNL A   1      35.123  22.645  23.873  1.00  0.00     0.047 A 
ATOM     20  N   UNL A   1      35.888  20.967  25.413  1.00  0.00    -0.239 NA
ATOM     21  C   UNL A   1      36.384  23.246  23.905  1.00  0.00     0.005 A 
ATOM     22  C   UNL A   1      37.108  21.542  25.395  1.00  0.00     0.113 A 
ATOM     23  C   UNL A   1      37.407  22.667  24.653  1.00  0.00     0.020 A 
ENDBRANCH  16  18
ENDBRANCH  12  14
ENDBRANCH   6   8
ENDBRANCH   5   6
ENDBRANCH   4   5
ENDBRANCH   3   4
ENDBRANCH   2   3
ENDBRANCH   1   2
BRANCH   1  24
ATOM     24  C   UNL A   1      30.818  28.969  24.063  1.00  0.00     0.188 C 
BRANCH  24  25
ATOM     25  O   UNL A   1      32.224  29.147  24.019  1.00  0.00    -0.376 OA
BRANCH  25  26
ATOM     26  C   UNL A   1      32.908  29.571  25.189  1.00  0.00     0.202 C 
BRANCH  26  27
ATOM     27  C   UNL A   1      32.171  30.531  26.117  1.00  0.00     0.261 C 
BRANCH  27  28
ATOM     28  O   UNL A   1      32.799  30.613  27.406  1.00  0.00    -0.460 OA
BRANCH  28  29
ATOM     29  C   UNL A   1      33.606  31.684  27.581  1.00  0.00     0.338 C 
ATOM     30  O   UNL A   1      33.297  32.862  27.564  1.00  0.00    -0.246 OA
BRANCH  29  31
ATOM     31  C   UNL A   1      34.954  31.225  27.959  1.00  0.00     0.060 A 
ATOM     32  C   UNL A   1      35.132  29.857  28.199  1.00  0.00     0.016 A 
ATOM     33  C   UNL A   1      35.999  32.129  28.156  1.00  0.00     0.016 A 
ATOM     34  C   UNL A   1      36.351  29.392  28.687  1.00  0.00     0.010 A 
ATOM     35  C   UNL A   1      37.214  31.663  28.662  1.00  0.00     0.010 A 
ATOM     36  C   UNL A   1      37.381  30.300  28.964  1.00  0.00    -0.014 A 
BRANCH  36  37
ATOM     37  C   UNL A   1      38.569  29.848  29.722  1.00  0.00     0.031 A 
ATOM     38  C   UNL A   1      38.800  30.402  31.100  1.00  0.00     0.074 A 
ATOM     39  C   UNL A   1      39.421  28.951  29.200  1.00  0.00     0.049 A 
ATOM     40  N   UNL A   1      39.785  30.179  31.932  1.00  0.00    -0.248 NA
ATOM     41  C   UNL A   1      37.781  31.335  31.609  1.00  0.00     0.031 C 
ATOM     42  C   UNL A   1      39.282  28.318  27.891  1.00  0.00     0.029 A 
ATOM     43  N   UNL A   1      40.581  28.426  29.711  1.00  0.00    -0.354 N 
ATOM     44  C   UNL A   1      39.504  30.938  33.060  1.00  0.00     0.074 A 
ATOM     45  C   UNL A   1      38.272  31.649  32.799  1.00  0.00     0.031 C 
ATOM     46  C   UNL A   1      40.329  27.498  27.693  1.00  0.00     0.029 A 
ATOM     47  C   UNL A   1      41.220  27.571  28.850  1.00  0.00     0.049 A 
ATOM     48  H   UNL A   1      40.921  28.641  30.610  1.00  0.00     0.167 HD
ATOM     49  C   UNL A   1      40.207  31.026  34.213  1.00  0.00     0.037 A 
ATOM     50  C   UNL A   1      42.403  26.939  28.977  1.00  0.00     0.037 A 
ATOM     51  C   UNL A   1      41.437  30.327  34.469  1.00  0.00     0.049 A 
ATOM     52  C   UNL A   1      43.207  27.117  30.240  1.00  0.00     0.074 A 
ATOM     53  C   UNL A   1      42.216  30.339  35.613  1.00  0.00     0.029 A 
ATOM     54  N   UNL A   1      42.074  29.496  33.559  1.00  0.00    -0.354 N 
ATOM     55  N   UNL A   1      42.919  27.810  31.315  1.00  0.00    -0.248 NA
ATOM     56  C   UNL A   1      44.502  26.424  30.303  1.00  0.00     0.031 C 
ATOM     57  C   UNL A   1      43.346  29.548  35.381  1.00  0.00     0.029 A 
ATOM     58  C   UNL A   1      43.250  29.011  34.106  1.00  0.00     0.049 A 
ATOM     59  H   UNL A   1      41.739  29.284  32.658  1.00  0.00     0.167 HD
ATOM     60  C   UNL A   1      43.981  27.618  32.189  1.00  0.00     0.074 A 
ATOM     61  C   UNL A   1      44.915  26.734  31.524  1.00  0.00     0.031 C 
ATOM     62  C   UNL A   1      44.165  28.127  33.432  1.00  0.00     0.037 A 
BRANCH  49  63
ATOM     63  C   UNL A   1      39.669  31.931  35.279  1.00  0.00     0.064 A 
ATOM     64  C   UNL A   1      40.053  33.277  35.359  1.00  0.00     0.173 A 
ATOM     65  C   UNL A   1      38.737  31.455  36.212  1.00  0.00     0.173 A 
ATOM     66  F   UNL A   1      40.954  33.775  34.499  1.00  0.00    -0.203 F 
ATOM     67  C   UNL A   1      39.537  34.110  36.349  1.00  0.00     0.198 A 
ATOM     68  C   UNL A   1      38.205  32.295  37.185  1.00  0.00     0.198 A 
ATOM     69  F   UNL A   1      38.338  30.174  36.175  1.00  0.00    -0.203 F 
ATOM     70  F   UNL A   1      39.945  35.384  36.430  1.00  0.00    -0.200 F 
ATOM     71  C   UNL A   1      38.610  33.620  37.256  1.00  0.00     0.200 A 
ATOM     72  F   UNL A   1      37.305  31.823  38.058  1.00  0.00    -0.200 F 
ATOM     73  F   UNL A   1      38.110  34.424  38.205  1.00  0.00    -0.200 F 
ENDBRANCH  49  63
BRANCH  50  74
ATOM     74  C   UNL A   1      42.912  26.089  27.872  1.00  0.00     0.064 A 
ATOM     75  C   UNL A   1      43.760  26.614  26.888  1.00  0.00     0.173 A 
ATOM     76  C   UNL A   1      42.539  24.741  27.763  1.00  0.00     0.173 A 
ATOM     77  F   UNL A   1      44.120  27.906  26.936  1.00  0.00    -0.203 F 
ATOM     78  C   UNL A   1      44.202  25.829  25.826  1.00  0.00     0.198 A 
ATOM     79  C   UNL A   1      43.000  23.950  26.714  1.00  0.00     0.198 A 
ATOM     80  F   UNL A   1      41.723  24.194  28.676  1.00  0.00    -0.203 F 
ATOM     81  F   UNL A   1      44.974  26.367  24.873  1.00  0.00    -0.200 F 
ATOM     82  C   UNL A   1      43.825  24.496  25.742  1.00  0.00     0.200 A 
ATOM     83  F   UNL A   1      42.638  22.663  26.639  1.00  0.00    -0.200 F 
ATOM     84  F   UNL A   1      44.247  23.742  24.718  1.00  0.00    -0.200 F 
ENDBRANCH  50  74
BRANCH  62  85
ATOM     85  C   UNL A   1      45.409  27.722  34.165  1.00  0.00     0.064 A 
ATOM     86  C   UNL A   1      45.449  26.568  34.961  1.00  0.00     0.173 A 
ATOM     87  C   UNL A   1      46.588  28.471  34.030  1.00  0.00     0.173 A 
ATOM     88  F   UNL A   1      44.344  25.829  35.131  1.00  0.00    -0.203 F 
ATOM     89  C   UNL A   1      46.621  26.189  35.610  1.00  0.00     0.198 A 
ATOM     90  C   UNL A   1      47.764  28.075  34.662  1.00  0.00     0.198 A 
ATOM     91  F   UNL A   1      46.602  29.580  33.275  1.00  0.00    -0.203 F 
ATOM     92  F   UNL A   1      46.627  25.103  36.397  1.00  0.00    -0.200 F 
ATOM     93  C   UNL A   1      47.777  26.938  35.455  1.00  0.00     0.200 A 
ATOM     94  F   UNL A   1      48.884  28.793  34.501  1.00  0.00    -0.200 F 
ATOM     95  F   UNL A   1      48.907  26.566  36.075  1.00  0.00    -0.200 F 
ENDBRANCH  62  85
ENDBRANCH  36  37
ENDBRANCH  29  31
ENDBRANCH  28  29
ENDBRANCH  27  28
ENDBRANCH  26  27
ENDBRANCH  25  26
ENDBRANCH  24  25
ENDBRANCH   1  24
TORSDOF 19
ENDMDL
