MODEL 1
REMARK VINA RESULT:     -10.4      0.000      0.000
REMARK SMILES CC[C@H](C(=O)OCCOCCOCCOC(=O)c1ccc(-c2c3nc(c(-c4c(F)c(F)c(F)c(F)c4F)c4ccc([nH]4)c(-c4c(F)c(F)c(F)c(F)c4F)c4nc(c(-c5c(F)c(F)c(F)c(F)c5F)c5ccc2[nH]5)C=C4)C=C3)cc1)N(C)c1cc(C)ccc1[N+](=O)[O-]
REMARK SMILES IDX 10 1 9 2 8 3 7 4 6 5 4 6 5 7 3 8 2 9 1 10 81 11 82 12 83 13
REMARK SMILES IDX 84 14 89 15 85 16 88 17 86 18 87 19 90 20 91 21 92 22 11 23
REMARK SMILES IDX 12 24 13 25 14 26 15 27 16 28 17 29 18 30 19 31 80 32 20 33
REMARK SMILES IDX 79 34 21 35 22 36 23 37 73 38 24 39 78 40 72 41 74 42 25 43
REMARK SMILES IDX 77 44 71 45 70 46 26 48 58 49 38 50 57 51 39 52 42 53 56 54
REMARK SMILES IDX 75 55 40 56 41 57 55 59 76 60 43 61 27 62 28 63 36 64 29 65
REMARK SMILES IDX 30 66 34 67 37 68 31 69 32 70 35 71 33 72 59 73 60 74 68 75
REMARK SMILES IDX 61 76 62 77 66 78 69 79 63 80 64 81 67 82 65 83 44 84 45 85
REMARK SMILES IDX 53 86 46 87 47 88 51 89 54 90 48 91 49 92 52 93 50 94
REMARK H PARENT 74 47 42 58
REMARK Flexibility Score: inf
ROOT
ATOM      1  C   UNL A   1      34.003  28.160  22.387  1.00  0.00     0.188 C 
ENDROOT
BRANCH   1   2
ATOM      2  O   UNL A   1      33.825  26.917  21.752  1.00  0.00    -0.376 OA
BRANCH   2   3
ATOM      3  C   UNL A   1      32.700  26.152  22.163  1.00  0.00     0.202 C 
BRANCH   3   4
ATOM      4  C   UNL A   1      32.840  24.874  23.014  1.00  0.00     0.261 C 
BRANCH   4   5
ATOM      5  O   UNL A   1      31.681  24.058  23.280  1.00  0.00    -0.462 OA
BRANCH   5   6
ATOM      6  C   UNL A   1      31.565  23.575  24.558  1.00  0.00     0.328 C 
ATOM      7  O   UNL A   1      30.652  22.839  24.931  1.00  0.00    -0.250 OA
BRANCH   6   8
ATOM      8  C   UNL A   1      32.531  24.190  25.583  1.00  0.00     0.192 C 
BRANCH   8   9
ATOM      9  C   UNL A   1      31.920  25.236  26.527  1.00  0.00     0.034 C 
ATOM     10  C   UNL A   1      31.000  26.204  25.779  1.00  0.00     0.007 C 
ENDBRANCH   8   9
BRANCH   8  11
ATOM     11  N   UNL A   1      33.287  23.135  26.326  1.00  0.00    -0.356 N 
ATOM     12  C   UNL A   1      32.770  22.631  27.590  1.00  0.00     0.145 C 
BRANCH  11  13
ATOM     13  C   UNL A   1      34.481  22.612  25.854  1.00  0.00     0.116 A 
ATOM     14  C   UNL A   1      35.661  23.348  26.051  1.00  0.00     0.036 A 
ATOM     15  C   UNL A   1      34.624  21.364  25.212  1.00  0.00     0.292 A 
ATOM     16  C   UNL A   1      36.929  22.822  25.743  1.00  0.00    -0.049 A 
ATOM     17  C   UNL A   1      35.887  20.773  25.028  1.00  0.00     0.088 A 
ATOM     18  C   UNL A   1      38.140  23.706  25.767  1.00  0.00     0.044 C 
ATOM     19  C   UNL A   1      37.037  21.499  25.312  1.00  0.00     0.010 A 
BRANCH  15  20
ATOM     20  N   UNL A   1      33.488  20.672  24.590  1.00  0.00     0.064 N 
ATOM     21  O   UNL A   1      32.993  19.721  25.218  1.00  0.00    -0.258 OA
ATOM     22  O   UNL A   1      33.152  21.001  23.444  1.00  0.00    -0.258 OA
ENDBRANCH  15  20
ENDBRANCH  11  13
ENDBRANCH   8  11
ENDBRANCH   6   8
ENDBRANCH   5   6
ENDBRANCH   4   5
ENDBRANCH   3   4
ENDBRANCH   2   3
ENDBRANCH   1   2
BRANCH   1  23
ATOM     23  C   UNL A   1      32.816  28.503  23.278  1.00  0.00     0.188 C 
BRANCH  23  24
ATOM     24  O   UNL A   1      32.879  29.581  24.202  1.00  0.00    -0.376 OA
BRANCH  24  25
ATOM     25  C   UNL A   1      32.035  29.655  25.350  1.00  0.00     0.202 C 
BRANCH  25  26
ATOM     26  C   UNL A   1      31.964  30.923  26.221  1.00  0.00     0.261 C 
BRANCH  26  27
ATOM     27  O   UNL A   1      32.769  30.910  27.395  1.00  0.00    -0.460 OA
BRANCH  27  28
ATOM     28  C   UNL A   1      33.497  32.034  27.615  1.00  0.00     0.338 C 
ATOM     29  O   UNL A   1      33.095  33.170  27.671  1.00  0.00    -0.246 OA
BRANCH  28  30
ATOM     30  C   UNL A   1      34.846  31.575  28.041  1.00  0.00     0.060 A 
ATOM     31  C   UNL A   1      35.079  30.195  28.058  1.00  0.00     0.016 A 
ATOM     32  C   UNL A   1      35.903  32.473  28.248  1.00  0.00     0.016 A 
ATOM     33  C   UNL A   1      36.349  29.708  28.361  1.00  0.00     0.010 A 
ATOM     34  C   UNL A   1      37.178  31.986  28.547  1.00  0.00     0.010 A 
ATOM     35  C   UNL A   1      37.387  30.600  28.662  1.00  0.00    -0.014 A 
BRANCH  35  36
ATOM     36  C   UNL A   1      38.584  30.084  29.366  1.00  0.00     0.031 A 
ATOM     37  C   UNL A   1      38.811  30.552  30.779  1.00  0.00     0.074 A 
ATOM     38  C   UNL A   1      39.403  29.173  28.811  1.00  0.00     0.049 A 
ATOM     39  N   UNL A   1      39.735  30.204  31.636  1.00  0.00    -0.248 NA
ATOM     40  C   UNL A   1      37.859  31.551  31.294  1.00  0.00     0.031 C 
ATOM     41  C   UNL A   1      39.274  28.622  27.465  1.00  0.00     0.029 A 
ATOM     42  N   UNL A   1      40.506  28.543  29.331  1.00  0.00    -0.354 N 
ATOM     43  C   UNL A   1      39.470  30.935  32.787  1.00  0.00     0.074 A 
ATOM     44  C   UNL A   1      38.336  31.784  32.506  1.00  0.00     0.031 C 
ATOM     45  C   UNL A   1      40.261  27.729  27.265  1.00  0.00     0.029 A 
ATOM     46  C   UNL A   1      41.098  27.660  28.463  1.00  0.00     0.049 A 
ATOM     47  H   UNL A   1      40.841  28.709  30.242  1.00  0.00     0.167 HD
ATOM     48  C   UNL A   1      40.100  30.888  33.983  1.00  0.00     0.037 A 
ATOM     49  C   UNL A   1      42.191  26.889  28.623  1.00  0.00     0.037 A 
ATOM     50  C   UNL A   1      41.231  30.048  34.265  1.00  0.00     0.049 A 
ATOM     51  C   UNL A   1      42.917  26.903  29.948  1.00  0.00     0.074 A 
ATOM     52  C   UNL A   1      41.939  29.920  35.446  1.00  0.00     0.029 A 
ATOM     53  N   UNL A   1      41.828  29.196  33.345  1.00  0.00    -0.354 N 
ATOM     54  N   UNL A   1      42.638  27.567  31.044  1.00  0.00    -0.248 NA
ATOM     55  C   UNL A   1      44.105  26.043  30.057  1.00  0.00     0.031 C 
ATOM     56  C   UNL A   1      42.998  29.034  35.226  1.00  0.00     0.029 A 
ATOM     57  C   UNL A   1      42.910  28.558  33.927  1.00  0.00     0.049 A 
ATOM     58  H   UNL A   1      41.525  29.066  32.417  1.00  0.00     0.167 HD
ATOM     59  C   UNL A   1      43.592  27.181  31.979  1.00  0.00     0.074 A 
ATOM     60  C   UNL A   1      44.444  26.211  31.327  1.00  0.00     0.031 C 
ATOM     61  C   UNL A   1      43.748  27.591  33.264  1.00  0.00     0.037 A 
BRANCH  48  62
ATOM     62  C   UNL A   1      39.591  31.795  35.065  1.00  0.00     0.064 A 
ATOM     63  C   UNL A   1      40.036  33.121  35.189  1.00  0.00     0.173 A 
ATOM     64  C   UNL A   1      38.636  31.336  35.982  1.00  0.00     0.173 A 
ATOM     65  F   UNL A   1      40.967  33.604  34.350  1.00  0.00    -0.203 F 
ATOM     66  C   UNL A   1      39.563  33.944  36.207  1.00  0.00     0.198 A 
ATOM     67  C   UNL A   1      38.139  32.171  36.980  1.00  0.00     0.198 A 
ATOM     68  F   UNL A   1      38.180  30.077  35.912  1.00  0.00    -0.203 F 
ATOM     69  F   UNL A   1      40.042  35.188  36.340  1.00  0.00    -0.200 F 
ATOM     70  C   UNL A   1      38.609  33.472  37.096  1.00  0.00     0.200 A 
ATOM     71  F   UNL A   1      37.210  31.717  37.830  1.00  0.00    -0.200 F 
ATOM     72  F   UNL A   1      38.147  34.266  38.071  1.00  0.00    -0.200 F 
ENDBRANCH  48  62
BRANCH  49  73
ATOM     73  C   UNL A   1      42.672  26.029  27.508  1.00  0.00     0.064 A 
ATOM     74  C   UNL A   1      42.160  24.739  27.310  1.00  0.00     0.173 A 
ATOM     75  C   UNL A   1      43.683  26.468  26.640  1.00  0.00     0.173 A 
ATOM     76  F   UNL A   1      41.214  24.261  28.131  1.00  0.00    -0.203 F 
ATOM     77  C   UNL A   1      42.658  23.911  26.304  1.00  0.00     0.198 A 
ATOM     78  C   UNL A   1      44.159  25.652  25.615  1.00  0.00     0.198 A 
ATOM     79  F   UNL A   1      44.213  27.691  26.790  1.00  0.00    -0.203 F 
ATOM     80  F   UNL A   1      42.193  22.662  26.177  1.00  0.00    -0.200 F 
ATOM     81  C   UNL A   1      43.653  24.371  25.455  1.00  0.00     0.200 A 
ATOM     82  F   UNL A   1      45.115  26.103  24.792  1.00  0.00    -0.200 F 
ATOM     83  F   UNL A   1      44.134  23.575  24.491  1.00  0.00    -0.200 F 
ENDBRANCH  49  73
BRANCH  61  84
ATOM     84  C   UNL A   1      44.855  26.957  34.061  1.00  0.00     0.064 A 
ATOM     85  C   UNL A   1      44.662  25.771  34.786  1.00  0.00     0.173 A 
ATOM     86  C   UNL A   1      46.134  27.537  34.084  1.00  0.00     0.173 A 
ATOM     87  F   UNL A   1      43.459  25.179  34.803  1.00  0.00    -0.203 F 
ATOM     88  C   UNL A   1      45.694  25.217  35.540  1.00  0.00     0.198 A 
ATOM     89  C   UNL A   1      47.172  26.959  34.808  1.00  0.00     0.198 A 
ATOM     90  F   UNL A   1      46.378  28.664  33.397  1.00  0.00    -0.203 F 
ATOM     91  F   UNL A   1      45.466  24.122  36.279  1.00  0.00    -0.200 F 
ATOM     92  C   UNL A   1      46.947  25.809  35.546  1.00  0.00     0.200 A 
ATOM     93  F   UNL A   1      48.389  27.522  34.797  1.00  0.00    -0.200 F 
ATOM     94  F   UNL A   1      47.939  25.274  36.274  1.00  0.00    -0.200 F 
ENDBRANCH  61  84
ENDBRANCH  35  36
ENDBRANCH  28  30
ENDBRANCH  27  28
ENDBRANCH  26  27
ENDBRANCH  25  26
ENDBRANCH  24  25
ENDBRANCH  23  24
ENDBRANCH   1  23
TORSDOF 21
ENDMDL
MODEL 2
REMARK VINA RESULT:     -10.4      0.912      2.288
REMARK SMILES CC[C@H](C(=O)OCCOCCOCCOC(=O)c1ccc(-c2c3nc(c(-c4c(F)c(F)c(F)c(F)c4F)c4ccc([nH]4)c(-c4c(F)c(F)c(F)c(F)c4F)c4nc(c(-c5c(F)c(F)c(F)c(F)c5F)c5ccc2[nH]5)C=C4)C=C3)cc1)N(C)c1cc(C)ccc1[N+](=O)[O-]
REMARK SMILES IDX 10 1 9 2 8 3 7 4 6 5 4 6 5 7 3 8 2 9 1 10 81 11 82 12 83 13
REMARK SMILES IDX 84 14 89 15 85 16 88 17 86 18 87 19 90 20 91 21 92 22 11 23
REMARK SMILES IDX 12 24 13 25 14 26 15 27 16 28 17 29 18 30 19 31 80 32 20 33
REMARK SMILES IDX 79 34 21 35 22 36 23 37 73 38 24 39 78 40 72 41 74 42 25 43
REMARK SMILES IDX 77 44 71 45 70 46 26 48 58 49 38 50 57 51 39 52 42 53 56 54
REMARK SMILES IDX 75 55 40 56 41 57 55 59 76 60 43 61 27 62 28 63 36 64 29 65
REMARK SMILES IDX 30 66 34 67 37 68 31 69 32 70 35 71 33 72 59 73 60 74 68 75
REMARK SMILES IDX 61 76 62 77 66 78 69 79 63 80 64 81 67 82 65 83 44 84 45 85
REMARK SMILES IDX 53 86 46 87 47 88 51 89 54 90 48 91 49 92 52 93 50 94
REMARK H PARENT 74 47 42 58
REMARK Flexibility Score: inf
ROOT
ATOM      1  C   UNL A   1      33.689  28.009  23.054  1.00  0.00     0.188 C 
ENDROOT
BRANCH   1   2
ATOM      2  O   UNL A   1      33.491  27.473  21.768  1.00  0.00    -0.376 OA
BRANCH   2   3
ATOM      3  C   UNL A   1      32.561  26.402  21.665  1.00  0.00     0.202 C 
BRANCH   3   4
ATOM      4  C   UNL A   1      32.555  25.220  22.653  1.00  0.00     0.261 C 
BRANCH   4   5
ATOM      5  O   UNL A   1      33.571  24.200  22.558  1.00  0.00    -0.462 OA
BRANCH   5   6
ATOM      6  C   UNL A   1      33.315  23.032  23.229  1.00  0.00     0.328 C 
ATOM      7  O   UNL A   1      32.300  22.357  23.064  1.00  0.00    -0.250 OA
BRANCH   6   8
ATOM      8  C   UNL A   1      34.277  22.714  24.386  1.00  0.00     0.192 C 
BRANCH   8   9
ATOM      9  C   UNL A   1      35.651  23.397  24.315  1.00  0.00     0.034 C 
ATOM     10  C   UNL A   1      36.650  22.572  23.499  1.00  0.00     0.007 C 
ENDBRANCH   8   9
BRANCH   8  11
ATOM     11  N   UNL A   1      33.619  22.910  25.715  1.00  0.00    -0.356 N 
ATOM     12  C   UNL A   1      33.700  21.862  26.722  1.00  0.00     0.145 C 
BRANCH  11  13
ATOM     13  C   UNL A   1      32.923  24.066  26.031  1.00  0.00     0.116 A 
ATOM     14  C   UNL A   1      33.635  25.273  26.128  1.00  0.00     0.036 A 
ATOM     15  C   UNL A   1      31.529  24.146  26.232  1.00  0.00     0.292 A 
ATOM     16  C   UNL A   1      32.987  26.510  26.292  1.00  0.00    -0.049 A 
ATOM     17  C   UNL A   1      30.860  25.383  26.257  1.00  0.00     0.088 A 
ATOM     18  C   UNL A   1      33.781  27.745  26.601  1.00  0.00     0.044 C 
ATOM     19  C   UNL A   1      31.593  26.563  26.268  1.00  0.00     0.010 A 
BRANCH  15  20
ATOM     20  N   UNL A   1      30.718  22.964  26.552  1.00  0.00     0.064 N 
ATOM     21  O   UNL A   1      30.622  22.090  25.674  1.00  0.00    -0.258 OA
ATOM     22  O   UNL A   1      30.098  22.947  27.625  1.00  0.00    -0.258 OA
ENDBRANCH  15  20
ENDBRANCH  11  13
ENDBRANCH   8  11
ENDBRANCH   6   8
ENDBRANCH   5   6
ENDBRANCH   4   5
ENDBRANCH   3   4
ENDBRANCH   2   3
ENDBRANCH   1   2
BRANCH   1  23
ATOM     23  C   UNL A   1      32.561  28.957  23.440  1.00  0.00     0.188 C 
BRANCH  23  24
ATOM     24  O   UNL A   1      32.611  29.705  24.648  1.00  0.00    -0.376 OA
BRANCH  24  25
ATOM     25  C   UNL A   1      31.453  30.305  25.225  1.00  0.00     0.202 C 
BRANCH  25  26
ATOM     26  C   UNL A   1      31.561  31.406  26.296  1.00  0.00     0.261 C 
BRANCH  26  27
ATOM     27  O   UNL A   1      32.585  31.221  27.268  1.00  0.00    -0.460 OA
BRANCH  27  28
ATOM     28  C   UNL A   1      33.296  32.332  27.585  1.00  0.00     0.338 C 
ATOM     29  O   UNL A   1      32.882  33.458  27.711  1.00  0.00    -0.246 OA
BRANCH  28  30
ATOM     30  C   UNL A   1      34.639  31.855  28.010  1.00  0.00     0.060 A 
ATOM     31  C   UNL A   1      34.829  30.471  28.102  1.00  0.00     0.016 A 
ATOM     32  C   UNL A   1      35.728  32.728  28.145  1.00  0.00     0.016 A 
ATOM     33  C   UNL A   1      36.089  29.961  28.407  1.00  0.00     0.010 A 
ATOM     34  C   UNL A   1      36.993  32.218  28.446  1.00  0.00     0.010 A 
ATOM     35  C   UNL A   1      37.161  30.835  28.636  1.00  0.00    -0.014 A 
BRANCH  35  36
ATOM     36  C   UNL A   1      38.357  30.321  29.345  1.00  0.00     0.031 A 
ATOM     37  C   UNL A   1      38.558  30.762  30.770  1.00  0.00     0.074 A 
ATOM     38  C   UNL A   1      39.195  29.434  28.782  1.00  0.00     0.049 A 
ATOM     39  N   UNL A   1      39.476  30.409  31.633  1.00  0.00    -0.248 NA
ATOM     40  C   UNL A   1      37.585  31.736  31.294  1.00  0.00     0.031 C 
ATOM     41  C   UNL A   1      39.093  28.910  27.423  1.00  0.00     0.029 A 
ATOM     42  N   UNL A   1      40.301  28.809  29.303  1.00  0.00    -0.354 N 
ATOM     43  C   UNL A   1      39.185  31.112  32.795  1.00  0.00     0.074 A 
ATOM     44  C   UNL A   1      38.043  31.950  32.516  1.00  0.00     0.031 C 
ATOM     45  C   UNL A   1      40.095  28.036  27.218  1.00  0.00     0.029 A 
ATOM     46  C   UNL A   1      40.917  27.953  28.425  1.00  0.00     0.049 A 
ATOM     47  H   UNL A   1      40.622  28.960  30.222  1.00  0.00     0.167 HD
ATOM     48  C   UNL A   1      39.800  31.048  33.998  1.00  0.00     0.037 A 
ATOM     49  C   UNL A   1      42.019  27.195  28.584  1.00  0.00     0.037 A 
ATOM     50  C   UNL A   1      40.939  30.218  34.277  1.00  0.00     0.049 A 
ATOM     51  C   UNL A   1      42.727  27.190  29.917  1.00  0.00     0.074 A 
ATOM     52  C   UNL A   1      41.633  30.076  35.465  1.00  0.00     0.029 A 
ATOM     53  N   UNL A   1      41.560  29.395  33.348  1.00  0.00    -0.354 N 
ATOM     54  N   UNL A   1      42.424  27.827  31.023  1.00  0.00    -0.248 NA
ATOM     55  C   UNL A   1      43.926  26.346  30.025  1.00  0.00     0.031 C 
ATOM     56  C   UNL A   1      42.708  29.210  35.240  1.00  0.00     0.029 A 
ATOM     57  C   UNL A   1      42.644  28.761  33.930  1.00  0.00     0.049 A 
ATOM     58  H   UNL A   1      41.272  29.280  32.413  1.00  0.00     0.167 HD
ATOM     59  C   UNL A   1      43.371  27.435  31.963  1.00  0.00     0.074 A 
ATOM     60  C   UNL A   1      44.246  26.491  31.302  1.00  0.00     0.031 C 
ATOM     61  C   UNL A   1      43.504  27.820  33.258  1.00  0.00     0.037 A 
BRANCH  48  62
ATOM     62  C   UNL A   1      39.263  31.925  35.092  1.00  0.00     0.064 A 
ATOM     63  C   UNL A   1      39.549  33.299  35.146  1.00  0.00     0.173 A 
ATOM     64  C   UNL A   1      38.443  31.386  36.092  1.00  0.00     0.173 A 
ATOM     65  F   UNL A   1      40.348  33.860  34.225  1.00  0.00    -0.203 F 
ATOM     66  C   UNL A   1      39.054  34.094  36.176  1.00  0.00     0.198 A 
ATOM     67  C   UNL A   1      37.921  32.190  37.103  1.00  0.00     0.198 A 
ATOM     68  F   UNL A   1      38.142  30.079  36.091  1.00  0.00    -0.203 F 
ATOM     69  F   UNL A   1      39.384  35.391  36.238  1.00  0.00    -0.200 F 
ATOM     70  C   UNL A   1      38.234  33.541  37.148  1.00  0.00     0.200 A 
ATOM     71  F   UNL A   1      37.121  31.657  38.034  1.00  0.00    -0.200 F 
ATOM     72  F   UNL A   1      37.750  34.308  38.135  1.00  0.00    -0.200 F 
ENDBRANCH  48  62
BRANCH  49  73
ATOM     73  C   UNL A   1      42.526  26.365  27.457  1.00  0.00     0.064 A 
ATOM     74  C   UNL A   1      42.050  25.065  27.236  1.00  0.00     0.173 A 
ATOM     75  C   UNL A   1      43.529  26.844  26.601  1.00  0.00     0.173 A 
ATOM     76  F   UNL A   1      41.113  24.549  28.046  1.00  0.00    -0.203 F 
ATOM     77  C   UNL A   1      42.574  24.267  26.220  1.00  0.00     0.198 A 
ATOM     78  C   UNL A   1      44.031  26.058  25.565  1.00  0.00     0.198 A 
ATOM     79  F   UNL A   1      44.026  28.078  26.772  1.00  0.00    -0.203 F 
ATOM     80  F   UNL A   1      42.143  23.008  26.071  1.00  0.00    -0.200 F 
ATOM     81  C   UNL A   1      43.559  24.767  25.382  1.00  0.00     0.200 A 
ATOM     82  F   UNL A   1      44.978  26.547  24.753  1.00  0.00    -0.200 F 
ATOM     83  F   UNL A   1      44.066  23.999  24.408  1.00  0.00    -0.200 F 
ENDBRANCH  49  73
BRANCH  61  84
ATOM     84  C   UNL A   1      44.610  27.185  34.056  1.00  0.00     0.064 A 
ATOM     85  C   UNL A   1      45.853  27.813  34.233  1.00  0.00     0.173 A 
ATOM     86  C   UNL A   1      44.415  25.937  34.669  1.00  0.00     0.173 A 
ATOM     87  F   UNL A   1      46.094  29.003  33.664  1.00  0.00    -0.203 F 
ATOM     88  C   UNL A   1      46.872  27.194  34.953  1.00  0.00     0.198 A 
ATOM     89  C   UNL A   1      45.424  25.339  35.419  1.00  0.00     0.198 A 
ATOM     90  F   UNL A   1      43.242  25.298  34.545  1.00  0.00    -0.203 F 
ATOM     91  F   UNL A   1      48.073  27.783  35.049  1.00  0.00    -0.200 F 
ATOM     92  C   UNL A   1      46.655  25.961  35.548  1.00  0.00     0.200 A 
ATOM     93  F   UNL A   1      45.205  24.156  36.011  1.00  0.00    -0.200 F 
ATOM     94  F   UNL A   1      47.638  25.366  36.239  1.00  0.00    -0.200 F 
ENDBRANCH  61  84
ENDBRANCH  35  36
ENDBRANCH  28  30
ENDBRANCH  27  28
ENDBRANCH  26  27
ENDBRANCH  25  26
ENDBRANCH  24  25
ENDBRANCH  23  24
ENDBRANCH   1  23
TORSDOF 21
ENDMDL
MODEL 3
REMARK VINA RESULT:     -10.2      5.233     10.527
REMARK SMILES CC[C@H](C(=O)OCCOCCOCCOC(=O)c1ccc(-c2c3nc(c(-c4c(F)c(F)c(F)c(F)c4F)c4ccc([nH]4)c(-c4c(F)c(F)c(F)c(F)c4F)c4nc(c(-c5c(F)c(F)c(F)c(F)c5F)c5ccc2[nH]5)C=C4)C=C3)cc1)N(C)c1cc(C)ccc1[N+](=O)[O-]
REMARK SMILES IDX 10 1 9 2 8 3 7 4 6 5 4 6 5 7 3 8 2 9 1 10 81 11 82 12 83 13
REMARK SMILES IDX 84 14 89 15 85 16 88 17 86 18 87 19 90 20 91 21 92 22 11 23
REMARK SMILES IDX 12 24 13 25 14 26 15 27 16 28 17 29 18 30 19 31 80 32 20 33
REMARK SMILES IDX 79 34 21 35 22 36 23 37 73 38 24 39 78 40 72 41 74 42 25 43
REMARK SMILES IDX 77 44 71 45 70 46 26 48 58 49 38 50 57 51 39 52 42 53 56 54
REMARK SMILES IDX 75 55 40 56 41 57 55 59 76 60 43 61 27 62 28 63 36 64 29 65
REMARK SMILES IDX 30 66 34 67 37 68 31 69 32 70 35 71 33 72 59 73 60 74 68 75
REMARK SMILES IDX 61 76 62 77 66 78 69 79 63 80 64 81 67 82 65 83 44 84 45 85
REMARK SMILES IDX 53 86 46 87 47 88 51 89 54 90 48 91 49 92 52 93 50 94
REMARK H PARENT 74 47 42 58
REMARK Flexibility Score: inf
ROOT
ATOM      1  C   UNL A   1      40.046  21.787  26.779  1.00  0.00     0.188 C 
ENDROOT
BRANCH   1   2
ATOM      2  O   UNL A   1      38.985  21.629  25.867  1.00  0.00    -0.376 OA
BRANCH   2   3
ATOM      3  C   UNL A   1      38.083  22.721  25.752  1.00  0.00     0.202 C 
BRANCH   3   4
ATOM      4  C   UNL A   1      37.012  22.791  24.645  1.00  0.00     0.261 C 
BRANCH   4   5
ATOM      5  O   UNL A   1      35.791  23.525  24.873  1.00  0.00    -0.462 OA
BRANCH   5   6
ATOM      6  C   UNL A   1      34.936  23.618  23.805  1.00  0.00     0.328 C 
ATOM      7  O   UNL A   1      35.250  23.329  22.651  1.00  0.00    -0.250 OA
BRANCH   6   8
ATOM      8  C   UNL A   1      33.603  24.328  24.090  1.00  0.00     0.192 C 
BRANCH   8   9
ATOM      9  C   UNL A   1      33.336  25.597  23.268  1.00  0.00     0.034 C 
ATOM     10  C   UNL A   1      33.740  26.860  24.032  1.00  0.00     0.007 C 
ENDBRANCH   8   9
BRANCH   8  11
ATOM     11  N   UNL A   1      32.453  23.373  24.041  1.00  0.00    -0.356 N 
ATOM     12  C   UNL A   1      31.169  23.815  23.515  1.00  0.00     0.145 C 
BRANCH  11  13
ATOM     13  C   UNL A   1      32.560  22.064  24.485  1.00  0.00     0.116 A 
ATOM     14  C   UNL A   1      32.348  21.024  23.565  1.00  0.00     0.036 A 
ATOM     15  C   UNL A   1      32.903  21.676  25.798  1.00  0.00     0.292 A 
ATOM     16  C   UNL A   1      32.587  19.677  23.894  1.00  0.00    -0.049 A 
ATOM     17  C   UNL A   1      33.277  20.355  26.099  1.00  0.00     0.088 A 
ATOM     18  C   UNL A   1      32.153  18.583  22.964  1.00  0.00     0.044 C 
ATOM     19  C   UNL A   1      33.135  19.362  25.138  1.00  0.00     0.010 A 
BRANCH  15  20
ATOM     20  N   UNL A   1      32.770  22.589  26.940  1.00  0.00     0.064 N 
ATOM     21  O   UNL A   1      33.819  22.951  27.500  1.00  0.00    -0.258 OA
ATOM     22  O   UNL A   1      31.632  22.865  27.345  1.00  0.00    -0.258 OA
ENDBRANCH  15  20
ENDBRANCH  11  13
ENDBRANCH   8  11
ENDBRANCH   6   8
ENDBRANCH   5   6
ENDBRANCH   4   5
ENDBRANCH   3   4
ENDBRANCH   2   3
ENDBRANCH   1   2
BRANCH   1  23
ATOM     23  C   UNL A   1      41.365  21.312  26.183  1.00  0.00     0.188 C 
BRANCH  23  24
ATOM     24  O   UNL A   1      41.474  20.036  25.565  1.00  0.00    -0.376 OA
BRANCH  24  25
ATOM     25  C   UNL A   1      42.259  18.983  26.121  1.00  0.00     0.202 C 
BRANCH  25  26
ATOM     26  C   UNL A   1      43.520  18.454  25.412  1.00  0.00     0.261 C 
BRANCH  26  27
ATOM     27  O   UNL A   1      43.851  19.096  24.185  1.00  0.00    -0.460 OA
BRANCH  27  28
ATOM     28  C   UNL A   1      45.090  19.648  24.132  1.00  0.00     0.338 C 
ATOM     29  O   UNL A   1      46.042  19.257  23.503  1.00  0.00    -0.246 OA
BRANCH  28  30
ATOM     30  C   UNL A   1      44.976  20.979  24.785  1.00  0.00     0.060 A 
ATOM     31  C   UNL A   1      44.484  22.035  24.009  1.00  0.00     0.016 A 
ATOM     32  C   UNL A   1      45.178  21.149  26.162  1.00  0.00     0.016 A 
ATOM     33  C   UNL A   1      44.270  23.284  24.589  1.00  0.00     0.010 A 
ATOM     34  C   UNL A   1      44.959  22.399  26.746  1.00  0.00     0.010 A 
ATOM     35  C   UNL A   1      44.561  23.484  25.945  1.00  0.00    -0.014 A 
BRANCH  35  36
ATOM     36  C   UNL A   1      44.720  24.872  26.439  1.00  0.00     0.031 A 
ATOM     37  C   UNL A   1      46.083  25.499  26.311  1.00  0.00     0.074 A 
ATOM     38  C   UNL A   1      43.684  25.587  26.912  1.00  0.00     0.049 A 
ATOM     39  N   UNL A   1      46.475  26.713  26.599  1.00  0.00    -0.248 NA
ATOM     40  C   UNL A   1      47.151  24.632  25.783  1.00  0.00     0.031 C 
ATOM     41  C   UNL A   1      42.314  25.103  27.060  1.00  0.00     0.029 A 
ATOM     42  N   UNL A   1      43.633  26.888  27.346  1.00  0.00    -0.354 N 
ATOM     43  C   UNL A   1      47.826  26.754  26.280  1.00  0.00     0.074 A 
ATOM     44  C   UNL A   1      48.202  25.434  25.830  1.00  0.00     0.031 C 
ATOM     45  C   UNL A   1      41.552  26.099  27.547  1.00  0.00     0.029 A 
ATOM     46  C   UNL A   1      42.385  27.283  27.761  1.00  0.00     0.049 A 
ATOM     47  H   UNL A   1      44.418  27.483  27.359  1.00  0.00     0.167 HD
ATOM     48  C   UNL A   1      48.677  27.804  26.335  1.00  0.00     0.037 A 
ATOM     49  C   UNL A   1      41.972  28.465  28.257  1.00  0.00     0.037 A 
ATOM     50  C   UNL A   1      48.307  29.116  26.787  1.00  0.00     0.049 A 
ATOM     51  C   UNL A   1      42.957  29.604  28.370  1.00  0.00     0.074 A 
ATOM     52  C   UNL A   1      49.092  30.252  26.876  1.00  0.00     0.029 A 
ATOM     53  N   UNL A   1      47.042  29.467  27.239  1.00  0.00    -0.354 N 
ATOM     54  N   UNL A   1      44.223  29.647  28.031  1.00  0.00    -0.248 NA
ATOM     55  C   UNL A   1      42.444  30.866  28.924  1.00  0.00     0.031 C 
ATOM     56  C   UNL A   1      48.318  31.274  27.434  1.00  0.00     0.029 A 
ATOM     57  C   UNL A   1      47.032  30.795  27.630  1.00  0.00     0.049 A 
ATOM     58  H   UNL A   1      46.268  28.860  27.275  1.00  0.00     0.167 HD
ATOM     59  C   UNL A   1      44.647  30.944  28.297  1.00  0.00     0.074 A 
ATOM     60  C   UNL A   1      43.498  31.660  28.808  1.00  0.00     0.031 C 
ATOM     61  C   UNL A   1      45.877  31.495  28.133  1.00  0.00     0.037 A 
BRANCH  48  62
ATOM     62  C   UNL A   1      50.099  27.559  25.920  1.00  0.00     0.064 A 
ATOM     63  C   UNL A   1      50.493  27.598  24.573  1.00  0.00     0.173 A 
ATOM     64  C   UNL A   1      51.082  27.295  26.884  1.00  0.00     0.173 A 
ATOM     65  F   UNL A   1      49.586  27.824  23.609  1.00  0.00    -0.203 F 
ATOM     66  C   UNL A   1      51.813  27.355  24.205  1.00  0.00     0.198 A 
ATOM     67  C   UNL A   1      52.408  27.085  26.516  1.00  0.00     0.198 A 
ATOM     68  F   UNL A   1      50.758  27.242  28.184  1.00  0.00    -0.203 F 
ATOM     69  F   UNL A   1      52.156  27.342  22.910  1.00  0.00    -0.200 F 
ATOM     70  C   UNL A   1      52.771  27.107  25.177  1.00  0.00     0.200 A 
ATOM     71  F   UNL A   1      53.334  26.857  27.457  1.00  0.00    -0.200 F 
ATOM     72  F   UNL A   1      54.044  26.881  24.824  1.00  0.00    -0.200 F 
ENDBRANCH  48  62
BRANCH  49  73
ATOM     73  C   UNL A   1      40.557  28.645  28.682  1.00  0.00     0.064 A 
ATOM     74  C   UNL A   1      40.149  28.365  29.994  1.00  0.00     0.173 A 
ATOM     75  C   UNL A   1      39.576  29.065  27.771  1.00  0.00     0.173 A 
ATOM     76  F   UNL A   1      41.043  27.931  30.895  1.00  0.00    -0.203 F 
ATOM     77  C   UNL A   1      38.811  28.473  30.372  1.00  0.00     0.198 A 
ATOM     78  C   UNL A   1      38.244  29.203  28.158  1.00  0.00     0.198 A 
ATOM     79  F   UNL A   1      39.911  29.339  26.502  1.00  0.00    -0.203 F 
ATOM     80  F   UNL A   1      38.440  28.141  31.616  1.00  0.00    -0.200 F 
ATOM     81  C   UNL A   1      37.862  28.898  29.455  1.00  0.00     0.200 A 
ATOM     82  F   UNL A   1      37.330  29.621  27.271  1.00  0.00    -0.200 F 
ATOM     83  F   UNL A   1      36.575  28.998  29.818  1.00  0.00    -0.200 F 
ENDBRANCH  49  73
BRANCH  61  84
ATOM     84  C   UNL A   1      46.031  32.953  28.467  1.00  0.00     0.064 A 
ATOM     85  C   UNL A   1      46.412  33.386  29.746  1.00  0.00     0.173 A 
ATOM     86  C   UNL A   1      45.810  33.932  27.484  1.00  0.00     0.173 A 
ATOM     87  F   UNL A   1      46.628  32.493  30.724  1.00  0.00    -0.203 F 
ATOM     88  C   UNL A   1      46.520  34.743  30.041  1.00  0.00     0.198 A 
ATOM     89  C   UNL A   1      45.957  35.285  27.773  1.00  0.00     0.198 A 
ATOM     90  F   UNL A   1      45.458  33.574  26.240  1.00  0.00    -0.203 F 
ATOM     91  F   UNL A   1      46.817  35.133  31.289  1.00  0.00    -0.200 F 
ATOM     92  C   UNL A   1      46.297  35.690  29.054  1.00  0.00     0.200 A 
ATOM     93  F   UNL A   1      45.760  36.199  26.812  1.00  0.00    -0.200 F 
ATOM     94  F   UNL A   1      46.401  36.996  29.340  1.00  0.00    -0.200 F 
ENDBRANCH  61  84
ENDBRANCH  35  36
ENDBRANCH  28  30
ENDBRANCH  27  28
ENDBRANCH  26  27
ENDBRANCH  25  26
ENDBRANCH  24  25
ENDBRANCH  23  24
ENDBRANCH   1  23
TORSDOF 21
ENDMDL
