MODEL 1
REMARK VINA RESULT:     -13.2      0.000      0.000
REMARK SMILES Cc1ccc(Cn2c(C)c(C[NH2+]Cc3ccco3)c(C(=O)OCCOCCOCCOC(=O)c3ccc(-c4c5nc(c(-c6c(F)c(F)c(F)c(F)c6F)c6ccc([nH]6)c(-c6c(F)c(F)c(F)c(F)c6F)c6nc(c(-c7c(F)c(F)c(F)c(F)c7F)c7ccc4[nH]7)C=C6)C=C5)cc3)c2C)cc1
REMARK SMILES IDX 26 1 25 2 24 3 23 4 22 5 20 6 21 7 19 8 7 9 8 10 97 11 9 12
REMARK SMILES IDX 10 13 98 14 6 15 5 16 1 17 2 18 3 19 100 20 4 21 99 22 11 23
REMARK SMILES IDX 12 24 13 27 14 28 15 29 18 30 16 31 17 32 27 33 28 34 29 35
REMARK SMILES IDX 30 36 31 37 32 38 33 39 34 40 35 41 96 42 36 43 95 44 37 45
REMARK SMILES IDX 38 46 39 47 89 48 40 49 94 50 88 51 90 52 41 53 93 54 87 55
REMARK SMILES IDX 86 56 42 58 74 59 54 60 73 61 55 62 58 63 72 64 91 65 56 66
REMARK SMILES IDX 57 67 71 69 92 70 59 71 43 72 44 73 52 74 45 75 46 76 50 77
REMARK SMILES IDX 53 78 47 79 48 80 51 81 49 82 75 83 76 84 84 85 77 86 78 87
REMARK SMILES IDX 82 88 85 89 79 90 80 91 83 92 81 93 60 94 61 95 69 96 62 97
REMARK SMILES IDX 63 98 67 99 70 100 64 101 65 102 68 103 66 104
REMARK H PARENT 12 25 12 26 90 57 58 68
REMARK Flexibility Score: inf
ROOT
ATOM      1  C   UNL A   1      34.026  31.822  28.159  1.00  0.00     0.188 C 
ENDROOT
BRANCH   1   2
ATOM      2  O   UNL A   1      34.368  30.794  27.212  1.00  0.00    -0.376 OA
BRANCH   2   3
ATOM      3  C   UNL A   1      33.542  30.049  26.302  1.00  0.00     0.202 C 
BRANCH   3   4
ATOM      4  C   UNL A   1      33.582  28.374  25.766  1.00  0.00     0.261 C 
BRANCH   4   5
ATOM      5  O   UNL A   1      33.215  26.857  26.500  1.00  0.00    -0.460 OA
BRANCH   5   6
ATOM      6  C   UNL A   1      32.448  25.614  26.302  1.00  0.00     0.340 C 
ATOM      7  O   UNL A   1      31.412  25.280  26.861  1.00  0.00    -0.246 OA
BRANCH   6   8
ATOM      8  C   UNL A   1      32.942  24.558  25.426  1.00  0.00     0.089 A 
ATOM      9  N   UNL A   1      32.557  22.494  24.833  1.00  0.00    -0.343 N 
ATOM     10  C   UNL A   1      32.807  23.167  23.642  1.00  0.00     0.025 A 
ATOM     11  C   UNL A   1      33.043  23.262  25.877  1.00  0.00     0.030 A 
ATOM     12  C   UNL A   1      32.738  22.569  22.275  1.00  0.00     0.065 C 
ATOM     13  C   UNL A   1      32.990  24.520  23.951  1.00  0.00     0.042 A 
ATOM     14  C   UNL A   1      33.254  22.843  27.281  1.00  0.00     0.065 C 
BRANCH   9  15
ATOM     15  C   UNL A   1      31.841  21.219  24.991  1.00  0.00     0.157 C 
BRANCH  15  16
ATOM     16  C   UNL A   1      32.580  19.996  24.452  1.00  0.00    -0.028 A 
ATOM     17  C   UNL A   1      34.567  16.405  23.003  1.00  0.00     0.044 C 
ATOM     18  C   UNL A   1      33.883  17.637  23.519  1.00  0.00    -0.051 A 
ATOM     19  C   UNL A   1      32.691  18.066  22.942  1.00  0.00     0.004 A 
ATOM     20  C   UNL A   1      34.431  18.399  24.557  1.00  0.00     0.004 A 
ATOM     21  C   UNL A   1      32.037  19.203  23.429  1.00  0.00     0.006 A 
ATOM     22  C   UNL A   1      33.796  19.570  25.009  1.00  0.00     0.006 A 
ENDBRANCH  15  16
ENDBRANCH   9  15
BRANCH  13  23
ATOM     23  C   UNL A   1      32.980  25.645  22.885  1.00  0.00     0.300 C 
BRANCH  23  24
ATOM     24  N   UNL A   1      31.813  26.542  23.050  1.00  0.00    -0.336 N 
ATOM     25  H   UNL A   1      31.661  26.677  24.050  1.00  0.00     0.346 HD
ATOM     26  H   UNL A   1      31.038  26.082  22.573  1.00  0.00     0.346 HD
BRANCH  24  27
ATOM     27  C   UNL A   1      31.935  27.879  22.425  1.00  0.00     0.337 C 
BRANCH  27  28
ATOM     28  C   UNL A   1      30.813  28.860  22.687  1.00  0.00     0.157 A 
ATOM     29  C   UNL A   1      30.353  29.485  23.840  1.00  0.00     0.052 A 
ATOM     30  O   UNL A   1      30.054  29.279  21.625  1.00  0.00    -0.463 OA
ATOM     31  C   UNL A   1      29.309  30.367  23.450  1.00  0.00     0.042 A 
ATOM     32  C   UNL A   1      29.164  30.201  22.092  1.00  0.00     0.195 A 
ENDBRANCH  27  28
ENDBRANCH  24  27
ENDBRANCH  23  24
ENDBRANCH  13  23
ENDBRANCH   6   8
ENDBRANCH   5   6
ENDBRANCH   4   5
ENDBRANCH   3   4
ENDBRANCH   2   3
ENDBRANCH   1   2
BRANCH   1  33
ATOM     33  C   UNL A   1      34.445  33.302  28.106  1.00  0.00     0.188 C 
BRANCH  33  34
ATOM     34  O   UNL A   1      33.382  34.200  28.361  1.00  0.00    -0.376 OA
BRANCH  34  35
ATOM     35  C   UNL A   1      33.780  35.506  28.781  1.00  0.00     0.202 C 
BRANCH  35  36
ATOM     36  C   UNL A   1      32.897  36.187  29.861  1.00  0.00     0.261 C 
BRANCH  36  37
ATOM     37  O   UNL A   1      32.510  35.269  30.912  1.00  0.00    -0.460 OA
BRANCH  37  38
ATOM     38  C   UNL A   1      32.893  35.578  32.196  1.00  0.00     0.338 C 
ATOM     39  O   UNL A   1      32.391  36.462  32.873  1.00  0.00    -0.246 OA
BRANCH  38  40
ATOM     40  C   UNL A   1      34.167  34.859  32.524  1.00  0.00     0.060 A 
ATOM     41  C   UNL A   1      35.383  35.414  32.934  1.00  0.00     0.016 A 
ATOM     42  C   UNL A   1      34.262  33.620  32.020  1.00  0.00     0.016 A 
ATOM     43  C   UNL A   1      36.680  34.758  32.671  1.00  0.00     0.010 A 
ATOM     44  C   UNL A   1      35.499  33.322  31.460  1.00  0.00     0.010 A 
ATOM     45  C   UNL A   1      36.822  33.679  31.811  1.00  0.00    -0.014 A 
BRANCH  45  46
ATOM     46  C   UNL A   1      38.249  32.980  31.236  1.00  0.00     0.031 A 
ATOM     47  C   UNL A   1      38.612  31.562  30.309  1.00  0.00     0.074 A 
ATOM     48  C   UNL A   1      39.409  33.577  31.605  1.00  0.00     0.049 A 
ATOM     49  N   UNL A   1      39.772  30.923  30.358  1.00  0.00    -0.248 NA
ATOM     50  C   UNL A   1      37.768  30.743  29.375  1.00  0.00     0.031 C 
ATOM     51  C   UNL A   1      40.749  33.307  31.081  1.00  0.00     0.029 A 
ATOM     52  N   UNL A   1      39.645  34.511  32.624  1.00  0.00    -0.354 N 
ATOM     53  C   UNL A   1      39.809  29.884  29.424  1.00  0.00     0.074 A 
ATOM     54  C   UNL A   1      38.538  29.828  28.819  1.00  0.00     0.031 C 
ATOM     55  C   UNL A   1      41.659  33.709  31.973  1.00  0.00     0.029 A 
ATOM     56  C   UNL A   1      40.950  34.246  33.109  1.00  0.00     0.049 A 
ATOM     57  H   UNL A   1      39.027  35.210  32.940  1.00  0.00     0.167 HD
ATOM     58  C   UNL A   1      40.881  29.098  29.141  1.00  0.00     0.037 A 
ATOM     59  C   UNL A   1      41.197  33.977  34.420  1.00  0.00     0.037 A 
ATOM     60  C   UNL A   1      41.988  29.389  29.996  1.00  0.00     0.049 A 
ATOM     61  C   UNL A   1      41.726  32.583  34.671  1.00  0.00     0.074 A 
ATOM     62  C   UNL A   1      43.070  30.241  29.917  1.00  0.00     0.029 A 
ATOM     63  N   UNL A   1      41.864  29.018  31.313  1.00  0.00    -0.354 N 
ATOM     64  N   UNL A   1      42.191  31.794  33.744  1.00  0.00    -0.248 NA
ATOM     65  C   UNL A   1      41.682  31.928  35.984  1.00  0.00     0.031 C 
ATOM     66  C   UNL A   1      43.562  30.427  31.238  1.00  0.00     0.029 A 
ATOM     67  C   UNL A   1      42.798  29.655  32.096  1.00  0.00     0.049 A 
ATOM     68  H   UNL A   1      41.194  28.381  31.652  1.00  0.00     0.167 HD
ATOM     69  C   UNL A   1      42.390  30.549  34.279  1.00  0.00     0.074 A 
ATOM     70  C   UNL A   1      42.105  30.686  35.690  1.00  0.00     0.031 C 
ATOM     71  C   UNL A   1      42.721  29.466  33.527  1.00  0.00     0.037 A 
BRANCH  58  72
ATOM     72  C   UNL A   1      40.908  28.220  27.913  1.00  0.00     0.064 A 
ATOM     73  C   UNL A   1      40.297  26.956  27.948  1.00  0.00     0.173 A 
ATOM     74  C   UNL A   1      41.650  28.508  26.747  1.00  0.00     0.173 A 
ATOM     75  F   UNL A   1      39.504  26.604  28.969  1.00  0.00    -0.203 F 
ATOM     76  C   UNL A   1      40.530  25.994  26.959  1.00  0.00     0.198 A 
ATOM     77  C   UNL A   1      41.934  27.525  25.791  1.00  0.00     0.198 A 
ATOM     78  F   UNL A   1      42.163  29.731  26.543  1.00  0.00    -0.203 F 
ATOM     79  F   UNL A   1      39.954  24.789  27.057  1.00  0.00    -0.200 F 
ATOM     80  C   UNL A   1      41.388  26.261  25.910  1.00  0.00     0.200 A 
ATOM     81  F   UNL A   1      42.778  27.794  24.783  1.00  0.00    -0.200 F 
ATOM     82  F   UNL A   1      41.693  25.304  25.022  1.00  0.00    -0.200 F 
ENDBRANCH  58  72
BRANCH  59  83
ATOM     83  C   UNL A   1      40.306  34.771  35.297  1.00  0.00     0.064 A 
ATOM     84  C   UNL A   1      39.180  34.109  35.838  1.00  0.00     0.173 A 
ATOM     85  C   UNL A   1      40.823  35.846  36.002  1.00  0.00     0.173 A 
ATOM     86  F   UNL A   1      38.644  33.068  35.182  1.00  0.00    -0.203 F 
ATOM     87  C   UNL A   1      38.717  34.389  37.122  1.00  0.00     0.198 A 
ATOM     88  C   UNL A   1      40.359  36.091  37.286  1.00  0.00     0.198 A 
ATOM     89  F   UNL A   1      41.908  36.506  35.569  1.00  0.00    -0.203 F 
ATOM     90  F   UNL A   1      37.752  33.642  37.675  1.00  0.00    -0.200 F 
ATOM     91  C   UNL A   1      39.347  35.354  37.871  1.00  0.00     0.200 A 
ATOM     92  F   UNL A   1      41.039  36.946  38.041  1.00  0.00    -0.200 F 
ATOM     93  F   UNL A   1      39.040  35.533  39.164  1.00  0.00    -0.200 F 
ENDBRANCH  59  83
BRANCH  71  94
ATOM     94  C   UNL A   1      43.043  28.123  34.093  1.00  0.00     0.064 A 
ATOM     95  C   UNL A   1      42.022  27.193  34.322  1.00  0.00     0.173 A 
ATOM     96  C   UNL A   1      44.308  27.829  34.640  1.00  0.00     0.173 A 
ATOM     97  F   UNL A   1      40.790  27.402  33.833  1.00  0.00    -0.203 F 
ATOM     98  C   UNL A   1      42.241  26.055  35.097  1.00  0.00     0.198 A 
ATOM     99  C   UNL A   1      44.513  26.716  35.451  1.00  0.00     0.198 A 
ATOM    100  F   UNL A   1      45.364  28.626  34.410  1.00  0.00    -0.203 F 
ATOM    101  F   UNL A   1      41.241  25.187  35.301  1.00  0.00    -0.200 F 
ATOM    102  C   UNL A   1      43.476  25.833  35.685  1.00  0.00     0.200 A 
ATOM    103  F   UNL A   1      45.709  26.518  36.024  1.00  0.00    -0.200 F 
ATOM    104  F   UNL A   1      43.666  24.771  36.479  1.00  0.00    -0.200 F 
ENDBRANCH  71  94
ENDBRANCH  45  46
ENDBRANCH  38  40
ENDBRANCH  37  38
ENDBRANCH  36  37
ENDBRANCH  35  36
ENDBRANCH  34  35
ENDBRANCH  33  34
ENDBRANCH   1  33
TORSDOF 23
ENDMDL
MODEL 2
REMARK VINA RESULT:     -13.1      4.167     10.403
REMARK SMILES Cc1ccc(Cn2c(C)c(C[NH2+]Cc3ccco3)c(C(=O)OCCOCCOCCOC(=O)c3ccc(-c4c5nc(c(-c6c(F)c(F)c(F)c(F)c6F)c6ccc([nH]6)c(-c6c(F)c(F)c(F)c(F)c6F)c6nc(c(-c7c(F)c(F)c(F)c(F)c7F)c7ccc4[nH]7)C=C6)C=C5)cc3)c2C)cc1
REMARK SMILES IDX 26 1 25 2 24 3 23 4 22 5 20 6 21 7 19 8 7 9 8 10 97 11 9 12
REMARK SMILES IDX 10 13 98 14 6 15 5 16 1 17 2 18 3 19 100 20 4 21 99 22 11 23
REMARK SMILES IDX 12 24 13 27 14 28 15 29 18 30 16 31 17 32 27 33 28 34 29 35
REMARK SMILES IDX 30 36 31 37 32 38 33 39 34 40 35 41 96 42 36 43 95 44 37 45
REMARK SMILES IDX 38 46 39 47 89 48 40 49 94 50 88 51 90 52 41 53 93 54 87 55
REMARK SMILES IDX 86 56 42 58 74 59 54 60 73 61 55 62 58 63 72 64 91 65 56 66
REMARK SMILES IDX 57 67 71 69 92 70 59 71 43 72 44 73 52 74 45 75 46 76 50 77
REMARK SMILES IDX 53 78 47 79 48 80 51 81 49 82 75 83 76 84 84 85 77 86 78 87
REMARK SMILES IDX 82 88 85 89 79 90 80 91 83 92 81 93 60 94 61 95 69 96 62 97
REMARK SMILES IDX 63 98 67 99 70 100 64 101 65 102 68 103 66 104
REMARK H PARENT 12 25 12 26 90 57 58 68
REMARK Flexibility Score: inf
ROOT
ATOM      1  C   UNL A   1      39.371  20.786  25.763  1.00  0.00     0.188 C 
ENDROOT
BRANCH   1   2
ATOM      2  O   UNL A   1      38.769  22.055  26.076  1.00  0.00    -0.376 OA
BRANCH   2   3
ATOM      3  C   UNL A   1      37.679  22.752  25.449  1.00  0.00     0.202 C 
BRANCH   3   4
ATOM      4  C   UNL A   1      36.926  22.596  23.866  1.00  0.00     0.261 C 
BRANCH   4   5
ATOM      5  O   UNL A   1      35.652  23.416  23.044  1.00  0.00    -0.460 OA
BRANCH   5   6
ATOM      6  C   UNL A   1      34.265  23.888  23.208  1.00  0.00     0.340 C 
ATOM      7  O   UNL A   1      33.612  24.567  22.426  1.00  0.00    -0.246 OA
BRANCH   6   8
ATOM      8  C   UNL A   1      33.529  23.646  24.443  1.00  0.00     0.089 A 
ATOM      9  N   UNL A   1      32.106  24.578  25.809  1.00  0.00    -0.343 N 
ATOM     10  C   UNL A   1      31.647  23.276  25.650  1.00  0.00     0.025 A 
ATOM     11  C   UNL A   1      33.429  24.626  25.404  1.00  0.00     0.030 A 
ATOM     12  C   UNL A   1      30.400  22.716  26.250  1.00  0.00     0.065 C 
ATOM     13  C   UNL A   1      32.482  22.644  24.720  1.00  0.00     0.042 A 
ATOM     14  C   UNL A   1      34.407  25.711  25.645  1.00  0.00     0.065 C 
BRANCH   9  15
ATOM     15  C   UNL A   1      31.326  25.739  26.262  1.00  0.00     0.157 C 
BRANCH  15  16
ATOM     16  C   UNL A   1      30.977  26.746  25.167  1.00  0.00    -0.028 A 
ATOM     17  C   UNL A   1      29.873  29.696  22.164  1.00  0.00     0.044 C 
ATOM     18  C   UNL A   1      30.236  28.675  23.202  1.00  0.00    -0.051 A 
ATOM     19  C   UNL A   1      31.120  29.007  24.225  1.00  0.00     0.004 A 
ATOM     20  C   UNL A   1      29.732  27.370  23.155  1.00  0.00     0.004 A 
ATOM     21  C   UNL A   1      31.450  28.067  25.208  1.00  0.00     0.006 A 
ATOM     22  C   UNL A   1      30.108  26.415  24.117  1.00  0.00     0.006 A 
ENDBRANCH  15  16
ENDBRANCH   9  15
BRANCH  13  23
ATOM     23  C   UNL A   1      32.128  21.298  24.038  1.00  0.00     0.300 C 
BRANCH  23  24
ATOM     24  N   UNL A   1      33.221  20.308  24.185  1.00  0.00    -0.336 N 
ATOM     25  H   UNL A   1      34.106  20.816  24.183  1.00  0.00     0.346 HD
ATOM     26  H   UNL A   1      33.115  19.658  23.406  1.00  0.00     0.346 HD
BRANCH  24  27
ATOM     27  C   UNL A   1      33.176  19.479  25.411  1.00  0.00     0.337 C 
BRANCH  27  28
ATOM     28  C   UNL A   1      33.321  17.984  25.229  1.00  0.00     0.157 A 
ATOM     29  C   UNL A   1      32.478  16.912  25.493  1.00  0.00     0.052 A 
ATOM     30  O   UNL A   1      34.488  17.505  24.689  1.00  0.00    -0.463 OA
ATOM     31  C   UNL A   1      33.136  15.738  25.037  1.00  0.00     0.042 A 
ATOM     32  C   UNL A   1      34.358  16.153  24.559  1.00  0.00     0.195 A 
ENDBRANCH  27  28
ENDBRANCH  24  27
ENDBRANCH  23  24
ENDBRANCH  13  23
ENDBRANCH   6   8
ENDBRANCH   5   6
ENDBRANCH   4   5
ENDBRANCH   3   4
ENDBRANCH   2   3
ENDBRANCH   1   2
BRANCH   1  33
ATOM     33  C   UNL A   1      40.643  20.188  26.391  1.00  0.00     0.188 C 
BRANCH  33  34
ATOM     34  O   UNL A   1      41.611  19.792  25.439  1.00  0.00    -0.376 OA
BRANCH  34  35
ATOM     35  C   UNL A   1      42.966  19.880  25.882  1.00  0.00     0.202 C 
BRANCH  35  36
ATOM     36  C   UNL A   1      43.745  21.163  25.481  1.00  0.00     0.261 C 
BRANCH  36  37
ATOM     37  O   UNL A   1      42.862  22.266  25.172  1.00  0.00    -0.460 OA
BRANCH  37  38
ATOM     38  C   UNL A   1      43.428  23.512  25.030  1.00  0.00     0.338 C 
ATOM     39  O   UNL A   1      44.611  23.711  24.803  1.00  0.00    -0.246 OA
BRANCH  38  40
ATOM     40  C   UNL A   1      42.444  24.559  25.457  1.00  0.00     0.060 A 
ATOM     41  C   UNL A   1      42.409  25.906  25.082  1.00  0.00     0.016 A 
ATOM     42  C   UNL A   1      41.772  24.278  26.582  1.00  0.00     0.016 A 
ATOM     43  C   UNL A   1      41.827  26.953  25.946  1.00  0.00     0.010 A 
ATOM     44  C   UNL A   1      41.659  25.345  27.466  1.00  0.00     0.010 A 
ATOM     45  C   UNL A   1      41.486  26.735  27.273  1.00  0.00    -0.014 A 
BRANCH  45  46
ATOM     46  C   UNL A   1      41.037  27.874  28.438  1.00  0.00     0.031 A 
ATOM     47  C   UNL A   1      39.758  29.036  28.561  1.00  0.00     0.074 A 
ATOM     48  C   UNL A   1      41.859  28.005  29.508  1.00  0.00     0.049 A 
ATOM     49  N   UNL A   1      39.830  30.142  29.288  1.00  0.00    -0.248 NA
ATOM     50  C   UNL A   1      38.419  29.114  27.886  1.00  0.00     0.031 C 
ATOM     51  C   UNL A   1      41.595  28.750  30.741  1.00  0.00     0.029 A 
ATOM     52  N   UNL A   1      43.178  27.560  29.678  1.00  0.00    -0.354 N 
ATOM     53  C   UNL A   1      38.611  30.825  29.279  1.00  0.00     0.074 A 
ATOM     54  C   UNL A   1      37.754  30.128  28.405  1.00  0.00     0.031 C 
ATOM     55  C   UNL A   1      42.756  29.048  31.331  1.00  0.00     0.029 A 
ATOM     56  C   UNL A   1      43.815  28.518  30.507  1.00  0.00     0.049 A 
ATOM     57  H   UNL A   1      43.580  26.746  29.298  1.00  0.00     0.167 HD
ATOM     58  C   UNL A   1      38.310  31.937  30.000  1.00  0.00     0.037 A 
ATOM     59  C   UNL A   1      44.949  29.167  30.126  1.00  0.00     0.037 A 
ATOM     60  C   UNL A   1      39.441  32.414  30.731  1.00  0.00     0.049 A 
ATOM     61  C   UNL A   1      44.775  30.659  29.960  1.00  0.00     0.074 A 
ATOM     62  C   UNL A   1      39.937  32.187  31.998  1.00  0.00     0.029 A 
ATOM     63  N   UNL A   1      40.457  32.974  29.994  1.00  0.00    -0.354 N 
ATOM     64  N   UNL A   1      43.755  31.336  30.406  1.00  0.00    -0.248 NA
ATOM     65  C   UNL A   1      45.700  31.497  29.188  1.00  0.00     0.031 C 
ATOM     66  C   UNL A   1      41.307  32.569  31.991  1.00  0.00     0.029 A 
ATOM     67  C   UNL A   1      41.614  33.059  30.735  1.00  0.00     0.049 A 
ATOM     68  H   UNL A   1      40.370  33.274  29.061  1.00  0.00     0.167 HD
ATOM     69  C   UNL A   1      43.816  32.611  29.909  1.00  0.00     0.074 A 
ATOM     70  C   UNL A   1      45.069  32.684  29.191  1.00  0.00     0.031 C 
ATOM     71  C   UNL A   1      42.812  33.513  30.065  1.00  0.00     0.037 A 
BRANCH  58  72
ATOM     72  C   UNL A   1      36.884  32.411  30.153  1.00  0.00     0.064 A 
ATOM     73  C   UNL A   1      36.334  33.280  29.196  1.00  0.00     0.173 A 
ATOM     74  C   UNL A   1      36.085  32.171  31.291  1.00  0.00     0.173 A 
ATOM     75  F   UNL A   1      36.968  33.520  28.041  1.00  0.00    -0.203 F 
ATOM     76  C   UNL A   1      35.140  33.971  29.425  1.00  0.00     0.198 A 
ATOM     77  C   UNL A   1      34.923  32.909  31.548  1.00  0.00     0.198 A 
ATOM     78  F   UNL A   1      36.446  31.255  32.204  1.00  0.00    -0.203 F 
ATOM     79  F   UNL A   1      34.675  34.818  28.497  1.00  0.00    -0.200 F 
ATOM     80  C   UNL A   1      34.463  33.825  30.621  1.00  0.00     0.200 A 
ATOM     81  F   UNL A   1      34.282  32.766  32.718  1.00  0.00    -0.200 F 
ATOM     82  F   UNL A   1      33.377  34.567  30.881  1.00  0.00    -0.200 F 
ENDBRANCH  58  72
BRANCH  59  83
ATOM     83  C   UNL A   1      45.829  28.271  29.340  1.00  0.00     0.064 A 
ATOM     84  C   UNL A   1      46.645  27.373  30.066  1.00  0.00     0.173 A 
ATOM     85  C   UNL A   1      45.465  27.915  28.052  1.00  0.00     0.173 A 
ATOM     86  F   UNL A   1      47.027  27.685  31.314  1.00  0.00    -0.203 F 
ATOM     87  C   UNL A   1      46.919  26.092  29.593  1.00  0.00     0.198 A 
ATOM     88  C   UNL A   1      45.730  26.626  27.612  1.00  0.00     0.198 A 
ATOM     89  F   UNL A   1      44.666  28.699  27.311  1.00  0.00    -0.203 F 
ATOM     90  F   UNL A   1      47.559  25.204  30.366  1.00  0.00    -0.200 F 
ATOM     91  C   UNL A   1      46.412  25.699  28.377  1.00  0.00     0.200 A 
ATOM     92  F   UNL A   1      45.149  26.219  26.491  1.00  0.00    -0.200 F 
ATOM     93  F   UNL A   1      46.511  24.426  27.968  1.00  0.00    -0.200 F 
ENDBRANCH  59  83
BRANCH  71  94
ATOM     94  C   UNL A   1      42.892  34.938  29.624  1.00  0.00     0.064 A 
ATOM     95  C   UNL A   1      42.902  35.252  28.259  1.00  0.00     0.173 A 
ATOM     96  C   UNL A   1      43.207  35.978  30.521  1.00  0.00     0.173 A 
ATOM     97  F   UNL A   1      42.614  34.315  27.344  1.00  0.00    -0.203 F 
ATOM     98  C   UNL A   1      43.255  36.526  27.814  1.00  0.00     0.198 A 
ATOM     99  C   UNL A   1      43.601  37.236  30.072  1.00  0.00     0.198 A 
ATOM    100  F   UNL A   1      43.151  35.787  31.849  1.00  0.00    -0.203 F 
ATOM    101  F   UNL A   1      43.259  36.792  26.501  1.00  0.00    -0.200 F 
ATOM    102  C   UNL A   1      43.632  37.506  28.718  1.00  0.00     0.200 A 
ATOM    103  F   UNL A   1      43.976  38.172  30.956  1.00  0.00    -0.200 F 
ATOM    104  F   UNL A   1      44.029  38.709  28.283  1.00  0.00    -0.200 F 
ENDBRANCH  71  94
ENDBRANCH  45  46
ENDBRANCH  38  40
ENDBRANCH  37  38
ENDBRANCH  36  37
ENDBRANCH  35  36
ENDBRANCH  34  35
ENDBRANCH  33  34
ENDBRANCH   1  33
TORSDOF 23
ENDMDL
MODEL 3
REMARK VINA RESULT:     -12.7      4.855     11.330
REMARK SMILES Cc1ccc(Cn2c(C)c(C[NH2+]Cc3ccco3)c(C(=O)OCCOCCOCCOC(=O)c3ccc(-c4c5nc(c(-c6c(F)c(F)c(F)c(F)c6F)c6ccc([nH]6)c(-c6c(F)c(F)c(F)c(F)c6F)c6nc(c(-c7c(F)c(F)c(F)c(F)c7F)c7ccc4[nH]7)C=C6)C=C5)cc3)c2C)cc1
REMARK SMILES IDX 26 1 25 2 24 3 23 4 22 5 20 6 21 7 19 8 7 9 8 10 97 11 9 12
REMARK SMILES IDX 10 13 98 14 6 15 5 16 1 17 2 18 3 19 100 20 4 21 99 22 11 23
REMARK SMILES IDX 12 24 13 27 14 28 15 29 18 30 16 31 17 32 27 33 28 34 29 35
REMARK SMILES IDX 30 36 31 37 32 38 33 39 34 40 35 41 96 42 36 43 95 44 37 45
REMARK SMILES IDX 38 46 39 47 89 48 40 49 94 50 88 51 90 52 41 53 93 54 87 55
REMARK SMILES IDX 86 56 42 58 74 59 54 60 73 61 55 62 58 63 72 64 91 65 56 66
REMARK SMILES IDX 57 67 71 69 92 70 59 71 43 72 44 73 52 74 45 75 46 76 50 77
REMARK SMILES IDX 53 78 47 79 48 80 51 81 49 82 75 83 76 84 84 85 77 86 78 87
REMARK SMILES IDX 82 88 85 89 79 90 80 91 83 92 81 93 60 94 61 95 69 96 62 97
REMARK SMILES IDX 63 98 67 99 70 100 64 101 65 102 68 103 66 104
REMARK H PARENT 12 25 12 26 90 57 58 68
REMARK Flexibility Score: inf
ROOT
ATOM      1  C   UNL A   1      39.831  20.207  25.890  1.00  0.00     0.188 C 
ENDROOT
BRANCH   1   2
ATOM      2  O   UNL A   1      39.125  21.418  26.210  1.00  0.00    -0.376 OA
BRANCH   2   3
ATOM      3  C   UNL A   1      38.193  22.190  25.434  1.00  0.00     0.202 C 
BRANCH   3   4
ATOM      4  C   UNL A   1      36.665  21.779  24.665  1.00  0.00     0.261 C 
BRANCH   4   5
ATOM      5  O   UNL A   1      35.662  22.533  23.482  1.00  0.00    -0.460 OA
BRANCH   5   6
ATOM      6  C   UNL A   1      34.335  23.147  23.290  1.00  0.00     0.340 C 
ATOM      7  O   UNL A   1      33.860  23.583  22.250  1.00  0.00    -0.246 OA
BRANCH   6   8
ATOM      8  C   UNL A   1      33.446  23.387  24.421  1.00  0.00     0.089 A 
ATOM      9  N   UNL A   1      31.791  24.651  25.071  1.00  0.00    -0.343 N 
ATOM     10  C   UNL A   1      31.437  23.366  25.469  1.00  0.00     0.025 A 
ATOM     11  C   UNL A   1      33.153  24.669  24.823  1.00  0.00     0.030 A 
ATOM     12  C   UNL A   1      30.153  22.984  26.127  1.00  0.00     0.065 C 
ATOM     13  C   UNL A   1      32.432  22.493  25.013  1.00  0.00     0.042 A 
ATOM     14  C   UNL A   1      34.021  25.856  24.648  1.00  0.00     0.065 C 
BRANCH   9  15
ATOM     15  C   UNL A   1      30.886  25.793  24.872  1.00  0.00     0.157 C 
BRANCH  15  16
ATOM     16  C   UNL A   1      31.354  27.100  25.509  1.00  0.00    -0.028 A 
ATOM     17  C   UNL A   1      32.850  30.797  27.252  1.00  0.00     0.044 C 
ATOM     18  C   UNL A   1      32.348  29.513  26.658  1.00  0.00    -0.051 A 
ATOM     19  C   UNL A   1      32.039  29.447  25.303  1.00  0.00     0.004 A 
ATOM     20  C   UNL A   1      32.146  28.373  27.444  1.00  0.00     0.004 A 
ATOM     21  C   UNL A   1      31.588  28.249  24.737  1.00  0.00     0.006 A 
ATOM     22  C   UNL A   1      31.643  27.186  26.879  1.00  0.00     0.006 A 
ENDBRANCH  15  16
ENDBRANCH   9  15
BRANCH  13  23
ATOM     23  C   UNL A   1      32.259  20.953  24.976  1.00  0.00     0.300 C 
BRANCH  23  24
ATOM     24  N   UNL A   1      33.100  20.286  25.998  1.00  0.00    -0.336 N 
ATOM     25  H   UNL A   1      32.910  20.728  26.897  1.00  0.00     0.346 HD
ATOM     26  H   UNL A   1      34.063  20.394  25.679  1.00  0.00     0.346 HD
BRANCH  24  27
ATOM     27  C   UNL A   1      32.888  18.829  26.154  1.00  0.00     0.337 C 
BRANCH  27  28
ATOM     28  C   UNL A   1      33.378  17.944  25.029  1.00  0.00     0.157 A 
ATOM     29  C   UNL A   1      33.310  18.048  23.645  1.00  0.00     0.052 A 
ATOM     30  O   UNL A   1      34.044  16.789  25.352  1.00  0.00    -0.463 OA
ATOM     31  C   UNL A   1      34.020  16.940  23.106  1.00  0.00     0.042 A 
ATOM     32  C   UNL A   1      34.444  16.203  24.187  1.00  0.00     0.195 A 
ENDBRANCH  27  28
ENDBRANCH  24  27
ENDBRANCH  23  24
ENDBRANCH  13  23
ENDBRANCH   6   8
ENDBRANCH   5   6
ENDBRANCH   4   5
ENDBRANCH   3   4
ENDBRANCH   2   3
ENDBRANCH   1   2
BRANCH   1  33
ATOM     33  C   UNL A   1      41.234  19.800  26.375  1.00  0.00     0.188 C 
BRANCH  33  34
ATOM     34  O   UNL A   1      41.883  18.877  25.522  1.00  0.00    -0.376 OA
BRANCH  34  35
ATOM     35  C   UNL A   1      43.219  18.541  25.897  1.00  0.00     0.202 C 
BRANCH  35  36
ATOM     36  C   UNL A   1      44.329  18.841  24.854  1.00  0.00     0.261 C 
BRANCH  36  37
ATOM     37  O   UNL A   1      44.178  20.150  24.253  1.00  0.00    -0.460 OA
BRANCH  37  38
ATOM     38  C   UNL A   1      44.890  21.188  24.809  1.00  0.00     0.338 C 
ATOM     39  O   UNL A   1      46.085  21.151  25.058  1.00  0.00    -0.246 OA
BRANCH  38  40
ATOM     40  C   UNL A   1      43.940  22.240  25.296  1.00  0.00     0.060 A 
ATOM     41  C   UNL A   1      43.720  23.512  24.758  1.00  0.00     0.016 A 
ATOM     42  C   UNL A   1      43.546  22.100  26.570  1.00  0.00     0.016 A 
ATOM     43  C   UNL A   1      43.255  24.648  25.579  1.00  0.00     0.010 A 
ATOM     44  C   UNL A   1      43.539  23.281  27.302  1.00  0.00     0.010 A 
ATOM     45  C   UNL A   1      43.222  24.617  26.965  1.00  0.00    -0.014 A 
BRANCH  45  46
ATOM     46  C   UNL A   1      42.942  25.895  28.034  1.00  0.00     0.031 A 
ATOM     47  C   UNL A   1      41.610  26.968  28.313  1.00  0.00     0.074 A 
ATOM     48  C   UNL A   1      43.976  26.257  28.833  1.00  0.00     0.049 A 
ATOM     49  N   UNL A   1      41.733  28.180  28.836  1.00  0.00    -0.248 NA
ATOM     50  C   UNL A   1      40.148  26.840  27.995  1.00  0.00     0.031 C 
ATOM     51  C   UNL A   1      43.934  27.172  29.974  1.00  0.00     0.029 A 
ATOM     52  N   UNL A   1      45.338  25.941  28.724  1.00  0.00    -0.354 N 
ATOM     53  C   UNL A   1      40.479  28.763  29.040  1.00  0.00     0.074 A 
ATOM     54  C   UNL A   1      39.520  27.875  28.517  1.00  0.00     0.031 C 
ATOM     55  C   UNL A   1      45.164  27.644  30.204  1.00  0.00     0.029 A 
ATOM     56  C   UNL A   1      46.046  27.064  29.222  1.00  0.00     0.049 A 
ATOM     57  H   UNL A   1      45.725  25.106  28.372  1.00  0.00     0.167 HD
ATOM     58  C   UNL A   1      40.240  29.954  29.650  1.00  0.00     0.037 A 
ATOM     59  C   UNL A   1      46.978  27.721  28.480  1.00  0.00     0.037 A 
ATOM     60  C   UNL A   1      41.453  30.623  29.996  1.00  0.00     0.049 A 
ATOM     61  C   UNL A   1      46.608  29.150  28.155  1.00  0.00     0.074 A 
ATOM     62  C   UNL A   1      42.260  30.642  31.115  1.00  0.00     0.029 A 
ATOM     63  N   UNL A   1      42.197  31.127  28.956  1.00  0.00    -0.354 N 
ATOM     64  N   UNL A   1      45.656  29.816  28.745  1.00  0.00    -0.248 NA
ATOM     65  C   UNL A   1      47.224  29.915  27.065  1.00  0.00     0.031 C 
ATOM     66  C   UNL A   1      43.538  31.114  30.709  1.00  0.00     0.029 A 
ATOM     67  C   UNL A   1      43.480  31.413  29.360  1.00  0.00     0.049 A 
ATOM     68  H   UNL A   1      41.856  31.264  28.043  1.00  0.00     0.167 HD
ATOM     69  C   UNL A   1      45.456  30.994  28.075  1.00  0.00     0.074 A 
ATOM     70  C   UNL A   1      46.486  31.039  27.061  1.00  0.00     0.031 C 
ATOM     71  C   UNL A   1      44.426  31.836  28.352  1.00  0.00     0.037 A 
BRANCH  58  72
ATOM     72  C   UNL A   1      38.849  30.344  30.090  1.00  0.00     0.064 A 
ATOM     73  C   UNL A   1      37.931  30.832  29.146  1.00  0.00     0.173 A 
ATOM     74  C   UNL A   1      38.430  30.406  31.437  1.00  0.00     0.173 A 
ATOM     75  F   UNL A   1      38.189  30.752  27.833  1.00  0.00    -0.203 F 
ATOM     76  C   UNL A   1      36.746  31.469  29.526  1.00  0.00     0.198 A 
ATOM     77  C   UNL A   1      37.275  31.099  31.821  1.00  0.00     0.198 A 
ATOM     78  F   UNL A   1      39.163  29.846  32.412  1.00  0.00    -0.203 F 
ATOM     79  F   UNL A   1      35.921  31.952  28.587  1.00  0.00    -0.200 F 
ATOM     80  C   UNL A   1      36.444  31.648  30.863  1.00  0.00     0.200 A 
ATOM     81  F   UNL A   1      36.999  31.275  33.122  1.00  0.00    -0.200 F 
ATOM     82  F   UNL A   1      35.361  32.351  31.226  1.00  0.00    -0.200 F 
ENDBRANCH  58  72
BRANCH  59  83
ATOM     83  C   UNL A   1      47.737  26.774  27.630  1.00  0.00     0.064 A 
ATOM     84  C   UNL A   1      47.349  26.675  26.274  1.00  0.00     0.173 A 
ATOM     85  C   UNL A   1      49.051  26.473  27.949  1.00  0.00     0.173 A 
ATOM     86  F   UNL A   1      46.084  26.950  25.924  1.00  0.00    -0.203 F 
ATOM     87  C   UNL A   1      48.285  26.474  25.261  1.00  0.00     0.198 A 
ATOM     88  C   UNL A   1      49.968  26.297  26.922  1.00  0.00     0.198 A 
ATOM     89  F   UNL A   1      49.503  26.574  29.209  1.00  0.00    -0.203 F 
ATOM     90  F   UNL A   1      47.918  26.542  23.974  1.00  0.00    -0.200 F 
ATOM     91  C   UNL A   1      49.613  26.335  25.587  1.00  0.00     0.200 A 
ATOM     92  F   UNL A   1      51.257  26.273  27.235  1.00  0.00    -0.200 F 
ATOM     93  F   UNL A   1      50.557  26.310  24.636  1.00  0.00    -0.200 F 
ENDBRANCH  59  83
BRANCH  71  94
ATOM     94  C   UNL A   1      44.243  33.172  27.710  1.00  0.00     0.064 A 
ATOM     95  C   UNL A   1      44.252  34.334  28.490  1.00  0.00     0.173 A 
ATOM     96  C   UNL A   1      43.814  33.303  26.374  1.00  0.00     0.173 A 
ATOM     97  F   UNL A   1      44.647  34.289  29.772  1.00  0.00    -0.203 F 
ATOM     98  C   UNL A   1      43.811  35.553  27.976  1.00  0.00     0.198 A 
ATOM     99  C   UNL A   1      43.332  34.511  25.877  1.00  0.00     0.198 A 
ATOM    100  F   UNL A   1      43.842  32.258  25.532  1.00  0.00    -0.203 F 
ATOM    101  F   UNL A   1      43.828  36.646  28.751  1.00  0.00    -0.200 F 
ATOM    102  C   UNL A   1      43.324  35.634  26.682  1.00  0.00     0.200 A 
ATOM    103  F   UNL A   1      42.853  34.574  24.626  1.00  0.00    -0.200 F 
ATOM    104  F   UNL A   1      42.844  36.793  26.211  1.00  0.00    -0.200 F 
ENDBRANCH  71  94
ENDBRANCH  45  46
ENDBRANCH  38  40
ENDBRANCH  37  38
ENDBRANCH  36  37
ENDBRANCH  35  36
ENDBRANCH  34  35
ENDBRANCH  33  34
ENDBRANCH   1  33
TORSDOF 23
ENDMDL
