MODEL 1
REMARK VINA RESULT:     -10.7      0.000      0.000
REMARK SMILES O=C(CCS(=O)(=O)N1CCN(C(=O)[C@@H]2CCCO2)CC1)OCCOCCOCCOC(=O)c1ccc(-c2c3nc(c(-c4c(F)c(F)c(F)c(F)c4F)c4ccc([nH]4)c(-c4c(F)c(F)c(F)c(F)c4F)c4nc(c(-c5c(F)c(F)c(F)c(F)c5F)c5ccc2[nH]5)C=C4)C=C3)cc1
REMARK SMILES IDX 25 1 24 2 23 3 22 4 21 5 2 6 1 7 3 8 4 9 5 10 6 11 7 12 8 13
REMARK SMILES IDX 9 14 20 15 10 16 19 17 11 18 12 19 13 20 14 21 15 22 18 23
REMARK SMILES IDX 16 24 17 25 26 26 27 27 28 28 29 29 30 30 31 31 32 32 33 33
REMARK SMILES IDX 34 34 95 35 35 36 94 37 36 38 37 39 38 40 88 41 39 42 93 43
REMARK SMILES IDX 87 44 89 45 40 46 92 47 86 48 85 49 41 51 73 52 53 53 72 54
REMARK SMILES IDX 54 55 57 56 71 57 90 58 55 59 56 60 70 62 91 63 58 64 42 65
REMARK SMILES IDX 43 66 51 67 44 68 45 69 49 70 52 71 46 72 47 73 50 74 48 75
REMARK SMILES IDX 74 76 75 77 83 78 76 79 77 80 81 81 84 82 78 83 79 84 82 85
REMARK SMILES IDX 80 86 59 87 60 88 68 89 61 90 62 91 66 92 69 93 63 94 64 95
REMARK SMILES IDX 67 96 65 97
REMARK H PARENT 89 50 57 61
REMARK Flexibility Score: inf
ROOT
ATOM      1  C   UNL A   1      34.948  34.086  28.001  1.00  0.00     0.188 C 
ENDROOT
BRANCH   1   2
ATOM      2  O   UNL A   1      35.394  32.738  27.847  1.00  0.00    -0.376 OA
BRANCH   2   3
ATOM      3  C   UNL A   1      34.463  31.665  27.923  1.00  0.00     0.202 C 
BRANCH   3   4
ATOM      4  C   UNL A   1      34.995  30.263  27.650  1.00  0.00     0.261 C 
BRANCH   4   5
ATOM      5  O   UNL A   1      33.880  29.363  27.556  1.00  0.00    -0.463 OA
BRANCH   5   6
ATOM      6  C   UNL A   1      33.720  28.450  26.585  1.00  0.00     0.306 C 
ATOM      7  O   UNL A   1      34.302  28.577  25.511  1.00  0.00    -0.252 OA
BRANCH   6   8
ATOM      8  C   UNL A   1      32.970  27.209  26.913  1.00  0.00     0.140 C 
BRANCH   8   9
ATOM      9  C   UNL A   1      33.160  26.205  25.800  1.00  0.00     0.166 C 
BRANCH   9  10
ATOM     10  S   UNL A   1      31.690  25.332  25.269  1.00  0.00     0.214 S 
ATOM     11  O   UNL A   1      32.083  24.452  24.187  1.00  0.00    -0.212 OA
ATOM     12  O   UNL A   1      31.070  24.790  26.458  1.00  0.00    -0.212 OA
BRANCH  10  13
ATOM     13  N   UNL A   1      30.590  26.414  24.608  1.00  0.00    -0.198 NA
ATOM     14  C   UNL A   1      29.481  25.967  23.715  1.00  0.00     0.123 C 
ATOM     15  C   UNL A   1      31.270  27.573  23.923  1.00  0.00     0.123 C 
ATOM     16  C   UNL A   1      28.437  27.101  23.674  1.00  0.00     0.136 C 
ATOM     17  C   UNL A   1      30.301  28.749  23.724  1.00  0.00     0.136 C 
ATOM     18  N   UNL A   1      28.980  28.375  23.203  1.00  0.00    -0.338 N 
ATOM     19  C   UNL A   1      28.051  29.352  22.837  1.00  0.00     0.251 C 
ATOM     20  O   UNL A   1      26.857  29.254  23.138  1.00  0.00    -0.272 OA
BRANCH  19  21
ATOM     21  C   UNL A   1      28.516  30.465  21.874  1.00  0.00     0.207 C 
ATOM     22  C   UNL A   1      28.139  31.815  22.468  1.00  0.00     0.044 C 
ATOM     23  O   UNL A   1      28.024  30.441  20.538  1.00  0.00    -0.368 OA
ATOM     24  C   UNL A   1      28.032  32.716  21.271  1.00  0.00     0.032 C 
ATOM     25  C   UNL A   1      27.706  31.778  20.131  1.00  0.00     0.161 C 
ENDBRANCH  19  21
ENDBRANCH  10  13
ENDBRANCH   9  10
ENDBRANCH   8   9
ENDBRANCH   6   8
ENDBRANCH   5   6
ENDBRANCH   4   5
ENDBRANCH   3   4
ENDBRANCH   2   3
ENDBRANCH   1   2
BRANCH   1  26
ATOM     26  C   UNL A   1      33.505  34.360  28.470  1.00  0.00     0.188 C 
BRANCH  26  27
ATOM     27  O   UNL A   1      33.276  34.294  29.876  1.00  0.00    -0.376 OA
BRANCH  27  28
ATOM     28  C   UNL A   1      34.459  34.267  30.668  1.00  0.00     0.202 C 
BRANCH  28  29
ATOM     29  C   UNL A   1      34.287  33.384  31.909  1.00  0.00     0.261 C 
BRANCH  29  30
ATOM     30  O   UNL A   1      35.132  32.226  31.867  1.00  0.00    -0.460 OA
BRANCH  30  31
ATOM     31  C   UNL A   1      36.135  32.227  32.784  1.00  0.00     0.338 C 
ATOM     32  O   UNL A   1      36.040  32.368  33.992  1.00  0.00    -0.246 OA
BRANCH  31  33
ATOM     33  C   UNL A   1      37.391  31.848  32.099  1.00  0.00     0.060 A 
ATOM     34  C   UNL A   1      37.455  31.960  30.701  1.00  0.00     0.016 A 
ATOM     35  C   UNL A   1      38.527  31.488  32.830  1.00  0.00     0.016 A 
ATOM     36  C   UNL A   1      38.650  31.682  30.031  1.00  0.00     0.010 A 
ATOM     37  C   UNL A   1      39.715  31.192  32.159  1.00  0.00     0.010 A 
ATOM     38  C   UNL A   1      39.773  31.254  30.755  1.00  0.00    -0.014 A 
BRANCH  38  39
ATOM     39  C   UNL A   1      40.907  30.599  30.057  1.00  0.00     0.031 A 
ATOM     40  C   UNL A   1      42.097  31.463  29.737  1.00  0.00     0.074 A 
ATOM     41  C   UNL A   1      40.883  29.309  29.681  1.00  0.00     0.049 A 
ATOM     42  N   UNL A   1      43.183  31.175  29.067  1.00  0.00    -0.248 NA
ATOM     43  C   UNL A   1      42.047  32.850  30.236  1.00  0.00     0.031 C 
ATOM     44  C   UNL A   1      39.804  28.363  29.951  1.00  0.00     0.029 A 
ATOM     45  N   UNL A   1      41.802  28.577  28.967  1.00  0.00    -0.354 N 
ATOM     46  C   UNL A   1      43.940  32.340  29.069  1.00  0.00     0.074 A 
ATOM     47  C   UNL A   1      43.184  33.345  29.778  1.00  0.00     0.031 C 
ATOM     48  C   UNL A   1      40.113  27.179  29.390  1.00  0.00     0.029 A 
ATOM     49  C   UNL A   1      41.398  27.290  28.699  1.00  0.00     0.049 A 
ATOM     50  H   UNL A   1      42.669  28.939  28.676  1.00  0.00     0.167 HD
ATOM     51  C   UNL A   1      45.162  32.552  28.531  1.00  0.00     0.037 A 
ATOM     52  C   UNL A   1      41.993  26.331  27.960  1.00  0.00     0.037 A 
ATOM     53  C   UNL A   1      45.908  31.562  27.808  1.00  0.00     0.049 A 
ATOM     54  C   UNL A   1      43.323  26.620  27.303  1.00  0.00     0.074 A 
ATOM     55  C   UNL A   1      47.162  31.676  27.235  1.00  0.00     0.029 A 
ATOM     56  N   UNL A   1      45.458  30.278  27.544  1.00  0.00    -0.354 N 
ATOM     57  N   UNL A   1      44.057  27.707  27.352  1.00  0.00    -0.248 NA
ATOM     58  C   UNL A   1      43.909  25.546  26.486  1.00  0.00     0.031 C 
ATOM     59  C   UNL A   1      47.450  30.474  26.580  1.00  0.00     0.029 A 
ATOM     60  C   UNL A   1      46.398  29.596  26.791  1.00  0.00     0.049 A 
ATOM     61  H   UNL A   1      44.598  29.907  27.848  1.00  0.00     0.167 HD
ATOM     62  C   UNL A   1      45.196  27.436  26.603  1.00  0.00     0.074 A 
ATOM     63  C   UNL A   1      45.067  26.077  26.122  1.00  0.00     0.031 C 
ATOM     64  C   UNL A   1      46.256  28.239  26.334  1.00  0.00     0.037 A 
BRANCH  51  65
ATOM     65  C   UNL A   1      45.753  33.920  28.686  1.00  0.00     0.064 A 
ATOM     66  C   UNL A   1      46.545  34.256  29.794  1.00  0.00     0.173 A 
ATOM     67  C   UNL A   1      45.544  34.897  27.703  1.00  0.00     0.173 A 
ATOM     68  F   UNL A   1      46.755  33.361  30.771  1.00  0.00    -0.203 F 
ATOM     69  C   UNL A   1      47.095  35.529  29.919  1.00  0.00     0.198 A 
ATOM     70  C   UNL A   1      46.117  36.161  27.819  1.00  0.00     0.198 A 
ATOM     71  F   UNL A   1      44.790  34.626  26.627  1.00  0.00    -0.203 F 
ATOM     72  F   UNL A   1      47.816  35.842  31.004  1.00  0.00    -0.200 F 
ATOM     73  C   UNL A   1      46.887  36.477  28.928  1.00  0.00     0.200 A 
ATOM     74  F   UNL A   1      45.923  37.074  26.856  1.00  0.00    -0.200 F 
ATOM     75  F   UNL A   1      47.426  37.698  29.045  1.00  0.00    -0.200 F 
ENDBRANCH  51  65
BRANCH  52  76
ATOM     76  C   UNL A   1      41.338  25.007  27.767  1.00  0.00     0.064 A 
ATOM     77  C   UNL A   1      41.842  23.853  28.385  1.00  0.00     0.173 A 
ATOM     78  C   UNL A   1      40.239  24.856  26.909  1.00  0.00     0.173 A 
ATOM     79  F   UNL A   1      42.911  23.936  29.189  1.00  0.00    -0.203 F 
ATOM     80  C   UNL A   1      41.290  22.598  28.129  1.00  0.00     0.198 A 
ATOM     81  C   UNL A   1      39.669  23.604  26.678  1.00  0.00     0.198 A 
ATOM     82  F   UNL A   1      39.721  25.925  26.285  1.00  0.00    -0.203 F 
ATOM     83  F   UNL A   1      41.831  21.505  28.684  1.00  0.00    -0.200 F 
ATOM     84  C   UNL A   1      40.202  22.475  27.279  1.00  0.00     0.200 A 
ATOM     85  F   UNL A   1      38.611  23.493  25.862  1.00  0.00    -0.200 F 
ATOM     86  F   UNL A   1      39.675  21.268  27.029  1.00  0.00    -0.200 F 
ENDBRANCH  52  76
BRANCH  64  87
ATOM     87  C   UNL A   1      47.375  27.664  25.516  1.00  0.00     0.064 A 
ATOM     88  C   UNL A   1      47.415  27.805  24.121  1.00  0.00     0.173 A 
ATOM     89  C   UNL A   1      48.452  27.017  26.143  1.00  0.00     0.173 A 
ATOM     90  F   UNL A   1      46.405  28.405  23.473  1.00  0.00    -0.203 F 
ATOM     91  C   UNL A   1      48.481  27.299  23.382  1.00  0.00     0.198 A 
ATOM     92  C   UNL A   1      49.530  26.540  25.403  1.00  0.00     0.198 A 
ATOM     93  F   UNL A   1      48.467  26.866  27.475  1.00  0.00    -0.203 F 
ATOM     94  F   UNL A   1      48.478  27.406  22.046  1.00  0.00    -0.200 F 
ATOM     95  C   UNL A   1      49.541  26.675  24.024  1.00  0.00     0.200 A 
ATOM     96  F   UNL A   1      50.561  25.953  26.027  1.00  0.00    -0.200 F 
ATOM     97  F   UNL A   1      50.572  26.199  23.311  1.00  0.00    -0.200 F 
ENDBRANCH  64  87
ENDBRANCH  38  39
ENDBRANCH  31  33
ENDBRANCH  30  31
ENDBRANCH  29  30
ENDBRANCH  28  29
ENDBRANCH  27  28
ENDBRANCH  26  27
ENDBRANCH   1  26
TORSDOF 21
ENDMDL
MODEL 2
REMARK VINA RESULT:     -10.7      4.299      7.016
REMARK SMILES O=C(CCS(=O)(=O)N1CCN(C(=O)[C@@H]2CCCO2)CC1)OCCOCCOCCOC(=O)c1ccc(-c2c3nc(c(-c4c(F)c(F)c(F)c(F)c4F)c4ccc([nH]4)c(-c4c(F)c(F)c(F)c(F)c4F)c4nc(c(-c5c(F)c(F)c(F)c(F)c5F)c5ccc2[nH]5)C=C4)C=C3)cc1
REMARK SMILES IDX 25 1 24 2 23 3 22 4 21 5 2 6 1 7 3 8 4 9 5 10 6 11 7 12 8 13
REMARK SMILES IDX 9 14 20 15 10 16 19 17 11 18 12 19 13 20 14 21 15 22 18 23
REMARK SMILES IDX 16 24 17 25 26 26 27 27 28 28 29 29 30 30 31 31 32 32 33 33
REMARK SMILES IDX 34 34 95 35 35 36 94 37 36 38 37 39 38 40 88 41 39 42 93 43
REMARK SMILES IDX 87 44 89 45 40 46 92 47 86 48 85 49 41 51 73 52 53 53 72 54
REMARK SMILES IDX 54 55 57 56 71 57 90 58 55 59 56 60 70 62 91 63 58 64 42 65
REMARK SMILES IDX 43 66 51 67 44 68 45 69 49 70 52 71 46 72 47 73 50 74 48 75
REMARK SMILES IDX 74 76 75 77 83 78 76 79 77 80 81 81 84 82 78 83 79 84 82 85
REMARK SMILES IDX 80 86 59 87 60 88 68 89 61 90 62 91 66 92 69 93 63 94 64 95
REMARK SMILES IDX 67 96 65 97
REMARK H PARENT 89 50 57 61
REMARK Flexibility Score: inf
ROOT
ATOM      1  C   UNL A   1      32.104  29.759  26.622  1.00  0.00     0.188 C 
ENDROOT
BRANCH   1   2
ATOM      2  O   UNL A   1      31.470  28.597  27.155  1.00  0.00    -0.376 OA
BRANCH   2   3
ATOM      3  C   UNL A   1      32.059  27.315  26.972  1.00  0.00     0.202 C 
BRANCH   3   4
ATOM      4  C   UNL A   1      31.144  26.191  26.501  1.00  0.00     0.261 C 
BRANCH   4   5
ATOM      5  O   UNL A   1      31.748  24.935  26.849  1.00  0.00    -0.463 OA
BRANCH   5   6
ATOM      6  C   UNL A   1      31.632  23.810  26.126  1.00  0.00     0.306 C 
ATOM      7  O   UNL A   1      30.536  23.458  25.697  1.00  0.00    -0.252 OA
BRANCH   6   8
ATOM      8  C   UNL A   1      32.880  23.113  25.717  1.00  0.00     0.140 C 
BRANCH   8   9
ATOM      9  C   UNL A   1      33.089  23.300  24.232  1.00  0.00     0.166 C 
BRANCH   9  10
ATOM     10  S   UNL A   1      33.643  24.921  23.713  1.00  0.00     0.214 S 
ATOM     11  O   UNL A   1      34.406  25.484  24.808  1.00  0.00    -0.212 OA
ATOM     12  O   UNL A   1      34.252  24.759  22.410  1.00  0.00    -0.212 OA
BRANCH  10  13
ATOM     13  N   UNL A   1      32.323  25.934  23.498  1.00  0.00    -0.198 NA
ATOM     14  C   UNL A   1      31.110  25.501  22.743  1.00  0.00     0.123 C 
ATOM     15  C   UNL A   1      32.720  27.286  22.960  1.00  0.00     0.123 C 
ATOM     16  C   UNL A   1      29.964  26.460  23.125  1.00  0.00     0.136 C 
ATOM     17  C   UNL A   1      31.610  28.324  23.186  1.00  0.00     0.136 C 
ATOM     18  N   UNL A   1      30.259  27.864  22.841  1.00  0.00    -0.338 N 
ATOM     19  C   UNL A   1      29.175  28.745  22.857  1.00  0.00     0.251 C 
ATOM     20  O   UNL A   1      28.085  28.420  23.339  1.00  0.00    -0.272 OA
BRANCH  19  21
ATOM     21  C   UNL A   1      29.313  30.072  22.081  1.00  0.00     0.207 C 
ATOM     22  C   UNL A   1      28.914  31.219  22.998  1.00  0.00     0.044 C 
ATOM     23  O   UNL A   1      28.571  30.219  20.875  1.00  0.00    -0.368 OA
ATOM     24  C   UNL A   1      28.471  32.298  22.051  1.00  0.00     0.032 C 
ATOM     25  C   UNL A   1      28.032  31.546  20.815  1.00  0.00     0.161 C 
ENDBRANCH  19  21
ENDBRANCH  10  13
ENDBRANCH   9  10
ENDBRANCH   8   9
ENDBRANCH   6   8
ENDBRANCH   5   6
ENDBRANCH   4   5
ENDBRANCH   3   4
ENDBRANCH   2   3
ENDBRANCH   1   2
BRANCH   1  26
ATOM     26  C   UNL A   1      31.289  30.738  25.751  1.00  0.00     0.188 C 
BRANCH  26  27
ATOM     27  O   UNL A   1      31.225  32.086  26.211  1.00  0.00    -0.376 OA
BRANCH  27  28
ATOM     28  C   UNL A   1      32.223  32.436  27.165  1.00  0.00     0.202 C 
BRANCH  28  29
ATOM     29  C   UNL A   1      32.371  33.956  27.295  1.00  0.00     0.261 C 
BRANCH  29  30
ATOM     30  O   UNL A   1      32.553  34.363  28.658  1.00  0.00    -0.460 OA
BRANCH  30  31
ATOM     31  C   UNL A   1      33.708  35.040  28.895  1.00  0.00     0.338 C 
ATOM     32  O   UNL A   1      33.865  36.249  28.951  1.00  0.00    -0.246 OA
BRANCH  31  33
ATOM     33  C   UNL A   1      34.756  34.059  29.256  1.00  0.00     0.060 A 
ATOM     34  C   UNL A   1      34.386  32.921  29.990  1.00  0.00     0.016 A 
ATOM     35  C   UNL A   1      36.065  34.202  28.787  1.00  0.00     0.016 A 
ATOM     36  C   UNL A   1      35.338  31.939  30.282  1.00  0.00     0.010 A 
ATOM     37  C   UNL A   1      37.018  33.230  29.095  1.00  0.00     0.010 A 
ATOM     38  C   UNL A   1      36.668  32.112  29.873  1.00  0.00    -0.014 A 
BRANCH  38  39
ATOM     39  C   UNL A   1      37.749  31.299  30.482  1.00  0.00     0.031 A 
ATOM     40  C   UNL A   1      38.103  31.601  31.914  1.00  0.00     0.074 A 
ATOM     41  C   UNL A   1      38.424  30.357  29.800  1.00  0.00     0.049 A 
ATOM     42  N   UNL A   1      39.053  31.105  32.663  1.00  0.00    -0.248 NA
ATOM     43  C   UNL A   1      37.270  32.614  32.588  1.00  0.00     0.031 C 
ATOM     44  C   UNL A   1      38.164  29.954  28.421  1.00  0.00     0.029 A 
ATOM     45  N   UNL A   1      39.491  29.579  30.183  1.00  0.00    -0.354 N 
ATOM     46  C   UNL A   1      38.929  31.742  33.891  1.00  0.00     0.074 A 
ATOM     47  C   UNL A   1      37.835  32.679  33.783  1.00  0.00     0.031 C 
ATOM     48  C   UNL A   1      39.062  29.017  28.065  1.00  0.00     0.029 A 
ATOM     49  C   UNL A   1      39.977  28.773  29.181  1.00  0.00     0.049 A 
ATOM     50  H   UNL A   1      39.871  29.596  31.091  1.00  0.00     0.167 HD
ATOM     51  C   UNL A   1      39.659  31.560  35.013  1.00  0.00     0.037 A 
ATOM     52  C   UNL A   1      41.051  27.957  29.169  1.00  0.00     0.037 A 
ATOM     53  C   UNL A   1      40.761  30.646  35.119  1.00  0.00     0.049 A 
ATOM     54  C   UNL A   1      41.899  27.830  30.414  1.00  0.00     0.074 A 
ATOM     55  C   UNL A   1      41.556  30.378  36.218  1.00  0.00     0.029 A 
ATOM     56  N   UNL A   1      41.232  29.860  34.078  1.00  0.00    -0.354 N 
ATOM     57  N   UNL A   1      41.744  28.397  31.587  1.00  0.00    -0.248 NA
ATOM     58  C   UNL A   1      43.073  26.947  30.332  1.00  0.00     0.031 C 
ATOM     59  C   UNL A   1      42.543  29.467  35.828  1.00  0.00     0.029 A 
ATOM     60  C   UNL A   1      42.327  29.128  34.501  1.00  0.00     0.049 A 
ATOM     61  H   UNL A   1      40.844  29.829  33.174  1.00  0.00     0.167 HD
ATOM     62  C   UNL A   1      42.778  27.918  32.385  1.00  0.00     0.074 A 
ATOM     63  C   UNL A   1      43.545  27.001  31.569  1.00  0.00     0.031 C 
ATOM     64  C   UNL A   1      43.068  28.210  33.677  1.00  0.00     0.037 A 
BRANCH  51  65
ATOM     65  C   UNL A   1      39.302  32.389  36.208  1.00  0.00     0.064 A 
ATOM     66  C   UNL A   1      39.880  33.648  36.428  1.00  0.00     0.173 A 
ATOM     67  C   UNL A   1      38.351  31.929  37.130  1.00  0.00     0.173 A 
ATOM     68  F   UNL A   1      40.811  34.120  35.585  1.00  0.00    -0.203 F 
ATOM     69  C   UNL A   1      39.530  34.410  37.539  1.00  0.00     0.198 A 
ATOM     70  C   UNL A   1      37.984  32.707  38.226  1.00  0.00     0.198 A 
ATOM     71  F   UNL A   1      37.772  30.730  36.966  1.00  0.00    -0.203 F 
ATOM     72  F   UNL A   1      40.123  35.593  37.752  1.00  0.00    -0.200 F 
ATOM     73  C   UNL A   1      38.576  33.943  38.432  1.00  0.00     0.200 A 
ATOM     74  F   UNL A   1      37.056  32.257  39.083  1.00  0.00    -0.200 F 
ATOM     75  F   UNL A   1      38.233  34.683  39.494  1.00  0.00    -0.200 F 
ENDBRANCH  51  65
BRANCH  52  76
ATOM     76  C   UNL A   1      41.418  27.204  27.937  1.00  0.00     0.064 A 
ATOM     77  C   UNL A   1      40.983  25.887  27.735  1.00  0.00     0.173 A 
ATOM     78  C   UNL A   1      42.268  27.761  26.970  1.00  0.00     0.173 A 
ATOM     79  F   UNL A   1      40.196  25.295  28.645  1.00  0.00    -0.203 F 
ATOM     80  C   UNL A   1      41.405  25.148  26.630  1.00  0.00     0.198 A 
ATOM     81  C   UNL A   1      42.665  27.032  25.850  1.00  0.00     0.198 A 
ATOM     82  F   UNL A   1      42.722  29.015  27.116  1.00  0.00    -0.203 F 
ATOM     83  F   UNL A   1      41.022  23.871  26.495  1.00  0.00    -0.200 F 
ATOM     84  C   UNL A   1      42.242  25.722  25.687  1.00  0.00     0.200 A 
ATOM     85  F   UNL A   1      43.467  27.596  24.936  1.00  0.00    -0.200 F 
ATOM     86  F   UNL A   1      42.653  25.010  24.628  1.00  0.00    -0.200 F 
ENDBRANCH  52  76
BRANCH  64  87
ATOM     87  C   UNL A   1      44.239  27.509  34.303  1.00  0.00     0.064 A 
ATOM     88  C   UNL A   1      45.524  28.070  34.293  1.00  0.00     0.173 A 
ATOM     89  C   UNL A   1      44.059  26.289  34.974  1.00  0.00     0.173 A 
ATOM     90  F   UNL A   1      45.751  29.230  33.657  1.00  0.00    -0.203 F 
ATOM     91  C   UNL A   1      46.591  27.424  34.913  1.00  0.00     0.198 A 
ATOM     92  C   UNL A   1      45.122  25.662  35.617  1.00  0.00     0.198 A 
ATOM     93  F   UNL A   1      42.848  25.715  35.020  1.00  0.00    -0.203 F 
ATOM     94  F   UNL A   1      47.819  27.957  34.855  1.00  0.00    -0.200 F 
ATOM     95  C   UNL A   1      46.387  26.226  35.581  1.00  0.00     0.200 A 
ATOM     96  F   UNL A   1      44.919  24.513  36.277  1.00  0.00    -0.200 F 
ATOM     97  F   UNL A   1      47.414  25.612  36.187  1.00  0.00    -0.200 F 
ENDBRANCH  64  87
ENDBRANCH  38  39
ENDBRANCH  31  33
ENDBRANCH  30  31
ENDBRANCH  29  30
ENDBRANCH  28  29
ENDBRANCH  27  28
ENDBRANCH  26  27
ENDBRANCH   1  26
TORSDOF 21
ENDMDL
MODEL 3
REMARK VINA RESULT:     -10.6      4.936      8.238
REMARK SMILES O=C(CCS(=O)(=O)N1CCN(C(=O)[C@@H]2CCCO2)CC1)OCCOCCOCCOC(=O)c1ccc(-c2c3nc(c(-c4c(F)c(F)c(F)c(F)c4F)c4ccc([nH]4)c(-c4c(F)c(F)c(F)c(F)c4F)c4nc(c(-c5c(F)c(F)c(F)c(F)c5F)c5ccc2[nH]5)C=C4)C=C3)cc1
REMARK SMILES IDX 25 1 24 2 23 3 22 4 21 5 2 6 1 7 3 8 4 9 5 10 6 11 7 12 8 13
REMARK SMILES IDX 9 14 20 15 10 16 19 17 11 18 12 19 13 20 14 21 15 22 18 23
REMARK SMILES IDX 16 24 17 25 26 26 27 27 28 28 29 29 30 30 31 31 32 32 33 33
REMARK SMILES IDX 34 34 95 35 35 36 94 37 36 38 37 39 38 40 88 41 39 42 93 43
REMARK SMILES IDX 87 44 89 45 40 46 92 47 86 48 85 49 41 51 73 52 53 53 72 54
REMARK SMILES IDX 54 55 57 56 71 57 90 58 55 59 56 60 70 62 91 63 58 64 42 65
REMARK SMILES IDX 43 66 51 67 44 68 45 69 49 70 52 71 46 72 47 73 50 74 48 75
REMARK SMILES IDX 74 76 75 77 83 78 76 79 77 80 81 81 84 82 78 83 79 84 82 85
REMARK SMILES IDX 80 86 59 87 60 88 68 89 61 90 62 91 66 92 69 93 63 94 64 95
REMARK SMILES IDX 67 96 65 97
REMARK H PARENT 89 50 57 61
REMARK Flexibility Score: inf
ROOT
ATOM      1  C   UNL A   1      32.045  29.263  24.950  1.00  0.00     0.188 C 
ENDROOT
BRANCH   1   2
ATOM      2  O   UNL A   1      31.016  28.323  25.262  1.00  0.00    -0.376 OA
BRANCH   2   3
ATOM      3  C   UNL A   1      30.497  27.470  24.249  1.00  0.00     0.202 C 
BRANCH   3   4
ATOM      4  C   UNL A   1      30.593  27.961  22.810  1.00  0.00     0.261 C 
BRANCH   4   5
ATOM      5  O   UNL A   1      31.570  27.167  22.121  1.00  0.00    -0.463 OA
BRANCH   5   6
ATOM      6  C   UNL A   1      31.862  25.891  22.420  1.00  0.00     0.306 C 
ATOM      7  O   UNL A   1      30.979  25.038  22.429  1.00  0.00    -0.252 OA
BRANCH   6   8
ATOM      8  C   UNL A   1      33.294  25.519  22.560  1.00  0.00     0.140 C 
BRANCH   8   9
ATOM      9  C   UNL A   1      33.847  26.136  23.824  1.00  0.00     0.166 C 
BRANCH   9  10
ATOM     10  S   UNL A   1      33.884  25.076  25.267  1.00  0.00     0.214 S 
ATOM     11  O   UNL A   1      35.248  25.063  25.753  1.00  0.00    -0.212 OA
ATOM     12  O   UNL A   1      32.807  25.508  26.132  1.00  0.00    -0.212 OA
BRANCH  10  13
ATOM     13  N   UNL A   1      33.535  23.496  24.824  1.00  0.00    -0.198 NA
ATOM     14  C   UNL A   1      32.145  22.953  24.865  1.00  0.00     0.123 C 
ATOM     15  C   UNL A   1      34.420  22.496  25.525  1.00  0.00     0.123 C 
ATOM     16  C   UNL A   1      32.121  21.684  23.989  1.00  0.00     0.136 C 
ATOM     17  C   UNL A   1      34.407  21.139  24.805  1.00  0.00     0.136 C 
ATOM     18  N   UNL A   1      33.073  20.660  24.421  1.00  0.00    -0.338 N 
ATOM     19  C   UNL A   1      32.895  19.380  23.892  1.00  0.00     0.251 C 
ATOM     20  O   UNL A   1      32.155  19.178  22.924  1.00  0.00    -0.272 OA
BRANCH  19  21
ATOM     21  C   UNL A   1      33.494  18.189  24.669  1.00  0.00     0.207 C 
ATOM     22  C   UNL A   1      33.776  17.057  23.690  1.00  0.00     0.044 C 
ATOM     23  O   UNL A   1      32.733  17.640  25.740  1.00  0.00    -0.368 OA
ATOM     24  C   UNL A   1      33.727  15.824  24.546  1.00  0.00     0.032 C 
ATOM     25  C   UNL A   1      32.833  16.211  25.702  1.00  0.00     0.161 C 
ENDBRANCH  19  21
ENDBRANCH  10  13
ENDBRANCH   9  10
ENDBRANCH   8   9
ENDBRANCH   6   8
ENDBRANCH   5   6
ENDBRANCH   4   5
ENDBRANCH   3   4
ENDBRANCH   2   3
ENDBRANCH   1   2
BRANCH   1  26
ATOM     26  C   UNL A   1      32.976  29.771  26.069  1.00  0.00     0.188 C 
BRANCH  26  27
ATOM     27  O   UNL A   1      32.383  30.630  27.041  1.00  0.00    -0.376 OA
BRANCH  27  28
ATOM     28  C   UNL A   1      31.521  31.628  26.503  1.00  0.00     0.202 C 
BRANCH  28  29
ATOM     29  C   UNL A   1      31.777  32.998  27.142  1.00  0.00     0.261 C 
BRANCH  29  30
ATOM     30  O   UNL A   1      33.162  33.368  27.083  1.00  0.00    -0.460 OA
BRANCH  30  31
ATOM     31  C   UNL A   1      33.658  33.877  28.242  1.00  0.00     0.338 C 
ATOM     32  O   UNL A   1      33.181  34.764  28.931  1.00  0.00    -0.246 OA
BRANCH  31  33
ATOM     33  C   UNL A   1      34.816  33.052  28.653  1.00  0.00     0.060 A 
ATOM     34  C   UNL A   1      34.608  31.691  28.924  1.00  0.00     0.016 A 
ATOM     35  C   UNL A   1      36.108  33.585  28.666  1.00  0.00     0.016 A 
ATOM     36  C   UNL A   1      35.694  30.867  29.242  1.00  0.00     0.010 A 
ATOM     37  C   UNL A   1      37.189  32.767  29.001  1.00  0.00     0.010 A 
ATOM     38  C   UNL A   1      36.983  31.414  29.324  1.00  0.00    -0.014 A 
BRANCH  38  39
ATOM     39  C   UNL A   1      38.066  30.671  30.014  1.00  0.00     0.031 A 
ATOM     40  C   UNL A   1      38.311  31.014  31.460  1.00  0.00     0.074 A 
ATOM     41  C   UNL A   1      38.834  29.760  29.393  1.00  0.00     0.049 A 
ATOM     42  N   UNL A   1      39.238  30.583  32.275  1.00  0.00    -0.248 NA
ATOM     43  C   UNL A   1      37.382  31.988  32.063  1.00  0.00     0.031 C 
ATOM     44  C   UNL A   1      38.686  29.323  28.008  1.00  0.00     0.029 A 
ATOM     45  N   UNL A   1      39.916  29.048  29.856  1.00  0.00    -0.354 N 
ATOM     46  C   UNL A   1      39.000  31.230  33.482  1.00  0.00     0.074 A 
ATOM     47  C   UNL A   1      37.865  32.101  33.288  1.00  0.00     0.031 C 
ATOM     48  C   UNL A   1      39.655  28.432  27.725  1.00  0.00     0.029 A 
ATOM     49  C   UNL A   1      40.509  28.257  28.901  1.00  0.00     0.049 A 
ATOM     50  H   UNL A   1      40.236  29.100  30.785  1.00  0.00     0.167 HD
ATOM     51  C   UNL A   1      39.667  31.105  34.651  1.00  0.00     0.037 A 
ATOM     52  C   UNL A   1      41.625  27.502  28.971  1.00  0.00     0.037 A 
ATOM     53  C   UNL A   1      40.808  30.256  34.842  1.00  0.00     0.049 A 
ATOM     54  C   UNL A   1      42.398  27.441  30.269  1.00  0.00     0.074 A 
ATOM     55  C   UNL A   1      41.546  30.049  35.994  1.00  0.00     0.029 A 
ATOM     56  N   UNL A   1      41.387  29.483  33.847  1.00  0.00    -0.354 N 
ATOM     57  N   UNL A   1      42.137  28.015  31.420  1.00  0.00    -0.248 NA
ATOM     58  C   UNL A   1      43.622  26.625  30.277  1.00  0.00     0.031 C 
ATOM     59  C   UNL A   1      42.604  29.189  35.683  1.00  0.00     0.029 A 
ATOM     60  C   UNL A   1      42.492  28.819  34.351  1.00  0.00     0.049 A 
ATOM     61  H   UNL A   1      41.060  29.417  32.921  1.00  0.00     0.167 HD
ATOM     62  C   UNL A   1      43.143  27.607  32.289  1.00  0.00     0.074 A 
ATOM     63  C   UNL A   1      44.010  26.723  31.540  1.00  0.00     0.031 C 
ATOM     64  C   UNL A   1      43.334  27.933  33.592  1.00  0.00     0.037 A 
BRANCH  51  65
ATOM     65  C   UNL A   1      39.188  31.929  35.806  1.00  0.00     0.064 A 
ATOM     66  C   UNL A   1      39.643  33.241  36.011  1.00  0.00     0.173 A 
ATOM     67  C   UNL A   1      38.245  31.411  36.704  1.00  0.00     0.173 A 
ATOM     68  F   UNL A   1      40.563  33.772  35.190  1.00  0.00    -0.203 F 
ATOM     69  C   UNL A   1      39.182  33.997  37.084  1.00  0.00     0.198 A 
ATOM     70  C   UNL A   1      37.767  32.180  37.761  1.00  0.00     0.198 A 
ATOM     71  F   UNL A   1      37.783  30.160  36.554  1.00  0.00    -0.203 F 
ATOM     72  F   UNL A   1      39.659  35.234  37.284  1.00  0.00    -0.200 F 
ATOM     73  C   UNL A   1      38.238  33.470  37.953  1.00  0.00     0.200 A 
ATOM     74  F   UNL A   1      36.848  31.672  38.596  1.00  0.00    -0.200 F 
ATOM     75  F   UNL A   1      37.787  34.204  38.979  1.00  0.00    -0.200 F 
ENDBRANCH  51  65
BRANCH  52  76
ATOM     76  C   UNL A   1      42.111  26.754  27.779  1.00  0.00     0.064 A 
ATOM     77  C   UNL A   1      41.694  25.438  27.529  1.00  0.00     0.173 A 
ATOM     78  C   UNL A   1      43.054  27.312  26.903  1.00  0.00     0.173 A 
ATOM     79  F   UNL A   1      40.819  24.845  28.353  1.00  0.00    -0.203 F 
ATOM     80  C   UNL A   1      42.222  24.703  26.467  1.00  0.00     0.198 A 
ATOM     81  C   UNL A   1      43.558  26.587  25.825  1.00  0.00     0.198 A 
ATOM     82  F   UNL A   1      43.494  28.565  27.098  1.00  0.00    -0.203 F 
ATOM     83  F   UNL A   1      41.852  23.427  26.290  1.00  0.00    -0.200 F 
ATOM     84  C   UNL A   1      43.150  25.279  25.615  1.00  0.00     0.200 A 
ATOM     85  F   UNL A   1      44.448  27.152  24.997  1.00  0.00    -0.200 F 
ATOM     86  F   UNL A   1      43.662  24.570  24.598  1.00  0.00    -0.200 F 
ENDBRANCH  52  76
BRANCH  64  87
ATOM     87  C   UNL A   1      44.499  27.308  34.303  1.00  0.00     0.064 A 
ATOM     88  C   UNL A   1      45.739  27.957  34.396  1.00  0.00     0.173 A 
ATOM     89  C   UNL A   1      44.355  26.071  34.950  1.00  0.00     0.173 A 
ATOM     90  F   UNL A   1      45.932  29.137  33.785  1.00  0.00    -0.203 F 
ATOM     91  C   UNL A   1      46.797  27.380  35.092  1.00  0.00     0.198 A 
ATOM     92  C   UNL A   1      45.406  25.512  35.670  1.00  0.00     0.198 A 
ATOM     93  F   UNL A   1      43.186  25.414  34.899  1.00  0.00    -0.203 F 
ATOM     94  F   UNL A   1      47.986  27.998  35.133  1.00  0.00    -0.200 F 
ATOM     95  C   UNL A   1      46.628  26.163  35.736  1.00  0.00     0.200 A 
ATOM     96  F   UNL A   1      45.234  24.345  36.306  1.00  0.00    -0.200 F 
ATOM     97  F   UNL A   1      47.645  25.615  36.415  1.00  0.00    -0.200 F 
ENDBRANCH  64  87
ENDBRANCH  38  39
ENDBRANCH  31  33
ENDBRANCH  30  31
ENDBRANCH  29  30
ENDBRANCH  28  29
ENDBRANCH  27  28
ENDBRANCH  26  27
ENDBRANCH   1  26
TORSDOF 21
ENDMDL
