MODEL 1
REMARK VINA RESULT:     -10.3      0.000      0.000
REMARK SMILES O=C(OCCOCCOCCOC(=O)c1ccc(-n2cc(CSc3nc4ccccc4c(=O)n3-c3ccccc3)nn2)cc1)c1ccc(-c2c3nc(c(-c4c(F)c(F)c(F)c(F)c4F)c4ccc([nH]4)c(-c4c(F)c(F)c(F)c(F)c4F)c4nc(c(-c5c(F)c(F)c(F)c(F)c5F)c5ccc2[nH]5)C=C4)C=C3)cc1
REMARK SMILES IDX 9 1 8 2 7 3 6 4 5 5 4 6 3 7 2 8 1 9 45 10 46 11 107 12 47 13
REMARK SMILES IDX 106 14 48 15 49 16 50 17 100 18 51 19 105 20 99 21 101 22
REMARK SMILES IDX 52 23 104 24 98 25 97 26 53 28 85 29 65 30 84 31 66 32 69 33
REMARK SMILES IDX 83 34 102 35 67 36 68 37 82 39 103 40 70 41 54 42 55 43
REMARK SMILES IDX 63 44 56 45 57 46 61 47 64 48 58 49 59 50 62 51 60 52 86 53
REMARK SMILES IDX 87 54 95 55 88 56 89 57 93 58 96 59 90 60 91 61 94 62 92 63
REMARK SMILES IDX 71 64 72 65 80 66 73 67 74 68 78 69 81 70 75 71 76 72 79 73
REMARK SMILES IDX 77 74 10 75 11 76 12 77 13 78 14 79 15 80 16 81 44 82 17 83
REMARK SMILES IDX 43 84 18 85 19 86 20 87 42 88 21 89 41 90 22 91 23 92 24 93
REMARK SMILES IDX 25 94 34 95 26 96 32 97 27 98 31 99 33 100 28 101 30 102
REMARK SMILES IDX 29 103 35 104 36 105 40 106 37 107 39 108 38 109
REMARK H PARENT 101 27 69 38
REMARK Flexibility Score: inf
ROOT
ATOM      1  O   UNL A   1      36.704  33.166  34.019  1.00  0.00    -0.376 OA
ENDROOT
BRANCH   1   2
ATOM      2  C   UNL A   1      35.413  33.149  33.420  1.00  0.00     0.188 C 
BRANCH   2   3
ATOM      3  C   UNL A   1      35.248  32.636  31.971  1.00  0.00     0.188 C 
BRANCH   3   4
ATOM      4  O   UNL A   1      35.499  33.622  30.988  1.00  0.00    -0.376 OA
BRANCH   4   5
ATOM      5  C   UNL A   1      34.396  34.176  30.299  1.00  0.00     0.202 C 
BRANCH   5   6
ATOM      6  C   UNL A   1      33.936  33.513  28.997  1.00  0.00     0.261 C 
BRANCH   6   7
ATOM      7  O   UNL A   1      34.968  32.959  28.169  1.00  0.00    -0.460 OA
BRANCH   7   8
ATOM      8  C   UNL A   1      35.352  31.681  28.000  1.00  0.00     0.338 C 
ATOM      9  O   UNL A   1      34.632  30.898  27.385  1.00  0.00    -0.246 OA
BRANCH   8  10
ATOM     10  C   UNL A   1      36.492  31.114  28.757  1.00  0.00     0.060 A 
ATOM     11  C   UNL A   1      37.693  31.781  28.993  1.00  0.00     0.016 A 
ATOM     12  C   UNL A   1      36.359  29.765  29.146  1.00  0.00     0.016 A 
ATOM     13  C   UNL A   1      38.781  31.077  29.494  1.00  0.00     0.010 A 
ATOM     14  C   UNL A   1      37.445  29.061  29.648  1.00  0.00     0.010 A 
ATOM     15  C   UNL A   1      38.675  29.704  29.740  1.00  0.00    -0.014 A 
BRANCH  15  16
ATOM     16  C   UNL A   1      39.922  28.971  29.926  1.00  0.00     0.031 A 
ATOM     17  C   UNL A   1      40.485  28.889  31.298  1.00  0.00     0.074 A 
ATOM     18  C   UNL A   1      40.556  28.396  28.884  1.00  0.00     0.049 A 
ATOM     19  N   UNL A   1      41.634  29.318  31.718  1.00  0.00    -0.248 NA
ATOM     20  C   UNL A   1      39.652  28.281  32.342  1.00  0.00     0.031 C 
ATOM     21  C   UNL A   1      40.039  28.162  27.532  1.00  0.00     0.029 A 
ATOM     22  N   UNL A   1      41.790  27.815  28.850  1.00  0.00    -0.354 N 
ATOM     23  C   UNL A   1      41.745  28.895  33.041  1.00  0.00     0.074 A 
ATOM     24  C   UNL A   1      40.461  28.347  33.401  1.00  0.00     0.031 C 
ATOM     25  C   UNL A   1      40.861  27.309  26.884  1.00  0.00     0.029 A 
ATOM     26  C   UNL A   1      42.018  27.047  27.721  1.00  0.00     0.049 A 
ATOM     27  H   UNL A   1      42.458  27.932  29.564  1.00  0.00     0.167 HD
ATOM     28  C   UNL A   1      42.943  28.856  33.687  1.00  0.00     0.037 A 
ATOM     29  C   UNL A   1      43.047  26.192  27.516  1.00  0.00     0.037 A 
ATOM     30  C   UNL A   1      43.912  29.732  33.081  1.00  0.00     0.049 A 
ATOM     31  C   UNL A   1      44.150  26.570  28.431  1.00  0.00     0.074 A 
ATOM     32  C   UNL A   1      43.978  31.091  32.837  1.00  0.00     0.029 A 
ATOM     33  N   UNL A   1      44.943  29.188  32.360  1.00  0.00    -0.354 N 
ATOM     34  N   UNL A   1      44.873  27.647  28.308  1.00  0.00    -0.248 NA
ATOM     35  C   UNL A   1      44.207  25.926  29.734  1.00  0.00     0.031 C 
ATOM     36  C   UNL A   1      44.713  31.219  31.621  1.00  0.00     0.029 A 
ATOM     37  C   UNL A   1      45.057  29.930  31.215  1.00  0.00     0.049 A 
ATOM     38  H   UNL A   1      45.496  28.415  32.617  1.00  0.00     0.167 HD
ATOM     39  C   UNL A   1      45.136  28.045  29.609  1.00  0.00     0.074 A 
ATOM     40  C   UNL A   1      44.804  26.891  30.436  1.00  0.00     0.031 C 
ATOM     41  C   UNL A   1      45.332  29.360  29.919  1.00  0.00     0.037 A 
BRANCH  28  42
ATOM     42  C   UNL A   1      43.341  27.783  34.675  1.00  0.00     0.064 A 
ATOM     43  C   UNL A   1      43.753  28.152  35.972  1.00  0.00     0.173 A 
ATOM     44  C   UNL A   1      43.633  26.453  34.302  1.00  0.00     0.173 A 
ATOM     45  F   UNL A   1      43.541  29.395  36.431  1.00  0.00    -0.203 F 
ATOM     46  C   UNL A   1      44.482  27.285  36.792  1.00  0.00     0.198 A 
ATOM     47  C   UNL A   1      44.313  25.574  35.145  1.00  0.00     0.198 A 
ATOM     48  F   UNL A   1      43.374  25.986  33.076  1.00  0.00    -0.203 F 
ATOM     49  F   UNL A   1      44.968  27.727  37.960  1.00  0.00    -0.200 F 
ATOM     50  C   UNL A   1      44.769  26.000  36.375  1.00  0.00     0.200 A 
ATOM     51  F   UNL A   1      44.593  24.334  34.717  1.00  0.00    -0.200 F 
ATOM     52  F   UNL A   1      45.524  25.191  37.129  1.00  0.00    -0.200 F 
ENDBRANCH  28  42
BRANCH  29  53
ATOM     53  C   UNL A   1      43.008  24.908  26.783  1.00  0.00     0.064 A 
ATOM     54  C   UNL A   1      43.659  24.749  25.552  1.00  0.00     0.173 A 
ATOM     55  C   UNL A   1      42.537  23.731  27.401  1.00  0.00     0.173 A 
ATOM     56  F   UNL A   1      44.183  25.812  24.924  1.00  0.00    -0.203 F 
ATOM     57  C   UNL A   1      43.837  23.487  24.976  1.00  0.00     0.198 A 
ATOM     58  C   UNL A   1      42.702  22.475  26.820  1.00  0.00     0.198 A 
ATOM     59  F   UNL A   1      41.989  23.765  28.624  1.00  0.00    -0.203 F 
ATOM     60  F   UNL A   1      44.515  23.367  23.827  1.00  0.00    -0.200 F 
ATOM     61  C   UNL A   1      43.363  22.351  25.613  1.00  0.00     0.200 A 
ATOM     62  F   UNL A   1      42.269  21.383  27.466  1.00  0.00    -0.200 F 
ATOM     63  F   UNL A   1      43.578  21.138  25.088  1.00  0.00    -0.200 F 
ENDBRANCH  29  53
BRANCH  41  64
ATOM     64  C   UNL A   1      45.552  30.319  28.788  1.00  0.00     0.064 A 
ATOM     65  C   UNL A   1      44.506  30.968  28.111  1.00  0.00     0.173 A 
ATOM     66  C   UNL A   1      46.864  30.700  28.473  1.00  0.00     0.173 A 
ATOM     67  F   UNL A   1      43.228  30.738  28.437  1.00  0.00    -0.203 F 
ATOM     68  C   UNL A   1      44.765  31.915  27.123  1.00  0.00     0.198 A 
ATOM     69  C   UNL A   1      47.119  31.673  27.511  1.00  0.00     0.198 A 
ATOM     70  F   UNL A   1      47.899  30.161  29.137  1.00  0.00    -0.203 F 
ATOM     71  F   UNL A   1      43.751  32.513  26.482  1.00  0.00    -0.200 F 
ATOM     72  C   UNL A   1      46.072  32.271  26.828  1.00  0.00     0.200 A 
ATOM     73  F   UNL A   1      48.381  32.054  27.267  1.00  0.00    -0.200 F 
ATOM     74  F   UNL A   1      46.320  33.213  25.908  1.00  0.00    -0.200 F 
ENDBRANCH  41  64
ENDBRANCH  15  16
ENDBRANCH   8  10
ENDBRANCH   7   8
ENDBRANCH   6   7
ENDBRANCH   5   6
ENDBRANCH   4   5
ENDBRANCH   3   4
ENDBRANCH   2   3
ENDBRANCH   1   2
BRANCH   1  75
ATOM     75  C   UNL A   1      37.370  31.934  34.263  1.00  0.00     0.202 C 
BRANCH  75  76
ATOM     76  C   UNL A   1      38.761  31.729  33.653  1.00  0.00     0.261 C 
BRANCH  76  77
ATOM     77  O   UNL A   1      39.095  32.671  32.618  1.00  0.00    -0.460 OA
BRANCH  77  78
ATOM     78  C   UNL A   1      40.383  33.095  32.610  1.00  0.00     0.338 C 
ATOM     79  O   UNL A   1      41.202  33.016  33.504  1.00  0.00    -0.246 OA
BRANCH  78  80
ATOM     80  C   UNL A   1      40.717  33.637  31.281  1.00  0.00     0.060 A 
ATOM     81  C   UNL A   1      42.041  33.572  30.826  1.00  0.00     0.018 A 
ATOM     82  C   UNL A   1      39.753  34.341  30.561  1.00  0.00     0.018 A 
ATOM     83  C   UNL A   1      42.413  34.217  29.650  1.00  0.00     0.029 A 
ATOM     84  C   UNL A   1      40.141  35.058  29.425  1.00  0.00     0.029 A 
ATOM     85  C   UNL A   1      41.480  35.024  28.997  1.00  0.00     0.066 A 
BRANCH  85  86
ATOM     86  N   UNL A   1      41.956  35.945  28.037  1.00  0.00    -0.220 N 
ATOM     87  C   UNL A   1      41.907  37.311  28.126  1.00  0.00     0.141 A 
ATOM     88  N   UNL A   1      42.702  35.590  26.965  1.00  0.00    -0.062 NA
ATOM     89  C   UNL A   1      42.782  37.762  27.161  1.00  0.00     0.093 A 
ATOM     90  N   UNL A   1      43.195  36.693  26.414  1.00  0.00    -0.134 NA
BRANCH  89  91
ATOM     91  C   UNL A   1      43.128  39.155  26.823  1.00  0.00     0.138 C 
BRANCH  91  92
ATOM     92  S   UNL A   1      44.017  40.227  27.952  1.00  0.00    -0.081 SA
BRANCH  92  93
ATOM     93  C   UNL A   1      44.371  41.789  27.260  1.00  0.00     0.176 A 
ATOM     94  N   UNL A   1      43.928  41.883  26.038  1.00  0.00    -0.223 NA
ATOM     95  N   UNL A   1      45.007  42.849  27.895  1.00  0.00    -0.255 N 
ATOM     96  C   UNL A   1      44.157  43.067  25.330  1.00  0.00     0.079 A 
ATOM     97  C   UNL A   1      45.769  43.654  27.037  1.00  0.00     0.266 A 
ATOM     98  C   UNL A   1      43.430  43.367  24.177  1.00  0.00     0.029 A 
ATOM     99  C   UNL A   1      45.161  43.935  25.728  1.00  0.00     0.066 A 
ATOM    100  O   UNL A   1      46.880  44.125  27.273  1.00  0.00    -0.268 OA
ATOM    101  C   UNL A   1      43.741  44.503  23.420  1.00  0.00     0.002 A 
ATOM    102  C   UNL A   1      45.514  45.051  24.963  1.00  0.00     0.016 A 
ATOM    103  C   UNL A   1      44.799  45.332  23.799  1.00  0.00     0.001 A 
BRANCH  95 104
ATOM    104  C   UNL A   1      44.943  43.206  29.302  1.00  0.00     0.051 A 
ATOM    105  C   UNL A   1      45.679  42.475  30.259  1.00  0.00     0.027 A 
ATOM    106  C   UNL A   1      44.244  44.313  29.803  1.00  0.00     0.027 A 
ATOM    107  C   UNL A   1      45.592  42.728  31.633  1.00  0.00     0.002 A 
ATOM    108  C   UNL A   1      44.112  44.547  31.180  1.00  0.00     0.002 A 
ATOM    109  C   UNL A   1      44.767  43.738  32.098  1.00  0.00     0.000 A 
ENDBRANCH  95 104
ENDBRANCH  92  93
ENDBRANCH  91  92
ENDBRANCH  89  91
ENDBRANCH  85  86
ENDBRANCH  78  80
ENDBRANCH  77  78
ENDBRANCH  76  77
ENDBRANCH  75  76
ENDBRANCH   1  75
TORSDOF 22
ENDMDL
MODEL 2
REMARK VINA RESULT:     -10.0      6.395     11.387
REMARK SMILES O=C(OCCOCCOCCOC(=O)c1ccc(-n2cc(CSc3nc4ccccc4c(=O)n3-c3ccccc3)nn2)cc1)c1ccc(-c2c3nc(c(-c4c(F)c(F)c(F)c(F)c4F)c4ccc([nH]4)c(-c4c(F)c(F)c(F)c(F)c4F)c4nc(c(-c5c(F)c(F)c(F)c(F)c5F)c5ccc2[nH]5)C=C4)C=C3)cc1
REMARK SMILES IDX 9 1 8 2 7 3 6 4 5 5 4 6 3 7 2 8 1 9 45 10 46 11 107 12 47 13
REMARK SMILES IDX 106 14 48 15 49 16 50 17 100 18 51 19 105 20 99 21 101 22
REMARK SMILES IDX 52 23 104 24 98 25 97 26 53 28 85 29 65 30 84 31 66 32 69 33
REMARK SMILES IDX 83 34 102 35 67 36 68 37 82 39 103 40 70 41 54 42 55 43
REMARK SMILES IDX 63 44 56 45 57 46 61 47 64 48 58 49 59 50 62 51 60 52 86 53
REMARK SMILES IDX 87 54 95 55 88 56 89 57 93 58 96 59 90 60 91 61 94 62 92 63
REMARK SMILES IDX 71 64 72 65 80 66 73 67 74 68 78 69 81 70 75 71 76 72 79 73
REMARK SMILES IDX 77 74 10 75 11 76 12 77 13 78 14 79 15 80 16 81 44 82 17 83
REMARK SMILES IDX 43 84 18 85 19 86 20 87 42 88 21 89 41 90 22 91 23 92 24 93
REMARK SMILES IDX 25 94 34 95 26 96 32 97 27 98 31 99 33 100 28 101 30 102
REMARK SMILES IDX 29 103 35 104 36 105 40 106 37 107 39 108 38 109
REMARK H PARENT 101 27 69 38
REMARK Flexibility Score: inf
ROOT
ATOM      1  O   UNL A   1      36.847  30.034  27.413  1.00  0.00    -0.376 OA
ENDROOT
BRANCH   1   2
ATOM      2  C   UNL A   1      37.893  29.851  28.360  1.00  0.00     0.188 C 
BRANCH   2   3
ATOM      3  C   UNL A   1      38.394  31.056  29.189  1.00  0.00     0.188 C 
BRANCH   3   4
ATOM      4  O   UNL A   1      37.371  31.971  29.536  1.00  0.00    -0.376 OA
BRANCH   4   5
ATOM      5  C   UNL A   1      37.726  33.322  29.748  1.00  0.00     0.202 C 
BRANCH   5   6
ATOM      6  C   UNL A   1      37.196  34.032  30.999  1.00  0.00     0.261 C 
BRANCH   6   7
ATOM      7  O   UNL A   1      37.481  33.400  32.254  1.00  0.00    -0.460 OA
BRANCH   7   8
ATOM      8  C   UNL A   1      37.118  32.191  32.719  1.00  0.00     0.338 C 
ATOM      9  O   UNL A   1      35.969  32.002  33.112  1.00  0.00    -0.246 OA
BRANCH   8  10
ATOM     10  C   UNL A   1      38.126  31.147  33.019  1.00  0.00     0.060 A 
ATOM     11  C   UNL A   1      39.416  31.405  33.477  1.00  0.00     0.016 A 
ATOM     12  C   UNL A   1      37.756  29.826  32.693  1.00  0.00     0.016 A 
ATOM     13  C   UNL A   1      40.357  30.382  33.491  1.00  0.00     0.010 A 
ATOM     14  C   UNL A   1      38.693  28.802  32.709  1.00  0.00     0.010 A 
ATOM     15  C   UNL A   1      40.012  29.108  33.029  1.00  0.00    -0.014 A 
BRANCH  15  16
ATOM     16  C   UNL A   1      41.112  28.192  32.745  1.00  0.00     0.031 A 
ATOM     17  C   UNL A   1      41.724  27.463  33.886  1.00  0.00     0.074 A 
ATOM     18  C   UNL A   1      41.571  28.020  31.488  1.00  0.00     0.049 A 
ATOM     19  N   UNL A   1      42.953  27.506  34.294  1.00  0.00    -0.248 NA
ATOM     20  C   UNL A   1      40.852  26.602  34.692  1.00  0.00     0.031 C 
ATOM     21  C   UNL A   1      40.947  28.450  30.234  1.00  0.00     0.029 A 
ATOM     22  N   UNL A   1      42.673  27.335  31.069  1.00  0.00    -0.354 N 
ATOM     23  C   UNL A   1      43.057  26.558  35.309  1.00  0.00     0.074 A 
ATOM     24  C   UNL A   1      41.716  26.102  35.577  1.00  0.00     0.031 C 
ATOM     25  C   UNL A   1      41.560  27.838  29.199  1.00  0.00     0.029 A 
ATOM     26  C   UNL A   1      42.694  27.085  29.707  1.00  0.00     0.049 A 
ATOM     27  H   UNL A   1      43.389  27.044  31.679  1.00  0.00     0.167 HD
ATOM     28  C   UNL A   1      44.261  26.079  35.728  1.00  0.00     0.037 A 
ATOM     29  C   UNL A   1      43.535  26.254  29.048  1.00  0.00     0.037 A 
ATOM     30  C   UNL A   1      45.339  26.977  35.409  1.00  0.00     0.049 A 
ATOM     31  C   UNL A   1      44.737  26.051  29.890  1.00  0.00     0.074 A 
ATOM     32  C   UNL A   1      45.642  28.288  35.727  1.00  0.00     0.029 A 
ATOM     33  N   UNL A   1      46.213  26.642  34.406  1.00  0.00    -0.354 N 
ATOM     34  N   UNL A   1      45.638  26.964  30.121  1.00  0.00    -0.248 NA
ATOM     35  C   UNL A   1      44.746  24.921  30.805  1.00  0.00     0.031 C 
ATOM     36  C   UNL A   1      46.320  28.805  34.583  1.00  0.00     0.029 A 
ATOM     37  C   UNL A   1      46.398  27.769  33.652  1.00  0.00     0.049 A 
ATOM     38  H   UNL A   1      46.626  25.761  34.258  1.00  0.00     0.167 HD
ATOM     39  C   UNL A   1      46.041  26.739  31.428  1.00  0.00     0.074 A 
ATOM     40  C   UNL A   1      45.547  25.406  31.755  1.00  0.00     0.031 C 
ATOM     41  C   UNL A   1      46.492  27.760  32.213  1.00  0.00     0.037 A 
BRANCH  28  42
ATOM     42  C   UNL A   1      44.508  24.645  36.142  1.00  0.00     0.064 A 
ATOM     43  C   UNL A   1      45.195  24.379  37.345  1.00  0.00     0.173 A 
ATOM     44  C   UNL A   1      44.380  23.549  35.262  1.00  0.00     0.173 A 
ATOM     45  F   UNL A   1      45.390  25.348  38.252  1.00  0.00    -0.203 F 
ATOM     46  C   UNL A   1      45.786  23.138  37.600  1.00  0.00     0.198 A 
ATOM     47  C   UNL A   1      44.924  22.297  35.546  1.00  0.00     0.198 A 
ATOM     48  F   UNL A   1      43.824  23.672  34.051  1.00  0.00    -0.203 F 
ATOM     49  F   UNL A   1      46.543  22.974  38.694  1.00  0.00    -0.200 F 
ATOM     50  C   UNL A   1      45.658  22.100  36.697  1.00  0.00     0.200 A 
ATOM     51  F   UNL A   1      44.800  21.306  34.651  1.00  0.00    -0.200 F 
ATOM     52  F   UNL A   1      46.279  20.933  36.906  1.00  0.00    -0.200 F 
ENDBRANCH  28  42
BRANCH  29  53
ATOM     53  C   UNL A   1      43.220  25.415  27.871  1.00  0.00     0.064 A 
ATOM     54  C   UNL A   1      43.856  25.617  26.638  1.00  0.00     0.173 A 
ATOM     55  C   UNL A   1      42.467  24.231  28.003  1.00  0.00     0.173 A 
ATOM     56  F   UNL A   1      44.635  26.693  26.449  1.00  0.00    -0.203 F 
ATOM     57  C   UNL A   1      43.752  24.685  25.601  1.00  0.00     0.198 A 
ATOM     58  C   UNL A   1      42.352  23.309  26.963  1.00  0.00     0.198 A 
ATOM     59  F   UNL A   1      41.902  23.898  29.172  1.00  0.00    -0.203 F 
ATOM     60  F   UNL A   1      44.420  24.882  24.456  1.00  0.00    -0.200 F 
ATOM     61  C   UNL A   1      43.004  23.530  25.766  1.00  0.00     0.200 A 
ATOM     62  F   UNL A   1      41.653  22.180  27.152  1.00  0.00    -0.200 F 
ATOM     63  F   UNL A   1      42.946  22.613  24.792  1.00  0.00    -0.200 F 
ENDBRANCH  29  53
BRANCH  41  64
ATOM     64  C   UNL A   1      46.823  29.061  31.546  1.00  0.00     0.064 A 
ATOM     65  C   UNL A   1      48.093  29.363  31.028  1.00  0.00     0.173 A 
ATOM     66  C   UNL A   1      45.787  29.973  31.297  1.00  0.00     0.173 A 
ATOM     67  F   UNL A   1      49.102  28.488  31.127  1.00  0.00    -0.203 F 
ATOM     68  C   UNL A   1      48.327  30.552  30.340  1.00  0.00     0.198 A 
ATOM     69  C   UNL A   1      46.016  31.143  30.579  1.00  0.00     0.198 A 
ATOM     70  F   UNL A   1      44.539  29.702  31.711  1.00  0.00    -0.203 F 
ATOM     71  F   UNL A   1      49.552  30.824  29.865  1.00  0.00    -0.200 F 
ATOM     72  C   UNL A   1      47.287  31.438  30.113  1.00  0.00     0.200 A 
ATOM     73  F   UNL A   1      44.996  31.972  30.313  1.00  0.00    -0.200 F 
ATOM     74  F   UNL A   1      47.503  32.562  29.415  1.00  0.00    -0.200 F 
ENDBRANCH  41  64
ENDBRANCH  15  16
ENDBRANCH   8  10
ENDBRANCH   7   8
ENDBRANCH   6   7
ENDBRANCH   5   6
ENDBRANCH   4   5
ENDBRANCH   3   4
ENDBRANCH   2   3
ENDBRANCH   1   2
BRANCH   1  75
ATOM     75  C   UNL A   1      35.519  29.677  27.770  1.00  0.00     0.202 C 
BRANCH  75  76
ATOM     76  C   UNL A   1      34.369  30.545  27.249  1.00  0.00     0.261 C 
BRANCH  76  77
ATOM     77  O   UNL A   1      33.654  29.972  26.140  1.00  0.00    -0.460 OA
BRANCH  77  78
ATOM     78  C   UNL A   1      32.313  30.168  26.149  1.00  0.00     0.338 C 
ATOM     79  O   UNL A   1      31.711  31.223  26.126  1.00  0.00    -0.246 OA
BRANCH  78  80
ATOM     80  C   UNL A   1      31.622  28.866  26.119  1.00  0.00     0.060 A 
ATOM     81  C   UNL A   1      31.508  28.123  27.301  1.00  0.00     0.018 A 
ATOM     82  C   UNL A   1      31.227  28.323  24.897  1.00  0.00     0.018 A 
ATOM     83  C   UNL A   1      31.005  26.825  27.270  1.00  0.00     0.029 A 
ATOM     84  C   UNL A   1      30.801  26.993  24.851  1.00  0.00     0.029 A 
ATOM     85  C   UNL A   1      30.728  26.236  26.034  1.00  0.00     0.066 A 
BRANCH  85  86
ATOM     86  N   UNL A   1      30.575  24.833  25.988  1.00  0.00    -0.220 N 
ATOM     87  C   UNL A   1      31.178  23.977  25.106  1.00  0.00     0.141 A 
ATOM     88  N   UNL A   1      29.939  24.118  26.946  1.00  0.00    -0.062 NA
ATOM     89  C   UNL A   1      31.017  22.725  25.657  1.00  0.00     0.093 A 
ATOM     90  N   UNL A   1      30.189  22.829  26.741  1.00  0.00    -0.134 NA
BRANCH  89  91
ATOM     91  C   UNL A   1      31.482  21.428  25.129  1.00  0.00     0.138 C 
BRANCH  91  92
ATOM     92  S   UNL A   1      32.741  21.303  23.860  1.00  0.00    -0.081 SA
BRANCH  92  93
ATOM     93  C   UNL A   1      34.203  22.161  24.274  1.00  0.00     0.176 A 
ATOM     94  N   UNL A   1      35.131  21.350  24.697  1.00  0.00    -0.223 NA
ATOM     95  N   UNL A   1      34.420  23.529  24.154  1.00  0.00    -0.255 N 
ATOM     96  C   UNL A   1      36.359  21.885  25.098  1.00  0.00     0.079 A 
ATOM     97  C   UNL A   1      35.288  24.056  25.120  1.00  0.00     0.266 A 
ATOM     98  C   UNL A   1      37.488  21.076  25.225  1.00  0.00     0.029 A 
ATOM     99  C   UNL A   1      36.458  23.225  25.439  1.00  0.00     0.066 A 
ATOM    100  O   UNL A   1      35.153  25.122  25.719  1.00  0.00    -0.268 OA
ATOM    101  C   UNL A   1      38.684  21.603  25.727  1.00  0.00     0.002 A 
ATOM    102  C   UNL A   1      37.631  23.760  25.982  1.00  0.00     0.016 A 
ATOM    103  C   UNL A   1      38.749  22.940  26.128  1.00  0.00     0.001 A 
BRANCH  95 104
ATOM    104  C   UNL A   1      33.878  24.427  23.149  1.00  0.00     0.051 A 
ATOM    105  C   UNL A   1      33.995  25.825  23.302  1.00  0.00     0.027 A 
ATOM    106  C   UNL A   1      33.290  24.004  21.949  1.00  0.00     0.027 A 
ATOM    107  C   UNL A   1      33.423  26.734  22.404  1.00  0.00     0.002 A 
ATOM    108  C   UNL A   1      32.672  24.905  21.067  1.00  0.00     0.002 A 
ATOM    109  C   UNL A   1      32.717  26.270  21.307  1.00  0.00     0.000 A 
ENDBRANCH  95 104
ENDBRANCH  92  93
ENDBRANCH  91  92
ENDBRANCH  89  91
ENDBRANCH  85  86
ENDBRANCH  78  80
ENDBRANCH  77  78
ENDBRANCH  76  77
ENDBRANCH  75  76
ENDBRANCH   1  75
TORSDOF 22
ENDMDL
MODEL 3
REMARK VINA RESULT:      -9.5      5.528     12.510
REMARK SMILES O=C(OCCOCCOCCOC(=O)c1ccc(-n2cc(CSc3nc4ccccc4c(=O)n3-c3ccccc3)nn2)cc1)c1ccc(-c2c3nc(c(-c4c(F)c(F)c(F)c(F)c4F)c4ccc([nH]4)c(-c4c(F)c(F)c(F)c(F)c4F)c4nc(c(-c5c(F)c(F)c(F)c(F)c5F)c5ccc2[nH]5)C=C4)C=C3)cc1
REMARK SMILES IDX 9 1 8 2 7 3 6 4 5 5 4 6 3 7 2 8 1 9 45 10 46 11 107 12 47 13
REMARK SMILES IDX 106 14 48 15 49 16 50 17 100 18 51 19 105 20 99 21 101 22
REMARK SMILES IDX 52 23 104 24 98 25 97 26 53 28 85 29 65 30 84 31 66 32 69 33
REMARK SMILES IDX 83 34 102 35 67 36 68 37 82 39 103 40 70 41 54 42 55 43
REMARK SMILES IDX 63 44 56 45 57 46 61 47 64 48 58 49 59 50 62 51 60 52 86 53
REMARK SMILES IDX 87 54 95 55 88 56 89 57 93 58 96 59 90 60 91 61 94 62 92 63
REMARK SMILES IDX 71 64 72 65 80 66 73 67 74 68 78 69 81 70 75 71 76 72 79 73
REMARK SMILES IDX 77 74 10 75 11 76 12 77 13 78 14 79 15 80 16 81 44 82 17 83
REMARK SMILES IDX 43 84 18 85 19 86 20 87 42 88 21 89 41 90 22 91 23 92 24 93
REMARK SMILES IDX 25 94 34 95 26 96 32 97 27 98 31 99 33 100 28 101 30 102
REMARK SMILES IDX 29 103 35 104 36 105 40 106 37 107 39 108 38 109
REMARK H PARENT 101 27 69 38
REMARK Flexibility Score: inf
ROOT
ATOM      1  O   UNL A   1      36.903  32.918  31.075  1.00  0.00    -0.376 OA
ENDROOT
BRANCH   1   2
ATOM      2  C   UNL A   1      37.977  32.831  32.005  1.00  0.00     0.188 C 
BRANCH   2   3
ATOM      3  C   UNL A   1      38.202  33.971  33.024  1.00  0.00     0.188 C 
BRANCH   3   4
ATOM      4  O   UNL A   1      39.538  34.067  33.482  1.00  0.00    -0.376 OA
BRANCH   4   5
ATOM      5  C   UNL A   1      40.428  34.909  32.779  1.00  0.00     0.202 C 
BRANCH   5   6
ATOM      6  C   UNL A   1      41.702  35.384  33.486  1.00  0.00     0.261 C 
BRANCH   6   7
ATOM      7  O   UNL A   1      42.883  35.466  32.676  1.00  0.00    -0.460 OA
BRANCH   7   8
ATOM      8  C   UNL A   1      43.177  34.866  31.508  1.00  0.00     0.338 C 
ATOM      9  O   UNL A   1      43.154  35.509  30.462  1.00  0.00    -0.246 OA
BRANCH   8  10
ATOM     10  C   UNL A   1      43.272  33.390  31.405  1.00  0.00     0.060 A 
ATOM     11  C   UNL A   1      43.948  32.577  32.312  1.00  0.00     0.016 A 
ATOM     12  C   UNL A   1      42.731  32.823  30.233  1.00  0.00     0.016 A 
ATOM     13  C   UNL A   1      44.187  31.245  31.993  1.00  0.00     0.010 A 
ATOM     14  C   UNL A   1      42.966  31.493  29.914  1.00  0.00     0.010 A 
ATOM     15  C   UNL A   1      43.767  30.733  30.761  1.00  0.00    -0.014 A 
BRANCH  15  16
ATOM     16  C   UNL A   1      44.342  29.458  30.349  1.00  0.00     0.031 A 
ATOM     17  C   UNL A   1      45.222  29.444  29.153  1.00  0.00     0.074 A 
ATOM     18  C   UNL A   1      44.073  28.321  31.023  1.00  0.00     0.049 A 
ATOM     19  N   UNL A   1      45.056  28.788  28.047  1.00  0.00    -0.248 NA
ATOM     20  C   UNL A   1      46.422  30.288  29.178  1.00  0.00     0.031 C 
ATOM     21  C   UNL A   1      43.446  28.180  32.341  1.00  0.00     0.029 A 
ATOM     22  N   UNL A   1      44.393  27.037  30.692  1.00  0.00    -0.354 N 
ATOM     23  C   UNL A   1      46.207  29.006  27.292  1.00  0.00     0.074 A 
ATOM     24  C   UNL A   1      46.968  30.010  27.993  1.00  0.00     0.031 C 
ATOM     25  C   UNL A   1      43.623  26.918  32.785  1.00  0.00     0.029 A 
ATOM     26  C   UNL A   1      44.253  26.137  31.735  1.00  0.00     0.049 A 
ATOM     27  H   UNL A   1      44.695  26.773  29.793  1.00  0.00     0.167 HD
ATOM     28  C   UNL A   1      46.541  28.208  26.240  1.00  0.00     0.037 A 
ATOM     29  C   UNL A   1      44.695  24.858  31.768  1.00  0.00     0.037 A 
ATOM     30  C   UNL A   1      45.400  27.510  25.709  1.00  0.00     0.049 A 
ATOM     31  C   UNL A   1      44.884  24.400  30.371  1.00  0.00     0.074 A 
ATOM     32  C   UNL A   1      44.193  27.896  25.157  1.00  0.00     0.029 A 
ATOM     33  N   UNL A   1      45.275  26.164  25.938  1.00  0.00    -0.354 N 
ATOM     34  N   UNL A   1      43.913  24.163  29.535  1.00  0.00    -0.248 NA
ATOM     35  C   UNL A   1      46.198  24.570  29.770  1.00  0.00     0.031 C 
ATOM     36  C   UNL A   1      43.264  26.885  25.544  1.00  0.00     0.029 A 
ATOM     37  C   UNL A   1      43.971  25.945  26.292  1.00  0.00     0.049 A 
ATOM     38  H   UNL A   1      45.986  25.487  25.861  1.00  0.00     0.167 HD
ATOM     39  C   UNL A   1      44.405  24.564  28.302  1.00  0.00     0.074 A 
ATOM     40  C   UNL A   1      45.845  24.694  28.489  1.00  0.00     0.031 C 
ATOM     41  C   UNL A   1      43.570  25.022  27.325  1.00  0.00     0.037 A 
BRANCH  28  42
ATOM     42  C   UNL A   1      47.958  27.808  25.893  1.00  0.00     0.064 A 
ATOM     43  C   UNL A   1      48.316  27.625  24.541  1.00  0.00     0.173 A 
ATOM     44  C   UNL A   1      48.875  27.298  26.838  1.00  0.00     0.173 A 
ATOM     45  F   UNL A   1      47.514  28.057  23.556  1.00  0.00    -0.203 F 
ATOM     46  C   UNL A   1      49.455  26.905  24.168  1.00  0.00     0.198 A 
ATOM     47  C   UNL A   1      50.038  26.627  26.460  1.00  0.00     0.198 A 
ATOM     48  F   UNL A   1      48.631  27.328  28.152  1.00  0.00    -0.203 F 
ATOM     49  F   UNL A   1      49.680  26.641  22.874  1.00  0.00    -0.200 F 
ATOM     50  C   UNL A   1      50.311  26.399  25.128  1.00  0.00     0.200 A 
ATOM     51  F   UNL A   1      50.850  26.133  27.406  1.00  0.00    -0.200 F 
ATOM     52  F   UNL A   1      51.364  25.652  24.776  1.00  0.00    -0.200 F 
ENDBRANCH  28  42
BRANCH  29  53
ATOM     53  C   UNL A   1      45.226  24.127  32.939  1.00  0.00     0.064 A 
ATOM     54  C   UNL A   1      46.335  24.601  33.654  1.00  0.00     0.173 A 
ATOM     55  C   UNL A   1      44.497  23.076  33.533  1.00  0.00     0.173 A 
ATOM     56  F   UNL A   1      47.050  25.633  33.184  1.00  0.00    -0.203 F 
ATOM     57  C   UNL A   1      46.690  24.061  34.894  1.00  0.00     0.198 A 
ATOM     58  C   UNL A   1      44.860  22.528  34.762  1.00  0.00     0.198 A 
ATOM     59  F   UNL A   1      43.366  22.620  32.977  1.00  0.00    -0.203 F 
ATOM     60  F   UNL A   1      47.721  24.576  35.577  1.00  0.00    -0.200 F 
ATOM     61  C   UNL A   1      45.949  23.028  35.449  1.00  0.00     0.200 A 
ATOM     62  F   UNL A   1      44.113  21.554  35.301  1.00  0.00    -0.200 F 
ATOM     63  F   UNL A   1      46.258  22.545  36.660  1.00  0.00    -0.200 F 
ENDBRANCH  29  53
BRANCH  41  64
ATOM     64  C   UNL A   1      42.097  24.802  27.505  1.00  0.00     0.064 A 
ATOM     65  C   UNL A   1      41.254  25.716  28.158  1.00  0.00     0.173 A 
ATOM     66  C   UNL A   1      41.499  23.702  26.874  1.00  0.00     0.173 A 
ATOM     67  F   UNL A   1      41.741  26.846  28.685  1.00  0.00    -0.203 F 
ATOM     68  C   UNL A   1      39.878  25.506  28.224  1.00  0.00     0.198 A 
ATOM     69  C   UNL A   1      40.120  23.514  26.911  1.00  0.00     0.198 A 
ATOM     70  F   UNL A   1      42.251  22.834  26.178  1.00  0.00    -0.203 F 
ATOM     71  F   UNL A   1      39.094  26.386  28.863  1.00  0.00    -0.200 F 
ATOM     72  C   UNL A   1      39.312  24.408  27.596  1.00  0.00     0.200 A 
ATOM     73  F   UNL A   1      39.570  22.482  26.256  1.00  0.00    -0.200 F 
ATOM     74  F   UNL A   1      37.984  24.229  27.623  1.00  0.00    -0.200 F 
ENDBRANCH  41  64
ENDBRANCH  15  16
ENDBRANCH   8  10
ENDBRANCH   7   8
ENDBRANCH   6   7
ENDBRANCH   5   6
ENDBRANCH   4   5
ENDBRANCH   3   4
ENDBRANCH   2   3
ENDBRANCH   1   2
BRANCH   1  75
ATOM     75  C   UNL A   1      35.579  32.654  31.520  1.00  0.00     0.202 C 
BRANCH  75  76
ATOM     76  C   UNL A   1      34.418  32.988  30.578  1.00  0.00     0.261 C 
BRANCH  76  77
ATOM     77  O   UNL A   1      34.350  32.154  29.408  1.00  0.00    -0.460 OA
BRANCH  77  78
ATOM     78  C   UNL A   1      33.656  32.669  28.364  1.00  0.00     0.338 C 
ATOM     79  O   UNL A   1      33.433  33.838  28.118  1.00  0.00    -0.246 OA
BRANCH  78  80
ATOM     80  C   UNL A   1      33.230  31.580  27.467  1.00  0.00     0.060 A 
ATOM     81  C   UNL A   1      34.159  30.605  27.082  1.00  0.00     0.018 A 
ATOM     82  C   UNL A   1      31.960  31.618  26.892  1.00  0.00     0.018 A 
ATOM     83  C   UNL A   1      33.829  29.661  26.113  1.00  0.00     0.029 A 
ATOM     84  C   UNL A   1      31.654  30.725  25.860  1.00  0.00     0.029 A 
ATOM     85  C   UNL A   1      32.606  29.775  25.448  1.00  0.00     0.066 A 
BRANCH  85  86
ATOM     86  N   UNL A   1      32.438  29.058  24.243  1.00  0.00    -0.220 N 
ATOM     87  C   UNL A   1      33.406  28.365  23.567  1.00  0.00     0.141 A 
ATOM     88  N   UNL A   1      31.231  28.809  23.683  1.00  0.00    -0.062 NA
ATOM     89  C   UNL A   1      32.718  27.565  22.681  1.00  0.00     0.093 A 
ATOM     90  N   UNL A   1      31.395  27.912  22.717  1.00  0.00    -0.134 NA
BRANCH  89  91
ATOM     91  C   UNL A   1      33.265  26.601  21.707  1.00  0.00     0.138 C 
BRANCH  91  92
ATOM     92  S   UNL A   1      32.804  24.869  21.706  1.00  0.00    -0.081 SA
BRANCH  92  93
ATOM     93  C   UNL A   1      33.512  23.984  23.034  1.00  0.00     0.176 A 
ATOM     94  N   UNL A   1      34.668  23.478  22.710  1.00  0.00    -0.223 NA
ATOM     95  N   UNL A   1      32.975  23.836  24.307  1.00  0.00    -0.255 N 
ATOM     96  C   UNL A   1      35.355  22.712  23.657  1.00  0.00     0.079 A 
ATOM     97  C   UNL A   1      33.295  22.618  24.923  1.00  0.00     0.266 A 
ATOM     98  C   UNL A   1      36.716  22.439  23.510  1.00  0.00     0.029 A 
ATOM     99  C   UNL A   1      34.677  22.155  24.729  1.00  0.00     0.066 A 
ATOM    100  O   UNL A   1      32.535  21.914  25.586  1.00  0.00    -0.268 OA
ATOM    101  C   UNL A   1      37.368  21.586  24.409  1.00  0.00     0.002 A 
ATOM    102  C   UNL A   1      35.300  21.268  25.613  1.00  0.00     0.016 A 
ATOM    103  C   UNL A   1      36.654  20.981  25.446  1.00  0.00     0.001 A 
BRANCH  95 104
ATOM    104  C   UNL A   1      32.168  24.792  25.045  1.00  0.00     0.051 A 
ATOM    105  C   UNL A   1      30.782  24.897  24.801  1.00  0.00     0.027 A 
ATOM    106  C   UNL A   1      32.655  25.602  26.080  1.00  0.00     0.027 A 
ATOM    107  C   UNL A   1      29.974  25.853  25.427  1.00  0.00     0.002 A 
ATOM    108  C   UNL A   1      31.866  26.596  26.680  1.00  0.00     0.002 A 
ATOM    109  C   UNL A   1      30.530  26.738  26.335  1.00  0.00     0.000 A 
ENDBRANCH  95 104
ENDBRANCH  92  93
ENDBRANCH  91  92
ENDBRANCH  89  91
ENDBRANCH  85  86
ENDBRANCH  78  80
ENDBRANCH  77  78
ENDBRANCH  76  77
ENDBRANCH  75  76
ENDBRANCH   1  75
TORSDOF 22
ENDMDL
