MODEL 1
REMARK VINA RESULT:     -11.6      0.000      0.000
REMARK SMILES O=C(Cn1nc(C(=O)OCCOCCOCCOC(=O)c2ccc(-c3c4nc(c(-c5c(F)c(F)c(F)c(F)c5F)c5ccc([nH]5)c(-c5c(F)c(F)c(F)c(F)c5F)c5nc(c(-c6c(F)c(F)c(F)c(F)c6F)c6ccc3[nH]6)C=C5)C=C4)cc2)c2ccccc2c1=O)Nc1ccc2c(c1)C(=O)c1ccccc1C2=O
REMARK SMILES IDX 13 1 12 2 11 3 10 4 9 5 7 6 8 7 6 8 4 9 5 10 90 11 89 12
REMARK SMILES IDX 91 13 84 14 88 15 85 16 87 17 86 18 3 19 2 20 1 21 92 22
REMARK SMILES IDX 93 24 94 25 98 26 95 27 97 28 96 29 99 30 107 31 100 32
REMARK SMILES IDX 101 33 106 34 108 35 102 36 105 37 103 38 104 39 14 40 15 41
REMARK SMILES IDX 16 42 17 43 18 44 19 45 20 46 21 47 22 48 83 49 23 50 82 51
REMARK SMILES IDX 24 52 25 53 26 54 76 55 27 56 81 57 75 58 77 59 28 60 80 61
REMARK SMILES IDX 74 62 73 63 29 65 61 66 41 67 60 68 42 69 45 70 59 71 78 72
REMARK SMILES IDX 43 73 44 74 58 76 79 77 46 78 30 79 31 80 39 81 32 82 33 83
REMARK SMILES IDX 37 84 40 85 34 86 35 87 38 88 36 89 62 90 63 91 71 92 64 93
REMARK SMILES IDX 65 94 69 95 72 96 66 97 67 98 70 99 68 100 47 101 48 102
REMARK SMILES IDX 56 103 49 104 50 105 54 106 57 107 51 108 52 109 55 110
REMARK SMILES IDX 53 111
REMARK H PARENT 92 23 77 64 45 75
REMARK Flexibility Score: inf
ROOT
ATOM      1  C   UNL A   1      44.674  22.540  24.004  1.00  0.00     0.188 C 
ENDROOT
BRANCH   1   2
ATOM      2  O   UNL A   1      44.536  21.130  23.849  1.00  0.00    -0.376 OA
BRANCH   2   3
ATOM      3  C   UNL A   1      44.800  20.298  24.979  1.00  0.00     0.202 C 
BRANCH   3   4
ATOM      4  C   UNL A   1      43.733  19.232  25.219  1.00  0.00     0.261 C 
BRANCH   4   5
ATOM      5  O   UNL A   1      42.468  19.890  25.361  1.00  0.00    -0.458 OA
BRANCH   5   6
ATOM      6  C   UNL A   1      41.876  19.791  26.565  1.00  0.00     0.359 C 
ATOM      7  O   UNL A   1      42.084  18.992  27.455  1.00  0.00    -0.244 OA
BRANCH   6   8
ATOM      8  C   UNL A   1      41.008  21.025  26.722  1.00  0.00     0.176 A 
ATOM      9  N   UNL A   1      39.157  22.236  26.049  1.00  0.00    -0.219 N 
ATOM     10  N   UNL A   1      39.877  21.057  26.075  1.00  0.00    -0.161 NA
ATOM     11  C   UNL A   1      39.648  23.433  26.574  1.00  0.00     0.275 A 
ATOM     12  C   UNL A   1      40.829  23.339  27.452  1.00  0.00     0.051 A 
ATOM     13  O   UNL A   1      39.127  24.525  26.381  1.00  0.00    -0.267 OA
ATOM     14  C   UNL A   1      41.532  22.144  27.520  1.00  0.00     0.022 A 
ATOM     15  C   UNL A   1      41.239  24.442  28.213  1.00  0.00     0.014 A 
ATOM     16  C   UNL A   1      42.676  22.050  28.324  1.00  0.00     0.011 A 
ATOM     17  C   UNL A   1      42.367  24.344  29.028  1.00  0.00     0.001 A 
ATOM     18  C   UNL A   1      43.089  23.153  29.076  1.00  0.00     0.001 A 
BRANCH   9  19
ATOM     19  C   UNL A   1      38.001  22.280  25.129  1.00  0.00     0.248 C 
BRANCH  19  20
ATOM     20  C   UNL A   1      36.798  21.416  25.552  1.00  0.00     0.246 C 
ATOM     21  O   UNL A   1      36.727  20.217  25.294  1.00  0.00    -0.273 OA
ATOM     22  N   UNL A   1      35.897  22.083  26.355  1.00  0.00    -0.324 N 
ATOM     23  H   UNL A   1      36.226  22.831  26.906  1.00  0.00     0.169 HD
BRANCH  22  24
ATOM     24  C   UNL A   1      34.536  21.749  26.428  1.00  0.00     0.042 A 
ATOM     25  C   UNL A   1      33.876  21.913  27.649  1.00  0.00     0.027 A 
ATOM     26  C   UNL A   1      33.827  21.796  25.227  1.00  0.00     0.039 A 
ATOM     27  C   UNL A   1      32.529  22.289  27.666  1.00  0.00     0.015 A 
ATOM     28  C   UNL A   1      32.510  22.236  25.244  1.00  0.00     0.036 A 
ATOM     29  C   UNL A   1      31.891  22.555  26.452  1.00  0.00     0.034 A 
ATOM     30  C   UNL A   1      31.935  22.720  23.976  1.00  0.00     0.194 C 
ATOM     31  C   UNL A   1      30.744  23.493  26.426  1.00  0.00     0.194 C 
ATOM     32  O   UNL A   1      32.138  22.163  22.910  1.00  0.00    -0.289 OA
ATOM     33  C   UNL A   1      31.274  24.032  24.059  1.00  0.00     0.034 A 
ATOM     34  C   UNL A   1      30.713  24.428  25.275  1.00  0.00     0.034 A 
ATOM     35  O   UNL A   1      29.971  23.596  27.364  1.00  0.00    -0.289 OA
ATOM     36  C   UNL A   1      31.395  24.929  22.996  1.00  0.00     0.013 A 
ATOM     37  C   UNL A   1      30.287  25.745  25.446  1.00  0.00     0.013 A 
ATOM     38  C   UNL A   1      30.999  26.252  23.179  1.00  0.00     0.001 A 
ATOM     39  C   UNL A   1      30.455  26.660  24.401  1.00  0.00     0.001 A 
ENDBRANCH  22  24
ENDBRANCH  19  20
ENDBRANCH   9  19
ENDBRANCH   6   8
ENDBRANCH   5   6
ENDBRANCH   4   5
ENDBRANCH   3   4
ENDBRANCH   2   3
ENDBRANCH   1   2
BRANCH   1  40
ATOM     40  C   UNL A   1      44.956  23.100  25.410  1.00  0.00     0.188 C 
BRANCH  40  41
ATOM     41  O   UNL A   1      44.102  24.128  25.897  1.00  0.00    -0.376 OA
BRANCH  41  42
ATOM     42  C   UNL A   1      44.145  25.397  25.249  1.00  0.00     0.202 C 
BRANCH  42  43
ATOM     43  C   UNL A   1      42.828  26.168  25.294  1.00  0.00     0.261 C 
BRANCH  43  44
ATOM     44  O   UNL A   1      43.002  27.356  26.086  1.00  0.00    -0.460 OA
BRANCH  44  45
ATOM     45  C   UNL A   1      41.915  27.774  26.773  1.00  0.00     0.338 C 
ATOM     46  O   UNL A   1      40.771  27.865  26.369  1.00  0.00    -0.246 OA
BRANCH  45  47
ATOM     47  C   UNL A   1      42.293  27.949  28.190  1.00  0.00     0.060 A 
ATOM     48  C   UNL A   1      41.347  27.884  29.217  1.00  0.00     0.016 A 
ATOM     49  C   UNL A   1      43.645  28.169  28.481  1.00  0.00     0.016 A 
ATOM     50  C   UNL A   1      41.763  28.002  30.545  1.00  0.00     0.010 A 
ATOM     51  C   UNL A   1      44.056  28.300  29.805  1.00  0.00     0.010 A 
ATOM     52  C   UNL A   1      43.120  28.197  30.845  1.00  0.00    -0.014 A 
BRANCH  52  53
ATOM     53  C   UNL A   1      43.588  28.163  32.248  1.00  0.00     0.031 A 
ATOM     54  C   UNL A   1      44.174  26.922  32.843  1.00  0.00     0.074 A 
ATOM     55  C   UNL A   1      43.452  29.275  32.993  1.00  0.00     0.049 A 
ATOM     56  N   UNL A   1      44.646  26.731  34.048  1.00  0.00    -0.248 NA
ATOM     57  C   UNL A   1      44.233  25.737  31.975  1.00  0.00     0.031 C 
ATOM     58  C   UNL A   1      42.878  30.536  32.520  1.00  0.00     0.029 A 
ATOM     59  N   UNL A   1      43.781  29.524  34.299  1.00  0.00    -0.354 N 
ATOM     60  C   UNL A   1      45.074  25.413  34.084  1.00  0.00     0.074 A 
ATOM     61  C   UNL A   1      44.774  24.836  32.789  1.00  0.00     0.031 C 
ATOM     62  C   UNL A   1      42.898  31.428  33.522  1.00  0.00     0.029 A 
ATOM     63  C   UNL A   1      43.479  30.800  34.705  1.00  0.00     0.049 A 
ATOM     64  H   UNL A   1      44.193  28.853  34.890  1.00  0.00     0.167 HD
ATOM     65  C   UNL A   1      45.674  24.755  35.105  1.00  0.00     0.037 A 
ATOM     66  C   UNL A   1      43.659  31.398  35.896  1.00  0.00     0.037 A 
ATOM     67  C   UNL A   1      45.972  25.334  36.390  1.00  0.00     0.049 A 
ATOM     68  C   UNL A   1      44.306  30.636  37.016  1.00  0.00     0.074 A 
ATOM     69  C   UNL A   1      46.622  24.755  37.466  1.00  0.00     0.029 A 
ATOM     70  N   UNL A   1      45.635  26.624  36.774  1.00  0.00    -0.354 N 
ATOM     71  N   UNL A   1      44.755  29.405  37.023  1.00  0.00    -0.248 NA
ATOM     72  C   UNL A   1      44.479  31.348  38.289  1.00  0.00     0.031 C 
ATOM     73  C   UNL A   1      46.649  25.683  38.514  1.00  0.00     0.029 A 
ATOM     74  C   UNL A   1      46.046  26.850  38.079  1.00  0.00     0.049 A 
ATOM     75  H   UNL A   1      45.174  27.281  36.204  1.00  0.00     0.167 HD
ATOM     76  C   UNL A   1      45.277  29.198  38.291  1.00  0.00     0.074 A 
ATOM     77  C   UNL A   1      45.100  30.435  39.024  1.00  0.00     0.031 C 
ATOM     78  C   UNL A   1      45.854  28.083  38.798  1.00  0.00     0.037 A 
BRANCH  65  79
ATOM     79  C   UNL A   1      46.064  23.327  34.878  1.00  0.00     0.064 A 
ATOM     80  C   UNL A   1      47.393  22.972  34.602  1.00  0.00     0.173 A 
ATOM     81  C   UNL A   1      45.121  22.299  35.016  1.00  0.00     0.173 A 
ATOM     82  F   UNL A   1      48.326  23.923  34.449  1.00  0.00    -0.203 F 
ATOM     83  C   UNL A   1      47.761  21.637  34.466  1.00  0.00     0.198 A 
ATOM     84  C   UNL A   1      45.497  20.963  34.896  1.00  0.00     0.198 A 
ATOM     85  F   UNL A   1      43.838  22.589  35.277  1.00  0.00    -0.203 F 
ATOM     86  F   UNL A   1      49.032  21.321  34.179  1.00  0.00    -0.200 F 
ATOM     87  C   UNL A   1      46.816  20.634  34.621  1.00  0.00     0.200 A 
ATOM     88  F   UNL A   1      44.583  19.995  35.050  1.00  0.00    -0.200 F 
ATOM     89  F   UNL A   1      47.175  19.349  34.499  1.00  0.00    -0.200 F 
ENDBRANCH  65  79
BRANCH  66  90
ATOM     90  C   UNL A   1      43.256  32.814  36.068  1.00  0.00     0.064 A 
ATOM     91  C   UNL A   1      44.133  33.850  35.723  1.00  0.00     0.173 A 
ATOM     92  C   UNL A   1      41.985  33.156  36.546  1.00  0.00     0.173 A 
ATOM     93  F   UNL A   1      45.365  33.564  35.278  1.00  0.00    -0.203 F 
ATOM     94  C   UNL A   1      43.753  35.183  35.855  1.00  0.00     0.198 A 
ATOM     95  C   UNL A   1      41.600  34.490  36.661  1.00  0.00     0.198 A 
ATOM     96  F   UNL A   1      41.114  32.195  36.884  1.00  0.00    -0.203 F 
ATOM     97  F   UNL A   1      44.616  36.157  35.539  1.00  0.00    -0.200 F 
ATOM     98  C   UNL A   1      42.484  35.502  36.318  1.00  0.00     0.200 A 
ATOM     99  F   UNL A   1      40.372  34.795  37.101  1.00  0.00    -0.200 F 
ATOM    100  F   UNL A   1      42.117  36.784  36.437  1.00  0.00    -0.200 F 
ENDBRANCH  66  90
BRANCH  78 101
ATOM    101  C   UNL A   1      46.337  28.148  40.214  1.00  0.00     0.064 A 
ATOM    102  C   UNL A   1      47.615  28.633  40.525  1.00  0.00     0.173 A 
ATOM    103  C   UNL A   1      45.500  27.766  41.273  1.00  0.00     0.173 A 
ATOM    104  F   UNL A   1      48.455  28.997  39.545  1.00  0.00    -0.203 F 
ATOM    105  C   UNL A   1      48.044  28.721  41.847  1.00  0.00     0.198 A 
ATOM    106  C   UNL A   1      45.925  27.873  42.594  1.00  0.00     0.198 A 
ATOM    107  F   UNL A   1      44.267  27.299  41.024  1.00  0.00    -0.203 F 
ATOM    108  F   UNL A   1      49.280  29.159  42.120  1.00  0.00    -0.200 F 
ATOM    109  C   UNL A   1      47.196  28.347  42.879  1.00  0.00     0.200 A 
ATOM    110  F   UNL A   1      45.103  27.518  43.591  1.00  0.00    -0.200 F 
ATOM    111  F   UNL A   1      47.609  28.439  44.151  1.00  0.00    -0.200 F 
ENDBRANCH  78 101
ENDBRANCH  52  53
ENDBRANCH  45  47
ENDBRANCH  44  45
ENDBRANCH  43  44
ENDBRANCH  42  43
ENDBRANCH  41  42
ENDBRANCH  40  41
ENDBRANCH   1  40
TORSDOF 20
ENDMDL
MODEL 2
REMARK VINA RESULT:     -11.1      4.585      9.542
REMARK SMILES O=C(Cn1nc(C(=O)OCCOCCOCCOC(=O)c2ccc(-c3c4nc(c(-c5c(F)c(F)c(F)c(F)c5F)c5ccc([nH]5)c(-c5c(F)c(F)c(F)c(F)c5F)c5nc(c(-c6c(F)c(F)c(F)c(F)c6F)c6ccc3[nH]6)C=C5)C=C4)cc2)c2ccccc2c1=O)Nc1ccc2c(c1)C(=O)c1ccccc1C2=O
REMARK SMILES IDX 13 1 12 2 11 3 10 4 9 5 7 6 8 7 6 8 4 9 5 10 90 11 89 12
REMARK SMILES IDX 91 13 84 14 88 15 85 16 87 17 86 18 3 19 2 20 1 21 92 22
REMARK SMILES IDX 93 24 94 25 98 26 95 27 97 28 96 29 99 30 107 31 100 32
REMARK SMILES IDX 101 33 106 34 108 35 102 36 105 37 103 38 104 39 14 40 15 41
REMARK SMILES IDX 16 42 17 43 18 44 19 45 20 46 21 47 22 48 83 49 23 50 82 51
REMARK SMILES IDX 24 52 25 53 26 54 76 55 27 56 81 57 75 58 77 59 28 60 80 61
REMARK SMILES IDX 74 62 73 63 29 65 61 66 41 67 60 68 42 69 45 70 59 71 78 72
REMARK SMILES IDX 43 73 44 74 58 76 79 77 46 78 30 79 31 80 39 81 32 82 33 83
REMARK SMILES IDX 37 84 40 85 34 86 35 87 38 88 36 89 62 90 63 91 71 92 64 93
REMARK SMILES IDX 65 94 69 95 72 96 66 97 67 98 70 99 68 100 47 101 48 102
REMARK SMILES IDX 56 103 49 104 50 105 54 106 57 107 51 108 52 109 55 110
REMARK SMILES IDX 53 111
REMARK H PARENT 92 23 77 64 45 75
REMARK Flexibility Score: inf
ROOT
ATOM      1  C   UNL A   1      36.139  31.040  29.783  1.00  0.00     0.188 C 
ENDROOT
BRANCH   1   2
ATOM      2  O   UNL A   1      37.487  31.354  29.441  1.00  0.00    -0.376 OA
BRANCH   2   3
ATOM      3  C   UNL A   1      38.172  30.490  28.535  1.00  0.00     0.202 C 
BRANCH   3   4
ATOM      4  C   UNL A   1      37.718  29.033  28.613  1.00  0.00     0.261 C 
BRANCH   4   5
ATOM      5  O   UNL A   1      38.754  28.212  28.059  1.00  0.00    -0.458 OA
BRANCH   5   6
ATOM      6  C   UNL A   1      39.363  27.365  28.907  1.00  0.00     0.359 C 
ATOM      7  O   UNL A   1      39.222  27.255  30.109  1.00  0.00    -0.244 OA
BRANCH   6   8
ATOM      8  C   UNL A   1      40.137  26.379  28.053  1.00  0.00     0.176 A 
ATOM      9  N   UNL A   1      40.257  24.296  27.059  1.00  0.00    -0.219 N 
ATOM     10  N   UNL A   1      39.525  25.292  27.676  1.00  0.00    -0.161 NA
ATOM     11  C   UNL A   1      41.647  24.343  26.938  1.00  0.00     0.275 A 
ATOM     12  C   UNL A   1      42.293  25.643  27.198  1.00  0.00     0.051 A 
ATOM     13  O   UNL A   1      42.333  23.390  26.587  1.00  0.00    -0.267 OA
ATOM     14  C   UNL A   1      41.553  26.666  27.776  1.00  0.00     0.022 A 
ATOM     15  C   UNL A   1      43.639  25.848  26.866  1.00  0.00     0.014 A 
ATOM     16  C   UNL A   1      42.162  27.896  28.060  1.00  0.00     0.011 A 
ATOM     17  C   UNL A   1      44.242  27.078  27.132  1.00  0.00     0.001 A 
ATOM     18  C   UNL A   1      43.507  28.096  27.736  1.00  0.00     0.001 A 
BRANCH   9  19
ATOM     19  C   UNL A   1      39.566  23.006  26.850  1.00  0.00     0.248 C 
BRANCH  19  20
ATOM     20  C   UNL A   1      38.229  23.099  26.089  1.00  0.00     0.246 C 
ATOM     21  O   UNL A   1      37.334  23.870  26.425  1.00  0.00    -0.273 OA
ATOM     22  N   UNL A   1      38.200  22.345  24.936  1.00  0.00    -0.324 N 
ATOM     23  H   UNL A   1      39.052  22.156  24.479  1.00  0.00     0.169 HD
BRANCH  22  24
ATOM     24  C   UNL A   1      37.017  21.835  24.379  1.00  0.00     0.042 A 
ATOM     25  C   UNL A   1      36.426  20.721  24.981  1.00  0.00     0.027 A 
ATOM     26  C   UNL A   1      36.245  22.737  23.645  1.00  0.00     0.039 A 
ATOM     27  C   UNL A   1      35.033  20.591  24.989  1.00  0.00     0.015 A 
ATOM     28  C   UNL A   1      34.861  22.644  23.713  1.00  0.00     0.036 A 
ATOM     29  C   UNL A   1      34.260  21.621  24.446  1.00  0.00     0.034 A 
ATOM     30  C   UNL A   1      34.078  23.834  23.338  1.00  0.00     0.194 C 
ATOM     31  C   UNL A   1      32.882  21.833  24.944  1.00  0.00     0.194 C 
ATOM     32  O   UNL A   1      34.367  24.536  22.382  1.00  0.00    -0.289 OA
ATOM     33  C   UNL A   1      33.051  24.231  24.316  1.00  0.00     0.034 A 
ATOM     34  C   UNL A   1      32.483  23.249  25.130  1.00  0.00     0.034 A 
ATOM     35  O   UNL A   1      32.182  20.908  25.326  1.00  0.00    -0.289 OA
ATOM     36  C   UNL A   1      32.815  25.586  24.549  1.00  0.00     0.013 A 
ATOM     37  C   UNL A   1      31.684  23.623  26.211  1.00  0.00     0.013 A 
ATOM     38  C   UNL A   1      32.044  25.959  25.648  1.00  0.00     0.001 A 
ATOM     39  C   UNL A   1      31.487  24.982  26.479  1.00  0.00     0.001 A 
ENDBRANCH  22  24
ENDBRANCH  19  20
ENDBRANCH   9  19
ENDBRANCH   6   8
ENDBRANCH   5   6
ENDBRANCH   4   5
ENDBRANCH   3   4
ENDBRANCH   2   3
ENDBRANCH   1   2
BRANCH   1  40
ATOM     40  C   UNL A   1      35.159  32.197  30.044  1.00  0.00     0.188 C 
BRANCH  40  41
ATOM     41  O   UNL A   1      35.707  33.468  30.372  1.00  0.00    -0.376 OA
BRANCH  41  42
ATOM     42  C   UNL A   1      36.189  33.666  31.699  1.00  0.00     0.202 C 
BRANCH  42  43
ATOM     43  C   UNL A   1      35.342  32.999  32.779  1.00  0.00     0.261 C 
BRANCH  43  44
ATOM     44  O   UNL A   1      36.043  31.850  33.288  1.00  0.00    -0.460 OA
BRANCH  44  45
ATOM     45  C   UNL A   1      37.010  32.102  34.199  1.00  0.00     0.338 C 
ATOM     46  O   UNL A   1      36.888  32.641  35.283  1.00  0.00    -0.246 OA
BRANCH  45  47
ATOM     47  C   UNL A   1      38.258  31.451  33.751  1.00  0.00     0.060 A 
ATOM     48  C   UNL A   1      38.256  30.446  32.778  1.00  0.00     0.016 A 
ATOM     49  C   UNL A   1      39.460  31.883  34.323  1.00  0.00     0.016 A 
ATOM     50  C   UNL A   1      39.467  29.899  32.350  1.00  0.00     0.010 A 
ATOM     51  C   UNL A   1      40.667  31.327  33.904  1.00  0.00     0.010 A 
ATOM     52  C   UNL A   1      40.678  30.347  32.900  1.00  0.00    -0.014 A 
BRANCH  52  53
ATOM     53  C   UNL A   1      41.968  29.889  32.341  1.00  0.00     0.031 A 
ATOM     54  C   UNL A   1      42.608  30.591  31.185  1.00  0.00     0.074 A 
ATOM     55  C   UNL A   1      42.549  28.803  32.883  1.00  0.00     0.049 A 
ATOM     56  N   UNL A   1      43.742  30.328  30.589  1.00  0.00    -0.248 NA
ATOM     57  C   UNL A   1      41.877  31.734  30.619  1.00  0.00     0.031 C 
ATOM     58  C   UNL A   1      42.004  28.031  34.001  1.00  0.00     0.029 A 
ATOM     59  N   UNL A   1      43.717  28.160  32.567  1.00  0.00    -0.354 N 
ATOM     60  C   UNL A   1      43.874  31.278  29.588  1.00  0.00     0.074 A 
ATOM     61  C   UNL A   1      42.685  32.106  29.633  1.00  0.00     0.031 C 
ATOM     62  C   UNL A   1      42.840  27.018  34.280  1.00  0.00     0.029 A 
ATOM     63  C   UNL A   1      43.971  27.069  33.358  1.00  0.00     0.049 A 
ATOM     64  H   UNL A   1      44.315  28.452  31.841  1.00  0.00     0.167 HD
ATOM     65  C   UNL A   1      44.903  31.446  28.723  1.00  0.00     0.037 A 
ATOM     66  C   UNL A   1      45.006  26.210  33.347  1.00  0.00     0.037 A 
ATOM     67  C   UNL A   1      46.084  30.621  28.685  1.00  0.00     0.049 A 
ATOM     68  C   UNL A   1      46.121  26.408  32.362  1.00  0.00     0.074 A 
ATOM     69  C   UNL A   1      47.198  30.749  27.874  1.00  0.00     0.029 A 
ATOM     70  N   UNL A   1      46.300  29.512  29.489  1.00  0.00    -0.354 N 
ATOM     71  N   UNL A   1      46.261  27.342  31.453  1.00  0.00    -0.248 NA
ATOM     72  C   UNL A   1      47.224  25.439  32.406  1.00  0.00     0.031 C 
ATOM     73  C   UNL A   1      48.075  29.698  28.164  1.00  0.00     0.029 A 
ATOM     74  C   UNL A   1      47.522  28.935  29.178  1.00  0.00     0.049 A 
ATOM     75  H   UNL A   1      45.680  29.185  30.179  1.00  0.00     0.167 HD
ATOM     76  C   UNL A   1      47.472  27.085  30.828  1.00  0.00     0.074 A 
ATOM     77  C   UNL A   1      48.034  25.913  31.468  1.00  0.00     0.031 C 
ATOM     78  C   UNL A   1      48.063  27.763  29.816  1.00  0.00     0.037 A 
BRANCH  65  79
ATOM     79  C   UNL A   1      44.811  32.576  27.744  1.00  0.00     0.064 A 
ATOM     80  C   UNL A   1      45.388  33.824  28.020  1.00  0.00     0.173 A 
ATOM     81  C   UNL A   1      44.214  32.387  26.490  1.00  0.00     0.173 A 
ATOM     82  F   UNL A   1      45.958  34.055  29.211  1.00  0.00    -0.203 F 
ATOM     83  C   UNL A   1      45.363  34.846  27.075  1.00  0.00     0.198 A 
ATOM     84  C   UNL A   1      44.207  33.406  25.541  1.00  0.00     0.198 A 
ATOM     85  F   UNL A   1      43.648  31.211  26.181  1.00  0.00    -0.203 F 
ATOM     86  F   UNL A   1      45.899  36.040  27.367  1.00  0.00    -0.200 F 
ATOM     87  C   UNL A   1      44.780  34.634  25.834  1.00  0.00     0.200 A 
ATOM     88  F   UNL A   1      43.647  33.197  24.341  1.00  0.00    -0.200 F 
ATOM     89  F   UNL A   1      44.766  35.615  24.922  1.00  0.00    -0.200 F 
ENDBRANCH  65  79
BRANCH  66  90
ATOM     90  C   UNL A   1      45.049  25.109  34.339  1.00  0.00     0.064 A 
ATOM     91  C   UNL A   1      44.578  23.833  34.006  1.00  0.00     0.173 A 
ATOM     92  C   UNL A   1      45.586  25.302  35.618  1.00  0.00     0.173 A 
ATOM     93  F   UNL A   1      44.041  23.612  32.797  1.00  0.00    -0.203 F 
ATOM     94  C   UNL A   1      44.639  22.786  34.922  1.00  0.00     0.198 A 
ATOM     95  C   UNL A   1      45.662  24.250  36.527  1.00  0.00     0.198 A 
ATOM     96  F   UNL A   1      46.051  26.508  35.976  1.00  0.00    -0.203 F 
ATOM     97  F   UNL A   1      44.164  21.579  34.589  1.00  0.00    -0.200 F 
ATOM     98  C   UNL A   1      45.187  22.994  36.180  1.00  0.00     0.200 A 
ATOM     99  F   UNL A   1      46.198  24.451  37.739  1.00  0.00    -0.200 F 
ATOM    100  F   UNL A   1      45.253  21.984  37.058  1.00  0.00    -0.200 F 
ENDBRANCH  66  90
BRANCH  78 101
ATOM    101  C   UNL A   1      49.389  27.256  29.338  1.00  0.00     0.064 A 
ATOM    102  C   UNL A   1      50.584  27.650  29.954  1.00  0.00     0.173 A 
ATOM    103  C   UNL A   1      49.462  26.332  28.284  1.00  0.00     0.173 A 
ATOM    104  F   UNL A   1      50.564  28.542  30.956  1.00  0.00    -0.203 F 
ATOM    105  C   UNL A   1      51.810  27.148  29.523  1.00  0.00     0.198 A 
ATOM    106  C   UNL A   1      50.687  25.818  27.869  1.00  0.00     0.198 A 
ATOM    107  F   UNL A   1      48.343  25.923  27.667  1.00  0.00    -0.203 F 
ATOM    108  F   UNL A   1      52.943  27.562  30.106  1.00  0.00    -0.200 F 
ATOM    109  C   UNL A   1      51.858  26.228  28.486  1.00  0.00     0.200 A 
ATOM    110  F   UNL A   1      50.733  24.924  26.872  1.00  0.00    -0.200 F 
ATOM    111  F   UNL A   1      53.039  25.742  28.078  1.00  0.00    -0.200 F 
ENDBRANCH  78 101
ENDBRANCH  52  53
ENDBRANCH  45  47
ENDBRANCH  44  45
ENDBRANCH  43  44
ENDBRANCH  42  43
ENDBRANCH  41  42
ENDBRANCH  40  41
ENDBRANCH   1  40
TORSDOF 20
ENDMDL
MODEL 3
REMARK VINA RESULT:     -10.7      2.724      6.301
REMARK SMILES O=C(Cn1nc(C(=O)OCCOCCOCCOC(=O)c2ccc(-c3c4nc(c(-c5c(F)c(F)c(F)c(F)c5F)c5ccc([nH]5)c(-c5c(F)c(F)c(F)c(F)c5F)c5nc(c(-c6c(F)c(F)c(F)c(F)c6F)c6ccc3[nH]6)C=C5)C=C4)cc2)c2ccccc2c1=O)Nc1ccc2c(c1)C(=O)c1ccccc1C2=O
REMARK SMILES IDX 13 1 12 2 11 3 10 4 9 5 7 6 8 7 6 8 4 9 5 10 90 11 89 12
REMARK SMILES IDX 91 13 84 14 88 15 85 16 87 17 86 18 3 19 2 20 1 21 92 22
REMARK SMILES IDX 93 24 94 25 98 26 95 27 97 28 96 29 99 30 107 31 100 32
REMARK SMILES IDX 101 33 106 34 108 35 102 36 105 37 103 38 104 39 14 40 15 41
REMARK SMILES IDX 16 42 17 43 18 44 19 45 20 46 21 47 22 48 83 49 23 50 82 51
REMARK SMILES IDX 24 52 25 53 26 54 76 55 27 56 81 57 75 58 77 59 28 60 80 61
REMARK SMILES IDX 74 62 73 63 29 65 61 66 41 67 60 68 42 69 45 70 59 71 78 72
REMARK SMILES IDX 43 73 44 74 58 76 79 77 46 78 30 79 31 80 39 81 32 82 33 83
REMARK SMILES IDX 37 84 40 85 34 86 35 87 38 88 36 89 62 90 63 91 71 92 64 93
REMARK SMILES IDX 65 94 69 95 72 96 66 97 67 98 70 99 68 100 47 101 48 102
REMARK SMILES IDX 56 103 49 104 50 105 54 106 57 107 51 108 52 109 55 110
REMARK SMILES IDX 53 111
REMARK H PARENT 92 23 77 64 45 75
REMARK Flexibility Score: inf
ROOT
ATOM      1  C   UNL A   1      39.104  21.526  25.766  1.00  0.00     0.188 C 
ENDROOT
BRANCH   1   2
ATOM      2  O   UNL A   1      37.731  21.905  25.821  1.00  0.00    -0.376 OA
BRANCH   2   3
ATOM      3  C   UNL A   1      37.417  23.297  25.869  1.00  0.00     0.202 C 
BRANCH   3   4
ATOM      4  C   UNL A   1      36.281  23.704  24.932  1.00  0.00     0.261 C 
BRANCH   4   5
ATOM      5  O   UNL A   1      35.544  24.761  25.557  1.00  0.00    -0.458 OA
BRANCH   5   6
ATOM      6  C   UNL A   1      34.244  24.518  25.802  1.00  0.00     0.359 C 
ATOM      7  O   UNL A   1      33.741  23.599  26.415  1.00  0.00    -0.244 OA
BRANCH   6   8
ATOM      8  C   UNL A   1      33.481  25.747  25.344  1.00  0.00     0.176 A 
ATOM      9  N   UNL A   1      32.403  27.718  25.889  1.00  0.00    -0.219 N 
ATOM     10  N   UNL A   1      33.251  26.680  26.225  1.00  0.00    -0.161 NA
ATOM     11  C   UNL A   1      31.677  27.746  24.697  1.00  0.00     0.275 A 
ATOM     12  C   UNL A   1      32.084  26.793  23.649  1.00  0.00     0.051 A 
ATOM     13  O   UNL A   1      30.771  28.540  24.470  1.00  0.00    -0.267 OA
ATOM     14  C   UNL A   1      32.972  25.773  23.965  1.00  0.00     0.022 A 
ATOM     15  C   UNL A   1      31.584  26.912  22.345  1.00  0.00     0.014 A 
ATOM     16  C   UNL A   1      33.342  24.839  22.987  1.00  0.00     0.011 A 
ATOM     17  C   UNL A   1      31.965  25.994  21.367  1.00  0.00     0.001 A 
ATOM     18  C   UNL A   1      32.835  24.954  21.690  1.00  0.00     0.001 A 
BRANCH   9  19
ATOM     19  C   UNL A   1      32.007  28.625  26.988  1.00  0.00     0.248 C 
BRANCH  19  20
ATOM     20  C   UNL A   1      32.954  29.817  27.223  1.00  0.00     0.246 C 
ATOM     21  O   UNL A   1      32.625  30.975  26.978  1.00  0.00    -0.273 OA
ATOM     22  N   UNL A   1      34.128  29.470  27.854  1.00  0.00    -0.324 N 
ATOM     23  H   UNL A   1      34.129  28.676  28.438  1.00  0.00     0.169 HD
BRANCH  22  24
ATOM     24  C   UNL A   1      35.324  30.191  27.708  1.00  0.00     0.042 A 
ATOM     25  C   UNL A   1      35.333  31.541  28.069  1.00  0.00     0.027 A 
ATOM     26  C   UNL A   1      36.500  29.442  27.736  1.00  0.00     0.039 A 
ATOM     27  C   UNL A   1      36.489  32.107  28.617  1.00  0.00     0.015 A 
ATOM     28  C   UNL A   1      37.625  29.984  28.344  1.00  0.00     0.036 A 
ATOM     29  C   UNL A   1      37.594  31.283  28.851  1.00  0.00     0.034 A 
ATOM     30  C   UNL A   1      38.682  29.054  28.779  1.00  0.00     0.194 C 
ATOM     31  C   UNL A   1      38.551  31.640  29.922  1.00  0.00     0.194 C 
ATOM     32  O   UNL A   1      39.034  28.100  28.104  1.00  0.00    -0.289 OA
ATOM     33  C   UNL A   1      39.133  29.238  30.168  1.00  0.00     0.034 A 
ATOM     34  C   UNL A   1      39.039  30.506  30.744  1.00  0.00     0.034 A 
ATOM     35  O   UNL A   1      38.795  32.801  30.212  1.00  0.00    -0.289 OA
ATOM     36  C   UNL A   1      39.449  28.118  30.939  1.00  0.00     0.013 A 
ATOM     37  C   UNL A   1      39.241  30.662  32.115  1.00  0.00     0.013 A 
ATOM     38  C   UNL A   1      39.618  28.269  32.314  1.00  0.00     0.001 A 
ATOM     39  C   UNL A   1      39.507  29.534  32.900  1.00  0.00     0.001 A 
ENDBRANCH  22  24
ENDBRANCH  19  20
ENDBRANCH   9  19
ENDBRANCH   6   8
ENDBRANCH   5   6
ENDBRANCH   4   5
ENDBRANCH   3   4
ENDBRANCH   2   3
ENDBRANCH   1   2
BRANCH   1  40
ATOM     40  C   UNL A   1      40.048  22.020  26.877  1.00  0.00     0.188 C 
BRANCH  40  41
ATOM     41  O   UNL A   1      41.443  21.808  26.704  1.00  0.00    -0.376 OA
BRANCH  41  42
ATOM     42  C   UNL A   1      42.132  22.626  25.761  1.00  0.00     0.202 C 
BRANCH  42  43
ATOM     43  C   UNL A   1      41.720  24.096  25.789  1.00  0.00     0.261 C 
BRANCH  43  44
ATOM     44  O   UNL A   1      42.879  24.917  25.554  1.00  0.00    -0.460 OA
BRANCH  44  45
ATOM     45  C   UNL A   1      42.707  26.247  25.725  1.00  0.00     0.338 C 
ATOM     46  O   UNL A   1      42.300  27.054  24.911  1.00  0.00    -0.246 OA
BRANCH  45  47
ATOM     47  C   UNL A   1      42.928  26.569  27.150  1.00  0.00     0.060 A 
ATOM     48  C   UNL A   1      41.909  26.441  28.099  1.00  0.00     0.016 A 
ATOM     49  C   UNL A   1      44.205  26.997  27.531  1.00  0.00     0.016 A 
ATOM     50  C   UNL A   1      42.182  26.707  29.443  1.00  0.00     0.010 A 
ATOM     51  C   UNL A   1      44.472  27.275  28.869  1.00  0.00     0.010 A 
ATOM     52  C   UNL A   1      43.468  27.111  29.835  1.00  0.00    -0.014 A 
BRANCH  52  53
ATOM     53  C   UNL A   1      43.807  27.239  31.269  1.00  0.00     0.031 A 
ATOM     54  C   UNL A   1      44.360  26.085  32.044  1.00  0.00     0.074 A 
ATOM     55  C   UNL A   1      43.582  28.419  31.875  1.00  0.00     0.049 A 
ATOM     56  N   UNL A   1      44.723  26.037  33.300  1.00  0.00    -0.248 NA
ATOM     57  C   UNL A   1      44.520  24.817  31.318  1.00  0.00     0.031 C 
ATOM     58  C   UNL A   1      43.029  29.606  31.219  1.00  0.00     0.029 A 
ATOM     59  N   UNL A   1      43.785  28.814  33.171  1.00  0.00    -0.354 N 
ATOM     60  C   UNL A   1      45.171  24.742  33.516  1.00  0.00     0.074 A 
ATOM     61  C   UNL A   1      45.002  24.024  32.268  1.00  0.00     0.031 C 
ATOM     62  C   UNL A   1      42.940  30.599  32.118  1.00  0.00     0.029 A 
ATOM     63  C   UNL A   1      43.423  30.116  33.409  1.00  0.00     0.049 A 
ATOM     64  H   UNL A   1      44.155  28.221  33.865  1.00  0.00     0.167 HD
ATOM     65  C   UNL A   1      45.688  24.213  34.650  1.00  0.00     0.037 A 
ATOM     66  C   UNL A   1      43.483  30.842  34.539  1.00  0.00     0.037 A 
ATOM     67  C   UNL A   1      45.856  24.934  35.887  1.00  0.00     0.049 A 
ATOM     68  C   UNL A   1      44.039  30.222  35.787  1.00  0.00     0.074 A 
ATOM     69  C   UNL A   1      46.416  24.490  37.073  1.00  0.00     0.029 A 
ATOM     70  N   UNL A   1      45.461  26.246  36.099  1.00  0.00    -0.354 N 
ATOM     71  N   UNL A   1      44.509  29.011  35.967  1.00  0.00    -0.248 NA
ATOM     72  C   UNL A   1      44.081  31.069  36.987  1.00  0.00     0.031 C 
ATOM     73  C   UNL A   1      46.330  25.524  38.012  1.00  0.00     0.029 A 
ATOM     74  C   UNL A   1      45.747  26.621  37.402  1.00  0.00     0.049 A 
ATOM     75  H   UNL A   1      45.042  26.826  35.422  1.00  0.00     0.167 HD
ATOM     76  C   UNL A   1      44.917  28.955  37.291  1.00  0.00     0.074 A 
ATOM     77  C   UNL A   1      44.650  30.257  37.868  1.00  0.00     0.031 C 
ATOM     78  C   UNL A   1      45.466  27.916  37.965  1.00  0.00     0.037 A 
BRANCH  65  79
ATOM     79  C   UNL A   1      46.125  22.781  34.615  1.00  0.00     0.064 A 
ATOM     80  C   UNL A   1      47.471  22.437  34.421  1.00  0.00     0.173 A 
ATOM     81  C   UNL A   1      45.207  21.749  34.854  1.00  0.00     0.173 A 
ATOM     82  F   UNL A   1      48.381  23.390  34.176  1.00  0.00    -0.203 F 
ATOM     83  C   UNL A   1      47.880  21.108  34.463  1.00  0.00     0.198 A 
ATOM     84  C   UNL A   1      45.624  20.421  34.912  1.00  0.00     0.198 A 
ATOM     85  F   UNL A   1      43.909  22.028  35.042  1.00  0.00    -0.203 F 
ATOM     86  F   UNL A   1      49.168  20.798  34.252  1.00  0.00    -0.200 F 
ATOM     87  C   UNL A   1      46.959  20.102  34.716  1.00  0.00     0.200 A 
ATOM     88  F   UNL A   1      44.733  19.452  35.161  1.00  0.00    -0.200 F 
ATOM     89  F   UNL A   1      47.357  18.824  34.765  1.00  0.00    -0.200 F 
ENDBRANCH  65  79
BRANCH  66  90
ATOM     90  C   UNL A   1      43.039  32.255  34.521  1.00  0.00     0.064 A 
ATOM     91  C   UNL A   1      43.934  33.279  34.185  1.00  0.00     0.173 A 
ATOM     92  C   UNL A   1      41.712  32.606  34.805  1.00  0.00     0.173 A 
ATOM     93  F   UNL A   1      45.216  32.986  33.923  1.00  0.00    -0.203 F 
ATOM     94  C   UNL A   1      43.520  34.607  34.138  1.00  0.00     0.198 A 
ATOM     95  C   UNL A   1      41.295  33.933  34.741  1.00  0.00     0.198 A 
ATOM     96  F   UNL A   1      40.822  31.657  35.128  1.00  0.00    -0.203 F 
ATOM     97  F   UNL A   1      44.399  35.571  33.836  1.00  0.00    -0.200 F 
ATOM     98  C   UNL A   1      42.198  34.933  34.411  1.00  0.00     0.200 A 
ATOM     99  F   UNL A   1      40.017  34.244  34.997  1.00  0.00    -0.200 F 
ATOM    100  F   UNL A   1      41.797  36.210  34.358  1.00  0.00    -0.200 F 
ENDBRANCH  66  90
BRANCH  78 101
ATOM    101  C   UNL A   1      45.817  28.145  39.403  1.00  0.00     0.064 A 
ATOM    102  C   UNL A   1      45.047  27.595  40.437  1.00  0.00     0.173 A 
ATOM    103  C   UNL A   1      46.959  28.882  39.750  1.00  0.00     0.173 A 
ATOM    104  F   UNL A   1      43.939  26.895  40.152  1.00  0.00    -0.203 F 
ATOM    105  C   UNL A   1      45.399  27.785  41.770  1.00  0.00     0.198 A 
ATOM    106  C   UNL A   1      47.319  29.055  41.084  1.00  0.00     0.198 A 
ATOM    107  F   UNL A   1      47.729  29.425  38.795  1.00  0.00    -0.203 F 
ATOM    108  F   UNL A   1      44.632  27.276  42.743  1.00  0.00    -0.200 F 
ATOM    109  C   UNL A   1      46.538  28.509  42.091  1.00  0.00     0.200 A 
ATOM    110  F   UNL A   1      48.423  29.748  41.394  1.00  0.00    -0.200 F 
ATOM    111  F   UNL A   1      46.879  28.686  43.376  1.00  0.00    -0.200 F 
ENDBRANCH  78 101
ENDBRANCH  52  53
ENDBRANCH  45  47
ENDBRANCH  44  45
ENDBRANCH  43  44
ENDBRANCH  42  43
ENDBRANCH  41  42
ENDBRANCH  40  41
ENDBRANCH   1  40
TORSDOF 20
ENDMDL
