MODEL 1
REMARK VINA RESULT:      -9.9      0.000      0.000
REMARK SMILES Cc1cc(Br)cnc1SCC1(CC(=O)OCCOCCOCCOC(=O)c2ccc(-c3c4nc(c(-c5c(F)c(F)c(F)c(F)c5F)c5ccc([nH]5)c(-c5c(F)c(F)c(F)c(F)c5F)c5nc(c(-c6c(F)c(F)c(F)c(F)c6F)c6ccc3[nH]6)C=C5)C=C4)cc2)CC1
REMARK SMILES IDX 19 1 18 2 17 3 16 4 15 5 13 6 14 7 12 8 11 9 90 10 91 11
REMARK SMILES IDX 10 12 9 13 8 14 1 15 2 16 3 17 4 18 7 19 5 20 6 21 20 22
REMARK SMILES IDX 21 23 22 24 23 25 24 26 25 27 26 28 27 29 28 30 89 31 29 32
REMARK SMILES IDX 88 33 30 34 31 35 32 36 82 37 33 38 87 39 81 40 83 41 34 42
REMARK SMILES IDX 86 43 80 44 79 45 35 47 67 48 47 49 66 50 48 51 51 52 65 53
REMARK SMILES IDX 84 54 49 55 50 56 64 58 85 59 52 60 36 61 37 62 45 63 38 64
REMARK SMILES IDX 39 65 43 66 46 67 40 68 41 69 44 70 42 71 68 72 69 73 77 74
REMARK SMILES IDX 70 75 71 76 75 77 78 78 72 79 73 80 76 81 74 82 53 83 54 84
REMARK SMILES IDX 62 85 55 86 56 87 60 88 63 89 57 90 58 91 61 92 59 93
REMARK H PARENT 83 46 51 57
REMARK Flexibility Score: inf
ROOT
ATOM      1  C   UNL A   1      35.178  31.971  28.055  1.00  0.00     0.188 C 
ENDROOT
BRANCH   1   2
ATOM      2  O   UNL A   1      34.092  31.129  27.681  1.00  0.00    -0.376 OA
BRANCH   2   3
ATOM      3  C   UNL A   1      34.339  29.743  27.494  1.00  0.00     0.202 C 
BRANCH   3   4
ATOM      4  C   UNL A   1      33.916  29.150  26.152  1.00  0.00     0.261 C 
BRANCH   4   5
ATOM      5  O   UNL A   1      33.329  27.838  26.232  1.00  0.00    -0.463 OA
BRANCH   5   6
ATOM      6  C   UNL A   1      31.972  27.800  26.331  1.00  0.00     0.306 C 
ATOM      7  O   UNL A   1      31.351  27.442  27.324  1.00  0.00    -0.252 OA
BRANCH   6   8
ATOM      8  C   UNL A   1      31.298  28.130  25.021  1.00  0.00     0.130 C 
BRANCH   8   9
ATOM      9  C   UNL A   1      30.888  26.970  24.114  1.00  0.00    -0.010 C 
ATOM     10  C   UNL A   1      29.415  26.958  23.710  1.00  0.00     0.009 C 
ATOM     11  C   UNL A   1      29.925  25.926  24.662  1.00  0.00     0.009 C 
BRANCH   9  12
ATOM     12  C   UNL A   1      31.906  26.562  23.046  1.00  0.00     0.084 C 
BRANCH  12  13
ATOM     13  S   UNL A   1      32.048  24.751  23.103  1.00  0.00    -0.106 SA
BRANCH  13  14
ATOM     14  C   UNL A   1      33.596  24.332  23.880  1.00  0.00     0.099 A 
ATOM     15  C   UNL A   1      32.875  24.303  26.363  1.00  0.00     0.047 C 
ATOM     16  C   UNL A   1      33.776  23.959  25.218  1.00  0.00    -0.018 A 
ATOM     17  C   UNL A   1      34.844  23.083  25.508  1.00  0.00     0.023 A 
ATOM     18  C   UNL A   1      35.718  22.680  24.510  1.00  0.00     0.036 A 
ATOM     19  N   UNL A   1      34.524  24.036  22.931  1.00  0.00    -0.248 NA
ATOM     20  Br  UNL A   1      37.049  21.394  24.856  1.00  0.00    -0.049 Br
ATOM     21  C   UNL A   1      35.553  23.220  23.256  1.00  0.00     0.128 A 
ENDBRANCH  13  14
ENDBRANCH  12  13
ENDBRANCH   9  12
ENDBRANCH   8   9
ENDBRANCH   6   8
ENDBRANCH   5   6
ENDBRANCH   4   5
ENDBRANCH   3   4
ENDBRANCH   2   3
ENDBRANCH   1   2
BRANCH   1  22
ATOM     22  C   UNL A   1      34.953  33.016  29.157  1.00  0.00     0.188 C 
BRANCH  22  23
ATOM     23  O   UNL A   1      33.710  33.687  28.997  1.00  0.00    -0.376 OA
BRANCH  23  24
ATOM     24  C   UNL A   1      33.792  35.053  28.638  1.00  0.00     0.202 C 
BRANCH  24  25
ATOM     25  C   UNL A   1      32.911  35.924  29.537  1.00  0.00     0.261 C 
BRANCH  25  26
ATOM     26  O   UNL A   1      32.353  35.249  30.680  1.00  0.00    -0.460 OA
BRANCH  26  27
ATOM     27  C   UNL A   1      32.645  35.766  31.894  1.00  0.00     0.338 C 
ATOM     28  O   UNL A   1      32.015  36.611  32.500  1.00  0.00    -0.246 OA
BRANCH  27  29
ATOM     29  C   UNL A   1      33.805  35.036  32.450  1.00  0.00     0.060 A 
ATOM     30  C   UNL A   1      35.072  35.629  32.395  1.00  0.00     0.016 A 
ATOM     31  C   UNL A   1      33.653  33.752  32.980  1.00  0.00     0.016 A 
ATOM     32  C   UNL A   1      36.196  34.928  32.845  1.00  0.00     0.010 A 
ATOM     33  C   UNL A   1      34.779  33.047  33.419  1.00  0.00     0.010 A 
ATOM     34  C   UNL A   1      36.062  33.619  33.331  1.00  0.00    -0.014 A 
BRANCH  34  35
ATOM     35  C   UNL A   1      37.262  32.792  33.637  1.00  0.00     0.031 A 
ATOM     36  C   UNL A   1      38.027  33.052  34.907  1.00  0.00     0.074 A 
ATOM     37  C   UNL A   1      37.681  31.830  32.795  1.00  0.00     0.049 A 
ATOM     38  N   UNL A   1      39.160  32.538  35.318  1.00  0.00    -0.248 NA
ATOM     39  C   UNL A   1      37.436  34.023  35.840  1.00  0.00     0.031 C 
ATOM     40  C   UNL A   1      37.013  31.440  31.556  1.00  0.00     0.029 A 
ATOM     41  N   UNL A   1      38.787  31.015  32.852  1.00  0.00    -0.354 N 
ATOM     42  C   UNL A   1      39.424  33.133  36.544  1.00  0.00     0.074 A 
ATOM     43  C   UNL A   1      38.341  34.058  36.807  1.00  0.00     0.031 C 
ATOM     44  C   UNL A   1      37.732  30.474  30.960  1.00  0.00     0.029 A 
ATOM     45  C   UNL A   1      38.933  30.207  31.751  1.00  0.00     0.049 A 
ATOM     46  H   UNL A   1      39.416  31.012  33.610  1.00  0.00     0.167 HD
ATOM     47  C   UNL A   1      40.472  32.926  37.376  1.00  0.00     0.037 A 
ATOM     48  C   UNL A   1      39.935  29.374  31.405  1.00  0.00     0.037 A 
ATOM     49  C   UNL A   1      41.543  31.997  37.131  1.00  0.00     0.049 A 
ATOM     50  C   UNL A   1      41.126  29.217  32.319  1.00  0.00     0.074 A 
ATOM     51  C   UNL A   1      42.631  31.703  37.936  1.00  0.00     0.029 A 
ATOM     52  N   UNL A   1      41.665  31.214  35.994  1.00  0.00    -0.354 N 
ATOM     53  N   UNL A   1      41.358  29.770  33.484  1.00  0.00    -0.248 NA
ATOM     54  C   UNL A   1      42.201  28.322  31.862  1.00  0.00     0.031 C 
ATOM     55  C   UNL A   1      43.438  30.780  37.263  1.00  0.00     0.029 A 
ATOM     56  C   UNL A   1      42.825  30.459  36.064  1.00  0.00     0.049 A 
ATOM     57  H   UNL A   1      41.023  31.196  35.247  1.00  0.00     0.167 HD
ATOM     58  C   UNL A   1      42.582  29.265  33.911  1.00  0.00     0.074 A 
ATOM     59  C   UNL A   1      43.039  28.352  32.888  1.00  0.00     0.031 C 
ATOM     60  C   UNL A   1      43.266  29.537  35.049  1.00  0.00     0.037 A 
BRANCH  47  61
ATOM     61  C   UNL A   1      40.536  33.739  38.635  1.00  0.00     0.064 A 
ATOM     62  C   UNL A   1      41.307  34.907  38.720  1.00  0.00     0.173 A 
ATOM     63  C   UNL A   1      39.755  33.383  39.746  1.00  0.00     0.173 A 
ATOM     64  F   UNL A   1      42.079  35.284  37.690  1.00  0.00    -0.203 F 
ATOM     65  C   UNL A   1      41.302  35.684  39.876  1.00  0.00     0.198 A 
ATOM     66  C   UNL A   1      39.732  34.176  40.889  1.00  0.00     0.198 A 
ATOM     67  F   UNL A   1      38.995  32.278  39.711  1.00  0.00    -0.203 F 
ATOM     68  F   UNL A   1      42.067  36.782  39.947  1.00  0.00    -0.200 F 
ATOM     69  C   UNL A   1      40.507  35.323  40.955  1.00  0.00     0.200 A 
ATOM     70  F   UNL A   1      38.954  33.833  41.925  1.00  0.00    -0.200 F 
ATOM     71  F   UNL A   1      40.490  36.082  42.060  1.00  0.00    -0.200 F 
ENDBRANCH  47  61
BRANCH  48  72
ATOM     72  C   UNL A   1      39.892  28.645  30.109  1.00  0.00     0.064 A 
ATOM     73  C   UNL A   1      39.357  27.353  30.020  1.00  0.00     0.173 A 
ATOM     74  C   UNL A   1      40.446  29.202  28.947  1.00  0.00     0.173 A 
ATOM     75  F   UNL A   1      38.849  26.762  31.112  1.00  0.00    -0.203 F 
ATOM     76  C   UNL A   1      39.406  26.633  28.827  1.00  0.00     0.198 A 
ATOM     77  C   UNL A   1      40.465  28.495  27.747  1.00  0.00     0.198 A 
ATOM     78  F   UNL A   1      40.982  30.431  28.979  1.00  0.00    -0.203 F 
ATOM     79  F   UNL A   1      38.953  25.372  28.788  1.00  0.00    -0.200 F 
ATOM     80  C   UNL A   1      39.956  27.206  27.691  1.00  0.00     0.200 A 
ATOM     81  F   UNL A   1      40.995  29.053  26.650  1.00  0.00    -0.200 F 
ATOM     82  F   UNL A   1      40.016  26.508  26.548  1.00  0.00    -0.200 F 
ENDBRANCH  48  72
BRANCH  60  83
ATOM     83  C   UNL A   1      44.559  28.809  35.277  1.00  0.00     0.064 A 
ATOM     84  C   UNL A   1      45.785  29.323  34.831  1.00  0.00     0.173 A 
ATOM     85  C   UNL A   1      44.576  27.600  35.991  1.00  0.00     0.173 A 
ATOM     86  F   UNL A   1      45.823  30.467  34.132  1.00  0.00    -0.203 F 
ATOM     87  C   UNL A   1      46.977  28.643  35.070  1.00  0.00     0.198 A 
ATOM     88  C   UNL A   1      45.772  26.938  36.254  1.00  0.00     0.198 A 
ATOM     89  F   UNL A   1      43.433  27.068  36.448  1.00  0.00    -0.203 F 
ATOM     90  F   UNL A   1      48.132  29.131  34.596  1.00  0.00    -0.200 F 
ATOM     91  C   UNL A   1      46.971  27.456  35.788  1.00  0.00     0.200 A 
ATOM     92  F   UNL A   1      45.766  25.799  36.961  1.00  0.00    -0.200 F 
ATOM     93  F   UNL A   1      48.120  26.808  36.025  1.00  0.00    -0.200 F 
ENDBRANCH  60  83
ENDBRANCH  34  35
ENDBRANCH  27  29
ENDBRANCH  26  27
ENDBRANCH  25  26
ENDBRANCH  24  25
ENDBRANCH  23  24
ENDBRANCH  22  23
ENDBRANCH   1  22
TORSDOF 21
ENDMDL
MODEL 2
REMARK VINA RESULT:      -9.7      2.204      3.324
REMARK SMILES Cc1cc(Br)cnc1SCC1(CC(=O)OCCOCCOCCOC(=O)c2ccc(-c3c4nc(c(-c5c(F)c(F)c(F)c(F)c5F)c5ccc([nH]5)c(-c5c(F)c(F)c(F)c(F)c5F)c5nc(c(-c6c(F)c(F)c(F)c(F)c6F)c6ccc3[nH]6)C=C5)C=C4)cc2)CC1
REMARK SMILES IDX 19 1 18 2 17 3 16 4 15 5 13 6 14 7 12 8 11 9 90 10 91 11
REMARK SMILES IDX 10 12 9 13 8 14 1 15 2 16 3 17 4 18 7 19 5 20 6 21 20 22
REMARK SMILES IDX 21 23 22 24 23 25 24 26 25 27 26 28 27 29 28 30 89 31 29 32
REMARK SMILES IDX 88 33 30 34 31 35 32 36 82 37 33 38 87 39 81 40 83 41 34 42
REMARK SMILES IDX 86 43 80 44 79 45 35 47 67 48 47 49 66 50 48 51 51 52 65 53
REMARK SMILES IDX 84 54 49 55 50 56 64 58 85 59 52 60 36 61 37 62 45 63 38 64
REMARK SMILES IDX 39 65 43 66 46 67 40 68 41 69 44 70 42 71 68 72 69 73 77 74
REMARK SMILES IDX 70 75 71 76 75 77 78 78 72 79 73 80 76 81 74 82 53 83 54 84
REMARK SMILES IDX 62 85 55 86 56 87 60 88 63 89 57 90 58 91 61 92 59 93
REMARK H PARENT 83 46 51 57
REMARK Flexibility Score: inf
ROOT
ATOM      1  C   UNL A   1      32.450  28.966  25.458  1.00  0.00     0.188 C 
ENDROOT
BRANCH   1   2
ATOM      2  O   UNL A   1      33.554  28.637  24.622  1.00  0.00    -0.376 OA
BRANCH   2   3
ATOM      3  C   UNL A   1      33.458  28.903  23.230  1.00  0.00     0.202 C 
BRANCH   3   4
ATOM      4  C   UNL A   1      33.581  27.700  22.297  1.00  0.00     0.261 C 
BRANCH   4   5
ATOM      5  O   UNL A   1      32.852  26.533  22.721  1.00  0.00    -0.463 OA
BRANCH   5   6
ATOM      6  C   UNL A   1      33.417  25.335  22.409  1.00  0.00     0.306 C 
ATOM      7  O   UNL A   1      33.236  24.725  21.362  1.00  0.00    -0.252 OA
BRANCH   6   8
ATOM      8  C   UNL A   1      34.207  24.762  23.561  1.00  0.00     0.130 C 
BRANCH   8   9
ATOM      9  C   UNL A   1      33.452  24.415  24.844  1.00  0.00    -0.010 C 
ATOM     10  C   UNL A   1      33.465  25.504  25.914  1.00  0.00     0.009 C 
ATOM     11  C   UNL A   1      34.248  24.251  26.132  1.00  0.00     0.009 C 
BRANCH   9  12
ATOM     12  C   UNL A   1      32.150  23.630  24.664  1.00  0.00     0.084 C 
BRANCH  12  13
ATOM     13  S   UNL A   1      32.273  22.141  25.699  1.00  0.00    -0.106 SA
BRANCH  13  14
ATOM     14  C   UNL A   1      33.092  20.869  24.759  1.00  0.00     0.099 A 
ATOM     15  C   UNL A   1      35.531  21.208  25.550  1.00  0.00     0.047 C 
ATOM     16  C   UNL A   1      34.410  20.427  24.937  1.00  0.00    -0.018 A 
ATOM     17  C   UNL A   1      34.691  19.083  24.614  1.00  0.00     0.023 A 
ATOM     18  C   UNL A   1      33.713  18.267  24.069  1.00  0.00     0.036 A 
ATOM     19  N   UNL A   1      32.171  20.106  24.110  1.00  0.00    -0.248 NA
ATOM     20  Br  UNL A   1      34.035  16.434  23.780  1.00  0.00    -0.049 Br
ATOM     21  C   UNL A   1      32.490  18.832  23.787  1.00  0.00     0.128 A 
ENDBRANCH  13  14
ENDBRANCH  12  13
ENDBRANCH   9  12
ENDBRANCH   8   9
ENDBRANCH   6   8
ENDBRANCH   5   6
ENDBRANCH   4   5
ENDBRANCH   3   4
ENDBRANCH   2   3
ENDBRANCH   1   2
BRANCH   1  22
ATOM     22  C   UNL A   1      31.247  29.691  24.838  1.00  0.00     0.188 C 
BRANCH  22  23
ATOM     23  O   UNL A   1      31.020  30.951  25.455  1.00  0.00    -0.376 OA
BRANCH  23  24
ATOM     24  C   UNL A   1      31.841  31.245  26.570  1.00  0.00     0.202 C 
BRANCH  24  25
ATOM     25  C   UNL A   1      31.753  32.723  26.958  1.00  0.00     0.261 C 
BRANCH  25  26
ATOM     26  O   UNL A   1      33.017  33.411  27.020  1.00  0.00    -0.460 OA
BRANCH  26  27
ATOM     27  C   UNL A   1      33.229  34.196  28.099  1.00  0.00     0.338 C 
ATOM     28  O   UNL A   1      32.566  35.151  28.452  1.00  0.00    -0.246 OA
BRANCH  27  29
ATOM     29  C   UNL A   1      34.347  33.625  28.882  1.00  0.00     0.060 A 
ATOM     30  C   UNL A   1      35.661  33.956  28.534  1.00  0.00     0.016 A 
ATOM     31  C   UNL A   1      34.101  32.729  29.926  1.00  0.00     0.016 A 
ATOM     32  C   UNL A   1      36.737  33.370  29.211  1.00  0.00     0.010 A 
ATOM     33  C   UNL A   1      35.177  32.134  30.595  1.00  0.00     0.010 A 
ATOM     34  C   UNL A   1      36.503  32.430  30.226  1.00  0.00    -0.014 A 
BRANCH  34  35
ATOM     35  C   UNL A   1      37.626  31.660  30.827  1.00  0.00     0.031 A 
ATOM     36  C   UNL A   1      38.074  31.986  32.226  1.00  0.00     0.074 A 
ATOM     37  C   UNL A   1      38.255  30.690  30.138  1.00  0.00     0.049 A 
ATOM     38  N   UNL A   1      39.098  31.529  32.902  1.00  0.00    -0.248 NA
ATOM     39  C   UNL A   1      37.256  32.962  32.963  1.00  0.00     0.031 C 
ATOM     40  C   UNL A   1      37.898  30.237  28.796  1.00  0.00     0.029 A 
ATOM     41  N   UNL A   1      39.343  29.920  30.475  1.00  0.00    -0.354 N 
ATOM     42  C   UNL A   1      39.059  32.170  34.132  1.00  0.00     0.074 A 
ATOM     43  C   UNL A   1      37.916  33.060  34.108  1.00  0.00     0.031 C 
ATOM     44  C   UNL A   1      38.764  29.282  28.415  1.00  0.00     0.029 A 
ATOM     45  C   UNL A   1      39.761  29.085  29.467  1.00  0.00     0.049 A 
ATOM     46  H   UNL A   1      39.783  29.964  31.355  1.00  0.00     0.167 HD
ATOM     47  C   UNL A   1      39.896  32.029  35.187  1.00  0.00     0.037 A 
ATOM     48  C   UNL A   1      40.840  28.281  29.388  1.00  0.00     0.037 A 
ATOM     49  C   UNL A   1      41.023  31.134  35.226  1.00  0.00     0.049 A 
ATOM     50  C   UNL A   1      41.796  28.198  30.553  1.00  0.00     0.074 A 
ATOM     51  C   UNL A   1      41.908  30.907  36.267  1.00  0.00     0.029 A 
ATOM     52  N   UNL A   1      41.424  30.323  34.177  1.00  0.00    -0.354 N 
ATOM     53  N   UNL A   1      41.741  28.794  31.719  1.00  0.00    -0.248 NA
ATOM     54  C   UNL A   1      42.974  27.331  30.386  1.00  0.00     0.031 C 
ATOM     55  C   UNL A   1      42.874  29.996  35.830  1.00  0.00     0.029 A 
ATOM     56  C   UNL A   1      42.560  29.616  34.536  1.00  0.00     0.049 A 
ATOM     57  H   UNL A   1      40.969  30.258  33.305  1.00  0.00     0.167 HD
ATOM     58  C   UNL A   1      42.850  28.350  32.430  1.00  0.00     0.074 A 
ATOM     59  C   UNL A   1      43.556  27.425  31.573  1.00  0.00     0.031 C 
ATOM     60  C   UNL A   1      43.248  28.682  33.683  1.00  0.00     0.037 A 
BRANCH  47  61
ATOM     61  C   UNL A   1      39.647  32.881  36.396  1.00  0.00     0.064 A 
ATOM     62  C   UNL A   1      40.288  34.115  36.573  1.00  0.00     0.173 A 
ATOM     63  C   UNL A   1      38.696  32.489  37.352  1.00  0.00     0.173 A 
ATOM     64  F   UNL A   1      41.212  34.529  35.694  1.00  0.00    -0.203 F 
ATOM     65  C   UNL A   1      39.994  34.922  37.669  1.00  0.00     0.198 A 
ATOM     66  C   UNL A   1      38.387  33.311  38.432  1.00  0.00     0.198 A 
ATOM     67  F   UNL A   1      38.051  31.320  37.224  1.00  0.00    -0.203 F 
ATOM     68  F   UNL A   1      40.638  36.086  37.835  1.00  0.00    -0.200 F 
ATOM     69  C   UNL A   1      39.037  34.524  38.592  1.00  0.00     0.200 A 
ATOM     70  F   UNL A   1      37.452  32.930  39.315  1.00  0.00    -0.200 F 
ATOM     71  F   UNL A   1      38.743  35.310  39.637  1.00  0.00    -0.200 F 
ENDBRANCH  47  61
BRANCH  48  72
ATOM     72  C   UNL A   1      41.116  27.513  28.145  1.00  0.00     0.064 A 
ATOM     73  C   UNL A   1      40.648  26.202  27.983  1.00  0.00     0.173 A 
ATOM     74  C   UNL A   1      41.908  28.053  27.121  1.00  0.00     0.173 A 
ATOM     75  F   UNL A   1      39.917  25.627  28.950  1.00  0.00    -0.203 F 
ATOM     76  C   UNL A   1      40.989  25.448  26.861  1.00  0.00     0.198 A 
ATOM     77  C   UNL A   1      42.221  27.311  25.984  1.00  0.00     0.198 A 
ATOM     78  F   UNL A   1      42.391  29.299  27.231  1.00  0.00    -0.203 F 
ATOM     79  F   UNL A   1      40.589  24.173  26.766  1.00  0.00    -0.200 F 
ATOM     80  C   UNL A   1      41.772  26.005  25.861  1.00  0.00     0.200 A 
ATOM     81  F   UNL A   1      42.976  27.853  25.019  1.00  0.00    -0.200 F 
ATOM     82  F   UNL A   1      42.111  25.276  24.789  1.00  0.00    -0.200 F 
ENDBRANCH  48  72
BRANCH  60  83
ATOM     83  C   UNL A   1      44.477  28.011  34.225  1.00  0.00     0.064 A 
ATOM     84  C   UNL A   1      45.751  28.585  34.096  1.00  0.00     0.173 A 
ATOM     85  C   UNL A   1      44.374  26.796  34.922  1.00  0.00     0.173 A 
ATOM     86  F   UNL A   1      45.906  29.738  33.428  1.00  0.00    -0.203 F 
ATOM     87  C   UNL A   1      46.877  27.957  34.624  1.00  0.00     0.198 A 
ATOM     88  C   UNL A   1      45.497  26.188  35.475  1.00  0.00     0.198 A 
ATOM     89  F   UNL A   1      43.179  26.208  35.082  1.00  0.00    -0.203 F 
ATOM     90  F   UNL A   1      48.088  28.503  34.450  1.00  0.00    -0.200 F 
ATOM     91  C   UNL A   1      46.748  26.764  35.319  1.00  0.00     0.200 A 
ATOM     92  F   UNL A   1      45.369  25.042  36.159  1.00  0.00    -0.200 F 
ATOM     93  F   UNL A   1      47.833  26.167  35.834  1.00  0.00    -0.200 F 
ENDBRANCH  60  83
ENDBRANCH  34  35
ENDBRANCH  27  29
ENDBRANCH  26  27
ENDBRANCH  25  26
ENDBRANCH  24  25
ENDBRANCH  23  24
ENDBRANCH  22  23
ENDBRANCH   1  22
TORSDOF 21
ENDMDL
MODEL 3
REMARK VINA RESULT:      -9.6      6.742     12.111
REMARK SMILES Cc1cc(Br)cnc1SCC1(CC(=O)OCCOCCOCCOC(=O)c2ccc(-c3c4nc(c(-c5c(F)c(F)c(F)c(F)c5F)c5ccc([nH]5)c(-c5c(F)c(F)c(F)c(F)c5F)c5nc(c(-c6c(F)c(F)c(F)c(F)c6F)c6ccc3[nH]6)C=C5)C=C4)cc2)CC1
REMARK SMILES IDX 19 1 18 2 17 3 16 4 15 5 13 6 14 7 12 8 11 9 90 10 91 11
REMARK SMILES IDX 10 12 9 13 8 14 1 15 2 16 3 17 4 18 7 19 5 20 6 21 20 22
REMARK SMILES IDX 21 23 22 24 23 25 24 26 25 27 26 28 27 29 28 30 89 31 29 32
REMARK SMILES IDX 88 33 30 34 31 35 32 36 82 37 33 38 87 39 81 40 83 41 34 42
REMARK SMILES IDX 86 43 80 44 79 45 35 47 67 48 47 49 66 50 48 51 51 52 65 53
REMARK SMILES IDX 84 54 49 55 50 56 64 58 85 59 52 60 36 61 37 62 45 63 38 64
REMARK SMILES IDX 39 65 43 66 46 67 40 68 41 69 44 70 42 71 68 72 69 73 77 74
REMARK SMILES IDX 70 75 71 76 75 77 78 78 72 79 73 80 76 81 74 82 53 83 54 84
REMARK SMILES IDX 62 85 55 86 56 87 60 88 63 89 57 90 58 91 61 92 59 93
REMARK H PARENT 83 46 51 57
REMARK Flexibility Score: inf
ROOT
ATOM      1  C   UNL A   1      38.565  21.668  25.701  1.00  0.00     0.188 C 
ENDROOT
BRANCH   1   2
ATOM      2  O   UNL A   1      37.830  22.849  26.006  1.00  0.00    -0.376 OA
BRANCH   2   3
ATOM      3  C   UNL A   1      36.423  22.843  25.815  1.00  0.00     0.202 C 
BRANCH   3   4
ATOM      4  C   UNL A   1      35.822  24.074  25.140  1.00  0.00     0.261 C 
BRANCH   4   5
ATOM      5  O   UNL A   1      34.726  24.676  25.854  1.00  0.00    -0.463 OA
BRANCH   5   6
ATOM      6  C   UNL A   1      33.810  25.333  25.089  1.00  0.00     0.306 C 
ATOM      7  O   UNL A   1      33.569  26.532  25.159  1.00  0.00    -0.252 OA
BRANCH   6   8
ATOM      8  C   UNL A   1      33.017  24.390  24.217  1.00  0.00     0.130 C 
BRANCH   8   9
ATOM      9  C   UNL A   1      31.518  24.255  24.485  1.00  0.00    -0.010 C 
ATOM     10  C   UNL A   1      30.622  24.503  23.274  1.00  0.00     0.009 C 
ATOM     11  C   UNL A   1      30.648  25.500  24.385  1.00  0.00     0.009 C 
BRANCH   9  12
ATOM     12  C   UNL A   1      31.107  23.128  25.437  1.00  0.00     0.084 C 
BRANCH  12  13
ATOM     13  S   UNL A   1      32.580  22.107  25.729  1.00  0.00    -0.106 SA
BRANCH  13  14
ATOM     14  C   UNL A   1      32.321  20.515  24.971  1.00  0.00     0.099 A 
ATOM     15  C   UNL A   1      32.061  21.219  22.496  1.00  0.00     0.047 C 
ATOM     16  C   UNL A   1      32.333  20.241  23.597  1.00  0.00    -0.018 A 
ATOM     17  C   UNL A   1      32.749  18.953  23.198  1.00  0.00     0.023 A 
ATOM     18  C   UNL A   1      33.053  17.984  24.141  1.00  0.00     0.036 A 
ATOM     19  N   UNL A   1      32.498  19.529  25.892  1.00  0.00    -0.248 NA
ATOM     20  Br  UNL A   1      33.754  16.316  23.619  1.00  0.00    -0.049 Br
ATOM     21  C   UNL A   1      32.864  18.298  25.467  1.00  0.00     0.128 A 
ENDBRANCH  13  14
ENDBRANCH  12  13
ENDBRANCH   9  12
ENDBRANCH   8   9
ENDBRANCH   6   8
ENDBRANCH   5   6
ENDBRANCH   4   5
ENDBRANCH   3   4
ENDBRANCH   2   3
ENDBRANCH   1   2
BRANCH   1  22
ATOM     22  C   UNL A   1      39.987  21.520  26.263  1.00  0.00     0.188 C 
BRANCH  22  23
ATOM     23  O   UNL A   1      40.424  20.168  26.229  1.00  0.00    -0.376 OA
BRANCH  23  24
ATOM     24  C   UNL A   1      41.666  19.910  26.857  1.00  0.00     0.202 C 
BRANCH  24  25
ATOM     25  C   UNL A   1      42.495  18.895  26.067  1.00  0.00     0.261 C 
BRANCH  25  26
ATOM     26  O   UNL A   1      42.939  19.347  24.774  1.00  0.00    -0.460 OA
BRANCH  26  27
ATOM     27  C   UNL A   1      44.271  19.509  24.611  1.00  0.00     0.338 C 
ATOM     28  O   UNL A   1      45.062  18.689  24.188  1.00  0.00    -0.246 OA
BRANCH  27  29
ATOM     29  C   UNL A   1      44.613  20.917  24.910  1.00  0.00     0.060 A 
ATOM     30  C   UNL A   1      45.164  21.232  26.158  1.00  0.00     0.016 A 
ATOM     31  C   UNL A   1      44.350  21.928  23.983  1.00  0.00     0.016 A 
ATOM     32  C   UNL A   1      45.426  22.566  26.493  1.00  0.00     0.010 A 
ATOM     33  C   UNL A   1      44.601  23.262  24.323  1.00  0.00     0.010 A 
ATOM     34  C   UNL A   1      45.117  23.593  25.590  1.00  0.00    -0.014 A 
BRANCH  34  35
ATOM     35  C   UNL A   1      45.212  25.022  25.997  1.00  0.00     0.031 A 
ATOM     36  C   UNL A   1      46.547  25.714  25.937  1.00  0.00     0.074 A 
ATOM     37  C   UNL A   1      44.133  25.699  26.429  1.00  0.00     0.049 A 
ATOM     38  N   UNL A   1      46.886  26.910  26.351  1.00  0.00    -0.248 NA
ATOM     39  C   UNL A   1      47.651  24.955  25.329  1.00  0.00     0.031 C 
ATOM     40  C   UNL A   1      42.773  25.171  26.495  1.00  0.00     0.029 A 
ATOM     41  N   UNL A   1      44.020  26.981  26.913  1.00  0.00    -0.354 N 
ATOM     42  C   UNL A   1      48.239  27.040  26.070  1.00  0.00     0.074 A 
ATOM     43  C   UNL A   1      48.666  25.797  25.462  1.00  0.00     0.031 C 
ATOM     44  C   UNL A   1      41.964  26.114  27.008  1.00  0.00     0.029 A 
ATOM     45  C   UNL A   1      42.755  27.296  27.347  1.00  0.00     0.049 A 
ATOM     46  H   UNL A   1      44.774  27.613  26.946  1.00  0.00     0.167 HD
ATOM     47  C   UNL A   1      49.052  28.099  26.295  1.00  0.00     0.037 A 
ATOM     48  C   UNL A   1      42.296  28.397  27.977  1.00  0.00     0.037 A 
ATOM     49  C   UNL A   1      48.633  29.345  26.883  1.00  0.00     0.049 A 
ATOM     50  C   UNL A   1      43.242  29.534  28.280  1.00  0.00     0.074 A 
ATOM     51  C   UNL A   1      49.386  30.482  27.121  1.00  0.00     0.029 A 
ATOM     52  N   UNL A   1      47.349  29.615  27.329  1.00  0.00    -0.354 N 
ATOM     53  N   UNL A   1      44.515  29.655  27.994  1.00  0.00    -0.248 NA
ATOM     54  C   UNL A   1      42.683  30.688  29.002  1.00  0.00     0.031 C 
ATOM     55  C   UNL A   1      48.570  31.422  27.758  1.00  0.00     0.029 A 
ATOM     56  C   UNL A   1      47.296  30.891  27.867  1.00  0.00     0.049 A 
ATOM     57  H   UNL A   1      46.587  28.993  27.271  1.00  0.00     0.167 HD
ATOM     58  C   UNL A   1      44.897  30.905  28.469  1.00  0.00     0.074 A 
ATOM     59  C   UNL A   1      43.720  31.511  29.050  1.00  0.00     0.031 C 
ATOM     60  C   UNL A   1      46.116  31.496  28.428  1.00  0.00     0.037 A 
BRANCH  47  61
ATOM     61  C   UNL A   1      50.500  27.961  25.928  1.00  0.00     0.064 A 
ATOM     62  C   UNL A   1      50.947  28.139  24.612  1.00  0.00     0.173 A 
ATOM     63  C   UNL A   1      51.460  27.721  26.924  1.00  0.00     0.173 A 
ATOM     64  F   UNL A   1      50.069  28.358  23.623  1.00  0.00    -0.203 F 
ATOM     65  C   UNL A   1      52.304  28.070  24.303  1.00  0.00     0.198 A 
ATOM     66  C   UNL A   1      52.817  27.679  26.616  1.00  0.00     0.198 A 
ATOM     67  F   UNL A   1      51.083  27.550  28.200  1.00  0.00    -0.203 F 
ATOM     68  F   UNL A   1      52.709  28.215  23.034  1.00  0.00    -0.200 F 
ATOM     69  C   UNL A   1      53.238  27.851  25.306  1.00  0.00     0.200 A 
ATOM     70  F   UNL A   1      53.717  27.481  27.588  1.00  0.00    -0.200 F 
ATOM     71  F   UNL A   1      54.543  27.803  25.010  1.00  0.00    -0.200 F 
ENDBRANCH  47  61
BRANCH  48  72
ATOM     72  C   UNL A   1      40.876  28.476  28.411  1.00  0.00     0.064 A 
ATOM     73  C   UNL A   1      39.889  29.017  27.575  1.00  0.00     0.173 A 
ATOM     74  C   UNL A   1      40.489  28.072  29.698  1.00  0.00     0.173 A 
ATOM     75  F   UNL A   1      40.216  29.452  26.348  1.00  0.00    -0.203 F 
ATOM     76  C   UNL A   1      38.578  29.180  28.019  1.00  0.00     0.198 A 
ATOM     77  C   UNL A   1      39.171  28.206  30.129  1.00  0.00     0.198 A 
ATOM     78  F   UNL A   1      41.395  27.559  30.542  1.00  0.00    -0.203 F 
ATOM     79  F   UNL A   1      37.672  29.767  27.225  1.00  0.00    -0.200 F 
ATOM     80  C   UNL A   1      38.220  28.771  29.294  1.00  0.00     0.200 A 
ATOM     81  F   UNL A   1      38.828  27.806  31.362  1.00  0.00    -0.200 F 
ATOM     82  F   UNL A   1      36.962  28.942  29.726  1.00  0.00    -0.200 F 
ENDBRANCH  48  72
BRANCH  60  83
ATOM     83  C   UNL A   1      46.237  32.885  28.985  1.00  0.00     0.064 A 
ATOM     84  C   UNL A   1      46.598  33.117  30.321  1.00  0.00     0.173 A 
ATOM     85  C   UNL A   1      46.031  34.001  28.158  1.00  0.00     0.173 A 
ATOM     86  F   UNL A   1      46.792  32.086  31.156  1.00  0.00    -0.203 F 
ATOM     87  C   UNL A   1      46.725  34.414  30.814  1.00  0.00     0.198 A 
ATOM     88  C   UNL A   1      46.190  35.295  28.647  1.00  0.00     0.198 A 
ATOM     89  F   UNL A   1      45.693  33.837  26.871  1.00  0.00    -0.203 F 
ATOM     90  F   UNL A   1      47.028  34.611  32.104  1.00  0.00    -0.200 F 
ATOM     91  C   UNL A   1      46.529  35.501  29.975  1.00  0.00     0.200 A 
ATOM     92  F   UNL A   1      46.014  36.345  27.831  1.00  0.00    -0.200 F 
ATOM     93  F   UNL A   1      46.661  36.748  30.450  1.00  0.00    -0.200 F 
ENDBRANCH  60  83
ENDBRANCH  34  35
ENDBRANCH  27  29
ENDBRANCH  26  27
ENDBRANCH  25  26
ENDBRANCH  24  25
ENDBRANCH  23  24
ENDBRANCH  22  23
ENDBRANCH   1  22
TORSDOF 21
ENDMDL
