MODEL 1
REMARK VINA RESULT:     -10.9      0.000      0.000
REMARK SMILES CC[C@@H](C)[C@@H](C)Nc1cccc(F)c1C(=O)OCCOCCOCCOC(=O)c1ccc(-c2c3nc(c(-c4c(F)c(F)c(F)c(F)c4F)c4ccc([nH]4)c(-c4c(F)c(F)c(F)c(F)c4F)c4nc(c(-c5c(F)c(F)c(F)c(F)c5F)c5ccc2[nH]5)C=C4)C=C3)cc1
REMARK SMILES IDX 21 1 20 2 19 3 18 4 17 5 15 6 16 7 14 8 8 9 9 10 10 11 12 12
REMARK SMILES IDX 11 13 13 14 7 15 5 17 6 18 3 19 4 20 2 21 1 22 22 23 23 24
REMARK SMILES IDX 24 25 25 26 26 27 27 28 28 29 29 30 30 31 91 32 31 33 90 34
REMARK SMILES IDX 32 35 33 36 34 37 84 38 35 39 89 40 83 41 85 42 36 43 88 44
REMARK SMILES IDX 82 45 81 46 37 48 69 49 49 50 68 51 50 52 53 53 67 54 86 55
REMARK SMILES IDX 51 56 52 57 66 59 87 60 54 61 38 62 39 63 47 64 40 65 41 66
REMARK SMILES IDX 45 67 48 68 42 69 43 70 46 71 44 72 70 73 71 74 79 75 72 76
REMARK SMILES IDX 73 77 77 78 80 79 74 80 75 81 78 82 76 83 55 84 56 85 64 86
REMARK SMILES IDX 57 87 58 88 62 89 65 90 59 91 60 92 63 93 61 94
REMARK H PARENT 7 16 85 47 53 58
REMARK Flexibility Score: inf
ROOT
ATOM      1  C   UNL A   1      40.551  21.190  26.897  1.00  0.00     0.188 C 
ENDROOT
BRANCH   1   2
ATOM      2  O   UNL A   1      39.464  20.976  26.008  1.00  0.00    -0.376 OA
BRANCH   2   3
ATOM      3  C   UNL A   1      38.538  22.049  25.890  1.00  0.00     0.202 C 
BRANCH   3   4
ATOM      4  C   UNL A   1      37.430  21.811  24.857  1.00  0.00     0.261 C 
BRANCH   4   5
ATOM      5  O   UNL A   1      36.259  21.166  25.382  1.00  0.00    -0.460 OA
BRANCH   5   6
ATOM      6  C   UNL A   1      35.213  21.965  25.705  1.00  0.00     0.343 C 
ATOM      7  O   UNL A   1      35.194  22.763  26.620  1.00  0.00    -0.246 OA
BRANCH   6   8
ATOM      8  C   UNL A   1      34.183  21.862  24.643  1.00  0.00     0.118 A 
ATOM      9  C   UNL A   1      33.549  20.628  24.357  1.00  0.00     0.052 A 
ATOM     10  C   UNL A   1      32.570  20.626  23.350  1.00  0.00     0.027 A 
ATOM     11  C   UNL A   1      32.216  21.793  22.665  1.00  0.00     0.005 A 
ATOM     12  C   UNL A   1      33.842  23.018  23.937  1.00  0.00     0.139 A 
ATOM     13  C   UNL A   1      32.857  22.991  22.958  1.00  0.00     0.040 A 
ATOM     14  F   UNL A   1      34.463  24.182  24.177  1.00  0.00    -0.206 F 
BRANCH   9  15
ATOM     15  N   UNL A   1      33.841  19.469  25.074  1.00  0.00    -0.382 N 
ATOM     16  H   UNL A   1      34.485  19.531  25.816  1.00  0.00     0.160 HD
BRANCH  15  17
ATOM     17  C   UNL A   1      33.241  18.157  24.782  1.00  0.00     0.079 C 
ATOM     18  C   UNL A   1      32.576  17.632  26.057  1.00  0.00     0.031 C 
BRANCH  17  19
ATOM     19  C   UNL A   1      34.389  17.227  24.266  1.00  0.00     0.008 C 
ATOM     20  C   UNL A   1      34.132  16.835  22.798  1.00  0.00     0.010 C 
BRANCH  19  21
ATOM     21  C   UNL A   1      34.597  15.952  25.108  1.00  0.00     0.002 C 
ATOM     22  C   UNL A   1      36.030  15.799  25.608  1.00  0.00     0.004 C 
ENDBRANCH  19  21
ENDBRANCH  17  19
ENDBRANCH  15  17
ENDBRANCH   9  15
ENDBRANCH   6   8
ENDBRANCH   5   6
ENDBRANCH   4   5
ENDBRANCH   3   4
ENDBRANCH   2   3
ENDBRANCH   1   2
BRANCH   1  23
ATOM     23  C   UNL A   1      41.691  20.156  26.803  1.00  0.00     0.188 C 
BRANCH  23  24
ATOM     24  O   UNL A   1      42.357  19.914  25.570  1.00  0.00    -0.376 OA
BRANCH  24  25
ATOM     25  C   UNL A   1      43.674  20.404  25.380  1.00  0.00     0.202 C 
BRANCH  25  26
ATOM     26  C   UNL A   1      43.976  21.841  25.821  1.00  0.00     0.261 C 
BRANCH  26  27
ATOM     27  O   UNL A   1      43.173  22.840  25.171  1.00  0.00    -0.460 OA
BRANCH  27  28
ATOM     28  C   UNL A   1      43.722  24.077  25.115  1.00  0.00     0.338 C 
ATOM     29  O   UNL A   1      44.617  24.462  24.383  1.00  0.00    -0.246 OA
BRANCH  28  30
ATOM     30  C   UNL A   1      42.975  24.999  25.994  1.00  0.00     0.060 A 
ATOM     31  C   UNL A   1      43.415  26.327  26.084  1.00  0.00     0.016 A 
ATOM     32  C   UNL A   1      41.917  24.548  26.786  1.00  0.00     0.016 A 
ATOM     33  C   UNL A   1      42.822  27.200  26.994  1.00  0.00     0.010 A 
ATOM     34  C   UNL A   1      41.341  25.418  27.718  1.00  0.00     0.010 A 
ATOM     35  C   UNL A   1      41.814  26.735  27.848  1.00  0.00    -0.014 A 
BRANCH  35  36
ATOM     36  C   UNL A   1      41.387  27.575  28.993  1.00  0.00     0.031 A 
ATOM     37  C   UNL A   1      42.215  27.562  30.245  1.00  0.00     0.074 A 
ATOM     38  C   UNL A   1      40.305  28.366  28.909  1.00  0.00     0.049 A 
ATOM     39  N   UNL A   1      42.026  28.198  31.373  1.00  0.00    -0.248 NA
ATOM     40  C   UNL A   1      43.413  26.708  30.225  1.00  0.00     0.031 C 
ATOM     41  C   UNL A   1      39.443  28.483  27.740  1.00  0.00     0.029 A 
ATOM     42  N   UNL A   1      39.757  29.230  29.824  1.00  0.00    -0.354 N 
ATOM     43  C   UNL A   1      43.070  27.809  32.201  1.00  0.00     0.074 A 
ATOM     44  C   UNL A   1      43.883  26.876  31.453  1.00  0.00     0.031 C 
ATOM     45  C   UNL A   1      38.495  29.402  27.988  1.00  0.00     0.029 A 
ATOM     46  C   UNL A   1      38.657  29.902  29.353  1.00  0.00     0.049 A 
ATOM     47  H   UNL A   1      40.118  29.356  30.731  1.00  0.00     0.167 HD
ATOM     48  C   UNL A   1      43.322  28.193  33.474  1.00  0.00     0.037 A 
ATOM     49  C   UNL A   1      37.867  30.810  29.959  1.00  0.00     0.037 A 
ATOM     50  C   UNL A   1      42.504  29.110  34.222  1.00  0.00     0.049 A 
ATOM     51  C   UNL A   1      38.135  31.183  31.394  1.00  0.00     0.074 A 
ATOM     52  C   UNL A   1      42.666  29.547  35.525  1.00  0.00     0.029 A 
ATOM     53  N   UNL A   1      41.362  29.728  33.731  1.00  0.00    -0.354 N 
ATOM     54  N   UNL A   1      39.112  30.798  32.179  1.00  0.00    -0.248 NA
ATOM     55  C   UNL A   1      37.176  32.095  32.035  1.00  0.00     0.031 C 
ATOM     56  C   UNL A   1      41.597  30.392  35.838  1.00  0.00     0.029 A 
ATOM     57  C   UNL A   1      40.796  30.525  34.714  1.00  0.00     0.049 A 
ATOM     58  H   UNL A   1      41.006  29.616  32.821  1.00  0.00     0.167 HD
ATOM     59  C   UNL A   1      38.888  31.417  33.402  1.00  0.00     0.074 A 
ATOM     60  C   UNL A   1      37.695  32.224  33.249  1.00  0.00     0.031 C 
ATOM     61  C   UNL A   1      39.603  31.317  34.549  1.00  0.00     0.037 A 
BRANCH  48  62
ATOM     62  C   UNL A   1      44.511  27.583  34.153  1.00  0.00     0.064 A 
ATOM     63  C   UNL A   1      45.773  28.186  34.050  1.00  0.00     0.173 A 
ATOM     64  C   UNL A   1      44.409  26.395  34.892  1.00  0.00     0.173 A 
ATOM     65  F   UNL A   1      45.926  29.323  33.354  1.00  0.00    -0.203 F 
ATOM     66  C   UNL A   1      46.891  27.621  34.660  1.00  0.00     0.198 A 
ATOM     67  C   UNL A   1      45.522  25.848  35.525  1.00  0.00     0.198 A 
ATOM     68  F   UNL A   1      43.220  25.789  35.036  1.00  0.00    -0.203 F 
ATOM     69  F   UNL A   1      48.089  28.206  34.533  1.00  0.00    -0.200 F 
ATOM     70  C   UNL A   1      46.763  26.457  35.402  1.00  0.00     0.200 A 
ATOM     71  F   UNL A   1      45.392  24.738  36.265  1.00  0.00    -0.200 F 
ATOM     72  F   UNL A   1      47.834  25.927  36.008  1.00  0.00    -0.200 F 
ENDBRANCH  48  62
BRANCH  49  73
ATOM     73  C   UNL A   1      36.752  31.435  29.201  1.00  0.00     0.064 A 
ATOM     74  C   UNL A   1      36.782  32.787  28.830  1.00  0.00     0.173 A 
ATOM     75  C   UNL A   1      35.611  30.692  28.868  1.00  0.00     0.173 A 
ATOM     76  F   UNL A   1      37.852  33.540  29.125  1.00  0.00    -0.203 F 
ATOM     77  C   UNL A   1      35.700  33.379  28.182  1.00  0.00     0.198 A 
ATOM     78  C   UNL A   1      34.539  31.280  28.199  1.00  0.00     0.198 A 
ATOM     79  F   UNL A   1      35.545  29.389  29.181  1.00  0.00    -0.203 F 
ATOM     80  F   UNL A   1      35.736  34.685  27.880  1.00  0.00    -0.200 F 
ATOM     81  C   UNL A   1      34.580  32.625  27.866  1.00  0.00     0.200 A 
ATOM     82  F   UNL A   1      33.468  30.543  27.878  1.00  0.00    -0.200 F 
ATOM     83  F   UNL A   1      33.539  33.196  27.245  1.00  0.00    -0.200 F 
ENDBRANCH  49  73
BRANCH  61  84
ATOM     84  C   UNL A   1      39.124  32.092  35.743  1.00  0.00     0.064 A 
ATOM     85  C   UNL A   1      39.580  33.399  35.973  1.00  0.00     0.173 A 
ATOM     86  C   UNL A   1      38.290  31.507  36.705  1.00  0.00     0.173 A 
ATOM     87  F   UNL A   1      40.388  33.999  35.086  1.00  0.00    -0.203 F 
ATOM     88  C   UNL A   1      39.233  34.084  37.134  1.00  0.00     0.198 A 
ATOM     89  C   UNL A   1      37.923  32.206  37.854  1.00  0.00     0.198 A 
ATOM     90  F   UNL A   1      37.818  30.264  36.526  1.00  0.00    -0.203 F 
ATOM     91  F   UNL A   1      39.711  35.318  37.350  1.00  0.00    -0.200 F 
ATOM     92  C   UNL A   1      38.404  33.489  38.072  1.00  0.00     0.200 A 
ATOM     93  F   UNL A   1      37.106  31.637  38.750  1.00  0.00    -0.200 F 
ATOM     94  F   UNL A   1      38.068  34.152  39.188  1.00  0.00    -0.200 F 
ENDBRANCH  61  84
ENDBRANCH  35  36
ENDBRANCH  28  30
ENDBRANCH  27  28
ENDBRANCH  26  27
ENDBRANCH  25  26
ENDBRANCH  24  25
ENDBRANCH  23  24
ENDBRANCH   1  23
TORSDOF 21
ENDMDL
MODEL 2
REMARK VINA RESULT:     -10.6      5.131      9.696
REMARK SMILES CC[C@@H](C)[C@@H](C)Nc1cccc(F)c1C(=O)OCCOCCOCCOC(=O)c1ccc(-c2c3nc(c(-c4c(F)c(F)c(F)c(F)c4F)c4ccc([nH]4)c(-c4c(F)c(F)c(F)c(F)c4F)c4nc(c(-c5c(F)c(F)c(F)c(F)c5F)c5ccc2[nH]5)C=C4)C=C3)cc1
REMARK SMILES IDX 21 1 20 2 19 3 18 4 17 5 15 6 16 7 14 8 8 9 9 10 10 11 12 12
REMARK SMILES IDX 11 13 13 14 7 15 5 17 6 18 3 19 4 20 2 21 1 22 22 23 23 24
REMARK SMILES IDX 24 25 25 26 26 27 27 28 28 29 29 30 30 31 91 32 31 33 90 34
REMARK SMILES IDX 32 35 33 36 34 37 84 38 35 39 89 40 83 41 85 42 36 43 88 44
REMARK SMILES IDX 82 45 81 46 37 48 69 49 49 50 68 51 50 52 53 53 67 54 86 55
REMARK SMILES IDX 51 56 52 57 66 59 87 60 54 61 38 62 39 63 47 64 40 65 41 66
REMARK SMILES IDX 45 67 48 68 42 69 43 70 46 71 44 72 70 73 71 74 79 75 72 76
REMARK SMILES IDX 73 77 77 78 80 79 74 80 75 81 78 82 76 83 55 84 56 85 64 86
REMARK SMILES IDX 57 87 58 88 62 89 65 90 59 91 60 92 63 93 61 94
REMARK H PARENT 7 16 85 47 53 58
REMARK Flexibility Score: inf
ROOT
ATOM      1  C   UNL A   1      32.951  23.251  25.911  1.00  0.00     0.188 C 
ENDROOT
BRANCH   1   2
ATOM      2  O   UNL A   1      31.537  23.261  25.788  1.00  0.00    -0.376 OA
BRANCH   2   3
ATOM      3  C   UNL A   1      31.008  24.098  24.766  1.00  0.00     0.202 C 
BRANCH   3   4
ATOM      4  C   UNL A   1      32.069  24.883  23.986  1.00  0.00     0.261 C 
BRANCH   4   5
ATOM      5  O   UNL A   1      31.711  26.246  23.707  1.00  0.00    -0.460 OA
BRANCH   5   6
ATOM      6  C   UNL A   1      32.718  27.153  23.699  1.00  0.00     0.343 C 
ATOM      7  O   UNL A   1      33.525  27.301  22.804  1.00  0.00    -0.246 OA
BRANCH   6   8
ATOM      8  C   UNL A   1      32.549  28.067  24.854  1.00  0.00     0.118 A 
ATOM      9  C   UNL A   1      31.736  29.224  24.760  1.00  0.00     0.052 A 
ATOM     10  C   UNL A   1      31.616  30.021  25.910  1.00  0.00     0.027 A 
ATOM     11  C   UNL A   1      32.255  29.687  27.108  1.00  0.00     0.005 A 
ATOM     12  C   UNL A   1      33.204  27.753  26.048  1.00  0.00     0.139 A 
ATOM     13  C   UNL A   1      33.053  28.550  27.176  1.00  0.00     0.040 A 
ATOM     14  F   UNL A   1      34.004  26.680  26.135  1.00  0.00    -0.206 F 
BRANCH   9  15
ATOM     15  N   UNL A   1      31.040  29.538  23.594  1.00  0.00    -0.382 N 
ATOM     16  H   UNL A   1      31.559  29.748  22.785  1.00  0.00     0.160 HD
BRANCH  15  17
ATOM     17  C   UNL A   1      29.571  29.574  23.508  1.00  0.00     0.079 C 
ATOM     18  C   UNL A   1      29.100  28.352  22.716  1.00  0.00     0.031 C 
BRANCH  17  19
ATOM     19  C   UNL A   1      29.180  30.928  22.827  1.00  0.00     0.008 C 
ATOM     20  C   UNL A   1      27.869  31.466  23.432  1.00  0.00     0.010 C 
BRANCH  19  21
ATOM     21  C   UNL A   1      29.043  30.849  21.293  1.00  0.00     0.002 C 
ATOM     22  C   UNL A   1      27.977  31.793  20.744  1.00  0.00     0.004 C 
ENDBRANCH  19  21
ENDBRANCH  17  19
ENDBRANCH  15  17
ENDBRANCH   9  15
ENDBRANCH   6   8
ENDBRANCH   5   6
ENDBRANCH   4   5
ENDBRANCH   3   4
ENDBRANCH   2   3
ENDBRANCH   1   2
BRANCH   1  23
ATOM     23  C   UNL A   1      33.640  21.939  25.484  1.00  0.00     0.188 C 
BRANCH  23  24
ATOM     24  O   UNL A   1      35.051  21.795  25.566  1.00  0.00    -0.376 OA
BRANCH  24  25
ATOM     25  C   UNL A   1      35.670  20.648  25.006  1.00  0.00     0.202 C 
BRANCH  25  26
ATOM     26  C   UNL A   1      37.202  20.577  25.026  1.00  0.00     0.261 C 
BRANCH  26  27
ATOM     27  O   UNL A   1      37.840  21.731  25.596  1.00  0.00    -0.460 OA
BRANCH  27  28
ATOM     28  C   UNL A   1      39.052  21.503  26.158  1.00  0.00     0.338 C 
ATOM     29  O   UNL A   1      39.710  20.478  26.117  1.00  0.00    -0.246 OA
BRANCH  28  30
ATOM     30  C   UNL A   1      39.579  22.753  26.741  1.00  0.00     0.060 A 
ATOM     31  C   UNL A   1      39.020  23.966  26.318  1.00  0.00     0.016 A 
ATOM     32  C   UNL A   1      40.664  22.741  27.620  1.00  0.00     0.016 A 
ATOM     33  C   UNL A   1      39.568  25.174  26.745  1.00  0.00     0.010 A 
ATOM     34  C   UNL A   1      41.230  23.954  28.026  1.00  0.00     0.010 A 
ATOM     35  C   UNL A   1      40.705  25.173  27.563  1.00  0.00    -0.014 A 
BRANCH  35  36
ATOM     36  C   UNL A   1      41.446  26.439  27.780  1.00  0.00     0.031 A 
ATOM     37  C   UNL A   1      40.807  27.515  28.609  1.00  0.00     0.074 A 
ATOM     38  C   UNL A   1      42.680  26.616  27.280  1.00  0.00     0.049 A 
ATOM     39  N   UNL A   1      41.257  28.705  28.915  1.00  0.00    -0.248 NA
ATOM     40  C   UNL A   1      39.478  27.210  29.160  1.00  0.00     0.031 C 
ATOM     41  C   UNL A   1      43.410  25.636  26.486  1.00  0.00     0.029 A 
ATOM     42  N   UNL A   1      43.540  27.681  27.381  1.00  0.00    -0.354 N 
ATOM     43  C   UNL A   1      40.260  29.297  29.679  1.00  0.00     0.074 A 
ATOM     44  C   UNL A   1      39.179  28.342  29.782  1.00  0.00     0.031 C 
ATOM     45  C   UNL A   1      44.630  26.124  26.207  1.00  0.00     0.029 A 
ATOM     46  C   UNL A   1      44.747  27.472  26.761  1.00  0.00     0.049 A 
ATOM     47  H   UNL A   1      43.314  28.514  27.854  1.00  0.00     0.167 HD
ATOM     48  C   UNL A   1      40.248  30.529  30.237  1.00  0.00     0.037 A 
ATOM     49  C   UNL A   1      45.818  28.282  26.647  1.00  0.00     0.037 A 
ATOM     50  C   UNL A   1      41.318  31.483  30.120  1.00  0.00     0.049 A 
ATOM     51  C   UNL A   1      45.762  29.669  27.232  1.00  0.00     0.074 A 
ATOM     52  C   UNL A   1      41.391  32.766  30.635  1.00  0.00     0.029 A 
ATOM     53  N   UNL A   1      42.503  31.259  29.434  1.00  0.00    -0.354 N 
ATOM     54  N   UNL A   1      44.810  30.231  27.937  1.00  0.00    -0.248 NA
ATOM     55  C   UNL A   1      46.917  30.544  26.983  1.00  0.00     0.031 C 
ATOM     56  C   UNL A   1      42.600  33.333  30.221  1.00  0.00     0.029 A 
ATOM     57  C   UNL A   1      43.304  32.388  29.492  1.00  0.00     0.049 A 
ATOM     58  H   UNL A   1      42.739  30.422  28.973  1.00  0.00     0.167 HD
ATOM     59  C   UNL A   1      45.247  31.519  28.216  1.00  0.00     0.074 A 
ATOM     60  C   UNL A   1      46.563  31.650  27.625  1.00  0.00     0.031 C 
ATOM     61  C   UNL A   1      44.609  32.506  28.892  1.00  0.00     0.037 A 
BRANCH  48  62
ATOM     62  C   UNL A   1      39.014  30.930  30.989  1.00  0.00     0.064 A 
ATOM     63  C   UNL A   1      37.912  31.467  30.307  1.00  0.00     0.173 A 
ATOM     64  C   UNL A   1      38.925  30.800  32.383  1.00  0.00     0.173 A 
ATOM     65  F   UNL A   1      37.946  31.614  28.974  1.00  0.00    -0.203 F 
ATOM     66  C   UNL A   1      36.766  31.861  30.994  1.00  0.00     0.198 A 
ATOM     67  C   UNL A   1      37.767  31.167  33.063  1.00  0.00     0.198 A 
ATOM     68  F   UNL A   1      39.945  30.275  33.078  1.00  0.00    -0.203 F 
ATOM     69  F   UNL A   1      35.732  32.387  30.323  1.00  0.00    -0.200 F 
ATOM     70  C   UNL A   1      36.691  31.703  32.369  1.00  0.00     0.200 A 
ATOM     71  F   UNL A   1      37.685  30.989  34.389  1.00  0.00    -0.200 F 
ATOM     72  F   UNL A   1      35.580  32.061  33.026  1.00  0.00    -0.200 F 
ENDBRANCH  48  62
BRANCH  49  73
ATOM     73  C   UNL A   1      47.039  27.791  25.958  1.00  0.00     0.064 A 
ATOM     74  C   UNL A   1      47.145  27.791  24.559  1.00  0.00     0.173 A 
ATOM     75  C   UNL A   1      48.113  27.272  26.693  1.00  0.00     0.173 A 
ATOM     76  F   UNL A   1      46.144  28.279  23.811  1.00  0.00    -0.203 F 
ATOM     77  C   UNL A   1      48.265  27.262  23.923  1.00  0.00     0.198 A 
ATOM     78  C   UNL A   1      49.244  26.765  26.056  1.00  0.00     0.198 A 
ATOM     79  F   UNL A   1      48.069  27.271  28.034  1.00  0.00    -0.203 F 
ATOM     80  F   UNL A   1      48.321  27.232  22.584  1.00  0.00    -0.200 F 
ATOM     81  C   UNL A   1      49.314  26.751  24.671  1.00  0.00     0.200 A 
ATOM     82  F   UNL A   1      50.263  26.289  26.783  1.00  0.00    -0.200 F 
ATOM     83  F   UNL A   1      50.390  26.240  24.058  1.00  0.00    -0.200 F 
ENDBRANCH  49  73
BRANCH  61  84
ATOM     84  C   UNL A   1      45.314  33.824  29.035  1.00  0.00     0.064 A 
ATOM     85  C   UNL A   1      46.009  34.136  30.214  1.00  0.00     0.173 A 
ATOM     86  C   UNL A   1      45.221  34.812  28.045  1.00  0.00     0.173 A 
ATOM     87  F   UNL A   1      46.117  33.227  31.195  1.00  0.00    -0.203 F 
ATOM     88  C   UNL A   1      46.568  35.397  30.404  1.00  0.00     0.198 A 
ATOM     89  C   UNL A   1      45.805  36.065  28.228  1.00  0.00     0.198 A 
ATOM     90  F   UNL A   1      44.577  34.559  26.896  1.00  0.00    -0.203 F 
ATOM     91  F   UNL A   1      47.194  35.685  31.553  1.00  0.00    -0.200 F 
ATOM     92  C   UNL A   1      46.467  36.359  29.411  1.00  0.00     0.200 A 
ATOM     93  F   UNL A   1      45.724  36.987  27.259  1.00  0.00    -0.200 F 
ATOM     94  F   UNL A   1      47.009  37.571  29.593  1.00  0.00    -0.200 F 
ENDBRANCH  61  84
ENDBRANCH  35  36
ENDBRANCH  28  30
ENDBRANCH  27  28
ENDBRANCH  26  27
ENDBRANCH  25  26
ENDBRANCH  24  25
ENDBRANCH  23  24
ENDBRANCH   1  23
TORSDOF 21
ENDMDL
MODEL 3
REMARK VINA RESULT:     -10.6      3.273      8.087
REMARK SMILES CC[C@@H](C)[C@@H](C)Nc1cccc(F)c1C(=O)OCCOCCOCCOC(=O)c1ccc(-c2c3nc(c(-c4c(F)c(F)c(F)c(F)c4F)c4ccc([nH]4)c(-c4c(F)c(F)c(F)c(F)c4F)c4nc(c(-c5c(F)c(F)c(F)c(F)c5F)c5ccc2[nH]5)C=C4)C=C3)cc1
REMARK SMILES IDX 21 1 20 2 19 3 18 4 17 5 15 6 16 7 14 8 8 9 9 10 10 11 12 12
REMARK SMILES IDX 11 13 13 14 7 15 5 17 6 18 3 19 4 20 2 21 1 22 22 23 23 24
REMARK SMILES IDX 24 25 25 26 26 27 27 28 28 29 29 30 30 31 91 32 31 33 90 34
REMARK SMILES IDX 32 35 33 36 34 37 84 38 35 39 89 40 83 41 85 42 36 43 88 44
REMARK SMILES IDX 82 45 81 46 37 48 69 49 49 50 68 51 50 52 53 53 67 54 86 55
REMARK SMILES IDX 51 56 52 57 66 59 87 60 54 61 38 62 39 63 47 64 40 65 41 66
REMARK SMILES IDX 45 67 48 68 42 69 43 70 46 71 44 72 70 73 71 74 79 75 72 76
REMARK SMILES IDX 73 77 77 78 80 79 74 80 75 81 78 82 76 83 55 84 56 85 64 86
REMARK SMILES IDX 57 87 58 88 62 89 65 90 59 91 60 92 63 93 61 94
REMARK H PARENT 7 16 85 47 53 58
REMARK Flexibility Score: inf
ROOT
ATOM      1  C   UNL A   1      30.374  27.931  22.835  1.00  0.00     0.188 C 
ENDROOT
BRANCH   1   2
ATOM      2  O   UNL A   1      29.594  26.940  23.487  1.00  0.00    -0.376 OA
BRANCH   2   3
ATOM      3  C   UNL A   1      30.269  26.170  24.475  1.00  0.00     0.202 C 
BRANCH   3   4
ATOM      4  C   UNL A   1      30.675  24.767  24.009  1.00  0.00     0.261 C 
BRANCH   4   5
ATOM      5  O   UNL A   1      30.626  23.764  25.037  1.00  0.00    -0.460 OA
BRANCH   5   6
ATOM      6  C   UNL A   1      31.540  23.865  26.033  1.00  0.00     0.343 C 
ATOM      7  O   UNL A   1      31.286  23.897  27.220  1.00  0.00    -0.246 OA
BRANCH   6   8
ATOM      8  C   UNL A   1      32.897  23.719  25.455  1.00  0.00     0.118 A 
ATOM      9  C   UNL A   1      33.257  22.569  24.710  1.00  0.00     0.052 A 
ATOM     10  C   UNL A   1      34.557  22.525  24.182  1.00  0.00     0.027 A 
ATOM     11  C   UNL A   1      35.462  23.577  24.363  1.00  0.00     0.005 A 
ATOM     12  C   UNL A   1      33.815  24.755  25.653  1.00  0.00     0.139 A 
ATOM     13  C   UNL A   1      35.090  24.693  25.103  1.00  0.00     0.040 A 
ATOM     14  F   UNL A   1      33.495  25.831  26.386  1.00  0.00    -0.206 F 
BRANCH   9  15
ATOM     15  N   UNL A   1      32.348  21.541  24.464  1.00  0.00    -0.382 N 
ATOM     16  H   UNL A   1      31.555  21.743  23.919  1.00  0.00     0.160 HD
BRANCH  15  17
ATOM     17  C   UNL A   1      32.511  20.171  24.977  1.00  0.00     0.079 C 
ATOM     18  C   UNL A   1      33.257  20.236  26.311  1.00  0.00     0.031 C 
BRANCH  17  19
ATOM     19  C   UNL A   1      33.282  19.356  23.886  1.00  0.00     0.008 C 
ATOM     20  C   UNL A   1      32.299  18.480  23.086  1.00  0.00     0.010 C 
BRANCH  19  21
ATOM     21  C   UNL A   1      34.420  18.476  24.441  1.00  0.00     0.002 C 
ATOM     22  C   UNL A   1      34.169  16.985  24.236  1.00  0.00     0.004 C 
ENDBRANCH  19  21
ENDBRANCH  17  19
ENDBRANCH  15  17
ENDBRANCH   9  15
ENDBRANCH   6   8
ENDBRANCH   5   6
ENDBRANCH   4   5
ENDBRANCH   3   4
ENDBRANCH   2   3
ENDBRANCH   1   2
BRANCH   1  23
ATOM     23  C   UNL A   1      31.788  28.141  23.413  1.00  0.00     0.188 C 
BRANCH  23  24
ATOM     24  O   UNL A   1      32.096  29.291  24.189  1.00  0.00    -0.376 OA
BRANCH  24  25
ATOM     25  C   UNL A   1      31.067  29.932  24.925  1.00  0.00     0.202 C 
BRANCH  25  26
ATOM     26  C   UNL A   1      31.477  30.873  26.064  1.00  0.00     0.261 C 
BRANCH  26  27
ATOM     27  O   UNL A   1      32.794  30.631  26.585  1.00  0.00    -0.460 OA
BRANCH  27  28
ATOM     28  C   UNL A   1      33.365  31.680  27.224  1.00  0.00     0.338 C 
ATOM     29  O   UNL A   1      32.862  32.761  27.476  1.00  0.00    -0.246 OA
BRANCH  28  30
ATOM     30  C   UNL A   1      34.696  31.295  27.734  1.00  0.00     0.060 A 
ATOM     31  C   UNL A   1      34.927  29.944  28.023  1.00  0.00     0.016 A 
ATOM     32  C   UNL A   1      35.672  32.255  28.009  1.00  0.00     0.016 A 
ATOM     33  C   UNL A   1      36.122  29.551  28.623  1.00  0.00     0.010 A 
ATOM     34  C   UNL A   1      36.860  31.864  28.636  1.00  0.00     0.010 A 
ATOM     35  C   UNL A   1      37.073  30.517  28.975  1.00  0.00    -0.014 A 
BRANCH  35  36
ATOM     36  C   UNL A   1      38.203  30.136  29.858  1.00  0.00     0.031 A 
ATOM     37  C   UNL A   1      39.280  29.247  29.308  1.00  0.00     0.074 A 
ATOM     38  C   UNL A   1      38.289  30.601  31.114  1.00  0.00     0.049 A 
ATOM     39  N   UNL A   1      40.346  28.772  29.898  1.00  0.00    -0.248 NA
ATOM     40  C   UNL A   1      39.129  28.832  27.904  1.00  0.00     0.031 C 
ATOM     41  C   UNL A   1      37.321  31.489  31.747  1.00  0.00     0.029 A 
ATOM     42  N   UNL A   1      39.246  30.399  32.078  1.00  0.00    -0.354 N 
ATOM     43  C   UNL A   1      40.984  27.989  28.944  1.00  0.00     0.074 A 
ATOM     44  C   UNL A   1      40.182  28.044  27.742  1.00  0.00     0.031 C 
ATOM     45  C   UNL A   1      37.753  31.795  32.981  1.00  0.00     0.029 A 
ATOM     46  C   UNL A   1      39.005  31.084  33.243  1.00  0.00     0.049 A 
ATOM     47  H   UNL A   1      40.031  29.820  31.946  1.00  0.00     0.167 HD
ATOM     48  C   UNL A   1      42.132  27.283  29.067  1.00  0.00     0.037 A 
ATOM     49  C   UNL A   1      39.709  31.123  34.390  1.00  0.00     0.037 A 
ATOM     50  C   UNL A   1      42.920  27.217  30.268  1.00  0.00     0.049 A 
ATOM     51  C   UNL A   1      40.956  30.289  34.522  1.00  0.00     0.074 A 
ATOM     52  C   UNL A   1      44.090  26.514  30.496  1.00  0.00     0.029 A 
ATOM     53  N   UNL A   1      42.614  27.878  31.449  1.00  0.00    -0.354 N 
ATOM     54  N   UNL A   1      41.545  29.535  33.624  1.00  0.00    -0.248 NA
ATOM     55  C   UNL A   1      41.622  30.288  35.832  1.00  0.00     0.031 C 
ATOM     56  C   UNL A   1      44.465  26.712  31.828  1.00  0.00     0.029 A 
ATOM     57  C   UNL A   1      43.559  27.580  32.417  1.00  0.00     0.049 A 
ATOM     58  H   UNL A   1      41.838  28.470  31.580  1.00  0.00     0.167 HD
ATOM     59  C   UNL A   1      42.645  28.972  34.257  1.00  0.00     0.074 A 
ATOM     60  C   UNL A   1      42.659  29.490  35.609  1.00  0.00     0.031 C 
ATOM     61  C   UNL A   1      43.555  28.098  33.762  1.00  0.00     0.037 A 
BRANCH  48  62
ATOM     62  C   UNL A   1      42.578  26.487  27.877  1.00  0.00     0.064 A 
ATOM     63  C   UNL A   1      43.443  27.054  26.929  1.00  0.00     0.173 A 
ATOM     64  C   UNL A   1      42.141  25.171  27.664  1.00  0.00     0.173 A 
ATOM     65  F   UNL A   1      43.889  28.310  27.084  1.00  0.00    -0.203 F 
ATOM     66  C   UNL A   1      43.851  26.333  25.809  1.00  0.00     0.198 A 
ATOM     67  C   UNL A   1      42.574  24.444  26.559  1.00  0.00     0.198 A 
ATOM     68  F   UNL A   1      41.328  24.578  28.551  1.00  0.00    -0.203 F 
ATOM     69  F   UNL A   1      44.663  26.902  24.908  1.00  0.00    -0.200 F 
ATOM     70  C   UNL A   1      43.423  25.027  25.629  1.00  0.00     0.200 A 
ATOM     71  F   UNL A   1      42.182  23.172  26.400  1.00  0.00    -0.200 F 
ATOM     72  F   UNL A   1      43.835  24.327  24.564  1.00  0.00    -0.200 F 
ENDBRANCH  48  62
BRANCH  49  73
ATOM     73  C   UNL A   1      39.252  31.996  35.503  1.00  0.00     0.064 A 
ATOM     74  C   UNL A   1      39.665  33.332  35.607  1.00  0.00     0.173 A 
ATOM     75  C   UNL A   1      38.419  31.490  36.510  1.00  0.00     0.173 A 
ATOM     76  F   UNL A   1      40.461  33.863  34.667  1.00  0.00    -0.203 F 
ATOM     77  C   UNL A   1      39.287  34.119  36.692  1.00  0.00     0.198 A 
ATOM     78  C   UNL A   1      38.022  32.286  37.583  1.00  0.00     0.198 A 
ATOM     79  F   UNL A   1      37.978  30.225  36.443  1.00  0.00    -0.203 F 
ATOM     80  F   UNL A   1      39.733  35.379  36.791  1.00  0.00    -0.200 F 
ATOM     81  C   UNL A   1      38.464  33.596  37.679  1.00  0.00     0.200 A 
ATOM     82  F   UNL A   1      37.212  31.782  38.524  1.00  0.00    -0.200 F 
ATOM     83  F   UNL A   1      38.104  34.353  38.723  1.00  0.00    -0.200 F 
ENDBRANCH  49  73
BRANCH  61  84
ATOM     84  C   UNL A   1      44.650  27.633  34.679  1.00  0.00     0.064 A 
ATOM     85  C   UNL A   1      44.459  26.514  35.506  1.00  0.00     0.173 A 
ATOM     86  C   UNL A   1      45.848  28.349  34.808  1.00  0.00     0.173 A 
ATOM     87  F   UNL A   1      43.326  25.801  35.427  1.00  0.00    -0.203 F 
ATOM     88  C   UNL A   1      45.421  26.143  36.441  1.00  0.00     0.198 A 
ATOM     89  C   UNL A   1      46.820  27.959  35.727  1.00  0.00     0.198 A 
ATOM     90  F   UNL A   1      46.082  29.418  34.033  1.00  0.00    -0.203 F 
ATOM     91  F   UNL A   1      45.202  25.093  37.246  1.00  0.00    -0.200 F 
ATOM     92  C   UNL A   1      46.601  26.864  36.550  1.00  0.00     0.200 A 
ATOM     93  F   UNL A   1      47.967  28.644  35.817  1.00  0.00    -0.200 F 
ATOM     94  F   UNL A   1      47.528  26.502  37.448  1.00  0.00    -0.200 F 
ENDBRANCH  61  84
ENDBRANCH  35  36
ENDBRANCH  28  30
ENDBRANCH  27  28
ENDBRANCH  26  27
ENDBRANCH  25  26
ENDBRANCH  24  25
ENDBRANCH  23  24
ENDBRANCH   1  23
TORSDOF 21
ENDMDL
