MODEL 1
REMARK VINA RESULT:     -11.8      0.000      0.000
REMARK SMILES CN(C)C(=O)c1cccc(N2CCC3(CC2)[C@H](C(=O)OCCOCCOCCOC(=O)c2ccc(-c4c5nc(c(-c6c(F)c(F)c(F)c(F)c6F)c6ccc([nH]6)c(-c6c(F)c(F)c(F)c(F)c6F)c6nc(c(-c7c(F)c(F)c(F)c(F)c7F)c7ccc4[nH]7)C=C6)C=C5)cc2)CC(=O)N3C)n1
REMARK SMILES IDX 24 1 23 2 22 3 21 4 20 5 18 6 19 7 17 8 11 9 12 10 16 11
REMARK SMILES IDX 13 12 15 13 14 14 98 15 95 16 96 17 99 18 97 19 10 20 6 21
REMARK SMILES IDX 7 22 100 23 8 24 9 25 4 26 1 27 2 28 3 29 5 30 25 31 26 32
REMARK SMILES IDX 27 33 28 34 29 35 30 36 31 37 32 38 33 39 94 40 34 41 93 42
REMARK SMILES IDX 35 43 36 44 37 45 87 46 38 47 92 48 86 49 88 50 39 51 91 52
REMARK SMILES IDX 85 53 84 54 40 56 72 57 52 58 71 59 53 60 56 61 70 62 89 63
REMARK SMILES IDX 54 64 55 65 69 67 90 68 57 69 41 70 42 71 50 72 43 73 44 74
REMARK SMILES IDX 48 75 51 76 45 77 46 78 49 79 47 80 73 81 74 82 82 83 75 84
REMARK SMILES IDX 76 85 80 86 83 87 77 88 78 89 81 90 79 91 58 92 59 93 67 94
REMARK SMILES IDX 60 95 61 96 65 97 68 98 62 99 63 100 66 101 64 102
REMARK H PARENT 88 55 56 66
REMARK Flexibility Score: inf
ROOT
ATOM      1  C   UNL A   1      31.399  26.074  24.747  1.00  0.00     0.188 C 
ENDROOT
BRANCH   1   2
ATOM      2  O   UNL A   1      31.934  26.966  23.782  1.00  0.00    -0.376 OA
BRANCH   2   3
ATOM      3  C   UNL A   1      31.653  26.681  22.417  1.00  0.00     0.202 C 
BRANCH   3   4
ATOM      4  C   UNL A   1      32.767  26.044  21.564  1.00  0.00     0.261 C 
BRANCH   4   5
ATOM      5  O   UNL A   1      33.655  25.121  22.239  1.00  0.00    -0.463 OA
BRANCH   5   6
ATOM      6  C   UNL A   1      33.505  23.826  21.871  1.00  0.00     0.311 C 
ATOM      7  O   UNL A   1      33.323  23.481  20.704  1.00  0.00    -0.252 OA
BRANCH   6   8
ATOM      8  C   UNL A   1      33.755  22.767  22.945  1.00  0.00     0.134 C 
ATOM      9  N   UNL A   1      37.095  22.979  25.650  1.00  0.00    -0.356 N 
ATOM     10  C   UNL A   1      36.299  24.206  25.685  1.00  0.00     0.120 C 
ATOM     11  C   UNL A   1      36.327  21.742  25.731  1.00  0.00     0.120 C 
ATOM     12  C   UNL A   1      35.312  24.213  24.501  1.00  0.00     0.051 C 
ATOM     13  C   UNL A   1      35.335  21.682  24.570  1.00  0.00     0.051 C 
ATOM     14  C   UNL A   1      34.444  22.948  24.354  1.00  0.00     0.060 C 
ATOM     15  N   UNL A   1      33.280  22.931  25.264  1.00  0.00    -0.339 N 
ATOM     16  C   UNL A   1      32.386  22.138  23.257  1.00  0.00     0.118 C 
ATOM     17  C   UNL A   1      32.093  22.556  24.658  1.00  0.00     0.223 C 
ATOM     18  C   UNL A   1      33.296  23.261  26.678  1.00  0.00     0.147 C 
ATOM     19  O   UNL A   1      30.990  22.515  25.177  1.00  0.00    -0.275 OA
BRANCH   9  20
ATOM     20  C   UNL A   1      38.374  23.024  26.220  1.00  0.00     0.129 A 
ATOM     21  C   UNL A   1      40.271  21.963  27.069  1.00  0.00     0.130 A 
ATOM     22  C   UNL A   1      40.799  23.141  27.586  1.00  0.00     0.034 A 
ATOM     23  N   UNL A   1      39.083  21.887  26.396  1.00  0.00    -0.226 NA
ATOM     24  C   UNL A   1      40.079  24.305  27.399  1.00  0.00     0.006 A 
ATOM     25  C   UNL A   1      38.879  24.244  26.694  1.00  0.00     0.047 A 
BRANCH  21  26
ATOM     26  C   UNL A   1      41.128  20.733  27.098  1.00  0.00     0.272 C 
ATOM     27  C   UNL A   1      42.698  19.241  25.969  1.00  0.00     0.146 C 
ATOM     28  N   UNL A   1      42.145  20.573  26.142  1.00  0.00    -0.343 N 
ATOM     29  C   UNL A   1      42.756  21.656  25.388  1.00  0.00     0.146 C 
ATOM     30  O   UNL A   1      40.851  19.841  27.901  1.00  0.00    -0.267 OA
ENDBRANCH  21  26
ENDBRANCH   9  20
ENDBRANCH   6   8
ENDBRANCH   5   6
ENDBRANCH   4   5
ENDBRANCH   3   4
ENDBRANCH   2   3
ENDBRANCH   1   2
BRANCH   1  31
ATOM     31  C   UNL A   1      30.796  26.673  26.017  1.00  0.00     0.188 C 
BRANCH  31  32
ATOM     32  O   UNL A   1      31.682  26.844  27.118  1.00  0.00    -0.376 OA
BRANCH  32  33
ATOM     33  C   UNL A   1      31.766  28.184  27.623  1.00  0.00     0.202 C 
BRANCH  33  34
ATOM     34  C   UNL A   1      31.935  29.290  26.563  1.00  0.00     0.261 C 
BRANCH  34  35
ATOM     35  O   UNL A   1      33.296  29.755  26.438  1.00  0.00    -0.460 OA
BRANCH  35  36
ATOM     36  C   UNL A   1      33.592  30.895  27.104  1.00  0.00     0.338 C 
ATOM     37  O   UNL A   1      32.833  31.822  27.313  1.00  0.00    -0.246 OA
BRANCH  36  38
ATOM     38  C   UNL A   1      34.934  30.751  27.718  1.00  0.00     0.060 A 
ATOM     39  C   UNL A   1      35.386  29.478  28.099  1.00  0.00     0.016 A 
ATOM     40  C   UNL A   1      35.755  31.862  27.901  1.00  0.00     0.016 A 
ATOM     41  C   UNL A   1      36.627  29.320  28.725  1.00  0.00     0.010 A 
ATOM     42  C   UNL A   1      36.996  31.706  28.526  1.00  0.00     0.010 A 
ATOM     43  C   UNL A   1      37.425  30.443  28.977  1.00  0.00    -0.014 A 
BRANCH  43  44
ATOM     44  C   UNL A   1      38.614  30.355  29.866  1.00  0.00     0.031 A 
ATOM     45  C   UNL A   1      39.816  29.593  29.373  1.00  0.00     0.074 A 
ATOM     46  C   UNL A   1      38.640  30.920  31.086  1.00  0.00     0.049 A 
ATOM     47  N   UNL A   1      40.904  29.243  30.012  1.00  0.00    -0.248 NA
ATOM     48  C   UNL A   1      39.781  29.167  27.965  1.00  0.00     0.031 C 
ATOM     49  C   UNL A   1      37.583  31.743  31.665  1.00  0.00     0.029 A 
ATOM     50  N   UNL A   1      39.601  30.867  32.068  1.00  0.00    -0.354 N 
ATOM     51  C   UNL A   1      41.676  28.552  29.087  1.00  0.00     0.074 A 
ATOM     52  C   UNL A   1      40.922  28.504  27.853  1.00  0.00     0.031 C 
ATOM     53  C   UNL A   1      37.945  32.105  32.910  1.00  0.00     0.029 A 
ATOM     54  C   UNL A   1      39.237  31.500  33.232  1.00  0.00     0.049 A 
ATOM     55  H   UNL A   1      40.470  30.418  31.949  1.00  0.00     0.167 HD
ATOM     56  C   UNL A   1      42.907  28.010  29.248  1.00  0.00     0.037 A 
ATOM     57  C   UNL A   1      39.859  31.550  34.428  1.00  0.00     0.037 A 
ATOM     58  C   UNL A   1      43.660  28.045  30.473  1.00  0.00     0.049 A 
ATOM     59  C   UNL A   1      41.177  30.835  34.616  1.00  0.00     0.074 A 
ATOM     60  C   UNL A   1      44.903  27.499  30.738  1.00  0.00     0.029 A 
ATOM     61  N   UNL A   1      43.238  28.663  31.640  1.00  0.00    -0.354 N 
ATOM     62  N   UNL A   1      41.895  30.169  33.744  1.00  0.00    -0.248 NA
ATOM     63  C   UNL A   1      41.767  30.876  35.963  1.00  0.00     0.031 C 
ATOM     64  C   UNL A   1      45.216  27.750  32.078  1.00  0.00     0.029 A 
ATOM     65  C   UNL A   1      44.192  28.499  32.631  1.00  0.00     0.049 A 
ATOM     66  H   UNL A   1      42.388  29.147  31.747  1.00  0.00     0.167 HD
ATOM     67  C   UNL A   1      43.034  29.751  34.424  1.00  0.00     0.074 A 
ATOM     68  C   UNL A   1      42.918  30.246  35.779  1.00  0.00     0.031 C 
ATOM     69  C   UNL A   1      44.082  29.021  33.968  1.00  0.00     0.037 A 
BRANCH  56  70
ATOM     70  C   UNL A   1      43.513  27.311  28.067  1.00  0.00     0.064 A 
ATOM     71  C   UNL A   1      44.143  28.024  27.037  1.00  0.00     0.173 A 
ATOM     72  C   UNL A   1      43.495  25.911  27.981  1.00  0.00     0.173 A 
ATOM     73  F   UNL A   1      44.168  29.366  27.062  1.00  0.00    -0.203 F 
ATOM     74  C   UNL A   1      44.716  27.362  25.954  1.00  0.00     0.198 A 
ATOM     75  C   UNL A   1      44.095  25.251  26.913  1.00  0.00     0.198 A 
ATOM     76  F   UNL A   1      42.904  25.182  28.941  1.00  0.00    -0.203 F 
ATOM     77  F   UNL A   1      45.271  28.066  24.959  1.00  0.00    -0.200 F 
ATOM     78  C   UNL A   1      44.700  25.977  25.897  1.00  0.00     0.200 A 
ATOM     79  F   UNL A   1      44.085  23.911  26.864  1.00  0.00    -0.200 F 
ATOM     80  F   UNL A   1      45.258  25.341  24.859  1.00  0.00    -0.200 F 
ENDBRANCH  56  70
BRANCH  57  81
ATOM     81  C   UNL A   1      39.241  32.274  35.573  1.00  0.00     0.064 A 
ATOM     82  C   UNL A   1      39.529  33.626  35.812  1.00  0.00     0.173 A 
ATOM     83  C   UNL A   1      38.416  31.613  36.495  1.00  0.00     0.173 A 
ATOM     84  F   UNL A   1      40.343  34.293  34.979  1.00  0.00    -0.203 F 
ATOM     85  C   UNL A   1      39.043  34.279  36.943  1.00  0.00     0.198 A 
ATOM     86  C   UNL A   1      37.903  32.276  37.608  1.00  0.00     0.198 A 
ATOM     87  F   UNL A   1      38.117  30.317  36.321  1.00  0.00    -0.203 F 
ATOM     88  F   UNL A   1      39.394  35.550  37.183  1.00  0.00    -0.200 F 
ATOM     89  C   UNL A   1      38.227  33.604  37.838  1.00  0.00     0.200 A 
ATOM     90  F   UNL A   1      37.111  31.622  38.469  1.00  0.00    -0.200 F 
ATOM     91  F   UNL A   1      37.769  34.228  38.933  1.00  0.00    -0.200 F 
ENDBRANCH  57  81
BRANCH  69  92
ATOM     92  C   UNL A   1      45.220  28.766  34.915  1.00  0.00     0.064 A 
ATOM     93  C   UNL A   1      46.298  29.655  35.038  1.00  0.00     0.173 A 
ATOM     94  C   UNL A   1      45.207  27.635  35.747  1.00  0.00     0.173 A 
ATOM     95  F   UNL A   1      46.365  30.745  34.258  1.00  0.00    -0.203 F 
ATOM     96  C   UNL A   1      47.333  29.408  35.936  1.00  0.00     0.198 A 
ATOM     97  C   UNL A   1      46.228  27.407  36.666  1.00  0.00     0.198 A 
ATOM     98  F   UNL A   1      44.195  26.757  35.678  1.00  0.00    -0.203 F 
ATOM     99  F   UNL A   1      48.376  30.247  36.001  1.00  0.00    -0.200 F 
ATOM    100  C   UNL A   1      47.293  28.289  36.755  1.00  0.00     0.200 A 
ATOM    101  F   UNL A   1      46.179  26.334  37.467  1.00  0.00    -0.200 F 
ATOM    102  F   UNL A   1      48.286  28.057  37.625  1.00  0.00    -0.200 F 
ENDBRANCH  69  92
ENDBRANCH  43  44
ENDBRANCH  36  38
ENDBRANCH  35  36
ENDBRANCH  34  35
ENDBRANCH  33  34
ENDBRANCH  32  33
ENDBRANCH  31  32
ENDBRANCH   1  31
TORSDOF 19
ENDMDL
MODEL 2
REMARK VINA RESULT:     -11.8      0.971      7.035
REMARK SMILES CN(C)C(=O)c1cccc(N2CCC3(CC2)[C@H](C(=O)OCCOCCOCCOC(=O)c2ccc(-c4c5nc(c(-c6c(F)c(F)c(F)c(F)c6F)c6ccc([nH]6)c(-c6c(F)c(F)c(F)c(F)c6F)c6nc(c(-c7c(F)c(F)c(F)c(F)c7F)c7ccc4[nH]7)C=C6)C=C5)cc2)CC(=O)N3C)n1
REMARK SMILES IDX 24 1 23 2 22 3 21 4 20 5 18 6 19 7 17 8 11 9 12 10 16 11
REMARK SMILES IDX 13 12 15 13 14 14 98 15 95 16 96 17 99 18 97 19 10 20 6 21
REMARK SMILES IDX 7 22 100 23 8 24 9 25 4 26 1 27 2 28 3 29 5 30 25 31 26 32
REMARK SMILES IDX 27 33 28 34 29 35 30 36 31 37 32 38 33 39 94 40 34 41 93 42
REMARK SMILES IDX 35 43 36 44 37 45 87 46 38 47 92 48 86 49 88 50 39 51 91 52
REMARK SMILES IDX 85 53 84 54 40 56 72 57 52 58 71 59 53 60 56 61 70 62 89 63
REMARK SMILES IDX 54 64 55 65 69 67 90 68 57 69 41 70 42 71 50 72 43 73 44 74
REMARK SMILES IDX 48 75 51 76 45 77 46 78 49 79 47 80 73 81 74 82 82 83 75 84
REMARK SMILES IDX 76 85 80 86 83 87 77 88 78 89 81 90 79 91 58 92 59 93 67 94
REMARK SMILES IDX 60 95 61 96 65 97 68 98 62 99 63 100 66 101 64 102
REMARK H PARENT 88 55 56 66
REMARK Flexibility Score: inf
ROOT
ATOM      1  C   UNL A   1      33.663  27.628  24.837  1.00  0.00     0.188 C 
ENDROOT
BRANCH   1   2
ATOM      2  O   UNL A   1      34.013  27.828  23.477  1.00  0.00    -0.376 OA
BRANCH   2   3
ATOM      3  C   UNL A   1      33.021  27.515  22.506  1.00  0.00     0.202 C 
BRANCH   3   4
ATOM      4  C   UNL A   1      33.223  26.255  21.642  1.00  0.00     0.261 C 
BRANCH   4   5
ATOM      5  O   UNL A   1      33.892  25.136  22.273  1.00  0.00    -0.463 OA
BRANCH   5   6
ATOM      6  C   UNL A   1      33.061  24.238  22.852  1.00  0.00     0.311 C 
ATOM      7  O   UNL A   1      31.837  24.373  22.867  1.00  0.00    -0.252 OA
BRANCH   6   8
ATOM      8  C   UNL A   1      33.684  22.931  23.342  1.00  0.00     0.134 C 
ATOM      9  N   UNL A   1      37.279  22.843  25.705  1.00  0.00    -0.356 N 
ATOM     10  C   UNL A   1      36.260  23.701  26.311  1.00  0.00     0.120 C 
ATOM     11  C   UNL A   1      36.805  21.533  25.274  1.00  0.00     0.120 C 
ATOM     12  C   UNL A   1      35.126  23.946  25.298  1.00  0.00     0.051 C 
ATOM     13  C   UNL A   1      35.683  21.709  24.251  1.00  0.00     0.051 C 
ATOM     14  C   UNL A   1      34.526  22.682  24.653  1.00  0.00     0.060 C 
ATOM     15  N   UNL A   1      33.543  21.997  25.519  1.00  0.00    -0.339 N 
ATOM     16  C   UNL A   1      32.539  21.905  23.411  1.00  0.00     0.118 C 
ATOM     17  C   UNL A   1      32.381  21.619  24.866  1.00  0.00     0.223 C 
ATOM     18  C   UNL A   1      33.705  21.706  26.931  1.00  0.00     0.147 C 
ATOM     19  O   UNL A   1      31.403  21.090  25.366  1.00  0.00    -0.275 OA
BRANCH   9  20
ATOM     20  C   UNL A   1      38.592  22.969  26.177  1.00  0.00     0.129 A 
ATOM     21  C   UNL A   1      40.598  22.032  26.914  1.00  0.00     0.130 A 
ATOM     22  C   UNL A   1      41.101  23.250  27.353  1.00  0.00     0.034 A 
ATOM     23  N   UNL A   1      39.369  21.875  26.335  1.00  0.00    -0.226 NA
ATOM     24  C   UNL A   1      40.312  24.371  27.185  1.00  0.00     0.006 A 
ATOM     25  C   UNL A   1      39.068  24.228  26.574  1.00  0.00     0.047 A 
BRANCH  21  26
ATOM     26  C   UNL A   1      41.515  20.846  26.917  1.00  0.00     0.272 C 
ATOM     27  C   UNL A   1      43.150  19.454  25.753  1.00  0.00     0.146 C 
ATOM     28  N   UNL A   1      42.532  20.753  25.952  1.00  0.00    -0.343 N 
ATOM     29  C   UNL A   1      43.082  21.877  25.211  1.00  0.00     0.146 C 
ATOM     30  O   UNL A   1      41.290  19.928  27.707  1.00  0.00    -0.267 OA
ENDBRANCH  21  26
ENDBRANCH   9  20
ENDBRANCH   6   8
ENDBRANCH   5   6
ENDBRANCH   4   5
ENDBRANCH   3   4
ENDBRANCH   2   3
ENDBRANCH   1   2
BRANCH   1  31
ATOM     31  C   UNL A   1      32.230  27.199  25.151  1.00  0.00     0.188 C 
BRANCH  31  32
ATOM     32  O   UNL A   1      31.415  28.157  25.820  1.00  0.00    -0.376 OA
BRANCH  32  33
ATOM     33  C   UNL A   1      31.441  29.474  25.252  1.00  0.00     0.202 C 
BRANCH  33  34
ATOM     34  C   UNL A   1      31.793  30.615  26.225  1.00  0.00     0.261 C 
BRANCH  34  35
ATOM     35  O   UNL A   1      33.013  30.380  26.961  1.00  0.00    -0.460 OA
BRANCH  35  36
ATOM     36  C   UNL A   1      33.634  31.483  27.440  1.00  0.00     0.338 C 
ATOM     37  O   UNL A   1      33.122  32.570  27.626  1.00  0.00    -0.246 OA
BRANCH  36  38
ATOM     38  C   UNL A   1      34.993  31.103  27.895  1.00  0.00     0.060 A 
ATOM     39  C   UNL A   1      35.283  29.754  28.151  1.00  0.00     0.016 A 
ATOM     40  C   UNL A   1      35.986  32.068  28.052  1.00  0.00     0.016 A 
ATOM     41  C   UNL A   1      36.542  29.373  28.628  1.00  0.00     0.010 A 
ATOM     42  C   UNL A   1      37.245  31.689  28.529  1.00  0.00     0.010 A 
ATOM     43  C   UNL A   1      37.521  30.348  28.857  1.00  0.00    -0.014 A 
BRANCH  43  44
ATOM     44  C   UNL A   1      38.765  30.025  29.605  1.00  0.00     0.031 A 
ATOM     45  C   UNL A   1      38.919  30.571  30.999  1.00  0.00     0.074 A 
ATOM     46  C   UNL A   1      39.747  29.276  29.072  1.00  0.00     0.049 A 
ATOM     47  N   UNL A   1      39.962  30.562  31.790  1.00  0.00    -0.248 NA
ATOM     48  C   UNL A   1      37.731  31.219  31.577  1.00  0.00     0.031 C 
ATOM     49  C   UNL A   1      39.707  28.624  27.767  1.00  0.00     0.029 A 
ATOM     50  N   UNL A   1      40.987  28.954  29.571  1.00  0.00    -0.354 N 
ATOM     51  C   UNL A   1      39.558  31.208  32.952  1.00  0.00     0.074 A 
ATOM     52  C   UNL A   1      38.186  31.623  32.753  1.00  0.00     0.031 C 
ATOM     53  C   UNL A   1      40.877  27.992  27.559  1.00  0.00     0.029 A 
ATOM     54  C   UNL A   1      41.765  28.236  28.696  1.00  0.00     0.049 A 
ATOM     55  H   UNL A   1      41.289  29.213  30.472  1.00  0.00     0.167 HD
ATOM     56  C   UNL A   1      40.264  31.430  34.087  1.00  0.00     0.037 A 
ATOM     57  C   UNL A   1      43.056  27.855  28.788  1.00  0.00     0.037 A 
ATOM     58  C   UNL A   1      41.630  31.029  34.289  1.00  0.00     0.049 A 
ATOM     59  C   UNL A   1      43.857  28.219  30.016  1.00  0.00     0.074 A 
ATOM     60  C   UNL A   1      42.436  31.236  35.395  1.00  0.00     0.029 A 
ATOM     61  N   UNL A   1      42.394  30.337  33.362  1.00  0.00    -0.354 N 
ATOM     62  N   UNL A   1      43.476  28.843  31.105  1.00  0.00    -0.248 NA
ATOM     63  C   UNL A   1      45.276  27.829  30.022  1.00  0.00     0.031 C 
ATOM     64  C   UNL A   1      43.701  30.706  35.122  1.00  0.00     0.029 A 
ATOM     65  C   UNL A   1      43.666  30.122  33.867  1.00  0.00     0.049 A 
ATOM     66  H   UNL A   1      42.079  30.043  32.478  1.00  0.00     0.167 HD
ATOM     67  C   UNL A   1      44.591  28.881  31.935  1.00  0.00     0.074 A 
ATOM     68  C   UNL A   1      45.661  28.210  31.231  1.00  0.00     0.031 C 
ATOM     69  C   UNL A   1      44.717  29.426  33.171  1.00  0.00     0.037 A 
BRANCH  56  70
ATOM     70  C   UNL A   1      39.570  32.161  35.198  1.00  0.00     0.064 A 
ATOM     71  C   UNL A   1      38.797  31.483  36.151  1.00  0.00     0.173 A 
ATOM     72  C   UNL A   1      39.709  33.550  35.333  1.00  0.00     0.173 A 
ATOM     73  F   UNL A   1      38.616  30.156  36.054  1.00  0.00    -0.203 F 
ATOM     74  C   UNL A   1      38.173  32.171  37.188  1.00  0.00     0.198 A 
ATOM     75  C   UNL A   1      39.108  34.231  36.387  1.00  0.00     0.198 A 
ATOM     76  F   UNL A   1      40.438  34.246  34.446  1.00  0.00    -0.203 F 
ATOM     77  F   UNL A   1      37.401  31.509  38.060  1.00  0.00    -0.200 F 
ATOM     78  C   UNL A   1      38.336  33.543  37.310  1.00  0.00     0.200 A 
ATOM     79  F   UNL A   1      39.274  35.556  36.508  1.00  0.00    -0.200 F 
ATOM     80  F   UNL A   1      37.740  34.203  38.312  1.00  0.00    -0.200 F 
ENDBRANCH  56  70
BRANCH  57  81
ATOM     81  C   UNL A   1      43.707  27.108  27.676  1.00  0.00     0.064 A 
ATOM     82  C   UNL A   1      43.861  25.715  27.736  1.00  0.00     0.173 A 
ATOM     83  C   UNL A   1      44.256  27.775  26.572  1.00  0.00     0.173 A 
ATOM     84  F   UNL A   1      43.384  25.033  28.789  1.00  0.00    -0.203 F 
ATOM     85  C   UNL A   1      44.566  25.024  26.753  1.00  0.00     0.198 A 
ATOM     86  C   UNL A   1      44.933  27.079  25.572  1.00  0.00     0.198 A 
ATOM     87  F   UNL A   1      44.148  29.109  26.470  1.00  0.00    -0.203 F 
ATOM     88  F   UNL A   1      44.760  23.703  26.873  1.00  0.00    -0.200 F 
ATOM     89  C   UNL A   1      45.098  25.706  25.669  1.00  0.00     0.200 A 
ATOM     90  F   UNL A   1      45.441  27.742  24.524  1.00  0.00    -0.200 F 
ATOM     91  F   UNL A   1      45.787  25.044  24.729  1.00  0.00    -0.200 F 
ENDBRANCH  57  81
BRANCH  69  92
ATOM     92  C   UNL A   1      46.035  29.265  33.874  1.00  0.00     0.064 A 
ATOM     93  C   UNL A   1      47.046  30.235  33.787  1.00  0.00     0.173 A 
ATOM     94  C   UNL A   1      46.272  28.143  34.684  1.00  0.00     0.173 A 
ATOM     95  F   UNL A   1      46.875  31.319  33.017  1.00  0.00    -0.203 F 
ATOM     96  C   UNL A   1      48.253  30.074  34.463  1.00  0.00     0.198 A 
ATOM     97  C   UNL A   1      47.468  28.001  35.383  1.00  0.00     0.198 A 
ATOM     98  F   UNL A   1      45.336  27.191  34.810  1.00  0.00    -0.203 F 
ATOM     99  F   UNL A   1      49.222  30.989  34.327  1.00  0.00    -0.200 F 
ATOM    100  C   UNL A   1      48.460  28.962  35.266  1.00  0.00     0.200 A 
ATOM    101  F   UNL A   1      47.659  26.934  36.171  1.00  0.00    -0.200 F 
ATOM    102  F   UNL A   1      49.619  28.813  35.922  1.00  0.00    -0.200 F 
ENDBRANCH  69  92
ENDBRANCH  43  44
ENDBRANCH  36  38
ENDBRANCH  35  36
ENDBRANCH  34  35
ENDBRANCH  33  34
ENDBRANCH  32  33
ENDBRANCH  31  32
ENDBRANCH   1  31
TORSDOF 19
ENDMDL
MODEL 3
REMARK VINA RESULT:     -11.3      4.479      7.629
REMARK SMILES CN(C)C(=O)c1cccc(N2CCC3(CC2)[C@H](C(=O)OCCOCCOCCOC(=O)c2ccc(-c4c5nc(c(-c6c(F)c(F)c(F)c(F)c6F)c6ccc([nH]6)c(-c6c(F)c(F)c(F)c(F)c6F)c6nc(c(-c7c(F)c(F)c(F)c(F)c7F)c7ccc4[nH]7)C=C6)C=C5)cc2)CC(=O)N3C)n1
REMARK SMILES IDX 24 1 23 2 22 3 21 4 20 5 18 6 19 7 17 8 11 9 12 10 16 11
REMARK SMILES IDX 13 12 15 13 14 14 98 15 95 16 96 17 99 18 97 19 10 20 6 21
REMARK SMILES IDX 7 22 100 23 8 24 9 25 4 26 1 27 2 28 3 29 5 30 25 31 26 32
REMARK SMILES IDX 27 33 28 34 29 35 30 36 31 37 32 38 33 39 94 40 34 41 93 42
REMARK SMILES IDX 35 43 36 44 37 45 87 46 38 47 92 48 86 49 88 50 39 51 91 52
REMARK SMILES IDX 85 53 84 54 40 56 72 57 52 58 71 59 53 60 56 61 70 62 89 63
REMARK SMILES IDX 54 64 55 65 69 67 90 68 57 69 41 70 42 71 50 72 43 73 44 74
REMARK SMILES IDX 48 75 51 76 45 77 46 78 49 79 47 80 73 81 74 82 82 83 75 84
REMARK SMILES IDX 76 85 80 86 83 87 77 88 78 89 81 90 79 91 58 92 59 93 67 94
REMARK SMILES IDX 60 95 61 96 65 97 68 98 62 99 63 100 66 101 64 102
REMARK H PARENT 88 55 56 66
REMARK Flexibility Score: inf
ROOT
ATOM      1  C   UNL A   1      35.659  21.585  25.470  1.00  0.00     0.188 C 
ENDROOT
BRANCH   1   2
ATOM      2  O   UNL A   1      35.132  21.492  26.784  1.00  0.00    -0.376 OA
BRANCH   2   3
ATOM      3  C   UNL A   1      33.715  21.519  26.911  1.00  0.00     0.202 C 
BRANCH   3   4
ATOM      4  C   UNL A   1      33.048  22.848  27.318  1.00  0.00     0.261 C 
BRANCH   4   5
ATOM      5  O   UNL A   1      31.827  23.201  26.625  1.00  0.00    -0.463 OA
BRANCH   5   6
ATOM      6  C   UNL A   1      31.950  24.238  25.763  1.00  0.00     0.311 C 
ATOM      7  O   UNL A   1      32.393  24.108  24.621  1.00  0.00    -0.252 OA
BRANCH   6   8
ATOM      8  C   UNL A   1      31.341  25.572  26.192  1.00  0.00     0.134 C 
ATOM      9  N   UNL A   1      33.751  29.044  27.002  1.00  0.00    -0.356 N 
ATOM     10  C   UNL A   1      34.022  28.502  25.670  1.00  0.00     0.120 C 
ATOM     11  C   UNL A   1      32.338  29.197  27.330  1.00  0.00     0.120 C 
ATOM     12  C   UNL A   1      33.379  27.108  25.541  1.00  0.00     0.051 C 
ATOM     13  C   UNL A   1      31.643  27.839  27.234  1.00  0.00     0.051 C 
ATOM     14  C   UNL A   1      31.887  27.028  25.919  1.00  0.00     0.060 C 
ATOM     15  N   UNL A   1      30.987  27.492  24.843  1.00  0.00    -0.339 N 
ATOM     16  C   UNL A   1      29.902  25.586  25.647  1.00  0.00     0.118 C 
ATOM     17  C   UNL A   1      29.905  26.660  24.613  1.00  0.00     0.223 C 
ATOM     18  C   UNL A   1      31.150  28.699  24.054  1.00  0.00     0.147 C 
ATOM     19  O   UNL A   1      29.053  26.793  23.750  1.00  0.00    -0.275 OA
BRANCH   9  20
ATOM     20  C   UNL A   1      34.673  29.959  27.525  1.00  0.00     0.129 A 
ATOM     21  C   UNL A   1      35.293  32.134  28.099  1.00  0.00     0.130 A 
ATOM     22  C   UNL A   1      36.618  31.783  28.331  1.00  0.00     0.034 A 
ATOM     23  N   UNL A   1      34.326  31.253  27.704  1.00  0.00    -0.226 NA
ATOM     24  C   UNL A   1      36.973  30.460  28.157  1.00  0.00     0.006 A 
ATOM     25  C   UNL A   1      35.990  29.548  27.778  1.00  0.00     0.047 A 
BRANCH  21  26
ATOM     26  C   UNL A   1      34.855  33.520  28.466  1.00  0.00     0.272 C 
ATOM     27  C   UNL A   1      33.690  35.017  30.005  1.00  0.00     0.146 C 
ATOM     28  N   UNL A   1      34.439  33.792  29.779  1.00  0.00    -0.343 N 
ATOM     29  C   UNL A   1      34.789  32.996  30.945  1.00  0.00     0.146 C 
ATOM     30  O   UNL A   1      34.775  34.368  27.575  1.00  0.00    -0.267 OA
ENDBRANCH  21  26
ENDBRANCH   9  20
ENDBRANCH   6   8
ENDBRANCH   5   6
ENDBRANCH   4   5
ENDBRANCH   3   4
ENDBRANCH   2   3
ENDBRANCH   1   2
BRANCH   1  31
ATOM     31  C   UNL A   1      36.425  22.854  25.096  1.00  0.00     0.188 C 
BRANCH  31  32
ATOM     32  O   UNL A   1      36.890  23.654  26.178  1.00  0.00    -0.376 OA
BRANCH  32  33
ATOM     33  C   UNL A   1      38.306  23.603  26.401  1.00  0.00     0.202 C 
BRANCH  33  34
ATOM     34  C   UNL A   1      38.895  24.763  27.229  1.00  0.00     0.261 C 
BRANCH  34  35
ATOM     35  O   UNL A   1      40.338  24.759  27.267  1.00  0.00    -0.460 OA
BRANCH  35  36
ATOM     36  C   UNL A   1      40.949  25.727  26.545  1.00  0.00     0.338 C 
ATOM     37  O   UNL A   1      41.242  25.666  25.367  1.00  0.00    -0.246 OA
BRANCH  36  38
ATOM     38  C   UNL A   1      41.025  26.957  27.369  1.00  0.00     0.060 A 
ATOM     39  C   UNL A   1      40.352  28.114  26.945  1.00  0.00     0.016 A 
ATOM     40  C   UNL A   1      41.740  26.969  28.565  1.00  0.00     0.016 A 
ATOM     41  C   UNL A   1      40.448  29.303  27.678  1.00  0.00     0.010 A 
ATOM     42  C   UNL A   1      41.836  28.156  29.298  1.00  0.00     0.010 A 
ATOM     43  C   UNL A   1      41.224  29.340  28.842  1.00  0.00    -0.014 A 
BRANCH  43  44
ATOM     44  C   UNL A   1      41.564  30.631  29.495  1.00  0.00     0.031 A 
ATOM     45  C   UNL A   1      42.852  31.308  29.108  1.00  0.00     0.074 A 
ATOM     46  C   UNL A   1      40.768  31.199  30.419  1.00  0.00     0.049 A 
ATOM     47  N   UNL A   1      43.443  32.348  29.638  1.00  0.00    -0.248 NA
ATOM     48  C   UNL A   1      43.572  30.726  27.963  1.00  0.00     0.031 C 
ATOM     49  C   UNL A   1      39.464  30.698  30.841  1.00  0.00     0.029 A 
ATOM     50  N   UNL A   1      40.959  32.325  31.185  1.00  0.00    -0.354 N 
ATOM     51  C   UNL A   1      44.604  32.539  28.899  1.00  0.00     0.074 A 
ATOM     52  C   UNL A   1      44.651  31.491  27.903  1.00  0.00     0.031 C 
ATOM     53  C   UNL A   1      38.977  31.503  31.803  1.00  0.00     0.029 A 
ATOM     54  C   UNL A   1      39.957  32.549  32.098  1.00  0.00     0.049 A 
ATOM     55  H   UNL A   1      41.741  32.917  31.087  1.00  0.00     0.167 HD
ATOM     56  C   UNL A   1      45.544  33.505  29.033  1.00  0.00     0.037 A 
ATOM     57  C   UNL A   1      39.864  33.468  33.080  1.00  0.00     0.037 A 
ATOM     58  C   UNL A   1      45.510  34.545  30.025  1.00  0.00     0.049 A 
ATOM     59  C   UNL A   1      40.984  34.462  33.284  1.00  0.00     0.074 A 
ATOM     60  C   UNL A   1      46.433  35.550  30.255  1.00  0.00     0.029 A 
ATOM     61  N   UNL A   1      44.496  34.713  30.956  1.00  0.00    -0.354 N 
ATOM     62  N   UNL A   1      42.086  34.628  32.594  1.00  0.00    -0.248 NA
ATOM     63  C   UNL A   1      40.846  35.393  34.415  1.00  0.00     0.031 C 
ATOM     64  C   UNL A   1      45.999  36.302  31.351  1.00  0.00     0.029 A 
ATOM     65  C   UNL A   1      44.779  35.798  31.770  1.00  0.00     0.049 A 
ATOM     66  H   UNL A   1      43.695  34.146  31.027  1.00  0.00     0.167 HD
ATOM     67  C   UNL A   1      42.747  35.703  33.178  1.00  0.00     0.074 A 
ATOM     68  C   UNL A   1      41.919  36.157  34.274  1.00  0.00     0.031 C 
ATOM     69  C   UNL A   1      43.935  36.263  32.839  1.00  0.00     0.037 A 
BRANCH  56  70
ATOM     70  C   UNL A   1      46.708  33.469  28.087  1.00  0.00     0.064 A 
ATOM     71  C   UNL A   1      46.727  34.244  26.918  1.00  0.00     0.173 A 
ATOM     72  C   UNL A   1      47.833  32.680  28.370  1.00  0.00     0.173 A 
ATOM     73  F   UNL A   1      45.666  35.000  26.592  1.00  0.00    -0.203 F 
ATOM     74  C   UNL A   1      47.821  34.215  26.057  1.00  0.00     0.198 A 
ATOM     75  C   UNL A   1      48.937  32.677  27.523  1.00  0.00     0.198 A 
ATOM     76  F   UNL A   1      47.864  31.920  29.475  1.00  0.00    -0.203 F 
ATOM     77  F   UNL A   1      47.797  34.928  24.922  1.00  0.00    -0.200 F 
ATOM     78  C   UNL A   1      48.928  33.439  26.364  1.00  0.00     0.200 A 
ATOM     79  F   UNL A   1      50.009  31.932  27.826  1.00  0.00    -0.200 F 
ATOM     80  F   UNL A   1      49.982  33.418  25.538  1.00  0.00    -0.200 F 
ENDBRANCH  56  70
BRANCH  57  81
ATOM     81  C   UNL A   1      38.682  33.491  33.986  1.00  0.00     0.064 A 
ATOM     82  C   UNL A   1      37.499  34.146  33.613  1.00  0.00     0.173 A 
ATOM     83  C   UNL A   1      38.736  32.929  35.270  1.00  0.00     0.173 A 
ATOM     84  F   UNL A   1      37.410  34.731  32.409  1.00  0.00    -0.203 F 
ATOM     85  C   UNL A   1      36.430  34.266  34.498  1.00  0.00     0.198 A 
ATOM     86  C   UNL A   1      37.654  33.021  36.143  1.00  0.00     0.198 A 
ATOM     87  F   UNL A   1      39.847  32.300  35.683  1.00  0.00    -0.203 F 
ATOM     88  F   UNL A   1      35.341  34.960  34.141  1.00  0.00    -0.200 F 
ATOM     89  C   UNL A   1      36.507  33.700  35.762  1.00  0.00     0.200 A 
ATOM     90  F   UNL A   1      37.730  32.468  37.362  1.00  0.00    -0.200 F 
ATOM     91  F   UNL A   1      35.484  33.826  36.619  1.00  0.00    -0.200 F 
ENDBRANCH  57  81
BRANCH  69  92
ATOM     92  C   UNL A   1      44.385  37.469  33.613  1.00  0.00     0.064 A 
ATOM     93  C   UNL A   1      44.074  38.774  33.201  1.00  0.00     0.173 A 
ATOM     94  C   UNL A   1      45.100  37.313  34.811  1.00  0.00     0.173 A 
ATOM     95  F   UNL A   1      43.403  38.978  32.058  1.00  0.00    -0.203 F 
ATOM     96  C   UNL A   1      44.486  39.877  33.945  1.00  0.00     0.198 A 
ATOM     97  C   UNL A   1      45.482  38.417  35.569  1.00  0.00     0.198 A 
ATOM     98  F   UNL A   1      45.415  36.088  35.256  1.00  0.00    -0.203 F 
ATOM     99  F   UNL A   1      44.218  41.115  33.508  1.00  0.00    -0.200 F 
ATOM    100  C   UNL A   1      45.182  39.698  35.131  1.00  0.00     0.200 A 
ATOM    101  F   UNL A   1      46.141  38.241  36.722  1.00  0.00    -0.200 F 
ATOM    102  F   UNL A   1      45.570  40.761  35.850  1.00  0.00    -0.200 F 
ENDBRANCH  69  92
ENDBRANCH  43  44
ENDBRANCH  36  38
ENDBRANCH  35  36
ENDBRANCH  34  35
ENDBRANCH  33  34
ENDBRANCH  32  33
ENDBRANCH  31  32
ENDBRANCH   1  31
TORSDOF 19
ENDMDL
