MODEL 1
REMARK VINA RESULT:     -12.7      0.000      0.000
REMARK SMILES O=C(N[C@]1(C(=O)OCCOCCOCCOC(=O)c2ccc(-c3c4nc(c(-c5c(F)c(F)c(F)c(F)c5F)c5ccc([nH]5)c(-c5c(F)c(F)c(F)c(F)c5F)c5nc(c(-c6c(F)c(F)c(F)c(F)c6F)c6ccc3[nH]6)C=C5)C=C4)cc2)CC[C@H](c2ccccc2)CC1)OCC1c2ccccc2-c2ccccc21
REMARK SMILES IDX 11 1 10 2 9 3 8 4 7 5 5 6 6 7 4 8 82 9 92 10 83 11 91 12
REMARK SMILES IDX 84 13 3 14 1 15 2 16 93 18 94 19 95 20 96 21 107 22 97 23
REMARK SMILES IDX 101 24 102 25 106 26 98 27 100 28 103 29 105 30 99 31 104 32
REMARK SMILES IDX 85 33 86 34 90 35 87 36 89 37 88 38 12 39 13 40 14 41 15 42
REMARK SMILES IDX 16 43 17 44 18 45 19 46 20 47 81 48 21 49 80 50 22 51 23 52
REMARK SMILES IDX 24 53 74 54 25 55 79 56 73 57 75 58 26 59 78 60 72 61 71 62
REMARK SMILES IDX 27 64 59 65 39 66 58 67 40 68 43 69 57 70 76 71 41 72 42 73
REMARK SMILES IDX 56 75 77 76 44 77 28 78 29 79 37 80 30 81 31 82 35 83 38 84
REMARK SMILES IDX 32 85 33 86 36 87 34 88 60 89 61 90 69 91 62 92 63 93 67 94
REMARK SMILES IDX 70 95 64 96 65 97 68 98 66 99 45 100 46 101 54 102 47 103
REMARK SMILES IDX 48 104 52 105 55 106 49 107 50 108 53 109 51 110
REMARK H PARENT 3 17 75 63 43 74
REMARK Flexibility Score: inf
ROOT
ATOM      1  C   UNL A   1      34.267  32.018  28.156  1.00  0.00     0.188 C 
ENDROOT
BRANCH   1   2
ATOM      2  O   UNL A   1      34.904  30.936  27.479  1.00  0.00    -0.376 OA
BRANCH   2   3
ATOM      3  C   UNL A   1      34.072  29.809  27.206  1.00  0.00     0.202 C 
BRANCH   3   4
ATOM      4  C   UNL A   1      32.572  30.132  27.248  1.00  0.00     0.261 C 
BRANCH   4   5
ATOM      5  O   UNL A   1      31.770  29.296  26.379  1.00  0.00    -0.461 OA
BRANCH   5   6
ATOM      6  C   UNL A   1      31.512  28.040  26.821  1.00  0.00     0.332 C 
ATOM      7  O   UNL A   1      31.396  27.748  28.011  1.00  0.00    -0.249 OA
BRANCH   6   8
ATOM      8  C   UNL A   1      31.468  26.960  25.705  1.00  0.00     0.141 C 
ATOM      9  C   UNL A   1      32.919  26.423  25.620  1.00  0.00     0.041 C 
ATOM     10  C   UNL A   1      30.996  27.314  24.282  1.00  0.00     0.041 C 
ATOM     11  C   UNL A   1      33.818  27.267  24.692  1.00  0.00     0.011 C 
ATOM     12  C   UNL A   1      31.929  28.063  23.357  1.00  0.00     0.011 C 
ATOM     13  C   UNL A   1      33.284  27.365  23.245  1.00  0.00     0.019 C 
BRANCH   8  14
ATOM     14  N   UNL A   1      30.549  25.906  26.234  1.00  0.00    -0.305 N 
ATOM     15  O   UNL A   1      30.129  23.915  27.251  1.00  0.00    -0.225 OA
ATOM     16  C   UNL A   1      30.895  24.637  26.644  1.00  0.00     0.408 C 
ATOM     17  H   UNL A   1      29.597  26.143  26.297  1.00  0.00     0.168 HD
BRANCH  16  18
ATOM     18  O   UNL A   1      32.172  24.297  26.320  1.00  0.00    -0.449 OA
BRANCH  18  19
ATOM     19  C   UNL A   1      32.595  22.936  26.608  1.00  0.00     0.248 C 
BRANCH  19  20
ATOM     20  C   UNL A   1      33.509  22.420  25.472  1.00  0.00     0.088 C 
ATOM     21  C   UNL A   1      35.027  22.598  25.612  1.00  0.00    -0.029 A 
ATOM     22  C   UNL A   1      33.428  20.916  25.206  1.00  0.00    -0.029 A 
ATOM     23  C   UNL A   1      35.763  23.766  25.676  1.00  0.00     0.005 A 
ATOM     24  C   UNL A   1      35.696  21.370  25.470  1.00  0.00    -0.014 A 
ATOM     25  C   UNL A   1      34.723  20.357  25.138  1.00  0.00    -0.014 A 
ATOM     26  C   UNL A   1      32.320  20.173  24.833  1.00  0.00     0.005 A 
ATOM     27  C   UNL A   1      37.157  23.704  25.748  1.00  0.00     0.000 A 
ATOM     28  C   UNL A   1      37.081  21.292  25.536  1.00  0.00     0.009 A 
ATOM     29  C   UNL A   1      34.928  19.086  24.626  1.00  0.00     0.009 A 
ATOM     30  C   UNL A   1      32.528  18.908  24.281  1.00  0.00     0.000 A 
ATOM     31  C   UNL A   1      37.814  22.470  25.698  1.00  0.00     0.001 A 
ATOM     32  C   UNL A   1      33.820  18.374  24.164  1.00  0.00     0.001 A 
ENDBRANCH  19  20
ENDBRANCH  18  19
ENDBRANCH  16  18
ENDBRANCH   8  14
BRANCH  13  33
ATOM     33  C   UNL A   1      33.245  26.053  22.455  1.00  0.00    -0.045 A 
ATOM     34  C   UNL A   1      33.829  24.875  22.947  1.00  0.00     0.004 A 
ATOM     35  C   UNL A   1      32.662  25.992  21.175  1.00  0.00     0.004 A 
ATOM     36  C   UNL A   1      33.768  23.675  22.236  1.00  0.00     0.000 A 
ATOM     37  C   UNL A   1      32.611  24.793  20.455  1.00  0.00     0.000 A 
ATOM     38  C   UNL A   1      33.153  23.631  20.992  1.00  0.00     0.000 A 
ENDBRANCH  13  33
ENDBRANCH   6   8
ENDBRANCH   5   6
ENDBRANCH   4   5
ENDBRANCH   3   4
ENDBRANCH   2   3
ENDBRANCH   1   2
BRANCH   1  39
ATOM     39  C   UNL A   1      35.095  33.297  28.132  1.00  0.00     0.188 C 
BRANCH  39  40
ATOM     40  O   UNL A   1      34.320  34.391  27.634  1.00  0.00    -0.376 OA
BRANCH  40  41
ATOM     41  C   UNL A   1      34.343  35.541  28.484  1.00  0.00     0.202 C 
BRANCH  41  42
ATOM     42  C   UNL A   1      32.978  35.913  29.071  1.00  0.00     0.261 C 
BRANCH  42  43
ATOM     43  O   UNL A   1      32.648  35.067  30.186  1.00  0.00    -0.460 OA
BRANCH  43  44
ATOM     44  C   UNL A   1      32.809  35.664  31.387  1.00  0.00     0.338 C 
ATOM     45  O   UNL A   1      32.164  36.585  31.854  1.00  0.00    -0.246 OA
BRANCH  44  46
ATOM     46  C   UNL A   1      33.833  35.000  32.191  1.00  0.00     0.060 A 
ATOM     47  C   UNL A   1      35.145  35.481  32.108  1.00  0.00     0.016 A 
ATOM     48  C   UNL A   1      33.540  33.814  32.855  1.00  0.00     0.016 A 
ATOM     49  C   UNL A   1      36.193  34.743  32.642  1.00  0.00     0.010 A 
ATOM     50  C   UNL A   1      34.589  33.077  33.396  1.00  0.00     0.010 A 
ATOM     51  C   UNL A   1      35.918  33.522  33.261  1.00  0.00    -0.014 A 
BRANCH  51  52
ATOM     52  C   UNL A   1      37.016  32.643  33.704  1.00  0.00     0.031 A 
ATOM     53  C   UNL A   1      37.656  32.906  35.030  1.00  0.00     0.074 A 
ATOM     54  C   UNL A   1      37.448  31.665  32.892  1.00  0.00     0.049 A 
ATOM     55  N   UNL A   1      38.802  32.489  35.499  1.00  0.00    -0.248 NA
ATOM     56  C   UNL A   1      36.905  33.774  35.953  1.00  0.00     0.031 C 
ATOM     57  C   UNL A   1      36.819  31.284  31.628  1.00  0.00     0.029 A 
ATOM     58  N   UNL A   1      38.535  30.840  32.994  1.00  0.00    -0.354 N 
ATOM     59  C   UNL A   1      38.931  33.077  36.751  1.00  0.00     0.074 A 
ATOM     60  C   UNL A   1      37.746  33.875  36.973  1.00  0.00     0.031 C 
ATOM     61  C   UNL A   1      37.554  30.323  31.049  1.00  0.00     0.029 A 
ATOM     62  C   UNL A   1      38.735  30.079  31.869  1.00  0.00     0.049 A 
ATOM     63  H   UNL A   1      39.112  30.797  33.790  1.00  0.00     0.167 HD
ATOM     64  C   UNL A   1      39.965  32.960  37.617  1.00  0.00     0.037 A 
ATOM     65  C   UNL A   1      39.793  29.326  31.519  1.00  0.00     0.037 A 
ATOM     66  C   UNL A   1      41.123  32.144  37.353  1.00  0.00     0.049 A 
ATOM     67  C   UNL A   1      40.957  29.254  32.469  1.00  0.00     0.074 A 
ATOM     68  C   UNL A   1      42.250  31.953  38.128  1.00  0.00     0.029 A 
ATOM     69  N   UNL A   1      41.288  31.372  36.207  1.00  0.00    -0.354 N 
ATOM     70  N   UNL A   1      41.119  29.860  33.622  1.00  0.00    -0.248 NA
ATOM     71  C   UNL A   1      42.083  28.404  32.070  1.00  0.00     0.031 C 
ATOM     72  C   UNL A   1      43.113  31.095  37.436  1.00  0.00     0.029 A 
ATOM     73  C   UNL A   1      42.502  30.710  36.251  1.00  0.00     0.049 A 
ATOM     74  H   UNL A   1      40.636  31.306  35.473  1.00  0.00     0.167 HD
ATOM     75  C   UNL A   1      42.356  29.454  34.098  1.00  0.00     0.074 A 
ATOM     76  C   UNL A   1      42.894  28.536  33.111  1.00  0.00     0.031 C 
ATOM     77  C   UNL A   1      42.995  29.804  35.243  1.00  0.00     0.037 A 
BRANCH  64  78
ATOM     78  C   UNL A   1      39.911  33.768  38.883  1.00  0.00     0.064 A 
ATOM     79  C   UNL A   1      39.190  33.342  40.009  1.00  0.00     0.173 A 
ATOM     80  C   UNL A   1      40.595  34.991  38.972  1.00  0.00     0.173 A 
ATOM     81  F   UNL A   1      38.504  32.190  39.975  1.00  0.00    -0.203 F 
ATOM     82  C   UNL A   1      39.132  34.123  41.162  1.00  0.00     0.198 A 
ATOM     83  C   UNL A   1      40.557  35.755  40.136  1.00  0.00     0.198 A 
ATOM     84  F   UNL A   1      41.301  35.449  37.927  1.00  0.00    -0.203 F 
ATOM     85  F   UNL A   1      38.392  33.720  42.206  1.00  0.00    -0.200 F 
ATOM     86  C   UNL A   1      39.819  35.326  41.227  1.00  0.00     0.200 A 
ATOM     87  F   UNL A   1      41.230  36.913  40.198  1.00  0.00    -0.200 F 
ATOM     88  F   UNL A   1      39.761  36.075  42.337  1.00  0.00    -0.200 F 
ENDBRANCH  64  78
BRANCH  65  89
ATOM     89  C   UNL A   1      39.803  28.638  30.203  1.00  0.00     0.064 A 
ATOM     90  C   UNL A   1      40.368  29.246  29.074  1.00  0.00     0.173 A 
ATOM     91  C   UNL A   1      39.288  27.341  30.054  1.00  0.00     0.173 A 
ATOM     92  F   UNL A   1      40.855  30.493  29.160  1.00  0.00    -0.203 F 
ATOM     93  C   UNL A   1      40.414  28.585  27.848  1.00  0.00     0.198 A 
ATOM     94  C   UNL A   1      39.361  26.670  28.834  1.00  0.00     0.198 A 
ATOM     95  F   UNL A   1      38.737  26.711  31.102  1.00  0.00    -0.203 F 
ATOM     96  F   UNL A   1      40.933  29.202  26.777  1.00  0.00    -0.200 F 
ATOM     97  C   UNL A   1      39.920  27.295  27.731  1.00  0.00     0.200 A 
ATOM     98  F   UNL A   1      38.898  25.417  28.732  1.00  0.00    -0.200 F 
ATOM     99  F   UNL A   1      39.980  26.655  26.555  1.00  0.00    -0.200 F 
ENDBRANCH  65  89
BRANCH  77 100
ATOM    100  C   UNL A   1      44.324  29.160  35.491  1.00  0.00     0.064 A 
ATOM    101  C   UNL A   1      44.429  27.903  36.102  1.00  0.00     0.173 A 
ATOM    102  C   UNL A   1      45.504  29.800  35.083  1.00  0.00     0.173 A 
ATOM    103  F   UNL A   1      43.327  27.264  36.524  1.00  0.00    -0.203 F 
ATOM    104  C   UNL A   1      45.673  27.321  36.322  1.00  0.00     0.198 A 
ATOM    105  C   UNL A   1      46.744  29.201  35.278  1.00  0.00     0.198 A 
ATOM    106  F   UNL A   1      45.452  31.001  34.488  1.00  0.00    -0.203 F 
ATOM    107  F   UNL A   1      45.756  26.140  36.953  1.00  0.00    -0.200 F 
ATOM    108  C   UNL A   1      46.828  27.966  35.904  1.00  0.00     0.200 A 
ATOM    109  F   UNL A   1      47.858  29.820  34.865  1.00  0.00    -0.200 F 
ATOM    110  F   UNL A   1      48.024  27.401  36.114  1.00  0.00    -0.200 F 
ENDBRANCH  77 100
ENDBRANCH  51  52
ENDBRANCH  44  46
ENDBRANCH  43  44
ENDBRANCH  42  43
ENDBRANCH  41  42
ENDBRANCH  40  41
ENDBRANCH  39  40
ENDBRANCH   1  39
TORSDOF 22
ENDMDL
MODEL 2
REMARK VINA RESULT:     -12.1      0.473      2.157
REMARK SMILES O=C(N[C@]1(C(=O)OCCOCCOCCOC(=O)c2ccc(-c3c4nc(c(-c5c(F)c(F)c(F)c(F)c5F)c5ccc([nH]5)c(-c5c(F)c(F)c(F)c(F)c5F)c5nc(c(-c6c(F)c(F)c(F)c(F)c6F)c6ccc3[nH]6)C=C5)C=C4)cc2)CC[C@H](c2ccccc2)CC1)OCC1c2ccccc2-c2ccccc21
REMARK SMILES IDX 11 1 10 2 9 3 8 4 7 5 5 6 6 7 4 8 82 9 92 10 83 11 91 12
REMARK SMILES IDX 84 13 3 14 1 15 2 16 93 18 94 19 95 20 96 21 107 22 97 23
REMARK SMILES IDX 101 24 102 25 106 26 98 27 100 28 103 29 105 30 99 31 104 32
REMARK SMILES IDX 85 33 86 34 90 35 87 36 89 37 88 38 12 39 13 40 14 41 15 42
REMARK SMILES IDX 16 43 17 44 18 45 19 46 20 47 81 48 21 49 80 50 22 51 23 52
REMARK SMILES IDX 24 53 74 54 25 55 79 56 73 57 75 58 26 59 78 60 72 61 71 62
REMARK SMILES IDX 27 64 59 65 39 66 58 67 40 68 43 69 57 70 76 71 41 72 42 73
REMARK SMILES IDX 56 75 77 76 44 77 28 78 29 79 37 80 30 81 31 82 35 83 38 84
REMARK SMILES IDX 32 85 33 86 36 87 34 88 60 89 61 90 69 91 62 92 63 93 67 94
REMARK SMILES IDX 70 95 64 96 65 97 68 98 66 99 45 100 46 101 54 102 47 103
REMARK SMILES IDX 48 104 52 105 55 106 49 107 50 108 53 109 51 110
REMARK H PARENT 3 17 75 63 43 74
REMARK Flexibility Score: inf
ROOT
ATOM      1  C   UNL A   1      35.481  32.482  28.547  1.00  0.00     0.188 C 
ENDROOT
BRANCH   1   2
ATOM      2  O   UNL A   1      35.307  31.291  27.783  1.00  0.00    -0.376 OA
BRANCH   2   3
ATOM      3  C   UNL A   1      33.974  31.036  27.340  1.00  0.00     0.202 C 
BRANCH   3   4
ATOM      4  C   UNL A   1      33.489  29.613  27.649  1.00  0.00     0.261 C 
BRANCH   4   5
ATOM      5  O   UNL A   1      32.498  29.118  26.716  1.00  0.00    -0.461 OA
BRANCH   5   6
ATOM      6  C   UNL A   1      31.826  28.000  27.088  1.00  0.00     0.332 C 
ATOM      7  O   UNL A   1      31.361  27.829  28.214  1.00  0.00    -0.249 OA
BRANCH   6   8
ATOM      8  C   UNL A   1      31.766  26.892  26.000  1.00  0.00     0.141 C 
ATOM      9  C   UNL A   1      33.242  26.472  25.785  1.00  0.00     0.041 C 
ATOM     10  C   UNL A   1      31.134  27.170  24.623  1.00  0.00     0.041 C 
ATOM     11  C   UNL A   1      33.976  27.362  24.760  1.00  0.00     0.011 C 
ATOM     12  C   UNL A   1      31.910  27.969  23.599  1.00  0.00     0.011 C 
ATOM     13  C   UNL A   1      33.301  27.380  23.370  1.00  0.00     0.019 C 
BRANCH   8  14
ATOM     14  N   UNL A   1      30.992  25.781  26.633  1.00  0.00    -0.305 N 
ATOM     15  O   UNL A   1      30.710  23.611  27.253  1.00  0.00    -0.225 OA
ATOM     16  C   UNL A   1      31.259  24.432  26.547  1.00  0.00     0.408 C 
ATOM     17  H   UNL A   1      30.210  26.040  27.170  1.00  0.00     0.168 HD
BRANCH  16  18
ATOM     18  O   UNL A   1      32.204  24.131  25.615  1.00  0.00    -0.449 OA
BRANCH  18  19
ATOM     19  C   UNL A   1      32.179  22.793  25.047  1.00  0.00     0.248 C 
BRANCH  19  20
ATOM     20  C   UNL A   1      33.244  21.910  25.737  1.00  0.00     0.088 C 
ATOM     21  C   UNL A   1      33.371  20.441  25.311  1.00  0.00    -0.029 A 
ATOM     22  C   UNL A   1      34.690  22.377  25.557  1.00  0.00    -0.029 A 
ATOM     23  C   UNL A   1      32.447  19.419  25.428  1.00  0.00     0.005 A 
ATOM     24  C   UNL A   1      34.687  20.136  24.925  1.00  0.00    -0.014 A 
ATOM     25  C   UNL A   1      35.510  21.299  25.156  1.00  0.00    -0.014 A 
ATOM     26  C   UNL A   1      35.251  23.585  25.937  1.00  0.00     0.005 A 
ATOM     27  C   UNL A   1      32.787  18.127  25.023  1.00  0.00     0.000 A 
ATOM     28  C   UNL A   1      35.042  18.856  24.523  1.00  0.00     0.009 A 
ATOM     29  C   UNL A   1      36.891  21.394  25.208  1.00  0.00     0.009 A 
ATOM     30  C   UNL A   1      36.642  23.669  26.027  1.00  0.00     0.000 A 
ATOM     31  C   UNL A   1      34.075  17.849  24.553  1.00  0.00     0.001 A 
ATOM     32  C   UNL A   1      37.455  22.580  25.680  1.00  0.00     0.001 A 
ENDBRANCH  19  20
ENDBRANCH  18  19
ENDBRANCH  16  18
ENDBRANCH   8  14
BRANCH  13  33
ATOM     33  C   UNL A   1      33.297  26.049  22.611  1.00  0.00    -0.045 A 
ATOM     34  C   UNL A   1      34.054  24.948  23.042  1.00  0.00     0.004 A 
ATOM     35  C   UNL A   1      32.568  25.897  21.415  1.00  0.00     0.004 A 
ATOM     36  C   UNL A   1      34.026  23.729  22.362  1.00  0.00     0.000 A 
ATOM     37  C   UNL A   1      32.549  24.680  20.725  1.00  0.00     0.000 A 
ATOM     38  C   UNL A   1      33.268  23.591  21.206  1.00  0.00     0.000 A 
ENDBRANCH  13  33
ENDBRANCH   6   8
ENDBRANCH   5   6
ENDBRANCH   4   5
ENDBRANCH   3   4
ENDBRANCH   2   3
ENDBRANCH   1   2
BRANCH   1  39
ATOM     39  C   UNL A   1      34.696  33.661  27.988  1.00  0.00     0.188 C 
BRANCH  39  40
ATOM     40  O   UNL A   1      34.916  34.834  28.776  1.00  0.00    -0.376 OA
BRANCH  40  41
ATOM     41  C   UNL A   1      34.099  35.943  28.392  1.00  0.00     0.202 C 
BRANCH  41  42
ATOM     42  C   UNL A   1      32.893  36.178  29.306  1.00  0.00     0.261 C 
BRANCH  42  43
ATOM     43  O   UNL A   1      32.818  35.172  30.331  1.00  0.00    -0.460 OA
BRANCH  43  44
ATOM     44  C   UNL A   1      32.854  35.671  31.586  1.00  0.00     0.338 C 
ATOM     45  O   UNL A   1      32.115  36.504  32.079  1.00  0.00    -0.246 OA
BRANCH  44  46
ATOM     46  C   UNL A   1      33.865  35.006  32.405  1.00  0.00     0.060 A 
ATOM     47  C   UNL A   1      35.163  35.531  32.398  1.00  0.00     0.016 A 
ATOM     48  C   UNL A   1      33.584  33.786  33.008  1.00  0.00     0.016 A 
ATOM     49  C   UNL A   1      36.212  34.805  32.946  1.00  0.00     0.010 A 
ATOM     50  C   UNL A   1      34.634  33.060  33.564  1.00  0.00     0.010 A 
ATOM     51  C   UNL A   1      35.952  33.552  33.503  1.00  0.00    -0.014 A 
BRANCH  51  52
ATOM     52  C   UNL A   1      37.059  32.690  33.957  1.00  0.00     0.031 A 
ATOM     53  C   UNL A   1      37.685  32.965  35.288  1.00  0.00     0.074 A 
ATOM     54  C   UNL A   1      37.512  31.716  33.150  1.00  0.00     0.049 A 
ATOM     55  N   UNL A   1      38.833  32.566  35.767  1.00  0.00    -0.248 NA
ATOM     56  C   UNL A   1      36.913  33.824  36.202  1.00  0.00     0.031 C 
ATOM     57  C   UNL A   1      36.899  31.324  31.882  1.00  0.00     0.029 A 
ATOM     58  N   UNL A   1      38.610  30.907  33.264  1.00  0.00    -0.354 N 
ATOM     59  C   UNL A   1      38.943  33.158  37.018  1.00  0.00     0.074 A 
ATOM     60  C   UNL A   1      37.744  33.939  37.229  1.00  0.00     0.031 C 
ATOM     61  C   UNL A   1      37.653  30.372  31.311  1.00  0.00     0.029 A 
ATOM     62  C   UNL A   1      38.830  30.147  32.141  1.00  0.00     0.049 A 
ATOM     63  H   UNL A   1      39.181  30.874  34.064  1.00  0.00     0.167 HD
ATOM     64  C   UNL A   1      39.971  33.058  37.893  1.00  0.00     0.037 A 
ATOM     65  C   UNL A   1      39.902  29.409  31.802  1.00  0.00     0.037 A 
ATOM     66  C   UNL A   1      41.144  32.259  37.639  1.00  0.00     0.049 A 
ATOM     67  C   UNL A   1      41.059  29.356  32.761  1.00  0.00     0.074 A 
ATOM     68  C   UNL A   1      42.267  32.086  38.424  1.00  0.00     0.029 A 
ATOM     69  N   UNL A   1      41.328  31.487  36.497  1.00  0.00    -0.354 N 
ATOM     70  N   UNL A   1      41.203  29.967  33.914  1.00  0.00    -0.248 NA
ATOM     71  C   UNL A   1      42.201  28.522  32.373  1.00  0.00     0.031 C 
ATOM     72  C   UNL A   1      43.148  31.239  37.741  1.00  0.00     0.029 A 
ATOM     73  C   UNL A   1      42.552  30.843  36.552  1.00  0.00     0.049 A 
ATOM     74  H   UNL A   1      40.684  31.409  35.758  1.00  0.00     0.167 HD
ATOM     75  C   UNL A   1      42.441  29.579  34.401  1.00  0.00     0.074 A 
ATOM     76  C   UNL A   1      43.002  28.668  33.420  1.00  0.00     0.031 C 
ATOM     77  C   UNL A   1      43.066  29.942  35.550  1.00  0.00     0.037 A 
BRANCH  64  78
ATOM     78  C   UNL A   1      39.896  33.867  39.156  1.00  0.00     0.064 A 
ATOM     79  C   UNL A   1      39.274  33.382  40.317  1.00  0.00     0.173 A 
ATOM     80  C   UNL A   1      40.456  35.154  39.208  1.00  0.00     0.173 A 
ATOM     81  F   UNL A   1      38.707  32.167  40.320  1.00  0.00    -0.203 F 
ATOM     82  C   UNL A   1      39.192  34.163  41.469  1.00  0.00     0.198 A 
ATOM     83  C   UNL A   1      40.395  35.921  40.369  1.00  0.00     0.198 A 
ATOM     84  F   UNL A   1      41.062  35.671  38.128  1.00  0.00    -0.203 F 
ATOM     85  F   UNL A   1      38.546  33.698  42.548  1.00  0.00    -0.200 F 
ATOM     86  C   UNL A   1      39.757  35.429  41.495  1.00  0.00     0.200 A 
ATOM     87  F   UNL A   1      40.951  37.141  40.395  1.00  0.00    -0.200 F 
ATOM     88  F   UNL A   1      39.675  36.179  42.604  1.00  0.00    -0.200 F 
ENDBRANCH  64  78
BRANCH  65  89
ATOM     89  C   UNL A   1      39.932  28.718  30.487  1.00  0.00     0.064 A 
ATOM     90  C   UNL A   1      39.371  27.444  30.327  1.00  0.00     0.173 A 
ATOM     91  C   UNL A   1      40.482  29.335  29.352  1.00  0.00     0.173 A 
ATOM     92  F   UNL A   1      38.852  26.805  31.385  1.00  0.00    -0.203 F 
ATOM     93  C   UNL A   1      39.363  26.813  29.084  1.00  0.00     0.198 A 
ATOM     94  C   UNL A   1      40.447  28.715  28.104  1.00  0.00     0.198 A 
ATOM     95  F   UNL A   1      41.031  30.555  29.449  1.00  0.00    -0.203 F 
ATOM     96  F   UNL A   1      38.847  25.582  28.965  1.00  0.00    -0.200 F 
ATOM     97  C   UNL A   1      39.891  27.452  27.973  1.00  0.00     0.200 A 
ATOM     98  F   UNL A   1      40.943  29.344  27.031  1.00  0.00    -0.200 F 
ATOM     99  F   UNL A   1      39.867  26.850  26.776  1.00  0.00    -0.200 F 
ENDBRANCH  65  89
BRANCH  77 100
ATOM    100  C   UNL A   1      44.403  29.317  35.810  1.00  0.00     0.064 A 
ATOM    101  C   UNL A   1      45.596  29.957  35.447  1.00  0.00     0.173 A 
ATOM    102  C   UNL A   1      44.486  28.075  36.457  1.00  0.00     0.173 A 
ATOM    103  F   UNL A   1      45.562  31.138  34.809  1.00  0.00    -0.203 F 
ATOM    104  C   UNL A   1      46.827  29.362  35.698  1.00  0.00     0.198 A 
ATOM    105  C   UNL A   1      45.721  27.497  36.733  1.00  0.00     0.198 A 
ATOM    106  F   UNL A   1      43.371  27.429  36.828  1.00  0.00    -0.203 F 
ATOM    107  F   UNL A   1      47.956  29.966  35.299  1.00  0.00    -0.200 F 
ATOM    108  C   UNL A   1      46.889  28.136  36.347  1.00  0.00     0.200 A 
ATOM    109  F   UNL A   1      45.779  26.320  37.369  1.00  0.00    -0.200 F 
ATOM    110  F   UNL A   1      48.077  27.567  36.591  1.00  0.00    -0.200 F 
ENDBRANCH  77 100
ENDBRANCH  51  52
ENDBRANCH  44  46
ENDBRANCH  43  44
ENDBRANCH  42  43
ENDBRANCH  41  42
ENDBRANCH  40  41
ENDBRANCH  39  40
ENDBRANCH   1  39
TORSDOF 22
ENDMDL
MODEL 3
REMARK VINA RESULT:     -12.0      4.956      9.692
REMARK SMILES O=C(N[C@]1(C(=O)OCCOCCOCCOC(=O)c2ccc(-c3c4nc(c(-c5c(F)c(F)c(F)c(F)c5F)c5ccc([nH]5)c(-c5c(F)c(F)c(F)c(F)c5F)c5nc(c(-c6c(F)c(F)c(F)c(F)c6F)c6ccc3[nH]6)C=C5)C=C4)cc2)CC[C@H](c2ccccc2)CC1)OCC1c2ccccc2-c2ccccc21
REMARK SMILES IDX 11 1 10 2 9 3 8 4 7 5 5 6 6 7 4 8 82 9 92 10 83 11 91 12
REMARK SMILES IDX 84 13 3 14 1 15 2 16 93 18 94 19 95 20 96 21 107 22 97 23
REMARK SMILES IDX 101 24 102 25 106 26 98 27 100 28 103 29 105 30 99 31 104 32
REMARK SMILES IDX 85 33 86 34 90 35 87 36 89 37 88 38 12 39 13 40 14 41 15 42
REMARK SMILES IDX 16 43 17 44 18 45 19 46 20 47 81 48 21 49 80 50 22 51 23 52
REMARK SMILES IDX 24 53 74 54 25 55 79 56 73 57 75 58 26 59 78 60 72 61 71 62
REMARK SMILES IDX 27 64 59 65 39 66 58 67 40 68 43 69 57 70 76 71 41 72 42 73
REMARK SMILES IDX 56 75 77 76 44 77 28 78 29 79 37 80 30 81 31 82 35 83 38 84
REMARK SMILES IDX 32 85 33 86 36 87 34 88 60 89 61 90 69 91 62 92 63 93 67 94
REMARK SMILES IDX 70 95 64 96 65 97 68 98 66 99 45 100 46 101 54 102 47 103
REMARK SMILES IDX 48 104 52 105 55 106 49 107 50 108 53 109 51 110
REMARK H PARENT 3 17 75 63 43 74
REMARK Flexibility Score: inf
ROOT
ATOM      1  C   UNL A   1      34.427  17.589  23.889  1.00  0.00     0.188 C 
ENDROOT
BRANCH   1   2
ATOM      2  O   UNL A   1      33.309  17.295  24.724  1.00  0.00    -0.376 OA
BRANCH   2   3
ATOM      3  C   UNL A   1      32.516  18.418  25.107  1.00  0.00     0.202 C 
BRANCH   3   4
ATOM      4  C   UNL A   1      32.466  19.522  24.042  1.00  0.00     0.261 C 
BRANCH   4   5
ATOM      5  O   UNL A   1      32.904  20.817  24.522  1.00  0.00    -0.461 OA
BRANCH   5   6
ATOM      6  C   UNL A   1      31.979  21.559  25.182  1.00  0.00     0.332 C 
ATOM      7  O   UNL A   1      30.994  21.078  25.741  1.00  0.00    -0.249 OA
BRANCH   6   8
ATOM      8  C   UNL A   1      32.205  23.094  25.098  1.00  0.00     0.141 C 
ATOM      9  C   UNL A   1      31.681  23.492  23.695  1.00  0.00     0.041 C 
ATOM     10  C   UNL A   1      33.611  23.696  25.281  1.00  0.00     0.041 C 
ATOM     11  C   UNL A   1      32.745  23.330  22.589  1.00  0.00     0.011 C 
ATOM     12  C   UNL A   1      34.609  23.606  24.148  1.00  0.00     0.011 C 
ATOM     13  C   UNL A   1      34.027  24.154  22.846  1.00  0.00     0.019 C 
BRANCH   8  14
ATOM     14  N   UNL A   1      31.328  23.665  26.166  1.00  0.00    -0.305 N 
ATOM     15  O   UNL A   1      29.531  24.861  26.881  1.00  0.00    -0.225 OA
ATOM     16  C   UNL A   1      30.332  24.602  26.005  1.00  0.00     0.408 C 
ATOM     17  H   UNL A   1      31.478  23.335  27.081  1.00  0.00     0.168 HD
BRANCH  16  18
ATOM     18  O   UNL A   1      30.331  25.178  24.773  1.00  0.00    -0.449 OA
BRANCH  18  19
ATOM     19  C   UNL A   1      29.558  26.399  24.606  1.00  0.00     0.248 C 
BRANCH  19  20
ATOM     20  C   UNL A   1      30.502  27.574  24.264  1.00  0.00     0.088 C 
ATOM     21  C   UNL A   1      29.928  28.786  23.517  1.00  0.00    -0.029 A 
ATOM     22  C   UNL A   1      31.141  28.267  25.469  1.00  0.00    -0.029 A 
ATOM     23  C   UNL A   1      29.387  28.848  22.246  1.00  0.00     0.005 A 
ATOM     24  C   UNL A   1      30.184  29.979  24.214  1.00  0.00    -0.014 A 
ATOM     25  C   UNL A   1      30.998  29.669  25.364  1.00  0.00    -0.014 A 
ATOM     26  C   UNL A   1      31.962  27.713  26.437  1.00  0.00     0.005 A 
ATOM     27  C   UNL A   1      28.967  30.077  21.730  1.00  0.00     0.000 A 
ATOM     28  C   UNL A   1      29.775  31.208  23.713  1.00  0.00     0.009 A 
ATOM     29  C   UNL A   1      31.733  30.524  26.169  1.00  0.00     0.009 A 
ATOM     30  C   UNL A   1      32.732  28.574  27.221  1.00  0.00     0.000 A 
ATOM     31  C   UNL A   1      29.143  31.251  22.469  1.00  0.00     0.001 A 
ATOM     32  C   UNL A   1      32.631  29.966  27.080  1.00  0.00     0.001 A 
ENDBRANCH  19  20
ENDBRANCH  18  19
ENDBRANCH  16  18
ENDBRANCH   8  14
BRANCH  13  33
ATOM     33  C   UNL A   1      33.858  25.677  22.832  1.00  0.00    -0.045 A 
ATOM     34  C   UNL A   1      34.246  26.475  23.920  1.00  0.00     0.004 A 
ATOM     35  C   UNL A   1      33.257  26.331  21.740  1.00  0.00     0.004 A 
ATOM     36  C   UNL A   1      34.115  27.865  23.891  1.00  0.00     0.000 A 
ATOM     37  C   UNL A   1      33.113  27.723  21.714  1.00  0.00     0.000 A 
ATOM     38  C   UNL A   1      33.554  28.491  22.786  1.00  0.00     0.000 A 
ENDBRANCH  13  33
ENDBRANCH   6   8
ENDBRANCH   5   6
ENDBRANCH   4   5
ENDBRANCH   3   4
ENDBRANCH   2   3
ENDBRANCH   1   2
BRANCH   1  39
ATOM     39  C   UNL A   1      35.683  17.922  24.683  1.00  0.00     0.188 C 
BRANCH  39  40
ATOM     40  O   UNL A   1      35.909  19.335  24.703  1.00  0.00    -0.376 OA
BRANCH  40  41
ATOM     41  C   UNL A   1      37.280  19.693  24.890  1.00  0.00     0.202 C 
BRANCH  41  42
ATOM     42  C   UNL A   1      37.561  21.192  24.748  1.00  0.00     0.261 C 
BRANCH  42  43
ATOM     43  O   UNL A   1      37.939  21.768  26.010  1.00  0.00    -0.460 OA
BRANCH  43  44
ATOM     44  C   UNL A   1      39.266  21.710  26.258  1.00  0.00     0.338 C 
ATOM     45  O   UNL A   1      40.052  20.849  25.911  1.00  0.00    -0.246 OA
BRANCH  44  46
ATOM     46  C   UNL A   1      39.742  22.909  26.945  1.00  0.00     0.060 A 
ATOM     47  C   UNL A   1      39.313  24.153  26.466  1.00  0.00     0.016 A 
ATOM     48  C   UNL A   1      40.737  22.813  27.911  1.00  0.00     0.016 A 
ATOM     49  C   UNL A   1      39.922  25.319  26.908  1.00  0.00     0.010 A 
ATOM     50  C   UNL A   1      41.345  23.982  28.360  1.00  0.00     0.010 A 
ATOM     51  C   UNL A   1      40.963  25.231  27.835  1.00  0.00    -0.014 A 
BRANCH  51  52
ATOM     52  C   UNL A   1      41.732  26.431  28.213  1.00  0.00     0.031 A 
ATOM     53  C   UNL A   1      41.044  27.513  28.984  1.00  0.00     0.074 A 
ATOM     54  C   UNL A   1      43.009  26.549  27.816  1.00  0.00     0.049 A 
ATOM     55  N   UNL A   1      41.394  28.759  29.165  1.00  0.00    -0.248 NA
ATOM     56  C   UNL A   1      39.773  27.142  29.629  1.00  0.00     0.031 C 
ATOM     57  C   UNL A   1      43.780  25.504  27.145  1.00  0.00     0.029 A 
ATOM     58  N   UNL A   1      43.869  27.612  27.891  1.00  0.00    -0.354 N 
ATOM     59  C   UNL A   1      40.368  29.332  29.906  1.00  0.00     0.074 A 
ATOM     60  C   UNL A   1      39.385  28.299  30.147  1.00  0.00     0.031 C 
ATOM     61  C   UNL A   1      44.991  25.989  26.832  1.00  0.00     0.029 A 
ATOM     62  C   UNL A   1      45.046  27.394  27.218  1.00  0.00     0.049 A 
ATOM     63  H   UNL A   1      43.665  28.444  28.375  1.00  0.00     0.167 HD
ATOM     64  C   UNL A   1      40.269  30.615  30.325  1.00  0.00     0.037 A 
ATOM     65  C   UNL A   1      46.023  28.261  26.894  1.00  0.00     0.037 A 
ATOM     66  C   UNL A   1      41.281  31.608  30.065  1.00  0.00     0.049 A 
ATOM     67  C   UNL A   1      45.867  29.695  27.319  1.00  0.00     0.074 A 
ATOM     68  C   UNL A   1      41.299  32.946  30.410  1.00  0.00     0.029 A 
ATOM     69  N   UNL A   1      42.471  31.350  29.393  1.00  0.00    -0.354 N 
ATOM     70  N   UNL A   1      44.871  30.262  27.959  1.00  0.00    -0.248 NA
ATOM     71  C   UNL A   1      46.960  30.609  26.973  1.00  0.00     0.031 C 
ATOM     72  C   UNL A   1      42.482  33.506  29.913  1.00  0.00     0.029 A 
ATOM     73  C   UNL A   1      43.226  32.506  29.304  1.00  0.00     0.049 A 
ATOM     74  H   UNL A   1      42.737  30.474  29.034  1.00  0.00     0.167 HD
ATOM     75  C   UNL A   1      45.221  31.594  28.110  1.00  0.00     0.074 A 
ATOM     76  C   UNL A   1      46.532  31.746  27.505  1.00  0.00     0.031 C 
ATOM     77  C   UNL A   1      44.529  32.606  28.692  1.00  0.00     0.037 A 
BRANCH  64  78
ATOM     78  C   UNL A   1      39.013  31.020  31.044  1.00  0.00     0.064 A 
ATOM     79  C   UNL A   1      38.898  30.950  32.441  1.00  0.00     0.173 A 
ATOM     80  C   UNL A   1      37.903  31.488  30.323  1.00  0.00     0.173 A 
ATOM     81  F   UNL A   1      39.920  30.494  33.180  1.00  0.00    -0.203 F 
ATOM     82  C   UNL A   1      37.713  31.304  33.083  1.00  0.00     0.198 A 
ATOM     83  C   UNL A   1      36.730  31.868  30.971  1.00  0.00     0.198 A 
ATOM     84  F   UNL A   1      37.954  31.577  28.985  1.00  0.00    -0.203 F 
ATOM     85  F   UNL A   1      37.609  31.178  34.415  1.00  0.00    -0.200 F 
ATOM     86  C   UNL A   1      36.632  31.768  32.348  1.00  0.00     0.200 A 
ATOM     87  F   UNL A   1      35.690  32.324  30.258  1.00  0.00    -0.200 F 
ATOM     88  F   UNL A   1      35.493  32.107  32.969  1.00  0.00    -0.200 F 
ENDBRANCH  64  78
BRANCH  65  89
ATOM     89  C   UNL A   1      47.185  27.794  26.096  1.00  0.00     0.064 A 
ATOM     90  C   UNL A   1      47.134  27.765  24.695  1.00  0.00     0.173 A 
ATOM     91  C   UNL A   1      48.386  27.410  26.711  1.00  0.00     0.173 A 
ATOM     92  F   UNL A   1      46.002  28.103  24.060  1.00  0.00    -0.203 F 
ATOM     93  C   UNL A   1      48.237  27.366  23.944  1.00  0.00     0.198 A 
ATOM     94  C   UNL A   1      49.498  27.039  25.958  1.00  0.00     0.198 A 
ATOM     95  F   UNL A   1      48.490  27.420  28.049  1.00  0.00    -0.203 F 
ATOM     96  F   UNL A   1      48.152  27.318  22.607  1.00  0.00    -0.200 F 
ATOM     97  C   UNL A   1      49.421  27.013  24.574  1.00  0.00     0.200 A 
ATOM     98  F   UNL A   1      50.644  26.716  26.572  1.00  0.00    -0.200 F 
ATOM     99  F   UNL A   1      50.486  26.645  23.849  1.00  0.00    -0.200 F 
ENDBRANCH  65  89
BRANCH  77 100
ATOM    100  C   UNL A   1      45.201  33.944  28.725  1.00  0.00     0.064 A 
ATOM    101  C   UNL A   1      45.042  34.873  27.688  1.00  0.00     0.173 A 
ATOM    102  C   UNL A   1      45.991  34.308  29.827  1.00  0.00     0.173 A 
ATOM    103  F   UNL A   1      44.310  34.559  26.608  1.00  0.00    -0.203 F 
ATOM    104  C   UNL A   1      45.673  36.111  27.739  1.00  0.00     0.198 A 
ATOM    105  C   UNL A   1      46.596  35.559  29.887  1.00  0.00     0.198 A 
ATOM    106  F   UNL A   1      46.166  33.455  30.846  1.00  0.00    -0.203 F 
ATOM    107  F   UNL A   1      45.549  36.967  26.714  1.00  0.00    -0.200 F 
ATOM    108  C   UNL A   1      46.444  36.456  28.840  1.00  0.00     0.200 A 
ATOM    109  F   UNL A   1      47.331  35.895  30.956  1.00  0.00    -0.200 F 
ATOM    110  F   UNL A   1      47.048  37.651  28.888  1.00  0.00    -0.200 F 
ENDBRANCH  77 100
ENDBRANCH  51  52
ENDBRANCH  44  46
ENDBRANCH  43  44
ENDBRANCH  42  43
ENDBRANCH  41  42
ENDBRANCH  40  41
ENDBRANCH  39  40
ENDBRANCH   1  39
TORSDOF 22
ENDMDL
