MODEL 1
REMARK VINA RESULT:      -7.8      0.000      0.000
REMARK SMILES Cc1c(CC(=O)N[C@H](CO)C(=O)OCCOCCOCCOC(=O)c2ccc(-c3c4nc(c(-c5c(F)c(F)c(F)c(F)c5F)c5ccc([nH]5)c(-c5c(F)c(F)c(F)c(F)c5F)c5nc(c(-c6c(F)c(F)c(F)c(F)c6F)c6ccc3[nH]6)C=C5)C=C4)cc2)cc(-c2ccc(S(C)(=O)=O)cc2)n1-c1cccc(F)c1
REMARK SMILES IDX 16 1 15 2 14 3 13 4 11 5 12 6 8 7 7 8 5 9 6 10 4 12 3 13
REMARK SMILES IDX 1 14 2 15 100 16 88 17 89 18 101 19 102 20 107 21 103 22
REMARK SMILES IDX 105 23 104 24 106 25 90 26 91 27 99 28 92 29 98 30 93 31
REMARK SMILES IDX 94 32 95 33 96 34 97 35 9 36 10 37 17 39 18 40 19 41 20 42
REMARK SMILES IDX 21 43 22 44 23 45 24 46 25 47 26 48 87 49 27 50 86 51 28 52
REMARK SMILES IDX 29 53 30 54 80 55 31 56 85 57 79 58 81 59 32 60 84 61 78 62
REMARK SMILES IDX 77 63 33 65 65 66 45 67 64 68 46 69 49 70 63 71 82 72 47 73
REMARK SMILES IDX 48 74 62 76 83 77 50 78 34 79 35 80 43 81 36 82 37 83 41 84
REMARK SMILES IDX 44 85 38 86 39 87 42 88 40 89 66 90 67 91 75 92 68 93 69 94
REMARK SMILES IDX 73 95 76 96 70 97 71 98 74 99 72 100 51 101 52 102 60 103
REMARK SMILES IDX 53 104 54 105 58 106 61 107 55 108 56 109 59 110 57 111
REMARK H PARENT 7 11 10 38 81 64 49 75
REMARK Flexibility Score: inf
ROOT
ATOM      1  O   UNL A   1      49.086  35.705  37.338  1.00  0.00    -0.376 OA
ENDROOT
BRANCH   1   2
ATOM      2  C   UNL A   1      48.314  36.491  36.431  1.00  0.00     0.202 C 
BRANCH   2   3
ATOM      3  C   UNL A   1      46.992  37.153  36.835  1.00  0.00     0.261 C 
BRANCH   3   4
ATOM      4  O   UNL A   1      46.507  38.097  35.873  1.00  0.00    -0.462 OA
BRANCH   4   5
ATOM      5  C   UNL A   1      45.153  38.188  35.788  1.00  0.00     0.331 C 
ATOM      6  O   UNL A   1      44.398  37.222  35.716  1.00  0.00    -0.250 OA
BRANCH   5   7
ATOM      7  C   UNL A   1      44.636  39.626  35.897  1.00  0.00     0.218 C 
BRANCH   7   8
ATOM      8  N   UNL A   1      45.297  40.386  34.828  1.00  0.00    -0.341 N 
ATOM      9  C   UNL A   1      44.853  40.734  33.593  1.00  0.00     0.225 C 
ATOM     10  O   UNL A   1      45.604  41.394  32.871  1.00  0.00    -0.275 OA
ATOM     11  H   UNL A   1      46.210  40.690  35.040  1.00  0.00     0.164 HD
BRANCH   9  12
ATOM     12  C   UNL A   1      43.472  40.313  33.123  1.00  0.00     0.137 C 
BRANCH  12  13
ATOM     13  C   UNL A   1      43.438  39.926  31.672  1.00  0.00    -0.017 A 
ATOM     14  C   UNL A   1      42.452  42.098  30.669  1.00  0.00     0.065 C 
ATOM     15  C   UNL A   1      43.023  40.715  30.606  1.00  0.00     0.024 A 
ATOM     16  N   UNL A   1      43.132  39.972  29.438  1.00  0.00    -0.313 N 
ATOM     17  C   UNL A   1      43.780  38.658  31.131  1.00  0.00     0.033 A 
ATOM     18  C   UNL A   1      43.603  38.695  29.758  1.00  0.00     0.053 A 
BRANCH  16  19
ATOM     19  C   UNL A   1      42.811  40.424  28.129  1.00  0.00     0.049 A 
ATOM     20  C   UNL A   1      41.549  40.140  27.586  1.00  0.00     0.027 A 
ATOM     21  C   UNL A   1      43.781  41.081  27.367  1.00  0.00     0.065 A 
ATOM     22  C   UNL A   1      41.264  40.496  26.268  1.00  0.00     0.005 A 
ATOM     23  C   UNL A   1      43.483  41.416  26.053  1.00  0.00     0.125 A 
ATOM     24  C   UNL A   1      42.238  41.127  25.496  1.00  0.00     0.039 A 
ATOM     25  F   UNL A   1      44.417  42.004  25.295  1.00  0.00    -0.207 F 
ENDBRANCH  16  19
BRANCH  18  26
ATOM     26  C   UNL A   1      43.875  37.633  28.776  1.00  0.00    -0.001 A 
ATOM     27  C   UNL A   1      42.861  36.753  28.361  1.00  0.00     0.011 A 
ATOM     28  C   UNL A   1      45.175  37.450  28.288  1.00  0.00     0.011 A 
ATOM     29  C   UNL A   1      43.155  35.666  27.533  1.00  0.00     0.021 A 
ATOM     30  C   UNL A   1      45.475  36.367  27.455  1.00  0.00     0.021 A 
ATOM     31  C   UNL A   1      44.469  35.467  27.103  1.00  0.00     0.067 A 
BRANCH  31  32
ATOM     32  S   UNL A   1      44.830  34.068  26.067  1.00  0.00     0.175 S 
ATOM     33  C   UNL A   1      43.688  34.211  24.718  1.00  0.00     0.163 C 
ATOM     34  O   UNL A   1      46.159  34.242  25.552  1.00  0.00    -0.224 OA
ATOM     35  O   UNL A   1      44.458  32.864  26.812  1.00  0.00    -0.224 OA
ENDBRANCH  31  32
ENDBRANCH  18  26
ENDBRANCH  12  13
ENDBRANCH   9  12
ENDBRANCH   7   8
BRANCH   7  36
ATOM     36  C   UNL A   1      44.802  40.259  37.288  1.00  0.00     0.193 C 
BRANCH  36  37
ATOM     37  O   UNL A   1      45.280  41.601  37.229  1.00  0.00    -0.394 OA
ATOM     38  H   UNL A   1      44.794  42.087  36.544  1.00  0.00     0.210 HD
ENDBRANCH  36  37
ENDBRANCH   7  36
ENDBRANCH   5   7
ENDBRANCH   4   5
ENDBRANCH   3   4
ENDBRANCH   2   3
ENDBRANCH   1   2
BRANCH   1  39
ATOM     39  C   UNL A   1      50.091  34.819  36.879  1.00  0.00     0.188 C 
BRANCH  39  40
ATOM     40  C   UNL A   1      51.241  35.344  35.999  1.00  0.00     0.188 C 
BRANCH  40  41
ATOM     41  O   UNL A   1      51.097  35.248  34.598  1.00  0.00    -0.376 OA
BRANCH  41  42
ATOM     42  C   UNL A   1      50.893  33.934  34.072  1.00  0.00     0.202 C 
BRANCH  42  43
ATOM     43  C   UNL A   1      49.543  33.536  33.401  1.00  0.00     0.261 C 
BRANCH  43  44
ATOM     44  O   UNL A   1      48.380  34.451  33.419  1.00  0.00    -0.460 OA
BRANCH  44  45
ATOM     45  C   UNL A   1      48.089  35.091  32.230  1.00  0.00     0.338 C 
ATOM     46  O   UNL A   1      48.949  35.649  31.557  1.00  0.00    -0.246 OA
BRANCH  45  47
ATOM     47  C   UNL A   1      46.621  35.118  31.755  1.00  0.00     0.060 A 
ATOM     48  C   UNL A   1      45.619  35.598  32.591  1.00  0.00     0.016 A 
ATOM     49  C   UNL A   1      46.133  34.364  30.660  1.00  0.00     0.016 A 
ATOM     50  C   UNL A   1      44.214  35.379  32.304  1.00  0.00     0.010 A 
ATOM     51  C   UNL A   1      44.696  34.091  30.405  1.00  0.00     0.010 A 
ATOM     52  C   UNL A   1      43.661  34.585  31.223  1.00  0.00    -0.014 A 
BRANCH  52  53
ATOM     53  C   UNL A   1      42.109  34.018  31.403  1.00  0.00     0.031 A 
ATOM     54  C   UNL A   1      42.268  33.075  32.547  1.00  0.00     0.074 A 
ATOM     55  C   UNL A   1      40.801  33.986  30.869  1.00  0.00     0.049 A 
ATOM     56  N   UNL A   1      43.142  32.108  32.477  1.00  0.00    -0.248 NA
ATOM     57  C   UNL A   1      41.781  33.370  33.895  1.00  0.00     0.031 C 
ATOM     58  C   UNL A   1      40.298  34.617  29.633  1.00  0.00     0.029 A 
ATOM     59  N   UNL A   1      39.560  33.367  31.312  1.00  0.00    -0.354 N 
ATOM     60  C   UNL A   1      43.064  31.457  33.680  1.00  0.00     0.074 A 
ATOM     61  C   UNL A   1      42.432  32.418  34.572  1.00  0.00     0.031 C 
ATOM     62  C   UNL A   1      38.939  34.498  29.497  1.00  0.00     0.029 A 
ATOM     63  C   UNL A   1      38.347  33.714  30.584  1.00  0.00     0.049 A 
ATOM     64  H   UNL A   1      39.541  32.741  32.072  1.00  0.00     0.167 HD
ATOM     65  C   UNL A   1      42.859  30.111  33.598  1.00  0.00     0.037 A 
ATOM     66  C   UNL A   1      36.998  33.363  30.761  1.00  0.00     0.037 A 
ATOM     67  C   UNL A   1      41.517  29.737  33.945  1.00  0.00     0.049 A 
ATOM     68  C   UNL A   1      36.976  32.093  31.496  1.00  0.00     0.074 A 
ATOM     69  C   UNL A   1      40.632  30.164  34.914  1.00  0.00     0.029 A 
ATOM     70  N   UNL A   1      40.761  29.142  32.962  1.00  0.00    -0.354 N 
ATOM     71  N   UNL A   1      37.191  30.965  30.894  1.00  0.00    -0.248 NA
ATOM     72  C   UNL A   1      36.534  31.991  32.884  1.00  0.00     0.031 C 
ATOM     73  C   UNL A   1      39.408  30.321  34.227  1.00  0.00     0.029 A 
ATOM     74  C   UNL A   1      39.476  29.628  33.026  1.00  0.00     0.049 A 
ATOM     75  H   UNL A   1      41.087  28.476  32.316  1.00  0.00     0.167 HD
ATOM     76  C   UNL A   1      37.428  30.112  31.920  1.00  0.00     0.074 A 
ATOM     77  C   UNL A   1      36.747  30.685  33.066  1.00  0.00     0.031 C 
ATOM     78  C   UNL A   1      38.631  29.497  31.866  1.00  0.00     0.037 A 
BRANCH  65  79
ATOM     79  C   UNL A   1      43.664  29.433  32.522  1.00  0.00     0.064 A 
ATOM     80  C   UNL A   1      44.765  28.652  32.879  1.00  0.00     0.173 A 
ATOM     81  C   UNL A   1      43.431  29.633  31.144  1.00  0.00     0.173 A 
ATOM     82  F   UNL A   1      44.982  28.344  34.166  1.00  0.00    -0.203 F 
ATOM     83  C   UNL A   1      45.640  28.167  31.907  1.00  0.00     0.198 A 
ATOM     84  C   UNL A   1      44.344  29.214  30.185  1.00  0.00     0.198 A 
ATOM     85  F   UNL A   1      42.298  30.217  30.716  1.00  0.00    -0.203 F 
ATOM     86  F   UNL A   1      46.670  27.386  32.267  1.00  0.00    -0.200 F 
ATOM     87  C   UNL A   1      45.455  28.485  30.569  1.00  0.00     0.200 A 
ATOM     88  F   UNL A   1      44.141  29.506  28.893  1.00  0.00    -0.200 F 
ATOM     89  F   UNL A   1      46.326  28.057  29.645  1.00  0.00    -0.200 F 
ENDBRANCH  65  79
BRANCH  66  90
ATOM     90  C   UNL A   1      35.507  33.668  30.344  1.00  0.00     0.064 A 
ATOM     91  C   UNL A   1      34.671  34.562  31.118  1.00  0.00     0.173 A 
ATOM     92  C   UNL A   1      35.038  33.494  29.033  1.00  0.00     0.173 A 
ATOM     93  F   UNL A   1      34.920  34.811  32.411  1.00  0.00    -0.203 F 
ATOM     94  C   UNL A   1      33.590  35.297  30.596  1.00  0.00     0.198 A 
ATOM     95  C   UNL A   1      33.915  34.205  28.520  1.00  0.00     0.198 A 
ATOM     96  F   UNL A   1      35.709  32.702  28.188  1.00  0.00    -0.203 F 
ATOM     97  F   UNL A   1      32.962  36.213  31.353  1.00  0.00    -0.200 F 
ATOM     98  C   UNL A   1      33.222  35.133  29.284  1.00  0.00     0.200 A 
ATOM     99  F   UNL A   1      33.547  34.040  27.241  1.00  0.00    -0.200 F 
ATOM    100  F   UNL A   1      32.236  35.878  28.757  1.00  0.00    -0.200 F 
ENDBRANCH  66  90
BRANCH  78 101
ATOM    101  C   UNL A   1      39.059  28.928  30.524  1.00  0.00     0.064 A 
ATOM    102  C   UNL A   1      39.530  29.639  29.393  1.00  0.00     0.173 A 
ATOM    103  C   UNL A   1      38.932  27.540  30.368  1.00  0.00     0.173 A 
ATOM    104  F   UNL A   1      39.796  30.953  29.427  1.00  0.00    -0.203 F 
ATOM    105  C   UNL A   1      39.785  28.998  28.177  1.00  0.00     0.198 A 
ATOM    106  C   UNL A   1      39.245  26.898  29.173  1.00  0.00     0.198 A 
ATOM    107  F   UNL A   1      38.529  26.788  31.403  1.00  0.00    -0.203 F 
ATOM    108  F   UNL A   1      40.174  29.711  27.108  1.00  0.00    -0.200 F 
ATOM    109  C   UNL A   1      39.651  27.627  28.071  1.00  0.00     0.200 A 
ATOM    110  F   UNL A   1      39.163  25.563  29.101  1.00  0.00    -0.200 F 
ATOM    111  F   UNL A   1      39.933  27.006  26.918  1.00  0.00    -0.200 F 
ENDBRANCH  78 101
ENDBRANCH  52  53
ENDBRANCH  45  47
ENDBRANCH  44  45
ENDBRANCH  43  44
ENDBRANCH  42  43
ENDBRANCH  41  42
ENDBRANCH  40  41
ENDBRANCH  39  40
ENDBRANCH   1  39
TORSDOF 25
ENDMDL
MODEL 2
REMARK VINA RESULT:      -7.3      4.145      9.968
REMARK SMILES Cc1c(CC(=O)N[C@H](CO)C(=O)OCCOCCOCCOC(=O)c2ccc(-c3c4nc(c(-c5c(F)c(F)c(F)c(F)c5F)c5ccc([nH]5)c(-c5c(F)c(F)c(F)c(F)c5F)c5nc(c(-c6c(F)c(F)c(F)c(F)c6F)c6ccc3[nH]6)C=C5)C=C4)cc2)cc(-c2ccc(S(C)(=O)=O)cc2)n1-c1cccc(F)c1
REMARK SMILES IDX 16 1 15 2 14 3 13 4 11 5 12 6 8 7 7 8 5 9 6 10 4 12 3 13
REMARK SMILES IDX 1 14 2 15 100 16 88 17 89 18 101 19 102 20 107 21 103 22
REMARK SMILES IDX 105 23 104 24 106 25 90 26 91 27 99 28 92 29 98 30 93 31
REMARK SMILES IDX 94 32 95 33 96 34 97 35 9 36 10 37 17 39 18 40 19 41 20 42
REMARK SMILES IDX 21 43 22 44 23 45 24 46 25 47 26 48 87 49 27 50 86 51 28 52
REMARK SMILES IDX 29 53 30 54 80 55 31 56 85 57 79 58 81 59 32 60 84 61 78 62
REMARK SMILES IDX 77 63 33 65 65 66 45 67 64 68 46 69 49 70 63 71 82 72 47 73
REMARK SMILES IDX 48 74 62 76 83 77 50 78 34 79 35 80 43 81 36 82 37 83 41 84
REMARK SMILES IDX 44 85 38 86 39 87 42 88 40 89 66 90 67 91 75 92 68 93 69 94
REMARK SMILES IDX 73 95 76 96 70 97 71 98 74 99 72 100 51 101 52 102 60 103
REMARK SMILES IDX 53 104 54 105 58 106 61 107 55 108 56 109 59 110 57 111
REMARK H PARENT 7 11 10 38 81 64 49 75
REMARK Flexibility Score: inf
ROOT
ATOM      1  O   UNL A   1      37.792  33.237  29.660  1.00  0.00    -0.376 OA
ENDROOT
BRANCH   1   2
ATOM      2  C   UNL A   1      39.136  33.691  29.813  1.00  0.00     0.202 C 
BRANCH   2   3
ATOM      3  C   UNL A   1      39.780  34.697  28.851  1.00  0.00     0.261 C 
BRANCH   3   4
ATOM      4  O   UNL A   1      41.025  35.224  29.323  1.00  0.00    -0.462 OA
BRANCH   4   5
ATOM      5  C   UNL A   1      41.860  35.682  28.352  1.00  0.00     0.331 C 
ATOM      6  O   UNL A   1      41.495  36.032  27.233  1.00  0.00    -0.250 OA
BRANCH   5   7
ATOM      7  C   UNL A   1      43.312  35.823  28.821  1.00  0.00     0.218 C 
BRANCH   7   8
ATOM      8  N   UNL A   1      43.379  37.072  29.590  1.00  0.00    -0.341 N 
ATOM      9  C   UNL A   1      44.018  37.354  30.755  1.00  0.00     0.225 C 
ATOM     10  O   UNL A   1      43.931  38.500  31.202  1.00  0.00    -0.275 OA
ATOM     11  H   UNL A   1      42.880  37.826  29.200  1.00  0.00     0.164 HD
BRANCH   9  12
ATOM     12  C   UNL A   1      44.809  36.279  31.480  1.00  0.00     0.137 C 
BRANCH  12  13
ATOM     13  C   UNL A   1      44.315  36.030  32.878  1.00  0.00    -0.017 A 
ATOM     14  C   UNL A   1      42.350  34.428  32.361  1.00  0.00     0.065 C 
ATOM     15  C   UNL A   1      43.267  35.201  33.258  1.00  0.00     0.024 A 
ATOM     16  N   UNL A   1      43.128  35.270  34.638  1.00  0.00    -0.313 N 
ATOM     17  C   UNL A   1      44.804  36.639  34.064  1.00  0.00     0.033 A 
ATOM     18  C   UNL A   1      44.081  36.161  35.143  1.00  0.00     0.053 A 
BRANCH  16  19
ATOM     19  C   UNL A   1      42.171  34.563  35.416  1.00  0.00     0.049 A 
ATOM     20  C   UNL A   1      42.415  33.229  35.772  1.00  0.00     0.027 A 
ATOM     21  C   UNL A   1      40.963  35.179  35.753  1.00  0.00     0.065 A 
ATOM     22  C   UNL A   1      41.438  32.501  36.451  1.00  0.00     0.005 A 
ATOM     23  C   UNL A   1      39.997  34.434  36.418  1.00  0.00     0.125 A 
ATOM     24  C   UNL A   1      40.221  33.104  36.766  1.00  0.00     0.039 A 
ATOM     25  F   UNL A   1      38.817  34.996  36.707  1.00  0.00    -0.207 F 
ENDBRANCH  16  19
BRANCH  18  26
ATOM     26  C   UNL A   1      44.261  36.471  36.570  1.00  0.00    -0.001 A 
ATOM     27  C   UNL A   1      44.871  35.552  37.440  1.00  0.00     0.011 A 
ATOM     28  C   UNL A   1      43.765  37.673  37.091  1.00  0.00     0.011 A 
ATOM     29  C   UNL A   1      44.918  35.794  38.816  1.00  0.00     0.021 A 
ATOM     30  C   UNL A   1      43.814  37.925  38.466  1.00  0.00     0.021 A 
ATOM     31  C   UNL A   1      44.367  36.973  39.324  1.00  0.00     0.067 A 
BRANCH  31  32
ATOM     32  S   UNL A   1      44.417  37.257  41.078  1.00  0.00     0.175 S 
ATOM     33  C   UNL A   1      42.813  36.763  41.652  1.00  0.00     0.163 C 
ATOM     34  O   UNL A   1      45.390  36.359  41.634  1.00  0.00    -0.224 OA
ATOM     35  O   UNL A   1      44.514  38.703  41.286  1.00  0.00    -0.224 OA
ENDBRANCH  31  32
ENDBRANCH  18  26
ENDBRANCH  12  13
ENDBRANCH   9  12
ENDBRANCH   7   8
BRANCH   7  36
ATOM     36  C   UNL A   1      44.355  35.744  27.695  1.00  0.00     0.193 C 
BRANCH  36  37
ATOM     37  O   UNL A   1      44.118  36.691  26.656  1.00  0.00    -0.394 OA
ATOM     38  H   UNL A   1      44.960  36.928  26.236  1.00  0.00     0.210 HD
ENDBRANCH  36  37
ENDBRANCH   7  36
ENDBRANCH   5   7
ENDBRANCH   4   5
ENDBRANCH   3   4
ENDBRANCH   2   3
ENDBRANCH   1   2
BRANCH   1  39
ATOM     39  C   UNL A   1      36.723  33.840  30.367  1.00  0.00     0.188 C 
BRANCH  39  40
ATOM     40  C   UNL A   1      35.278  33.694  29.855  1.00  0.00     0.188 C 
BRANCH  40  41
ATOM     41  O   UNL A   1      34.292  33.272  30.773  1.00  0.00    -0.376 OA
BRANCH  41  42
ATOM     42  C   UNL A   1      34.769  32.683  31.985  1.00  0.00     0.202 C 
BRANCH  42  43
ATOM     43  C   UNL A   1      34.364  33.263  33.375  1.00  0.00     0.261 C 
BRANCH  43  44
ATOM     44  O   UNL A   1      35.347  33.366  34.477  1.00  0.00    -0.460 OA
BRANCH  44  45
ATOM     45  C   UNL A   1      36.601  33.833  34.134  1.00  0.00     0.338 C 
ATOM     46  O   UNL A   1      36.807  35.004  33.834  1.00  0.00    -0.246 OA
BRANCH  45  47
ATOM     47  C   UNL A   1      37.773  32.829  34.109  1.00  0.00     0.060 A 
ATOM     48  C   UNL A   1      38.879  33.059  33.299  1.00  0.00     0.016 A 
ATOM     49  C   UNL A   1      37.677  31.495  34.573  1.00  0.00     0.016 A 
ATOM     50  C   UNL A   1      39.855  32.022  33.026  1.00  0.00     0.010 A 
ATOM     51  C   UNL A   1      38.647  30.420  34.240  1.00  0.00     0.010 A 
ATOM     52  C   UNL A   1      39.788  30.633  33.441  1.00  0.00    -0.014 A 
BRANCH  52  53
ATOM     53  C   UNL A   1      40.681  29.528  32.578  1.00  0.00     0.031 A 
ATOM     54  C   UNL A   1      41.524  28.926  33.650  1.00  0.00     0.074 A 
ATOM     55  C   UNL A   1      41.022  29.037  31.297  1.00  0.00     0.049 A 
ATOM     56  N   UNL A   1      42.273  29.692  34.396  1.00  0.00    -0.248 NA
ATOM     57  C   UNL A   1      41.299  27.580  34.178  1.00  0.00     0.031 C 
ATOM     58  C   UNL A   1      40.563  29.514  29.978  1.00  0.00     0.029 A 
ATOM     59  N   UNL A   1      41.887  27.958  30.844  1.00  0.00    -0.354 N 
ATOM     60  C   UNL A   1      42.883  28.850  35.288  1.00  0.00     0.074 A 
ATOM     61  C   UNL A   1      42.058  27.651  35.277  1.00  0.00     0.031 C 
ATOM     62  C   UNL A   1      40.987  28.712  28.952  1.00  0.00     0.029 A 
ATOM     63  C   UNL A   1      41.846  27.624  29.427  1.00  0.00     0.049 A 
ATOM     64  H   UNL A   1      42.475  27.475  31.468  1.00  0.00     0.167 HD
ATOM     65  C   UNL A   1      44.243  28.945  35.337  1.00  0.00     0.037 A 
ATOM     66  C   UNL A   1      42.483  26.630  28.665  1.00  0.00     0.037 A 
ATOM     67  C   UNL A   1      44.896  27.836  34.701  1.00  0.00     0.049 A 
ATOM     68  C   UNL A   1      43.700  26.245  29.389  1.00  0.00     0.074 A 
ATOM     69  C   UNL A   1      44.644  26.479  34.664  1.00  0.00     0.029 A 
ATOM     70  N   UNL A   1      45.678  28.116  33.605  1.00  0.00    -0.354 N 
ATOM     71  N   UNL A   1      44.772  26.974  29.337  1.00  0.00    -0.248 NA
ATOM     72  C   UNL A   1      43.850  24.953  30.050  1.00  0.00     0.031 C 
ATOM     73  C   UNL A   1      44.788  26.132  33.304  1.00  0.00     0.029 A 
ATOM     74  C   UNL A   1      45.490  27.139  32.655  1.00  0.00     0.049 A 
ATOM     75  H   UNL A   1      46.275  28.892  33.514  1.00  0.00     0.167 HD
ATOM     76  C   UNL A   1      45.514  26.499  30.366  1.00  0.00     0.074 A 
ATOM     77  C   UNL A   1      45.069  25.133  30.567  1.00  0.00     0.031 C 
ATOM     78  C   UNL A   1      45.846  27.430  31.290  1.00  0.00     0.037 A 
BRANCH  65  79
ATOM     79  C   UNL A   1      44.760  30.358  35.291  1.00  0.00     0.064 A 
ATOM     80  C   UNL A   1      44.848  31.015  34.062  1.00  0.00     0.173 A 
ATOM     81  C   UNL A   1      45.272  31.029  36.423  1.00  0.00     0.173 A 
ATOM     82  F   UNL A   1      44.293  30.473  32.968  1.00  0.00    -0.203 F 
ATOM     83  C   UNL A   1      45.494  32.246  33.956  1.00  0.00     0.198 A 
ATOM     84  C   UNL A   1      45.980  32.217  36.303  1.00  0.00     0.198 A 
ATOM     85  F   UNL A   1      45.064  30.546  37.660  1.00  0.00    -0.203 F 
ATOM     86  F   UNL A   1      45.534  32.880  32.775  1.00  0.00    -0.200 F 
ATOM     87  C   UNL A   1      46.097  32.824  35.065  1.00  0.00     0.200 A 
ATOM     88  F   UNL A   1      46.537  32.778  37.386  1.00  0.00    -0.200 F 
ATOM     89  F   UNL A   1      46.758  33.984  34.949  1.00  0.00    -0.200 F 
ENDBRANCH  65  79
BRANCH  66  90
ATOM     90  C   UNL A   1      42.534  25.888  27.273  1.00  0.00     0.064 A 
ATOM     91  C   UNL A   1      43.563  26.179  26.296  1.00  0.00     0.173 A 
ATOM     92  C   UNL A   1      41.926  24.642  27.058  1.00  0.00     0.173 A 
ATOM     93  F   UNL A   1      44.221  27.346  26.299  1.00  0.00    -0.203 F 
ATOM     94  C   UNL A   1      44.019  25.271  25.321  1.00  0.00     0.198 A 
ATOM     95  C   UNL A   1      42.358  23.743  26.041  1.00  0.00     0.198 A 
ATOM     96  F   UNL A   1      40.959  24.224  27.884  1.00  0.00    -0.203 F 
ATOM     97  F   UNL A   1      45.078  25.575  24.552  1.00  0.00    -0.200 F 
ATOM     98  C   UNL A   1      43.426  24.039  25.205  1.00  0.00     0.200 A 
ATOM     99  F   UNL A   1      41.775  22.542  25.918  1.00  0.00    -0.200 F 
ATOM    100  F   UNL A   1      43.896  23.139  24.325  1.00  0.00    -0.200 F 
ENDBRANCH  66  90
BRANCH  78 101
ATOM    101  C   UNL A   1      46.350  28.766  30.775  1.00  0.00     0.064 A 
ATOM    102  C   UNL A   1      45.584  29.842  30.261  1.00  0.00     0.173 A 
ATOM    103  C   UNL A   1      47.742  28.945  30.765  1.00  0.00     0.173 A 
ATOM    104  F   UNL A   1      44.244  29.854  30.301  1.00  0.00    -0.203 F 
ATOM    105  C   UNL A   1      46.188  30.978  29.715  1.00  0.00     0.198 A 
ATOM    106  C   UNL A   1      48.336  30.104  30.275  1.00  0.00     0.198 A 
ATOM    107  F   UNL A   1      48.539  27.990  31.270  1.00  0.00    -0.203 F 
ATOM    108  F   UNL A   1      45.432  31.953  29.184  1.00  0.00    -0.200 F 
ATOM    109  C   UNL A   1      47.563  31.112  29.732  1.00  0.00     0.200 A 
ATOM    110  F   UNL A   1      49.666  30.244  30.347  1.00  0.00    -0.200 F 
ATOM    111  F   UNL A   1      48.141  32.219  29.245  1.00  0.00    -0.200 F 
ENDBRANCH  78 101
ENDBRANCH  52  53
ENDBRANCH  45  47
ENDBRANCH  44  45
ENDBRANCH  43  44
ENDBRANCH  42  43
ENDBRANCH  41  42
ENDBRANCH  40  41
ENDBRANCH  39  40
ENDBRANCH   1  39
TORSDOF 25
ENDMDL
MODEL 3
REMARK VINA RESULT:      -7.3      9.627     16.455
REMARK SMILES Cc1c(CC(=O)N[C@H](CO)C(=O)OCCOCCOCCOC(=O)c2ccc(-c3c4nc(c(-c5c(F)c(F)c(F)c(F)c5F)c5ccc([nH]5)c(-c5c(F)c(F)c(F)c(F)c5F)c5nc(c(-c6c(F)c(F)c(F)c(F)c6F)c6ccc3[nH]6)C=C5)C=C4)cc2)cc(-c2ccc(S(C)(=O)=O)cc2)n1-c1cccc(F)c1
REMARK SMILES IDX 16 1 15 2 14 3 13 4 11 5 12 6 8 7 7 8 5 9 6 10 4 12 3 13
REMARK SMILES IDX 1 14 2 15 100 16 88 17 89 18 101 19 102 20 107 21 103 22
REMARK SMILES IDX 105 23 104 24 106 25 90 26 91 27 99 28 92 29 98 30 93 31
REMARK SMILES IDX 94 32 95 33 96 34 97 35 9 36 10 37 17 39 18 40 19 41 20 42
REMARK SMILES IDX 21 43 22 44 23 45 24 46 25 47 26 48 87 49 27 50 86 51 28 52
REMARK SMILES IDX 29 53 30 54 80 55 31 56 85 57 79 58 81 59 32 60 84 61 78 62
REMARK SMILES IDX 77 63 33 65 65 66 45 67 64 68 46 69 49 70 63 71 82 72 47 73
REMARK SMILES IDX 48 74 62 76 83 77 50 78 34 79 35 80 43 81 36 82 37 83 41 84
REMARK SMILES IDX 44 85 38 86 39 87 42 88 40 89 66 90 67 91 75 92 68 93 69 94
REMARK SMILES IDX 73 95 76 96 70 97 71 98 74 99 72 100 51 101 52 102 60 103
REMARK SMILES IDX 53 104 54 105 58 106 61 107 55 108 56 109 59 110 57 111
REMARK H PARENT 7 11 10 38 81 64 49 75
REMARK Flexibility Score: inf
ROOT
ATOM      1  O   UNL A   1      34.474  32.237  28.896  1.00  0.00    -0.376 OA
ENDROOT
BRANCH   1   2
ATOM      2  C   UNL A   1      33.931  31.907  27.619  1.00  0.00     0.202 C 
BRANCH   2   3
ATOM      3  C   UNL A   1      33.626  30.463  27.202  1.00  0.00     0.261 C 
BRANCH   3   4
ATOM      4  O   UNL A   1      32.229  30.150  27.201  1.00  0.00    -0.462 OA
BRANCH   4   5
ATOM      5  C   UNL A   1      31.766  29.587  26.053  1.00  0.00     0.331 C 
ATOM      6  O   UNL A   1      31.507  30.214  25.030  1.00  0.00    -0.250 OA
BRANCH   5   7
ATOM      7  C   UNL A   1      31.693  28.058  26.117  1.00  0.00     0.218 C 
BRANCH   7   8
ATOM      8  N   UNL A   1      31.093  27.619  24.851  1.00  0.00    -0.341 N 
ATOM      9  C   UNL A   1      30.501  26.441  24.521  1.00  0.00     0.225 C 
ATOM     10  O   UNL A   1      30.056  26.316  23.377  1.00  0.00    -0.275 OA
ATOM     11  H   UNL A   1      31.125  28.283  24.125  1.00  0.00     0.164 HD
BRANCH   9  12
ATOM     12  C   UNL A   1      30.401  25.317  25.537  1.00  0.00     0.137 C 
BRANCH  12  13
ATOM     13  C   UNL A   1      31.397  24.218  25.296  1.00  0.00    -0.017 A 
ATOM     14  C   UNL A   1      33.497  25.643  24.790  1.00  0.00     0.065 C 
ATOM     15  C   UNL A   1      32.747  24.364  25.002  1.00  0.00     0.024 A 
ATOM     16  N   UNL A   1      33.301  23.101  24.835  1.00  0.00    -0.313 N 
ATOM     17  C   UNL A   1      31.124  22.825  25.277  1.00  0.00     0.033 A 
ATOM     18  C   UNL A   1      32.298  22.142  25.006  1.00  0.00     0.053 A 
BRANCH  16  19
ATOM     19  C   UNL A   1      34.661  22.821  24.531  1.00  0.00     0.049 A 
ATOM     20  C   UNL A   1      35.229  23.332  23.355  1.00  0.00     0.027 A 
ATOM     21  C   UNL A   1      35.397  21.978  25.368  1.00  0.00     0.065 A 
ATOM     22  C   UNL A   1      36.532  22.981  23.003  1.00  0.00     0.005 A 
ATOM     23  C   UNL A   1      36.689  21.629  24.994  1.00  0.00     0.125 A 
ATOM     24  C   UNL A   1      37.261  22.118  23.821  1.00  0.00     0.039 A 
ATOM     25  F   UNL A   1      37.391  20.786  25.762  1.00  0.00    -0.207 F 
ENDBRANCH  16  19
BRANCH  18  26
ATOM     26  C   UNL A   1      32.510  20.688  24.934  1.00  0.00    -0.001 A 
ATOM     27  C   UNL A   1      32.780  19.937  26.090  1.00  0.00     0.011 A 
ATOM     28  C   UNL A   1      32.508  20.043  23.690  1.00  0.00     0.011 A 
ATOM     29  C   UNL A   1      33.114  18.582  25.999  1.00  0.00     0.021 A 
ATOM     30  C   UNL A   1      32.835  18.687  23.592  1.00  0.00     0.021 A 
ATOM     31  C   UNL A   1      33.161  17.970  24.744  1.00  0.00     0.067 A 
BRANCH  31  32
ATOM     32  S   UNL A   1      33.607  16.252  24.645  1.00  0.00     0.175 S 
ATOM     33  C   UNL A   1      32.258  15.399  25.416  1.00  0.00     0.163 C 
ATOM     34  O   UNL A   1      33.631  15.891  23.255  1.00  0.00    -0.224 OA
ATOM     35  O   UNL A   1      34.779  16.053  25.499  1.00  0.00    -0.224 OA
ENDBRANCH  31  32
ENDBRANCH  18  26
ENDBRANCH  12  13
ENDBRANCH   9  12
ENDBRANCH   7   8
BRANCH   7  36
ATOM     36  C   UNL A   1      30.972  27.506  27.358  1.00  0.00     0.193 C 
BRANCH  36  37
ATOM     37  O   UNL A   1      31.480  28.046  28.576  1.00  0.00    -0.394 OA
ATOM     38  H   UNL A   1      32.229  28.631  28.382  1.00  0.00     0.210 HD
ENDBRANCH  36  37
ENDBRANCH   7  36
ENDBRANCH   5   7
ENDBRANCH   4   5
ENDBRANCH   3   4
ENDBRANCH   2   3
ENDBRANCH   1   2
BRANCH   1  39
ATOM     39  C   UNL A   1      34.441  33.562  29.395  1.00  0.00     0.188 C 
BRANCH  39  40
ATOM     40  C   UNL A   1      34.552  33.822  30.909  1.00  0.00     0.188 C 
BRANCH  40  41
ATOM     41  O   UNL A   1      35.218  32.859  31.697  1.00  0.00    -0.376 OA
BRANCH  41  42
ATOM     42  C   UNL A   1      35.812  33.335  32.907  1.00  0.00     0.202 C 
BRANCH  42  43
ATOM     43  C   UNL A   1      37.035  32.608  33.543  1.00  0.00     0.261 C 
BRANCH  43  44
ATOM     44  O   UNL A   1      36.990  32.107  34.936  1.00  0.00    -0.460 OA
BRANCH  44  45
ATOM     45  C   UNL A   1      38.117  31.446  35.382  1.00  0.00     0.338 C 
ATOM     46  O   UNL A   1      38.402  30.311  35.015  1.00  0.00    -0.246 OA
BRANCH  45  47
ATOM     47  C   UNL A   1      39.031  32.163  36.399  1.00  0.00     0.060 A 
ATOM     48  C   UNL A   1      38.561  32.476  37.669  1.00  0.00     0.016 A 
ATOM     49  C   UNL A   1      40.212  32.859  36.042  1.00  0.00     0.016 A 
ATOM     50  C   UNL A   1      39.272  33.391  38.542  1.00  0.00     0.010 A 
ATOM     51  C   UNL A   1      40.902  33.840  36.918  1.00  0.00     0.010 A 
ATOM     52  C   UNL A   1      40.459  34.159  38.217  1.00  0.00    -0.014 A 
BRANCH  52  53
ATOM     53  C   UNL A   1      40.768  35.517  39.123  1.00  0.00     0.031 A 
ATOM     54  C   UNL A   1      42.107  35.195  39.694  1.00  0.00     0.074 A 
ATOM     55  C   UNL A   1      40.256  36.733  39.631  1.00  0.00     0.049 A 
ATOM     56  N   UNL A   1      42.276  34.095  40.378  1.00  0.00    -0.248 NA
ATOM     57  C   UNL A   1      43.343  35.831  39.235  1.00  0.00     0.031 C 
ATOM     58  C   UNL A   1      38.903  37.300  39.465  1.00  0.00     0.029 A 
ATOM     59  N   UNL A   1      40.834  37.795  40.440  1.00  0.00    -0.354 N 
ATOM     60  C   UNL A   1      43.600  34.080  40.727  1.00  0.00     0.074 A 
ATOM     61  C   UNL A   1      44.231  35.000  39.791  1.00  0.00     0.031 C 
ATOM     62  C   UNL A   1      38.798  38.567  39.975  1.00  0.00     0.029 A 
ATOM     63  C   UNL A   1      40.041  39.005  40.613  1.00  0.00     0.049 A 
ATOM     64  H   UNL A   1      41.723  37.701  40.853  1.00  0.00     0.167 HD
ATOM     65  C   UNL A   1      43.847  33.920  42.059  1.00  0.00     0.037 A 
ATOM     66  C   UNL A   1      40.297  40.224  41.264  1.00  0.00     0.037 A 
ATOM     67  C   UNL A   1      44.272  35.138  42.690  1.00  0.00     0.049 A 
ATOM     68  C   UNL A   1      41.317  39.963  42.285  1.00  0.00     0.074 A 
ATOM     69  C   UNL A   1      45.107  36.167  42.304  1.00  0.00     0.029 A 
ATOM     70  N   UNL A   1      43.461  35.645  43.678  1.00  0.00    -0.354 N 
ATOM     71  N   UNL A   1      41.008  39.420  43.422  1.00  0.00    -0.248 NA
ATOM     72  C   UNL A   1      42.688  40.454  42.176  1.00  0.00     0.031 C 
ATOM     73  C   UNL A   1      44.401  37.340  42.647  1.00  0.00     0.029 A 
ATOM     74  C   UNL A   1      43.404  37.013  43.557  1.00  0.00     0.049 A 
ATOM     75  H   UNL A   1      42.997  35.113  44.363  1.00  0.00     0.167 HD
ATOM     76  C   UNL A   1      42.210  39.037  43.916  1.00  0.00     0.074 A 
ATOM     77  C   UNL A   1      43.182  39.920  43.297  1.00  0.00     0.031 C 
ATOM     78  C   UNL A   1      42.309  37.714  44.178  1.00  0.00     0.037 A 
BRANCH  65  79
ATOM     79  C   UNL A   1      42.969  32.896  42.726  1.00  0.00     0.064 A 
ATOM     80  C   UNL A   1      43.499  31.645  43.048  1.00  0.00     0.173 A 
ATOM     81  C   UNL A   1      41.588  33.092  42.949  1.00  0.00     0.173 A 
ATOM     82  F   UNL A   1      44.818  31.428  42.952  1.00  0.00    -0.203 F 
ATOM     83  C   UNL A   1      42.671  30.612  43.490  1.00  0.00     0.198 A 
ATOM     84  C   UNL A   1      40.757  32.043  43.315  1.00  0.00     0.198 A 
ATOM     85  F   UNL A   1      41.041  34.315  42.835  1.00  0.00    -0.203 F 
ATOM     86  F   UNL A   1      43.204  29.430  43.832  1.00  0.00    -0.200 F 
ATOM     87  C   UNL A   1      41.299  30.798  43.581  1.00  0.00     0.200 A 
ATOM     88  F   UNL A   1      39.435  32.241  43.424  1.00  0.00    -0.200 F 
ATOM     89  F   UNL A   1      40.503  29.789  43.960  1.00  0.00    -0.200 F 
ENDBRANCH  65  79
BRANCH  66  90
ATOM     90  C   UNL A   1      39.815  41.711  41.479  1.00  0.00     0.064 A 
ATOM     91  C   UNL A   1      39.053  42.100  42.648  1.00  0.00     0.173 A 
ATOM     92  C   UNL A   1      40.433  42.804  40.854  1.00  0.00     0.173 A 
ATOM     93  F   UNL A   1      38.343  41.206  43.350  1.00  0.00    -0.203 F 
ATOM     94  C   UNL A   1      39.038  43.396  43.198  1.00  0.00     0.198 A 
ATOM     95  C   UNL A   1      40.378  44.125  41.386  1.00  0.00     0.198 A 
ATOM     96  F   UNL A   1      41.183  42.607  39.762  1.00  0.00    -0.203 F 
ATOM     97  F   UNL A   1      38.420  43.631  44.368  1.00  0.00    -0.200 F 
ATOM     98  C   UNL A   1      39.720  44.411  42.574  1.00  0.00     0.200 A 
ATOM     99  F   UNL A   1      41.036  45.120  40.774  1.00  0.00    -0.200 F 
ATOM    100  F   UNL A   1      39.768  45.635  43.124  1.00  0.00    -0.200 F 
ENDBRANCH  66  90
BRANCH  78 101
ATOM    101  C   UNL A   1      41.146  37.064  44.906  1.00  0.00     0.064 A 
ATOM    102  C   UNL A   1      39.904  36.651  44.361  1.00  0.00     0.173 A 
ATOM    103  C   UNL A   1      41.297  36.890  46.290  1.00  0.00     0.173 A 
ATOM    104  F   UNL A   1      39.657  36.663  43.044  1.00  0.00    -0.203 F 
ATOM    105  C   UNL A   1      38.873  36.165  45.171  1.00  0.00     0.198 A 
ATOM    106  C   UNL A   1      40.289  36.349  47.083  1.00  0.00     0.198 A 
ATOM    107  F   UNL A   1      42.457  37.219  46.879  1.00  0.00    -0.203 F 
ATOM    108  F   UNL A   1      37.690  35.838  44.629  1.00  0.00    -0.200 F 
ATOM    109  C   UNL A   1      39.070  36.006  46.529  1.00  0.00     0.200 A 
ATOM    110  F   UNL A   1      40.512  36.151  48.389  1.00  0.00    -0.200 F 
ATOM    111  F   UNL A   1      38.097  35.504  47.301  1.00  0.00    -0.200 F 
ENDBRANCH  78 101
ENDBRANCH  52  53
ENDBRANCH  45  47
ENDBRANCH  44  45
ENDBRANCH  43  44
ENDBRANCH  42  43
ENDBRANCH  41  42
ENDBRANCH  40  41
ENDBRANCH  39  40
ENDBRANCH   1  39
TORSDOF 25
ENDMDL
