MODEL 1
REMARK VINA RESULT:     -10.2      0.000      0.000
REMARK SMILES C[C@H](CC(=O)OCCOCCOCCOC(=O)c1ccc(-c2c3nc(c(-c4c(F)c(F)c(F)c(F)c4F)c4ccc([nH]4)c(-c4c(F)c(F)c(F)c(F)c4F)c4nc(c(-c5c(F)c(F)c(F)c(F)c5F)c5ccc2[nH]5)C=C4)C=C3)cc1)[NH2+][C@H](C)c1ccccc1
REMARK SMILES IDX 10 1 9 2 8 3 7 4 6 5 4 6 5 7 3 8 2 9 1 10 81 11 82 14 83 15
REMARK SMILES IDX 84 16 85 17 89 18 86 19 88 20 87 21 11 22 12 23 13 24 14 25
REMARK SMILES IDX 15 26 16 27 17 28 18 29 19 30 80 31 20 32 79 33 21 34 22 35
REMARK SMILES IDX 23 36 73 37 24 38 78 39 72 40 74 41 25 42 77 43 71 44 70 45
REMARK SMILES IDX 26 47 58 48 38 49 57 50 39 51 42 52 56 53 75 54 40 55 41 56
REMARK SMILES IDX 55 58 76 59 43 60 27 61 28 62 36 63 29 64 30 65 34 66 37 67
REMARK SMILES IDX 31 68 32 69 35 70 33 71 59 72 60 73 68 74 61 75 62 76 66 77
REMARK SMILES IDX 69 78 63 79 64 80 67 81 65 82 44 83 45 84 53 85 46 86 47 87
REMARK SMILES IDX 51 88 54 89 48 90 49 91 52 92 50 93
REMARK H PARENT 81 12 81 13 74 46 42 57
REMARK Flexibility Score: inf
ROOT
ATOM      1  C   UNL A   1      31.691  28.260  26.280  1.00  0.00     0.188 C 
ENDROOT
BRANCH   1   2
ATOM      2  O   UNL A   1      31.261  27.450  25.192  1.00  0.00    -0.376 OA
BRANCH   2   3
ATOM      3  C   UNL A   1      30.702  26.191  25.541  1.00  0.00     0.202 C 
BRANCH   3   4
ATOM      4  C   UNL A   1      31.542  25.341  26.496  1.00  0.00     0.261 C 
BRANCH   4   5
ATOM      5  O   UNL A   1      30.847  24.216  27.061  1.00  0.00    -0.463 OA
BRANCH   5   6
ATOM      6  C   UNL A   1      31.287  22.989  26.676  1.00  0.00     0.311 C 
ATOM      7  O   UNL A   1      30.591  22.151  26.108  1.00  0.00    -0.252 OA
BRANCH   6   8
ATOM      8  C   UNL A   1      32.700  22.669  27.119  1.00  0.00     0.187 C 
BRANCH   8   9
ATOM      9  C   UNL A   1      33.760  22.198  26.108  1.00  0.00     0.190 C 
ATOM     10  C   UNL A   1      35.093  22.931  26.306  1.00  0.00     0.076 C 
BRANCH   9  11
ATOM     11  N   UNL A   1      33.923  20.744  26.129  1.00  0.00    -0.338 N 
ATOM     12  H   UNL A   1      33.145  20.359  26.665  1.00  0.00     0.347 HD
ATOM     13  H   UNL A   1      34.850  20.597  26.529  1.00  0.00     0.347 HD
BRANCH  11  14
ATOM     14  C   UNL A   1      33.960  20.042  24.841  1.00  0.00     0.210 C 
ATOM     15  C   UNL A   1      32.944  20.723  23.911  1.00  0.00     0.081 C 
BRANCH  14  16
ATOM     16  C   UNL A   1      33.699  18.546  24.874  1.00  0.00     0.009 A 
ATOM     17  C   UNL A   1      34.484  17.683  24.090  1.00  0.00     0.010 A 
ATOM     18  C   UNL A   1      32.664  17.987  25.636  1.00  0.00     0.010 A 
ATOM     19  C   UNL A   1      34.255  16.304  24.089  1.00  0.00     0.001 A 
ATOM     20  C   UNL A   1      32.445  16.607  25.648  1.00  0.00     0.001 A 
ATOM     21  C   UNL A   1      33.242  15.766  24.877  1.00  0.00     0.000 A 
ENDBRANCH  14  16
ENDBRANCH  11  14
ENDBRANCH   9  11
ENDBRANCH   8   9
ENDBRANCH   6   8
ENDBRANCH   5   6
ENDBRANCH   4   5
ENDBRANCH   3   4
ENDBRANCH   2   3
ENDBRANCH   1   2
BRANCH   1  22
ATOM     22  C   UNL A   1      32.493  29.492  25.872  1.00  0.00     0.188 C 
BRANCH  22  23
ATOM     23  O   UNL A   1      32.428  30.570  26.811  1.00  0.00    -0.376 OA
BRANCH  23  24
ATOM     24  C   UNL A   1      31.505  31.609  26.468  1.00  0.00     0.202 C 
BRANCH  24  25
ATOM     25  C   UNL A   1      31.800  33.065  26.901  1.00  0.00     0.261 C 
BRANCH  25  26
ATOM     26  O   UNL A   1      33.188  33.404  26.986  1.00  0.00    -0.460 OA
BRANCH  26  27
ATOM     27  C   UNL A   1      33.581  33.953  28.162  1.00  0.00     0.338 C 
ATOM     28  O   UNL A   1      33.003  34.821  28.793  1.00  0.00    -0.246 OA
BRANCH  27  29
ATOM     29  C   UNL A   1      34.737  33.182  28.679  1.00  0.00     0.060 A 
ATOM     30  C   UNL A   1      34.528  31.847  29.056  1.00  0.00     0.016 A 
ATOM     31  C   UNL A   1      36.026  33.724  28.704  1.00  0.00     0.016 A 
ATOM     32  C   UNL A   1      35.602  31.059  29.482  1.00  0.00     0.010 A 
ATOM     33  C   UNL A   1      37.095  32.941  29.149  1.00  0.00     0.010 A 
ATOM     34  C   UNL A   1      36.886  31.613  29.564  1.00  0.00    -0.014 A 
BRANCH  34  35
ATOM     35  C   UNL A   1      37.977  30.884  30.262  1.00  0.00     0.031 A 
ATOM     36  C   UNL A   1      38.236  31.214  31.705  1.00  0.00     0.074 A 
ATOM     37  C   UNL A   1      38.723  29.951  29.646  1.00  0.00     0.049 A 
ATOM     38  N   UNL A   1      39.186  30.795  32.502  1.00  0.00    -0.248 NA
ATOM     39  C   UNL A   1      37.290  32.148  32.334  1.00  0.00     0.031 C 
ATOM     40  C   UNL A   1      38.542  29.486  28.274  1.00  0.00     0.029 A 
ATOM     41  N   UNL A   1      39.802  29.232  30.106  1.00  0.00    -0.354 N 
ATOM     42  C   UNL A   1      38.956  31.418  33.721  1.00  0.00     0.074 A 
ATOM     43  C   UNL A   1      37.795  32.266  33.551  1.00  0.00     0.031 C 
ATOM     44  C   UNL A   1      39.486  28.568  27.998  1.00  0.00     0.029 A 
ATOM     45  C   UNL A   1      40.363  28.412  29.158  1.00  0.00     0.049 A 
ATOM     46  H   UNL A   1      40.140  29.299  31.028  1.00  0.00     0.167 HD
ATOM     47  C   UNL A   1      39.644  31.291  34.879  1.00  0.00     0.037 A 
ATOM     48  C   UNL A   1      41.473  27.648  29.215  1.00  0.00     0.037 A 
ATOM     49  C   UNL A   1      40.804  30.458  35.050  1.00  0.00     0.049 A 
ATOM     50  C   UNL A   1      42.293  27.612  30.483  1.00  0.00     0.074 A 
ATOM     51  C   UNL A   1      41.569  30.266  36.187  1.00  0.00     0.029 A 
ATOM     52  N   UNL A   1      41.373  29.684  34.050  1.00  0.00    -0.354 N 
ATOM     53  N   UNL A   1      42.069  28.198  31.635  1.00  0.00    -0.248 NA
ATOM     54  C   UNL A   1      43.527  26.811  30.454  1.00  0.00     0.031 C 
ATOM     55  C   UNL A   1      42.634  29.422  35.860  1.00  0.00     0.029 A 
ATOM     56  C   UNL A   1      42.498  29.038  34.536  1.00  0.00     0.049 A 
ATOM     57  H   UNL A   1      41.029  29.606  33.131  1.00  0.00     0.167 HD
ATOM     58  C   UNL A   1      43.109  27.811  32.472  1.00  0.00     0.074 A 
ATOM     59  C   UNL A   1      43.961  26.933  31.701  1.00  0.00     0.031 C 
ATOM     60  C   UNL A   1      43.335  28.153  33.765  1.00  0.00     0.037 A 
BRANCH  47  61
ATOM     61  C   UNL A   1      39.175  32.108  36.048  1.00  0.00     0.064 A 
ATOM     62  C   UNL A   1      38.256  31.603  36.981  1.00  0.00     0.173 A 
ATOM     63  C   UNL A   1      39.663  33.409  36.245  1.00  0.00     0.173 A 
ATOM     64  F   UNL A   1      37.745  30.371  36.827  1.00  0.00    -0.203 F 
ATOM     65  C   UNL A   1      37.820  32.382  38.049  1.00  0.00     0.198 A 
ATOM     66  C   UNL A   1      39.249  34.172  37.332  1.00  0.00     0.198 A 
ATOM     67  F   UNL A   1      40.545  33.938  35.383  1.00  0.00    -0.203 F 
ATOM     68  F   UNL A   1      36.900  31.900  38.896  1.00  0.00    -0.200 F 
ATOM     69  C   UNL A   1      38.321  33.662  38.228  1.00  0.00     0.200 A 
ATOM     70  F   UNL A   1      39.744  35.405  37.509  1.00  0.00    -0.200 F 
ATOM     71  F   UNL A   1      37.904  34.410  39.258  1.00  0.00    -0.200 F 
ENDBRANCH  47  61
BRANCH  48  72
ATOM     72  C   UNL A   1      41.903  26.863  28.026  1.00  0.00     0.064 A 
ATOM     73  C   UNL A   1      42.758  27.418  27.064  1.00  0.00     0.173 A 
ATOM     74  C   UNL A   1      41.435  25.559  27.805  1.00  0.00     0.173 A 
ATOM     75  F   UNL A   1      43.204  28.676  27.210  1.00  0.00    -0.203 F 
ATOM     76  C   UNL A   1      43.114  26.708  25.919  1.00  0.00     0.198 A 
ATOM     77  C   UNL A   1      41.816  24.838  26.675  1.00  0.00     0.198 A 
ATOM     78  F   UNL A   1      40.603  24.986  28.687  1.00  0.00    -0.203 F 
ATOM     79  F   UNL A   1      43.888  27.284  24.988  1.00  0.00    -0.200 F 
ATOM     80  C   UNL A   1      42.648  25.416  25.729  1.00  0.00     0.200 A 
ATOM     81  F   UNL A   1      41.366  23.589  26.497  1.00  0.00    -0.200 F 
ATOM     82  F   UNL A   1      42.988  24.734  24.626  1.00  0.00    -0.200 F 
ENDBRANCH  48  72
BRANCH  60  83
ATOM     83  C   UNL A   1      44.525  27.544  34.452  1.00  0.00     0.064 A 
ATOM     84  C   UNL A   1      44.431  26.344  35.171  1.00  0.00     0.173 A 
ATOM     85  C   UNL A   1      45.791  28.141  34.339  1.00  0.00     0.173 A 
ATOM     86  F   UNL A   1      43.243  25.738  35.319  1.00  0.00    -0.203 F 
ATOM     87  C   UNL A   1      45.553  25.776  35.769  1.00  0.00     0.198 A 
ATOM     88  C   UNL A   1      46.916  27.555  34.912  1.00  0.00     0.198 A 
ATOM     89  F   UNL A   1      45.940  29.286  33.656  1.00  0.00    -0.203 F 
ATOM     90  F   UNL A   1      45.431  24.650  36.487  1.00  0.00    -0.200 F 
ATOM     91  C   UNL A   1      46.796  26.376  35.631  1.00  0.00     0.200 A 
ATOM     92  F   UNL A   1      48.119  28.129  34.763  1.00  0.00    -0.200 F 
ATOM     93  F   UNL A   1      47.877  25.821  36.196  1.00  0.00    -0.200 F 
ENDBRANCH  60  83
ENDBRANCH  34  35
ENDBRANCH  27  29
ENDBRANCH  26  27
ENDBRANCH  25  26
ENDBRANCH  24  25
ENDBRANCH  23  24
ENDBRANCH  22  23
ENDBRANCH   1  22
TORSDOF 21
ENDMDL
MODEL 2
REMARK VINA RESULT:     -10.2      1.785      7.765
REMARK SMILES C[C@H](CC(=O)OCCOCCOCCOC(=O)c1ccc(-c2c3nc(c(-c4c(F)c(F)c(F)c(F)c4F)c4ccc([nH]4)c(-c4c(F)c(F)c(F)c(F)c4F)c4nc(c(-c5c(F)c(F)c(F)c(F)c5F)c5ccc2[nH]5)C=C4)C=C3)cc1)[NH2+][C@H](C)c1ccccc1
REMARK SMILES IDX 10 1 9 2 8 3 7 4 6 5 4 6 5 7 3 8 2 9 1 10 81 11 82 14 83 15
REMARK SMILES IDX 84 16 85 17 89 18 86 19 88 20 87 21 11 22 12 23 13 24 14 25
REMARK SMILES IDX 15 26 16 27 17 28 18 29 19 30 80 31 20 32 79 33 21 34 22 35
REMARK SMILES IDX 23 36 73 37 24 38 78 39 72 40 74 41 25 42 77 43 71 44 70 45
REMARK SMILES IDX 26 47 58 48 38 49 57 50 39 51 42 52 56 53 75 54 40 55 41 56
REMARK SMILES IDX 55 58 76 59 43 60 27 61 28 62 36 63 29 64 30 65 34 66 37 67
REMARK SMILES IDX 31 68 32 69 35 70 33 71 59 72 60 73 68 74 61 75 62 76 66 77
REMARK SMILES IDX 69 78 63 79 64 80 67 81 65 82 44 83 45 84 53 85 46 86 47 87
REMARK SMILES IDX 51 88 54 89 48 90 49 91 52 92 50 93
REMARK H PARENT 81 12 81 13 74 46 42 57
REMARK Flexibility Score: inf
ROOT
ATOM      1  C   UNL A   1      33.412  27.459  22.065  1.00  0.00     0.188 C 
ENDROOT
BRANCH   1   2
ATOM      2  O   UNL A   1      33.769  26.153  21.627  1.00  0.00    -0.376 OA
BRANCH   2   3
ATOM      3  C   UNL A   1      32.831  25.125  21.919  1.00  0.00     0.202 C 
BRANCH   3   4
ATOM      4  C   UNL A   1      33.384  23.937  22.709  1.00  0.00     0.261 C 
BRANCH   4   5
ATOM      5  O   UNL A   1      32.936  22.652  22.243  1.00  0.00    -0.463 OA
BRANCH   5   6
ATOM      6  C   UNL A   1      32.287  21.880  23.154  1.00  0.00     0.311 C 
ATOM      7  O   UNL A   1      32.302  20.652  23.157  1.00  0.00    -0.252 OA
BRANCH   6   8
ATOM      8  C   UNL A   1      31.419  22.659  24.121  1.00  0.00     0.187 C 
BRANCH   8   9
ATOM      9  C   UNL A   1      31.661  22.585  25.639  1.00  0.00     0.190 C 
ATOM     10  C   UNL A   1      30.366  22.819  26.428  1.00  0.00     0.076 C 
BRANCH   9  11
ATOM     11  N   UNL A   1      32.321  21.338  26.024  1.00  0.00    -0.338 N 
ATOM     12  H   UNL A   1      32.453  20.789  25.174  1.00  0.00     0.347 HD
ATOM     13  H   UNL A   1      31.702  20.925  26.723  1.00  0.00     0.347 HD
BRANCH  11  14
ATOM     14  C   UNL A   1      33.623  21.432  26.694  1.00  0.00     0.210 C 
ATOM     15  C   UNL A   1      33.416  22.203  28.006  1.00  0.00     0.081 C 
BRANCH  14  16
ATOM     16  C   UNL A   1      34.752  22.069  25.900  1.00  0.00     0.009 A 
ATOM     17  C   UNL A   1      35.070  23.423  26.105  1.00  0.00     0.010 A 
ATOM     18  C   UNL A   1      35.472  21.360  24.929  1.00  0.00     0.010 A 
ATOM     19  C   UNL A   1      36.093  24.038  25.377  1.00  0.00     0.001 A 
ATOM     20  C   UNL A   1      36.505  21.971  24.214  1.00  0.00     0.001 A 
ATOM     21  C   UNL A   1      36.817  23.308  24.439  1.00  0.00     0.000 A 
ENDBRANCH  14  16
ENDBRANCH  11  14
ENDBRANCH   9  11
ENDBRANCH   8   9
ENDBRANCH   6   8
ENDBRANCH   5   6
ENDBRANCH   4   5
ENDBRANCH   3   4
ENDBRANCH   2   3
ENDBRANCH   1   2
BRANCH   1  22
ATOM     22  C   UNL A   1      32.368  27.489  23.177  1.00  0.00     0.188 C 
BRANCH  22  23
ATOM     23  O   UNL A   1      31.379  28.512  23.025  1.00  0.00    -0.376 OA
BRANCH  23  24
ATOM     24  C   UNL A   1      31.197  29.346  24.175  1.00  0.00     0.202 C 
BRANCH  24  25
ATOM     25  C   UNL A   1      32.022  29.072  25.454  1.00  0.00     0.261 C 
BRANCH  25  26
ATOM     26  O   UNL A   1      33.211  29.858  25.591  1.00  0.00    -0.460 OA
BRANCH  26  27
ATOM     27  C   UNL A   1      33.157  30.834  26.529  1.00  0.00     0.338 C 
ATOM     28  O   UNL A   1      32.261  31.646  26.690  1.00  0.00    -0.246 OA
BRANCH  27  29
ATOM     29  C   UNL A   1      34.279  30.639  27.479  1.00  0.00     0.060 A 
ATOM     30  C   UNL A   1      35.077  31.746  27.798  1.00  0.00     0.016 A 
ATOM     31  C   UNL A   1      34.488  29.414  28.121  1.00  0.00     0.016 A 
ATOM     32  C   UNL A   1      36.102  31.627  28.742  1.00  0.00     0.010 A 
ATOM     33  C   UNL A   1      35.526  29.292  29.051  1.00  0.00     0.010 A 
ATOM     34  C   UNL A   1      36.354  30.390  29.348  1.00  0.00    -0.014 A 
BRANCH  34  35
ATOM     35  C   UNL A   1      37.594  30.178  30.140  1.00  0.00     0.031 A 
ATOM     36  C   UNL A   1      38.662  29.297  29.557  1.00  0.00     0.074 A 
ATOM     37  C   UNL A   1      37.781  30.747  31.344  1.00  0.00     0.049 A 
ATOM     38  N   UNL A   1      39.783  28.877  30.089  1.00  0.00    -0.248 NA
ATOM     39  C   UNL A   1      38.432  28.823  28.184  1.00  0.00     0.031 C 
ATOM     40  C   UNL A   1      36.861  31.672  31.999  1.00  0.00     0.029 A 
ATOM     41  N   UNL A   1      38.818  30.614  32.236  1.00  0.00    -0.354 N 
ATOM     42  C   UNL A   1      40.385  28.087  29.118  1.00  0.00     0.074 A 
ATOM     43  C   UNL A   1      39.494  28.062  27.979  1.00  0.00     0.031 C 
ATOM     44  C   UNL A   1      37.368  32.014  33.197  1.00  0.00     0.029 A 
ATOM     45  C   UNL A   1      38.627  31.300  33.411  1.00  0.00     0.049 A 
ATOM     46  H   UNL A   1      39.622  30.077  32.051  1.00  0.00     0.167 HD
ATOM     47  C   UNL A   1      41.577  27.447  29.168  1.00  0.00     0.037 A 
ATOM     48  C   UNL A   1      39.370  31.323  34.536  1.00  0.00     0.037 A 
ATOM     49  C   UNL A   1      42.461  27.462  30.302  1.00  0.00     0.049 A 
ATOM     50  C   UNL A   1      40.639  30.507  34.612  1.00  0.00     0.074 A 
ATOM     51  C   UNL A   1      43.689  26.841  30.447  1.00  0.00     0.029 A 
ATOM     52  N   UNL A   1      42.206  28.125  31.494  1.00  0.00    -0.354 N 
ATOM     53  N   UNL A   1      41.207  29.766  33.692  1.00  0.00    -0.248 NA
ATOM     54  C   UNL A   1      41.364  30.526  35.892  1.00  0.00     0.031 C 
ATOM     55  C   UNL A   1      44.151  27.081  31.744  1.00  0.00     0.029 A 
ATOM     56  C   UNL A   1      43.240  27.902  32.388  1.00  0.00     0.049 A 
ATOM     57  H   UNL A   1      41.408  28.672  31.676  1.00  0.00     0.167 HD
ATOM     58  C   UNL A   1      42.368  29.263  34.267  1.00  0.00     0.074 A 
ATOM     59  C   UNL A   1      42.430  29.787  35.613  1.00  0.00     0.031 C 
ATOM     60  C   UNL A   1      43.300  28.440  33.725  1.00  0.00     0.037 A 
BRANCH  47  61
ATOM     61  C   UNL A   1      41.974  26.642  27.965  1.00  0.00     0.064 A 
ATOM     62  C   UNL A   1      41.464  25.356  27.736  1.00  0.00     0.173 A 
ATOM     63  C   UNL A   1      42.865  27.174  27.021  1.00  0.00     0.173 A 
ATOM     64  F   UNL A   1      40.622  24.795  28.619  1.00  0.00    -0.203 F 
ATOM     65  C   UNL A   1      41.857  24.618  26.623  1.00  0.00     0.198 A 
ATOM     66  C   UNL A   1      43.232  26.446  25.893  1.00  0.00     0.198 A 
ATOM     67  F   UNL A   1      43.380  28.401  27.192  1.00  0.00    -0.203 F 
ATOM     68  F   UNL A   1      41.402  23.369  26.454  1.00  0.00    -0.200 F 
ATOM     69  C   UNL A   1      42.735  25.165  25.700  1.00  0.00     0.200 A 
ATOM     70  F   UNL A   1      44.070  26.982  24.996  1.00  0.00    -0.200 F 
ATOM     71  F   UNL A   1      43.110  24.456  24.627  1.00  0.00    -0.200 F 
ENDBRANCH  47  61
BRANCH  48  72
ATOM     72  C   UNL A   1      38.930  32.130  35.707  1.00  0.00     0.064 A 
ATOM     73  C   UNL A   1      39.308  33.472  35.844  1.00  0.00     0.173 A 
ATOM     74  C   UNL A   1      38.159  31.563  36.733  1.00  0.00     0.173 A 
ATOM     75  F   UNL A   1      40.077  34.050  34.908  1.00  0.00    -0.203 F 
ATOM     76  C   UNL A   1      38.948  34.212  36.969  1.00  0.00     0.198 A 
ATOM     77  C   UNL A   1      37.774  32.313  37.844  1.00  0.00     0.198 A 
ATOM     78  F   UNL A   1      37.782  30.278  36.660  1.00  0.00    -0.203 F 
ATOM     79  F   UNL A   1      39.371  35.477  37.100  1.00  0.00    -0.200 F 
ATOM     80  C   UNL A   1      38.176  33.634  37.965  1.00  0.00     0.200 A 
ATOM     81  F   UNL A   1      37.025  31.750  38.801  1.00  0.00    -0.200 F 
ATOM     82  F   UNL A   1      37.833  34.345  39.048  1.00  0.00    -0.200 F 
ENDBRANCH  48  72
BRANCH  60  83
ATOM     83  C   UNL A   1      44.496  28.086  34.565  1.00  0.00     0.064 A 
ATOM     84  C   UNL A   1      45.641  28.894  34.600  1.00  0.00     0.173 A 
ATOM     85  C   UNL A   1      44.469  26.952  35.393  1.00  0.00     0.173 A 
ATOM     86  F   UNL A   1      45.723  29.983  33.819  1.00  0.00    -0.203 F 
ATOM     87  C   UNL A   1      46.723  28.569  35.414  1.00  0.00     0.198 A 
ATOM     88  C   UNL A   1      45.540  26.647  36.229  1.00  0.00     0.198 A 
ATOM     89  F   UNL A   1      43.395  26.149  35.406  1.00  0.00    -0.203 F 
ATOM     90  F   UNL A   1      47.825  29.333  35.399  1.00  0.00    -0.200 F 
ATOM     91  C   UNL A   1      46.669  27.452  36.235  1.00  0.00     0.200 A 
ATOM     92  F   UNL A   1      45.478  25.576  37.033  1.00  0.00    -0.200 F 
ATOM     93  F   UNL A   1      47.706  27.149  37.027  1.00  0.00    -0.200 F 
ENDBRANCH  60  83
ENDBRANCH  34  35
ENDBRANCH  27  29
ENDBRANCH  26  27
ENDBRANCH  25  26
ENDBRANCH  24  25
ENDBRANCH  23  24
ENDBRANCH  22  23
ENDBRANCH   1  22
TORSDOF 21
ENDMDL
MODEL 3
REMARK VINA RESULT:     -10.1      1.788      7.839
REMARK SMILES C[C@H](CC(=O)OCCOCCOCCOC(=O)c1ccc(-c2c3nc(c(-c4c(F)c(F)c(F)c(F)c4F)c4ccc([nH]4)c(-c4c(F)c(F)c(F)c(F)c4F)c4nc(c(-c5c(F)c(F)c(F)c(F)c5F)c5ccc2[nH]5)C=C4)C=C3)cc1)[NH2+][C@H](C)c1ccccc1
REMARK SMILES IDX 10 1 9 2 8 3 7 4 6 5 4 6 5 7 3 8 2 9 1 10 81 11 82 14 83 15
REMARK SMILES IDX 84 16 85 17 89 18 86 19 88 20 87 21 11 22 12 23 13 24 14 25
REMARK SMILES IDX 15 26 16 27 17 28 18 29 19 30 80 31 20 32 79 33 21 34 22 35
REMARK SMILES IDX 23 36 73 37 24 38 78 39 72 40 74 41 25 42 77 43 71 44 70 45
REMARK SMILES IDX 26 47 58 48 38 49 57 50 39 51 42 52 56 53 75 54 40 55 41 56
REMARK SMILES IDX 55 58 76 59 43 60 27 61 28 62 36 63 29 64 30 65 34 66 37 67
REMARK SMILES IDX 31 68 32 69 35 70 33 71 59 72 60 73 68 74 61 75 62 76 66 77
REMARK SMILES IDX 69 78 63 79 64 80 67 81 65 82 44 83 45 84 53 85 46 86 47 87
REMARK SMILES IDX 51 88 54 89 48 90 49 91 52 92 50 93
REMARK H PARENT 81 12 81 13 74 46 42 57
REMARK Flexibility Score: inf
ROOT
ATOM      1  C   UNL A   1      33.366  27.389  22.148  1.00  0.00     0.188 C 
ENDROOT
BRANCH   1   2
ATOM      2  O   UNL A   1      33.702  26.110  21.620  1.00  0.00    -0.376 OA
BRANCH   2   3
ATOM      3  C   UNL A   1      32.812  25.051  21.950  1.00  0.00     0.202 C 
BRANCH   3   4
ATOM      4  C   UNL A   1      33.456  23.839  22.626  1.00  0.00     0.261 C 
BRANCH   4   5
ATOM      5  O   UNL A   1      32.929  22.571  22.199  1.00  0.00    -0.463 OA
BRANCH   5   6
ATOM      6  C   UNL A   1      32.319  21.825  23.158  1.00  0.00     0.311 C 
ATOM      7  O   UNL A   1      32.354  20.599  23.208  1.00  0.00    -0.252 OA
BRANCH   6   8
ATOM      8  C   UNL A   1      31.465  22.628  24.118  1.00  0.00     0.187 C 
BRANCH   8   9
ATOM      9  C   UNL A   1      31.713  22.571  25.636  1.00  0.00     0.190 C 
ATOM     10  C   UNL A   1      30.419  22.804  26.427  1.00  0.00     0.076 C 
BRANCH   9  11
ATOM     11  N   UNL A   1      32.383  21.332  26.031  1.00  0.00    -0.338 N 
ATOM     12  H   UNL A   1      32.503  20.770  25.189  1.00  0.00     0.347 HD
ATOM     13  H   UNL A   1      31.777  20.930  26.746  1.00  0.00     0.347 HD
BRANCH  11  14
ATOM     14  C   UNL A   1      33.695  21.441  26.678  1.00  0.00     0.210 C 
ATOM     15  C   UNL A   1      33.500  22.199  28.000  1.00  0.00     0.081 C 
BRANCH  14  16
ATOM     16  C   UNL A   1      34.800  22.101  25.870  1.00  0.00     0.009 A 
ATOM     17  C   UNL A   1      35.476  21.364  24.881  1.00  0.00     0.010 A 
ATOM     18  C   UNL A   1      35.205  23.422  26.101  1.00  0.00     0.010 A 
ATOM     19  C   UNL A   1      36.507  21.942  24.134  1.00  0.00     0.001 A 
ATOM     20  C   UNL A   1      36.224  24.004  25.343  1.00  0.00     0.001 A 
ATOM     21  C   UNL A   1      36.873  23.265  24.359  1.00  0.00     0.000 A 
ENDBRANCH  14  16
ENDBRANCH  11  14
ENDBRANCH   9  11
ENDBRANCH   8   9
ENDBRANCH   6   8
ENDBRANCH   5   6
ENDBRANCH   4   5
ENDBRANCH   3   4
ENDBRANCH   2   3
ENDBRANCH   1   2
BRANCH   1  22
ATOM     22  C   UNL A   1      32.299  27.361  23.239  1.00  0.00     0.188 C 
BRANCH  22  23
ATOM     23  O   UNL A   1      31.325  28.403  23.132  1.00  0.00    -0.376 OA
BRANCH  23  24
ATOM     24  C   UNL A   1      31.234  29.259  24.276  1.00  0.00     0.202 C 
BRANCH  24  25
ATOM     25  C   UNL A   1      32.115  28.973  25.515  1.00  0.00     0.261 C 
BRANCH  25  26
ATOM     26  O   UNL A   1      33.289  29.783  25.626  1.00  0.00    -0.460 OA
BRANCH  26  27
ATOM     27  C   UNL A   1      33.235  30.761  26.562  1.00  0.00     0.338 C 
ATOM     28  O   UNL A   1      32.329  31.558  26.735  1.00  0.00    -0.246 OA
BRANCH  27  29
ATOM     29  C   UNL A   1      34.374  30.585  27.495  1.00  0.00     0.060 A 
ATOM     30  C   UNL A   1      35.257  31.661  27.672  1.00  0.00     0.016 A 
ATOM     31  C   UNL A   1      34.523  29.423  28.257  1.00  0.00     0.016 A 
ATOM     32  C   UNL A   1      36.304  31.568  28.593  1.00  0.00     0.010 A 
ATOM     33  C   UNL A   1      35.583  29.324  29.165  1.00  0.00     0.010 A 
ATOM     34  C   UNL A   1      36.493  30.385  29.320  1.00  0.00    -0.014 A 
BRANCH  34  35
ATOM     35  C   UNL A   1      37.743  30.170  30.094  1.00  0.00     0.031 A 
ATOM     36  C   UNL A   1      38.806  29.294  29.491  1.00  0.00     0.074 A 
ATOM     37  C   UNL A   1      37.945  30.729  31.300  1.00  0.00     0.049 A 
ATOM     38  N   UNL A   1      39.934  28.872  30.004  1.00  0.00    -0.248 NA
ATOM     39  C   UNL A   1      38.558  28.831  28.117  1.00  0.00     0.031 C 
ATOM     40  C   UNL A   1      37.032  31.647  31.974  1.00  0.00     0.029 A 
ATOM     41  N   UNL A   1      38.994  30.591  32.178  1.00  0.00    -0.354 N 
ATOM     42  C   UNL A   1      40.525  28.091  29.020  1.00  0.00     0.074 A 
ATOM     43  C   UNL A   1      39.619  28.073  27.892  1.00  0.00     0.031 C 
ATOM     44  C   UNL A   1      37.554  31.980  33.169  1.00  0.00     0.029 A 
ATOM     45  C   UNL A   1      38.817  31.267  33.360  1.00  0.00     0.049 A 
ATOM     46  H   UNL A   1      39.797  30.057  31.978  1.00  0.00     0.167 HD
ATOM     47  C   UNL A   1      41.718  27.453  29.050  1.00  0.00     0.037 A 
ATOM     48  C   UNL A   1      39.575  31.282  34.476  1.00  0.00     0.037 A 
ATOM     49  C   UNL A   1      42.616  27.459  30.172  1.00  0.00     0.049 A 
ATOM     50  C   UNL A   1      40.845  30.467  34.529  1.00  0.00     0.074 A 
ATOM     51  C   UNL A   1      43.848  26.840  30.296  1.00  0.00     0.029 A 
ATOM     52  N   UNL A   1      42.376  28.113  31.372  1.00  0.00    -0.354 N 
ATOM     53  N   UNL A   1      41.403  29.735  33.596  1.00  0.00    -0.248 NA
ATOM     54  C   UNL A   1      41.588  30.477  35.800  1.00  0.00     0.031 C 
ATOM     55  C   UNL A   1      44.325  27.070  31.589  1.00  0.00     0.029 A 
ATOM     56  C   UNL A   1      43.422  27.884  32.251  1.00  0.00     0.049 A 
ATOM     57  H   UNL A   1      41.580  28.657  31.569  1.00  0.00     0.167 HD
ATOM     58  C   UNL A   1      42.572  29.229  34.152  1.00  0.00     0.074 A 
ATOM     59  C   UNL A   1      42.650  29.742  35.501  1.00  0.00     0.031 C 
ATOM     60  C   UNL A   1      43.498  28.411  33.591  1.00  0.00     0.037 A 
BRANCH  47  61
ATOM     61  C   UNL A   1      42.100  26.658  27.835  1.00  0.00     0.064 A 
ATOM     62  C   UNL A   1      42.935  27.187  26.839  1.00  0.00     0.173 A 
ATOM     63  C   UNL A   1      41.636  25.344  27.674  1.00  0.00     0.173 A 
ATOM     64  F   UNL A   1      43.390  28.446  26.938  1.00  0.00    -0.203 F 
ATOM     65  C   UNL A   1      43.265  26.441  25.711  1.00  0.00     0.198 A 
ATOM     66  C   UNL A   1      41.995  24.589  26.561  1.00  0.00     0.198 A 
ATOM     67  F   UNL A   1      40.837  24.790  28.598  1.00  0.00    -0.203 F 
ATOM     68  F   UNL A   1      44.017  26.986  24.745  1.00  0.00    -0.200 F 
ATOM     69  C   UNL A   1      42.800  25.141  25.576  1.00  0.00     0.200 A 
ATOM     70  F   UNL A   1      41.554  23.329  26.438  1.00  0.00    -0.200 F 
ATOM     71  F   UNL A   1      43.121  24.422  24.492  1.00  0.00    -0.200 F 
ENDBRANCH  47  61
BRANCH  48  72
ATOM     72  C   UNL A   1      39.148  32.078  35.659  1.00  0.00     0.064 A 
ATOM     73  C   UNL A   1      38.330  31.519  36.650  1.00  0.00     0.173 A 
ATOM     74  C   UNL A   1      39.514  33.426  35.800  1.00  0.00     0.173 A 
ATOM     75  F   UNL A   1      37.921  30.245  36.541  1.00  0.00    -0.203 F 
ATOM     76  C   UNL A   1      37.879  32.280  37.727  1.00  0.00     0.198 A 
ATOM     77  C   UNL A   1      39.087  34.177  36.895  1.00  0.00     0.198 A 
ATOM     78  F   UNL A   1      40.284  34.014  34.874  1.00  0.00    -0.203 F 
ATOM     79  F   UNL A   1      37.052  31.735  38.631  1.00  0.00    -0.200 F 
ATOM     80  C   UNL A   1      38.264  33.606  37.853  1.00  0.00     0.200 A 
ATOM     81  F   UNL A   1      39.465  35.457  37.013  1.00  0.00    -0.200 F 
ATOM     82  F   UNL A   1      37.827  34.338  38.887  1.00  0.00    -0.200 F 
ENDBRANCH  48  72
BRANCH  60  83
ATOM     83  C   UNL A   1      44.705  28.053  34.413  1.00  0.00     0.064 A 
ATOM     84  C   UNL A   1      44.745  26.896  35.205  1.00  0.00     0.173 A 
ATOM     85  C   UNL A   1      45.860  28.850  34.361  1.00  0.00     0.173 A 
ATOM     86  F   UNL A   1      43.664  26.106  35.299  1.00  0.00    -0.203 F 
ATOM     87  C   UNL A   1      45.886  26.562  35.929  1.00  0.00     0.198 A 
ATOM     88  C   UNL A   1      47.010  28.496  35.062  1.00  0.00     0.198 A 
ATOM     89  F   UNL A   1      45.880  29.963  33.613  1.00  0.00    -0.203 F 
ATOM     90  F   UNL A   1      45.886  25.474  36.713  1.00  0.00    -0.200 F 
ATOM     91  C   UNL A   1      47.021  27.357  35.850  1.00  0.00     0.200 A 
ATOM     92  F   UNL A   1      48.110  29.257  34.970  1.00  0.00    -0.200 F 
ATOM     93  F   UNL A   1      48.122  27.025  36.538  1.00  0.00    -0.200 F 
ENDBRANCH  60  83
ENDBRANCH  34  35
ENDBRANCH  27  29
ENDBRANCH  26  27
ENDBRANCH  25  26
ENDBRANCH  24  25
ENDBRANCH  23  24
ENDBRANCH  22  23
ENDBRANCH   1  22
TORSDOF 21
ENDMDL
