MODEL 1
REMARK VINA RESULT:      -9.8      0.000      0.000
REMARK SMILES CC(C)(CC(=O)Nc1cccc(C(=O)NC2CC2)c1)CC(=O)OCCOCCOCCOC(=O)c1ccc(-c2c3nc(c(-c4c(F)c(F)c(F)c(F)c4F)c4ccc([nH]4)c(-c4c(F)c(F)c(F)c(F)c4F)c4nc(c(-c5c(F)c(F)c(F)c(F)c5F)c5ccc2[nH]5)C=C4)C=C3)cc1
REMARK SMILES IDX 25 1 24 2 23 3 21 4 22 5 20 6 2 7 1 8 3 9 4 10 5 11 6 12
REMARK SMILES IDX 7 13 8 15 9 16 19 17 10 18 12 19 11 20 13 21 14 22 15 23
REMARK SMILES IDX 16 25 17 26 18 27 26 28 27 29 28 30 29 31 30 32 31 33 32 34
REMARK SMILES IDX 33 35 34 36 35 37 36 38 97 39 37 40 96 41 38 42 39 43 40 44
REMARK SMILES IDX 90 45 41 46 95 47 89 48 91 49 42 50 94 51 88 52 87 53 43 55
REMARK SMILES IDX 75 56 55 57 74 58 56 59 59 60 73 61 92 62 57 63 58 64 72 66
REMARK SMILES IDX 93 67 60 68 44 69 45 70 53 71 46 72 47 73 51 74 54 75 48 76
REMARK SMILES IDX 49 77 52 78 50 79 76 80 77 81 85 82 78 83 79 84 83 85 86 86
REMARK SMILES IDX 80 87 81 88 84 89 82 90 61 91 62 92 70 93 63 94 64 95 68 96
REMARK SMILES IDX 71 97 65 98 66 99 69 100 67 101
REMARK H PARENT 7 14 15 24 91 54 59 65
REMARK Flexibility Score: inf
ROOT
ATOM      1  C   UNL A   1      38.795  21.656  25.894  1.00  0.00     0.202 C 
ENDROOT
BRANCH   1   2
ATOM      2  C   UNL A   1      37.469  21.601  25.132  1.00  0.00     0.261 C 
BRANCH   2   3
ATOM      3  O   UNL A   1      36.347  21.904  25.985  1.00  0.00    -0.463 OA
BRANCH   3   4
ATOM      4  C   UNL A   1      35.894  23.177  26.018  1.00  0.00     0.306 C 
ATOM      5  O   UNL A   1      36.604  24.173  26.035  1.00  0.00    -0.252 OA
BRANCH   4   6
ATOM      6  C   UNL A   1      34.385  23.213  26.190  1.00  0.00     0.129 C 
BRANCH   6   7
ATOM      7  C   UNL A   1      33.429  23.277  24.972  1.00  0.00    -0.016 C 
ATOM      8  C   UNL A   1      33.499  21.986  24.179  1.00  0.00     0.012 C 
ATOM      9  C   UNL A   1      34.013  24.368  24.030  1.00  0.00     0.012 C 
BRANCH   7  10
ATOM     10  C   UNL A   1      31.955  23.676  25.229  1.00  0.00     0.107 C 
BRANCH  10  11
ATOM     11  C   UNL A   1      31.463  24.307  26.517  1.00  0.00     0.224 C 
ATOM     12  O   UNL A   1      31.251  23.577  27.492  1.00  0.00    -0.275 OA
ATOM     13  N   UNL A   1      31.472  25.649  26.748  1.00  0.00    -0.326 N 
ATOM     14  H   UNL A   1      31.466  25.855  27.710  1.00  0.00     0.169 HD
BRANCH  13  15
ATOM     15  C   UNL A   1      31.486  26.815  25.965  1.00  0.00     0.041 A 
ATOM     16  C   UNL A   1      31.923  27.975  26.609  1.00  0.00     0.026 A 
ATOM     17  C   UNL A   1      30.868  26.928  24.707  1.00  0.00     0.040 A 
ATOM     18  C   UNL A   1      31.840  29.211  25.979  1.00  0.00     0.003 A 
ATOM     19  C   UNL A   1      30.774  28.164  24.044  1.00  0.00     0.041 A 
ATOM     20  C   UNL A   1      31.284  29.298  24.705  1.00  0.00     0.014 A 
BRANCH  19  21
ATOM     21  C   UNL A   1      30.108  28.444  22.727  1.00  0.00     0.251 C 
ATOM     22  O   UNL A   1      30.516  27.845  21.725  1.00  0.00    -0.269 OA
ATOM     23  N   UNL A   1      29.088  29.337  22.492  1.00  0.00    -0.349 N 
ATOM     24  H   UNL A   1      28.853  29.404  21.538  1.00  0.00     0.164 HD
BRANCH  23  25
ATOM     25  C   UNL A   1      28.302  30.180  23.311  1.00  0.00     0.082 C 
ATOM     26  C   UNL A   1      28.775  31.502  23.850  1.00  0.00     0.027 C 
ATOM     27  C   UNL A   1      27.777  31.480  22.740  1.00  0.00     0.027 C 
ENDBRANCH  23  25
ENDBRANCH  19  21
ENDBRANCH  13  15
ENDBRANCH  10  11
ENDBRANCH   7  10
ENDBRANCH   6   7
ENDBRANCH   4   6
ENDBRANCH   3   4
ENDBRANCH   2   3
ENDBRANCH   1   2
BRANCH   1  28
ATOM     28  O   UNL A   1      39.602  20.483  25.754  1.00  0.00    -0.376 OA
BRANCH  28  29
ATOM     29  C   UNL A   1      40.966  20.588  26.154  1.00  0.00     0.188 C 
BRANCH  29  30
ATOM     30  C   UNL A   1      41.563  21.993  26.117  1.00  0.00     0.188 C 
BRANCH  30  31
ATOM     31  O   UNL A   1      42.618  22.215  25.179  1.00  0.00    -0.376 OA
BRANCH  31  32
ATOM     32  C   UNL A   1      43.221  23.510  25.198  1.00  0.00     0.202 C 
BRANCH  32  33
ATOM     33  C   UNL A   1      42.226  24.591  25.606  1.00  0.00     0.261 C 
BRANCH  33  34
ATOM     34  O   UNL A   1      42.846  25.442  26.579  1.00  0.00    -0.460 OA
BRANCH  34  35
ATOM     35  C   UNL A   1      42.333  25.337  27.819  1.00  0.00     0.338 C 
ATOM     36  O   UNL A   1      41.980  24.315  28.401  1.00  0.00    -0.246 OA
BRANCH  35  37
ATOM     37  C   UNL A   1      42.249  26.685  28.385  1.00  0.00     0.060 A 
ATOM     38  C   UNL A   1      41.712  27.716  27.614  1.00  0.00     0.016 A 
ATOM     39  C   UNL A   1      42.748  26.944  29.661  1.00  0.00     0.016 A 
ATOM     40  C   UNL A   1      41.710  29.018  28.101  1.00  0.00     0.010 A 
ATOM     41  C   UNL A   1      42.713  28.248  30.158  1.00  0.00     0.010 A 
ATOM     42  C   UNL A   1      42.217  29.300  29.368  1.00  0.00    -0.014 A 
BRANCH  42  43
ATOM     43  C   UNL A   1      42.386  30.704  29.805  1.00  0.00     0.031 A 
ATOM     44  C   UNL A   1      43.535  31.482  29.244  1.00  0.00     0.074 A 
ATOM     45  C   UNL A   1      41.529  31.292  30.658  1.00  0.00     0.049 A 
ATOM     46  N   UNL A   1      44.097  32.572  29.689  1.00  0.00    -0.248 NA
ATOM     47  C   UNL A   1      44.134  30.947  28.009  1.00  0.00     0.031 C 
ATOM     48  C   UNL A   1      40.284  30.710  31.154  1.00  0.00     0.029 A 
ATOM     49  N   UNL A   1      41.596  32.518  31.272  1.00  0.00    -0.354 N 
ATOM     50  C   UNL A   1      45.164  32.815  28.833  1.00  0.00     0.074 A 
ATOM     51  C   UNL A   1      45.150  31.776  27.826  1.00  0.00     0.031 C 
ATOM     52  C   UNL A   1      39.717  31.568  32.019  1.00  0.00     0.029 A 
ATOM     53  C   UNL A   1      40.603  32.715  32.199  1.00  0.00     0.049 A 
ATOM     54  H   UNL A   1      42.288  33.189  31.068  1.00  0.00     0.167 HD
ATOM     55  C   UNL A   1      46.079  33.807  28.907  1.00  0.00     0.037 A 
ATOM     56  C   UNL A   1      40.472  33.675  33.136  1.00  0.00     0.037 A 
ATOM     57  C   UNL A   1      46.044  34.855  29.890  1.00  0.00     0.049 A 
ATOM     58  C   UNL A   1      41.545  34.726  33.261  1.00  0.00     0.074 A 
ATOM     59  C   UNL A   1      46.935  35.894  30.086  1.00  0.00     0.029 A 
ATOM     60  N   UNL A   1      45.040  35.002  30.838  1.00  0.00    -0.354 N 
ATOM     61  N   UNL A   1      42.629  34.891  32.542  1.00  0.00    -0.248 NA
ATOM     62  C   UNL A   1      41.392  35.704  34.347  1.00  0.00     0.031 C 
ATOM     63  C   UNL A   1      46.485  36.655  31.171  1.00  0.00     0.029 A 
ATOM     64  C   UNL A   1      45.293  36.112  31.626  1.00  0.00     0.049 A 
ATOM     65  H   UNL A   1      44.263  34.406  30.936  1.00  0.00     0.167 HD
ATOM     66  C   UNL A   1      43.279  35.997  33.076  1.00  0.00     0.074 A 
ATOM     67  C   UNL A   1      42.458  36.472  34.171  1.00  0.00     0.031 C 
ATOM     68  C   UNL A   1      44.449  36.567  32.700  1.00  0.00     0.037 A 
BRANCH  55  69
ATOM     69  C   UNL A   1      47.227  33.757  27.945  1.00  0.00     0.064 A 
ATOM     70  C   UNL A   1      47.219  34.465  26.735  1.00  0.00     0.173 A 
ATOM     71  C   UNL A   1      48.358  32.984  28.249  1.00  0.00     0.173 A 
ATOM     72  F   UNL A   1      46.151  35.201  26.392  1.00  0.00    -0.203 F 
ATOM     73  C   UNL A   1      48.293  34.382  25.853  1.00  0.00     0.198 A 
ATOM     74  C   UNL A   1      49.441  32.924  27.376  1.00  0.00     0.198 A 
ATOM     75  F   UNL A   1      48.414  32.287  29.393  1.00  0.00    -0.203 F 
ATOM     76  F   UNL A   1      48.248  35.030  24.680  1.00  0.00    -0.200 F 
ATOM     77  C   UNL A   1      49.405  33.617  26.176  1.00  0.00     0.200 A 
ATOM     78  F   UNL A   1      50.516  32.191  27.695  1.00  0.00    -0.200 F 
ATOM     79  F   UNL A   1      50.439  33.542  25.327  1.00  0.00    -0.200 F 
ENDBRANCH  55  69
BRANCH  56  80
ATOM     80  C   UNL A   1      39.326  33.641  34.084  1.00  0.00     0.064 A 
ATOM     81  C   UNL A   1      38.101  34.236  33.759  1.00  0.00     0.173 A 
ATOM     82  C   UNL A   1      39.439  33.026  35.341  1.00  0.00     0.173 A 
ATOM     83  F   UNL A   1      37.953  34.865  32.583  1.00  0.00    -0.203 F 
ATOM     84  C   UNL A   1      37.035  34.227  34.657  1.00  0.00     0.198 A 
ATOM     85  C   UNL A   1      38.365  32.992  36.226  1.00  0.00     0.198 A 
ATOM     86  F   UNL A   1      40.594  32.450  35.706  1.00  0.00    -0.203 F 
ATOM     87  F   UNL A   1      35.888  34.841  34.339  1.00  0.00    -0.200 F 
ATOM     88  C   UNL A   1      37.165  33.598  35.886  1.00  0.00     0.200 A 
ATOM     89  F   UNL A   1      38.493  32.375  37.409  1.00  0.00    -0.200 F 
ATOM     90  F   UNL A   1      36.138  33.584  36.747  1.00  0.00    -0.200 F 
ENDBRANCH  56  80
BRANCH  68  91
ATOM     91  C   UNL A   1      44.888  37.789  33.451  1.00  0.00     0.064 A 
ATOM     92  C   UNL A   1      45.777  37.706  34.531  1.00  0.00     0.173 A 
ATOM     93  C   UNL A   1      44.448  39.060  33.051  1.00  0.00     0.173 A 
ATOM     94  F   UNL A   1      46.212  36.510  34.958  1.00  0.00    -0.203 F 
ATOM     95  C   UNL A   1      46.196  38.853  35.198  1.00  0.00     0.198 A 
ATOM     96  C   UNL A   1      44.889  40.206  33.705  1.00  0.00     0.198 A 
ATOM     97  F   UNL A   1      43.602  39.188  32.019  1.00  0.00    -0.203 F 
ATOM     98  F   UNL A   1      47.016  38.750  36.253  1.00  0.00    -0.200 F 
ATOM     99  C   UNL A   1      45.757  40.102  34.782  1.00  0.00     0.200 A 
ATOM    100  F   UNL A   1      44.471  41.411  33.295  1.00  0.00    -0.200 F 
ATOM    101  F   UNL A   1      46.167  41.205  35.421  1.00  0.00    -0.200 F 
ENDBRANCH  68  91
ENDBRANCH  42  43
ENDBRANCH  35  37
ENDBRANCH  34  35
ENDBRANCH  33  34
ENDBRANCH  32  33
ENDBRANCH  31  32
ENDBRANCH  30  31
ENDBRANCH  29  30
ENDBRANCH  28  29
ENDBRANCH   1  28
TORSDOF 23
ENDMDL
MODEL 2
REMARK VINA RESULT:      -9.3      2.095      3.116
REMARK SMILES CC(C)(CC(=O)Nc1cccc(C(=O)NC2CC2)c1)CC(=O)OCCOCCOCCOC(=O)c1ccc(-c2c3nc(c(-c4c(F)c(F)c(F)c(F)c4F)c4ccc([nH]4)c(-c4c(F)c(F)c(F)c(F)c4F)c4nc(c(-c5c(F)c(F)c(F)c(F)c5F)c5ccc2[nH]5)C=C4)C=C3)cc1
REMARK SMILES IDX 25 1 24 2 23 3 21 4 22 5 20 6 2 7 1 8 3 9 4 10 5 11 6 12
REMARK SMILES IDX 7 13 8 15 9 16 19 17 10 18 12 19 11 20 13 21 14 22 15 23
REMARK SMILES IDX 16 25 17 26 18 27 26 28 27 29 28 30 29 31 30 32 31 33 32 34
REMARK SMILES IDX 33 35 34 36 35 37 36 38 97 39 37 40 96 41 38 42 39 43 40 44
REMARK SMILES IDX 90 45 41 46 95 47 89 48 91 49 42 50 94 51 88 52 87 53 43 55
REMARK SMILES IDX 75 56 55 57 74 58 56 59 59 60 73 61 92 62 57 63 58 64 72 66
REMARK SMILES IDX 93 67 60 68 44 69 45 70 53 71 46 72 47 73 51 74 54 75 48 76
REMARK SMILES IDX 49 77 52 78 50 79 76 80 77 81 85 82 78 83 79 84 83 85 86 86
REMARK SMILES IDX 80 87 81 88 84 89 82 90 61 91 62 92 70 93 63 94 64 95 68 96
REMARK SMILES IDX 71 97 65 98 66 99 69 100 67 101
REMARK H PARENT 7 14 15 24 91 54 59 65
REMARK Flexibility Score: inf
ROOT
ATOM      1  C   UNL A   1      37.297  21.231  25.448  1.00  0.00     0.202 C 
ENDROOT
BRANCH   1   2
ATOM      2  C   UNL A   1      35.904  21.411  24.841  1.00  0.00     0.261 C 
BRANCH   2   3
ATOM      3  O   UNL A   1      34.863  21.120  25.793  1.00  0.00    -0.463 OA
BRANCH   3   4
ATOM      4  C   UNL A   1      34.234  22.156  26.390  1.00  0.00     0.306 C 
ATOM      5  O   UNL A   1      34.705  22.836  27.292  1.00  0.00    -0.252 OA
BRANCH   4   6
ATOM      6  C   UNL A   1      32.798  22.273  25.907  1.00  0.00     0.129 C 
BRANCH   6   7
ATOM      7  C   UNL A   1      32.380  23.323  24.847  1.00  0.00    -0.016 C 
ATOM      8  C   UNL A   1      31.189  24.124  25.339  1.00  0.00     0.012 C 
ATOM      9  C   UNL A   1      31.852  22.512  23.630  1.00  0.00     0.012 C 
BRANCH   7  10
ATOM     10  C   UNL A   1      33.475  24.267  24.292  1.00  0.00     0.107 C 
BRANCH  10  11
ATOM     11  C   UNL A   1      33.646  24.588  22.820  1.00  0.00     0.224 C 
ATOM     12  O   UNL A   1      34.250  23.781  22.103  1.00  0.00    -0.275 OA
ATOM     13  N   UNL A   1      32.970  25.585  22.184  1.00  0.00    -0.326 N 
ATOM     14  H   UNL A   1      32.921  25.433  21.214  1.00  0.00     0.169 HD
BRANCH  13  15
ATOM     15  C   UNL A   1      32.326  26.776  22.559  1.00  0.00     0.041 A 
ATOM     16  C   UNL A   1      33.057  27.627  23.390  1.00  0.00     0.026 A 
ATOM     17  C   UNL A   1      30.956  27.025  22.366  1.00  0.00     0.040 A 
ATOM     18  C   UNL A   1      32.467  28.759  23.941  1.00  0.00     0.003 A 
ATOM     19  C   UNL A   1      30.334  28.163  22.907  1.00  0.00     0.041 A 
ATOM     20  C   UNL A   1      31.124  29.028  23.688  1.00  0.00     0.014 A 
BRANCH  19  21
ATOM     21  C   UNL A   1      28.880  28.536  22.822  1.00  0.00     0.251 C 
ATOM     22  O   UNL A   1      28.052  27.784  23.348  1.00  0.00    -0.269 OA
ATOM     23  N   UNL A   1      28.346  29.630  22.183  1.00  0.00    -0.349 N 
ATOM     24  H   UNL A   1      27.362  29.637  22.200  1.00  0.00     0.164 HD
BRANCH  23  25
ATOM     25  C   UNL A   1      28.891  30.746  21.507  1.00  0.00     0.082 C 
ATOM     26  C   UNL A   1      28.065  31.770  20.777  1.00  0.00     0.027 C 
ATOM     27  C   UNL A   1      28.686  32.130  22.085  1.00  0.00     0.027 C 
ENDBRANCH  23  25
ENDBRANCH  19  21
ENDBRANCH  13  15
ENDBRANCH  10  11
ENDBRANCH   7  10
ENDBRANCH   6   7
ENDBRANCH   4   6
ENDBRANCH   3   4
ENDBRANCH   2   3
ENDBRANCH   1   2
BRANCH   1  28
ATOM     28  O   UNL A   1      37.968  20.037  25.033  1.00  0.00    -0.376 OA
BRANCH  28  29
ATOM     29  C   UNL A   1      39.257  19.796  25.590  1.00  0.00     0.188 C 
BRANCH  29  30
ATOM     30  C   UNL A   1      40.007  21.031  26.090  1.00  0.00     0.188 C 
BRANCH  30  31
ATOM     31  O   UNL A   1      41.236  21.342  25.430  1.00  0.00    -0.376 OA
BRANCH  31  32
ATOM     32  C   UNL A   1      42.119  22.227  26.121  1.00  0.00     0.202 C 
BRANCH  32  33
ATOM     33  C   UNL A   1      43.250  22.713  25.221  1.00  0.00     0.261 C 
BRANCH  33  34
ATOM     34  O   UNL A   1      44.247  23.342  26.036  1.00  0.00    -0.460 OA
BRANCH  34  35
ATOM     35  C   UNL A   1      44.933  24.323  25.419  1.00  0.00     0.338 C 
ATOM     36  O   UNL A   1      45.719  24.214  24.482  1.00  0.00    -0.246 OA
BRANCH  35  37
ATOM     37  C   UNL A   1      44.588  25.589  26.070  1.00  0.00     0.060 A 
ATOM     38  C   UNL A   1      43.816  26.522  25.378  1.00  0.00     0.016 A 
ATOM     39  C   UNL A   1      45.072  25.878  27.345  1.00  0.00     0.016 A 
ATOM     40  C   UNL A   1      43.558  27.765  25.945  1.00  0.00     0.010 A 
ATOM     41  C   UNL A   1      44.782  27.115  27.923  1.00  0.00     0.010 A 
ATOM     42  C   UNL A   1      44.044  28.079  27.213  1.00  0.00    -0.014 A 
BRANCH  42  43
ATOM     43  C   UNL A   1      43.929  29.460  27.731  1.00  0.00     0.031 A 
ATOM     44  C   UNL A   1      45.079  30.393  27.510  1.00  0.00     0.074 A 
ATOM     45  C   UNL A   1      42.823  29.896  28.361  1.00  0.00     0.049 A 
ATOM     46  N   UNL A   1      45.379  31.505  28.124  1.00  0.00    -0.248 NA
ATOM     47  C   UNL A   1      46.025  30.009  26.448  1.00  0.00     0.031 C 
ATOM     48  C   UNL A   1      41.574  29.152  28.503  1.00  0.00     0.029 A 
ATOM     49  N   UNL A   1      42.589  31.078  29.018  1.00  0.00    -0.354 N 
ATOM     50  C   UNL A   1      46.586  31.917  27.576  1.00  0.00     0.074 A 
ATOM     51  C   UNL A   1      46.948  30.952  26.560  1.00  0.00     0.031 C 
ATOM     52  C   UNL A   1      40.711  29.884  29.228  1.00  0.00     0.029 A 
ATOM     53  C   UNL A   1      41.381  31.105  29.670  1.00  0.00     0.049 A 
ATOM     54  H   UNL A   1      43.223  31.831  29.022  1.00  0.00     0.167 HD
ATOM     55  C   UNL A   1      47.329  32.994  27.918  1.00  0.00     0.037 A 
ATOM     56  C   UNL A   1      40.907  31.981  30.578  1.00  0.00     0.037 A 
ATOM     57  C   UNL A   1      46.926  33.964  28.899  1.00  0.00     0.049 A 
ATOM     58  C   UNL A   1      41.782  33.129  31.011  1.00  0.00     0.074 A 
ATOM     59  C   UNL A   1      47.609  35.076  29.353  1.00  0.00     0.029 A 
ATOM     60  N   UNL A   1      45.708  33.939  29.566  1.00  0.00    -0.354 N 
ATOM     61  N   UNL A   1      42.982  33.457  30.598  1.00  0.00    -0.248 NA
ATOM     62  C   UNL A   1      41.248  34.011  32.060  1.00  0.00     0.031 C 
ATOM     63  C   UNL A   1      46.817  35.711  30.317  1.00  0.00     0.029 A 
ATOM     64  C   UNL A   1      45.623  35.014  30.433  1.00  0.00     0.049 A 
ATOM     65  H   UNL A   1      45.009  33.258  29.441  1.00  0.00     0.167 HD
ATOM     66  C   UNL A   1      43.341  34.588  31.320  1.00  0.00     0.074 A 
ATOM     67  C   UNL A   1      42.224  34.898  32.189  1.00  0.00     0.031 C 
ATOM     68  C   UNL A   1      44.491  35.304  31.275  1.00  0.00     0.037 A 
BRANCH  55  69
ATOM     69  C   UNL A   1      48.676  33.131  27.276  1.00  0.00     0.064 A 
ATOM     70  C   UNL A   1      48.894  33.956  26.165  1.00  0.00     0.173 A 
ATOM     71  C   UNL A   1      49.771  32.421  27.795  1.00  0.00     0.173 A 
ATOM     72  F   UNL A   1      47.875  34.639  25.622  1.00  0.00    -0.203 F 
ATOM     73  C   UNL A   1      50.155  34.047  25.579  1.00  0.00     0.198 A 
ATOM     74  C   UNL A   1      51.034  32.534  27.223  1.00  0.00     0.198 A 
ATOM     75  F   UNL A   1      49.614  31.617  28.857  1.00  0.00    -0.203 F 
ATOM     76  F   UNL A   1      50.333  34.807  24.489  1.00  0.00    -0.200 F 
ATOM     77  C   UNL A   1      51.224  33.341  26.112  1.00  0.00     0.200 A 
ATOM     78  F   UNL A   1      52.067  31.858  27.744  1.00  0.00    -0.200 F 
ATOM     79  F   UNL A   1      52.437  33.433  25.549  1.00  0.00    -0.200 F 
ENDBRANCH  55  69
BRANCH  56  80
ATOM     80  C   UNL A   1      39.575  31.761  31.203  1.00  0.00     0.064 A 
ATOM     81  C   UNL A   1      39.443  31.008  32.376  1.00  0.00     0.173 A 
ATOM     82  C   UNL A   1      38.406  32.286  30.630  1.00  0.00     0.173 A 
ATOM     83  F   UNL A   1      40.526  30.457  32.944  1.00  0.00    -0.203 F 
ATOM     84  C   UNL A   1      38.192  30.779  32.948  1.00  0.00     0.198 A 
ATOM     85  C   UNL A   1      37.161  32.082  31.218  1.00  0.00     0.198 A 
ATOM     86  F   UNL A   1      38.476  33.006  29.500  1.00  0.00    -0.203 F 
ATOM     87  F   UNL A   1      38.088  30.019  34.046  1.00  0.00    -0.200 F 
ATOM     88  C   UNL A   1      37.053  31.324  32.373  1.00  0.00     0.200 A 
ATOM     89  F   UNL A   1      36.064  32.618  30.663  1.00  0.00    -0.200 F 
ATOM     90  F   UNL A   1      35.852  31.109  32.926  1.00  0.00    -0.200 F 
ENDBRANCH  56  80
BRANCH  68  91
ATOM     91  C   UNL A   1      44.580  36.512  32.158  1.00  0.00     0.064 A 
ATOM     92  C   UNL A   1      44.159  37.775  31.718  1.00  0.00     0.173 A 
ATOM     93  C   UNL A   1      45.049  36.393  33.475  1.00  0.00     0.173 A 
ATOM     94  F   UNL A   1      43.719  37.940  30.461  1.00  0.00    -0.203 F 
ATOM     95  C   UNL A   1      44.223  38.881  32.561  1.00  0.00     0.198 A 
ATOM     96  C   UNL A   1      45.087  37.496  34.322  1.00  0.00     0.198 A 
ATOM     97  F   UNL A   1      45.456  35.204  33.942  1.00  0.00    -0.203 F 
ATOM     98  F   UNL A   1      43.852  40.087  32.109  1.00  0.00    -0.200 F 
ATOM     99  C   UNL A   1      44.680  38.740  33.863  1.00  0.00     0.200 A 
ATOM    100  F   UNL A   1      45.520  37.356  35.582  1.00  0.00    -0.200 F 
ATOM    101  F   UNL A   1      44.734  39.805  34.675  1.00  0.00    -0.200 F 
ENDBRANCH  68  91
ENDBRANCH  42  43
ENDBRANCH  35  37
ENDBRANCH  34  35
ENDBRANCH  33  34
ENDBRANCH  32  33
ENDBRANCH  31  32
ENDBRANCH  30  31
ENDBRANCH  29  30
ENDBRANCH  28  29
ENDBRANCH   1  28
TORSDOF 23
ENDMDL
MODEL 3
REMARK VINA RESULT:      -9.1      1.988      3.068
REMARK SMILES CC(C)(CC(=O)Nc1cccc(C(=O)NC2CC2)c1)CC(=O)OCCOCCOCCOC(=O)c1ccc(-c2c3nc(c(-c4c(F)c(F)c(F)c(F)c4F)c4ccc([nH]4)c(-c4c(F)c(F)c(F)c(F)c4F)c4nc(c(-c5c(F)c(F)c(F)c(F)c5F)c5ccc2[nH]5)C=C4)C=C3)cc1
REMARK SMILES IDX 25 1 24 2 23 3 21 4 22 5 20 6 2 7 1 8 3 9 4 10 5 11 6 12
REMARK SMILES IDX 7 13 8 15 9 16 19 17 10 18 12 19 11 20 13 21 14 22 15 23
REMARK SMILES IDX 16 25 17 26 18 27 26 28 27 29 28 30 29 31 30 32 31 33 32 34
REMARK SMILES IDX 33 35 34 36 35 37 36 38 97 39 37 40 96 41 38 42 39 43 40 44
REMARK SMILES IDX 90 45 41 46 95 47 89 48 91 49 42 50 94 51 88 52 87 53 43 55
REMARK SMILES IDX 75 56 55 57 74 58 56 59 59 60 73 61 92 62 57 63 58 64 72 66
REMARK SMILES IDX 93 67 60 68 44 69 45 70 53 71 46 72 47 73 51 74 54 75 48 76
REMARK SMILES IDX 49 77 52 78 50 79 76 80 77 81 85 82 78 83 79 84 83 85 86 86
REMARK SMILES IDX 80 87 81 88 84 89 82 90 61 91 62 92 70 93 63 94 64 95 68 96
REMARK SMILES IDX 71 97 65 98 66 99 69 100 67 101
REMARK H PARENT 7 14 15 24 91 54 59 65
REMARK Flexibility Score: inf
ROOT
ATOM      1  C   UNL A   1      37.946  22.165  26.149  1.00  0.00     0.202 C 
ENDROOT
BRANCH   1   2
ATOM      2  C   UNL A   1      37.484  22.814  24.844  1.00  0.00     0.261 C 
BRANCH   2   3
ATOM      3  O   UNL A   1      36.547  21.980  24.133  1.00  0.00    -0.463 OA
BRANCH   3   4
ATOM      4  C   UNL A   1      35.339  21.754  24.693  1.00  0.00     0.306 C 
ATOM      5  O   UNL A   1      35.032  20.744  25.313  1.00  0.00    -0.252 OA
BRANCH   4   6
ATOM      6  C   UNL A   1      34.352  22.847  24.320  1.00  0.00     0.129 C 
BRANCH   6   7
ATOM      7  C   UNL A   1      33.708  23.761  25.393  1.00  0.00    -0.016 C 
ATOM      8  C   UNL A   1      34.437  25.089  25.462  1.00  0.00     0.012 C 
ATOM      9  C   UNL A   1      33.985  23.073  26.761  1.00  0.00     0.012 C 
BRANCH   7  10
ATOM     10  C   UNL A   1      32.177  23.986  25.329  1.00  0.00     0.107 C 
BRANCH  10  11
ATOM     11  C   UNL A   1      31.340  24.438  26.509  1.00  0.00     0.224 C 
ATOM     12  O   UNL A   1      30.822  23.580  27.233  1.00  0.00    -0.275 OA
ATOM     13  N   UNL A   1      31.318  25.720  26.969  1.00  0.00    -0.326 N 
ATOM     14  H   UNL A   1      31.030  25.767  27.908  1.00  0.00     0.169 HD
BRANCH  13  15
ATOM     15  C   UNL A   1      31.602  26.993  26.446  1.00  0.00     0.041 A 
ATOM     16  C   UNL A   1      31.699  28.026  27.381  1.00  0.00     0.026 A 
ATOM     17  C   UNL A   1      31.539  27.316  25.079  1.00  0.00     0.040 A 
ATOM     18  C   UNL A   1      31.830  29.347  26.967  1.00  0.00     0.003 A 
ATOM     19  C   UNL A   1      31.673  28.641  24.631  1.00  0.00     0.041 A 
ATOM     20  C   UNL A   1      31.831  29.645  25.606  1.00  0.00     0.014 A 
BRANCH  19  21
ATOM     21  C   UNL A   1      31.583  29.140  23.217  1.00  0.00     0.251 C 
ATOM     22  O   UNL A   1      32.597  29.085  22.511  1.00  0.00    -0.269 OA
ATOM     23  N   UNL A   1      30.482  29.695  22.606  1.00  0.00    -0.349 N 
ATOM     24  H   UNL A   1      30.672  30.012  21.695  1.00  0.00     0.164 HD
BRANCH  23  25
ATOM     25  C   UNL A   1      29.139  29.912  22.994  1.00  0.00     0.082 C 
ATOM     26  C   UNL A   1      27.981  29.922  22.035  1.00  0.00     0.027 C 
ATOM     27  C   UNL A   1      28.163  28.756  22.948  1.00  0.00     0.027 C 
ENDBRANCH  23  25
ENDBRANCH  19  21
ENDBRANCH  13  15
ENDBRANCH  10  11
ENDBRANCH   7  10
ENDBRANCH   6   7
ENDBRANCH   4   6
ENDBRANCH   3   4
ENDBRANCH   2   3
ENDBRANCH   1   2
BRANCH   1  28
ATOM     28  O   UNL A   1      38.649  20.930  25.974  1.00  0.00    -0.376 OA
BRANCH  28  29
ATOM     29  C   UNL A   1      40.060  21.012  25.792  1.00  0.00     0.188 C 
BRANCH  29  30
ATOM     30  C   UNL A   1      40.805  21.920  26.770  1.00  0.00     0.188 C 
BRANCH  30  31
ATOM     31  O   UNL A   1      41.631  22.935  26.196  1.00  0.00    -0.376 OA
BRANCH  31  32
ATOM     32  C   UNL A   1      42.915  23.120  26.795  1.00  0.00     0.202 C 
BRANCH  32  33
ATOM     33  C   UNL A   1      44.038  23.013  25.769  1.00  0.00     0.261 C 
BRANCH  33  34
ATOM     34  O   UNL A   1      45.280  23.325  26.412  1.00  0.00    -0.460 OA
BRANCH  34  35
ATOM     35  C   UNL A   1      45.974  24.320  25.830  1.00  0.00     0.338 C 
ATOM     36  O   UNL A   1      46.857  24.224  24.983  1.00  0.00    -0.246 OA
BRANCH  35  37
ATOM     37  C   UNL A   1      45.498  25.587  26.393  1.00  0.00     0.060 A 
ATOM     38  C   UNL A   1      44.786  26.469  25.580  1.00  0.00     0.016 A 
ATOM     39  C   UNL A   1      45.801  25.928  27.710  1.00  0.00     0.016 A 
ATOM     40  C   UNL A   1      44.408  27.713  26.071  1.00  0.00     0.010 A 
ATOM     41  C   UNL A   1      45.391  27.166  28.208  1.00  0.00     0.010 A 
ATOM     42  C   UNL A   1      44.713  28.079  27.381  1.00  0.00    -0.014 A 
BRANCH  42  43
ATOM     43  C   UNL A   1      44.478  29.467  27.838  1.00  0.00     0.031 A 
ATOM     44  C   UNL A   1      45.562  30.475  27.610  1.00  0.00     0.074 A 
ATOM     45  C   UNL A   1      43.323  29.841  28.417  1.00  0.00     0.049 A 
ATOM     46  N   UNL A   1      45.757  31.630  28.186  1.00  0.00    -0.248 NA
ATOM     47  C   UNL A   1      46.566  30.124  26.593  1.00  0.00     0.031 C 
ATOM     48  C   UNL A   1      42.130  29.009  28.554  1.00  0.00     0.029 A 
ATOM     49  N   UNL A   1      42.980  31.026  29.017  1.00  0.00    -0.354 N 
ATOM     50  C   UNL A   1      46.946  32.112  27.656  1.00  0.00     0.074 A 
ATOM     51  C   UNL A   1      47.411  31.138  26.692  1.00  0.00     0.031 C 
ATOM     52  C   UNL A   1      41.192  29.701  29.223  1.00  0.00     0.029 A 
ATOM     53  C   UNL A   1      41.754  30.986  29.633  1.00  0.00     0.049 A 
ATOM     54  H   UNL A   1      43.556  31.825  29.008  1.00  0.00     0.167 HD
ATOM     55  C   UNL A   1      47.595  33.255  27.974  1.00  0.00     0.037 A 
ATOM     56  C   UNL A   1      41.187  31.858  30.490  1.00  0.00     0.037 A 
ATOM     57  C   UNL A   1      47.089  34.229  28.902  1.00  0.00     0.049 A 
ATOM     58  C   UNL A   1      41.959  33.086  30.901  1.00  0.00     0.074 A 
ATOM     59  C   UNL A   1      47.671  35.408  29.329  1.00  0.00     0.029 A 
ATOM     60  N   UNL A   1      45.856  34.137  29.535  1.00  0.00    -0.354 N 
ATOM     61  N   UNL A   1      43.143  33.489  30.508  1.00  0.00    -0.248 NA
ATOM     62  C   UNL A   1      41.327  33.964  31.896  1.00  0.00     0.031 C 
ATOM     63  C   UNL A   1      46.803  36.016  30.243  1.00  0.00     0.029 A 
ATOM     64  C   UNL A   1      45.663  35.236  30.354  1.00  0.00     0.049 A 
ATOM     65  H   UNL A   1      45.215  33.400  29.418  1.00  0.00     0.167 HD
ATOM     66  C   UNL A   1      43.393  34.671  31.193  1.00  0.00     0.074 A 
ATOM     67  C   UNL A   1      42.229  34.928  32.016  1.00  0.00     0.031 C 
ATOM     68  C   UNL A   1      44.486  35.470  31.151  1.00  0.00     0.037 A 
BRANCH  55  69
ATOM     69  C   UNL A   1      48.947  33.470  27.366  1.00  0.00     0.064 A 
ATOM     70  C   UNL A   1      50.123  33.021  27.980  1.00  0.00     0.173 A 
ATOM     71  C   UNL A   1      49.060  34.139  26.136  1.00  0.00     0.173 A 
ATOM     72  F   UNL A   1      50.068  32.395  29.166  1.00  0.00    -0.203 F 
ATOM     73  C   UNL A   1      51.367  33.255  27.398  1.00  0.00     0.198 A 
ATOM     74  C   UNL A   1      50.302  34.348  25.545  1.00  0.00     0.198 A 
ATOM     75  F   UNL A   1      47.964  34.590  25.508  1.00  0.00    -0.203 F 
ATOM     76  F   UNL A   1      52.484  32.857  28.024  1.00  0.00    -0.200 F 
ATOM     77  C   UNL A   1      51.455  33.912  26.179  1.00  0.00     0.200 A 
ATOM     78  F   UNL A   1      50.383  34.976  24.364  1.00  0.00    -0.200 F 
ATOM     79  F   UNL A   1      52.653  34.132  25.620  1.00  0.00    -0.200 F 
ENDBRANCH  55  69
BRANCH  56  80
ATOM     80  C   UNL A   1      39.856  31.561  31.086  1.00  0.00     0.064 A 
ATOM     81  C   UNL A   1      38.679  32.043  30.501  1.00  0.00     0.173 A 
ATOM     82  C   UNL A   1      39.737  30.802  32.261  1.00  0.00     0.173 A 
ATOM     83  F   UNL A   1      38.743  32.801  29.395  1.00  0.00    -0.203 F 
ATOM     84  C   UNL A   1      37.434  31.788  31.072  1.00  0.00     0.198 A 
ATOM     85  C   UNL A   1      38.491  30.522  32.815  1.00  0.00     0.198 A 
ATOM     86  F   UNL A   1      40.834  30.325  32.867  1.00  0.00    -0.203 F 
ATOM     87  F   UNL A   1      36.326  32.297  30.517  1.00  0.00    -0.200 F 
ATOM     88  C   UNL A   1      37.340  31.021  32.224  1.00  0.00     0.200 A 
ATOM     89  F   UNL A   1      38.405  29.773  33.923  1.00  0.00    -0.200 F 
ATOM     90  F   UNL A   1      36.142  30.770  32.770  1.00  0.00    -0.200 F 
ENDBRANCH  56  80
BRANCH  68  91
ATOM     91  C   UNL A   1      44.456  36.716  31.985  1.00  0.00     0.064 A 
ATOM     92  C   UNL A   1      43.963  37.926  31.478  1.00  0.00     0.173 A 
ATOM     93  C   UNL A   1      44.883  36.683  33.321  1.00  0.00     0.173 A 
ATOM     94  F   UNL A   1      43.559  38.009  30.201  1.00  0.00    -0.203 F 
ATOM     95  C   UNL A   1      43.916  39.066  32.276  1.00  0.00     0.198 A 
ATOM     96  C   UNL A   1      44.811  37.818  34.122  1.00  0.00     0.198 A 
ATOM     97  F   UNL A   1      45.356  35.545  33.851  1.00  0.00    -0.203 F 
ATOM     98  F   UNL A   1      43.477  40.223  31.761  1.00  0.00    -0.200 F 
ATOM     99  C   UNL A   1      44.334  39.010  33.598  1.00  0.00     0.200 A 
ATOM    100  F   UNL A   1      45.205  37.759  35.401  1.00  0.00    -0.200 F 
ATOM    101  F   UNL A   1      44.281  40.107  34.366  1.00  0.00    -0.200 F 
ENDBRANCH  68  91
ENDBRANCH  42  43
ENDBRANCH  35  37
ENDBRANCH  34  35
ENDBRANCH  33  34
ENDBRANCH  32  33
ENDBRANCH  31  32
ENDBRANCH  30  31
ENDBRANCH  29  30
ENDBRANCH  28  29
ENDBRANCH   1  28
TORSDOF 23
ENDMDL
