MODEL 1
REMARK VINA RESULT:     -11.1      0.000      0.000
REMARK SMILES O=C(OCCOCCOCCOC(=O)[C@H]1Cc2cc(Cl)ccc2O1)c1ccc(-c2c3nc(c(-c4c(F)c(F)c(F)c(F)c4F)c4ccc([nH]4)c(-c4c(F)c(F)c(F)c(F)c4F)c4nc(c(-c5c(F)c(F)c(F)c(F)c5F)c5ccc2[nH]5)C=C4)C=C3)cc1
REMARK SMILES IDX 7 1 6 2 5 3 4 4 3 5 2 6 1 7 25 8 26 9 87 10 27 11 86 12
REMARK SMILES IDX 28 13 29 14 30 15 80 16 31 17 85 18 79 19 81 20 32 21 84 22
REMARK SMILES IDX 78 23 77 24 33 26 65 27 45 28 64 29 46 30 49 31 63 32 82 33
REMARK SMILES IDX 47 34 48 35 62 37 83 38 50 39 34 40 35 41 43 42 36 43 37 44
REMARK SMILES IDX 41 45 44 46 38 47 39 48 42 49 40 50 66 51 67 52 75 53 68 54
REMARK SMILES IDX 69 55 73 56 76 57 70 58 71 59 74 60 72 61 51 62 52 63 60 64
REMARK SMILES IDX 53 65 54 66 58 67 61 68 55 69 56 70 59 71 57 72 8 73 9 74
REMARK SMILES IDX 10 75 11 76 12 77 13 78 14 79 15 80 16 81 24 82 17 83 23 84
REMARK SMILES IDX 18 85 22 86 19 87 21 88 20 89
REMARK H PARENT 81 25 49 36
REMARK Flexibility Score: inf
ROOT
ATOM      1  C   UNL A   1      42.733  19.471  26.421  1.00  0.00     0.188 C 
ENDROOT
BRANCH   1   2
ATOM      2  O   UNL A   1      41.608  20.239  25.972  1.00  0.00    -0.376 OA
BRANCH   2   3
ATOM      3  C   UNL A   1      40.818  20.778  27.034  1.00  0.00     0.202 C 
BRANCH   3   4
ATOM      4  C   UNL A   1      40.449  22.262  26.903  1.00  0.00     0.261 C 
BRANCH   4   5
ATOM      5  O   UNL A   1      41.313  23.005  26.034  1.00  0.00    -0.460 OA
BRANCH   5   6
ATOM      6  C   UNL A   1      41.604  24.328  26.050  1.00  0.00     0.338 C 
ATOM      7  O   UNL A   1      42.614  24.693  25.448  1.00  0.00    -0.246 OA
BRANCH   6   8
ATOM      8  C   UNL A   1      40.874  25.364  26.862  1.00  0.00     0.060 A 
ATOM      9  C   UNL A   1      41.167  26.711  26.561  1.00  0.00     0.016 A 
ATOM     10  C   UNL A   1      40.010  25.127  27.928  1.00  0.00     0.016 A 
ATOM     11  C   UNL A   1      40.730  27.765  27.375  1.00  0.00     0.010 A 
ATOM     12  C   UNL A   1      39.580  26.168  28.756  1.00  0.00     0.010 A 
ATOM     13  C   UNL A   1      40.021  27.497  28.558  1.00  0.00    -0.014 A 
BRANCH  13  14
ATOM     14  C   UNL A   1      39.563  28.655  29.683  1.00  0.00     0.031 A 
ATOM     15  C   UNL A   1      37.762  29.854  29.802  1.00  0.00     0.074 A 
ATOM     16  C   UNL A   1      40.848  28.608  30.417  1.00  0.00     0.049 A 
ATOM     17  N   UNL A   1      37.471  30.951  30.636  1.00  0.00    -0.248 NA
ATOM     18  C   UNL A   1      36.296  29.881  29.028  1.00  0.00     0.031 C 
ATOM     19  C   UNL A   1      41.841  27.492  30.513  1.00  0.00     0.029 A 
ATOM     20  N   UNL A   1      41.418  29.472  31.374  1.00  0.00    -0.354 N 
ATOM     21  C   UNL A   1      36.412  31.727  30.327  1.00  0.00     0.074 A 
ATOM     22  C   UNL A   1      35.717  31.049  29.288  1.00  0.00     0.031 C 
ATOM     23  C   UNL A   1      42.619  27.650  31.604  1.00  0.00     0.029 A 
ATOM     24  C   UNL A   1      42.245  28.881  32.272  1.00  0.00     0.049 A 
ATOM     25  H   UNL A   1      41.229  30.438  31.390  1.00  0.00     0.167 HD
ATOM     26  C   UNL A   1      36.185  32.933  30.904  1.00  0.00     0.037 A 
ATOM     27  C   UNL A   1      42.533  29.302  33.519  1.00  0.00     0.037 A 
ATOM     28  C   UNL A   1      36.941  33.439  32.050  1.00  0.00     0.049 A 
ATOM     29  C   UNL A   1      41.799  30.506  34.130  1.00  0.00     0.074 A 
ATOM     30  C   UNL A   1      36.716  34.584  32.789  1.00  0.00     0.029 A 
ATOM     31  N   UNL A   1      38.046  32.811  32.654  1.00  0.00    -0.354 N 
ATOM     32  N   UNL A   1      40.805  31.241  33.667  1.00  0.00    -0.248 NA
ATOM     33  C   UNL A   1      42.230  30.890  35.478  1.00  0.00     0.031 C 
ATOM     34  C   UNL A   1      37.676  34.650  33.812  1.00  0.00     0.029 A 
ATOM     35  C   UNL A   1      38.487  33.518  33.769  1.00  0.00     0.049 A 
ATOM     36  H   UNL A   1      38.455  31.976  32.328  1.00  0.00     0.167 HD
ATOM     37  C   UNL A   1      40.455  32.144  34.677  1.00  0.00     0.074 A 
ATOM     38  C   UNL A   1      41.362  31.845  35.781  1.00  0.00     0.031 C 
ATOM     39  C   UNL A   1      39.504  33.128  34.747  1.00  0.00     0.037 A 
BRANCH  26  40
ATOM     40  C   UNL A   1      35.159  33.790  30.227  1.00  0.00     0.064 A 
ATOM     41  C   UNL A   1      35.304  34.224  28.902  1.00  0.00     0.173 A 
ATOM     42  C   UNL A   1      34.067  34.288  30.957  1.00  0.00     0.173 A 
ATOM     43  F   UNL A   1      36.319  33.770  28.149  1.00  0.00    -0.203 F 
ATOM     44  C   UNL A   1      34.470  35.203  28.371  1.00  0.00     0.198 A 
ATOM     45  C   UNL A   1      33.200  35.227  30.404  1.00  0.00     0.198 A 
ATOM     46  F   UNL A   1      33.857  33.896  32.224  1.00  0.00    -0.203 F 
ATOM     47  F   UNL A   1      34.717  35.695  27.150  1.00  0.00    -0.200 F 
ATOM     48  C   UNL A   1      33.422  35.707  29.124  1.00  0.00     0.200 A 
ATOM     49  F   UNL A   1      32.170  35.693  31.125  1.00  0.00    -0.200 F 
ATOM     50  F   UNL A   1      32.637  36.671  28.621  1.00  0.00    -0.200 F 
ENDBRANCH  26  40
BRANCH  27  51
ATOM     51  C   UNL A   1      43.454  28.462  34.327  1.00  0.00     0.064 A 
ATOM     52  C   UNL A   1      43.003  27.323  35.009  1.00  0.00     0.173 A 
ATOM     53  C   UNL A   1      44.826  28.749  34.369  1.00  0.00     0.173 A 
ATOM     54  F   UNL A   1      41.700  27.010  35.008  1.00  0.00    -0.203 F 
ATOM     55  C   UNL A   1      43.892  26.505  35.706  1.00  0.00     0.198 A 
ATOM     56  C   UNL A   1      45.716  27.917  35.042  1.00  0.00     0.198 A 
ATOM     57  F   UNL A   1      45.305  29.825  33.727  1.00  0.00    -0.203 F 
ATOM     58  F   UNL A   1      43.436  25.435  36.370  1.00  0.00    -0.200 F 
ATOM     59  C   UNL A   1      45.249  26.797  35.713  1.00  0.00     0.200 A 
ATOM     60  F   UNL A   1      47.026  28.194  35.029  1.00  0.00    -0.200 F 
ATOM     61  F   UNL A   1      46.105  25.999  36.363  1.00  0.00    -0.200 F 
ENDBRANCH  27  51
BRANCH  39  62
ATOM     62  C   UNL A   1      39.524  33.965  36.021  1.00  0.00     0.064 A 
ATOM     63  C   UNL A   1      40.253  35.166  36.097  1.00  0.00     0.173 A 
ATOM     64  C   UNL A   1      38.754  33.607  37.140  1.00  0.00     0.173 A 
ATOM     65  F   UNL A   1      41.016  35.557  35.065  1.00  0.00    -0.203 F 
ATOM     66  C   UNL A   1      40.231  35.956  37.246  1.00  0.00     0.198 A 
ATOM     67  C   UNL A   1      38.705  34.419  38.274  1.00  0.00     0.198 A 
ATOM     68  F   UNL A   1      38.030  32.478  37.130  1.00  0.00    -0.203 F 
ATOM     69  F   UNL A   1      40.975  37.070  37.305  1.00  0.00    -0.200 F 
ATOM     70  C   UNL A   1      39.449  35.588  38.329  1.00  0.00     0.200 A 
ATOM     71  F   UNL A   1      37.934  34.073  39.315  1.00  0.00    -0.200 F 
ATOM     72  F   UNL A   1      39.414  36.360  39.425  1.00  0.00    -0.200 F 
ENDBRANCH  39  62
ENDBRANCH  13  14
ENDBRANCH   6   8
ENDBRANCH   5   6
ENDBRANCH   4   5
ENDBRANCH   3   4
ENDBRANCH   2   3
ENDBRANCH   1   2
BRANCH   1  73
ATOM     73  C   UNL A   1      43.376  18.693  25.268  1.00  0.00     0.188 C 
BRANCH  73  74
ATOM     74  O   UNL A   1      44.637  18.088  25.542  1.00  0.00    -0.376 OA
BRANCH  74  75
ATOM     75  C   UNL A   1      45.800  18.890  25.377  1.00  0.00     0.202 C 
BRANCH  75  76
ATOM     76  C   UNL A   1      45.782  19.951  24.268  1.00  0.00     0.261 C 
BRANCH  76  77
ATOM     77  O   UNL A   1      45.052  21.163  24.553  1.00  0.00    -0.460 OA
BRANCH  77  78
ATOM     78  C   UNL A   1      45.828  22.240  24.845  1.00  0.00     0.347 C 
ATOM     79  O   UNL A   1      46.567  22.801  24.037  1.00  0.00    -0.248 OA
BRANCH  78  80
ATOM     80  C   UNL A   1      45.658  22.775  26.269  1.00  0.00     0.287 C 
ATOM     81  C   UNL A   1      46.061  24.287  26.291  1.00  0.00     0.097 C 
ATOM     82  O   UNL A   1      44.443  22.477  27.039  1.00  0.00    -0.478 OA
ATOM     83  C   UNL A   1      45.692  24.596  27.697  1.00  0.00    -0.000 A 
ATOM     84  C   UNL A   1      44.551  23.306  28.137  1.00  0.00     0.124 A 
ATOM     85  C   UNL A   1      46.265  25.801  28.924  1.00  0.00     0.028 A 
ATOM     86  C   UNL A   1      43.921  23.173  29.815  1.00  0.00     0.048 A 
ATOM     87  C   UNL A   1      45.677  25.704  30.618  1.00  0.00     0.041 A 
ATOM     88  C   UNL A   1      44.518  24.407  31.102  1.00  0.00     0.024 A 
ATOM     89  Cl  UNL A   1      46.228  26.834  31.784  1.00  0.00    -0.084 Cl
ENDBRANCH  78  80
ENDBRANCH  77  78
ENDBRANCH  76  77
ENDBRANCH  75  76
ENDBRANCH  74  75
ENDBRANCH  73  74
ENDBRANCH   1  73
TORSDOF 17
ENDMDL
MODEL 2
REMARK VINA RESULT:     -10.8      3.882      5.268
REMARK SMILES O=C(OCCOCCOCCOC(=O)[C@H]1Cc2cc(Cl)ccc2O1)c1ccc(-c2c3nc(c(-c4c(F)c(F)c(F)c(F)c4F)c4ccc([nH]4)c(-c4c(F)c(F)c(F)c(F)c4F)c4nc(c(-c5c(F)c(F)c(F)c(F)c5F)c5ccc2[nH]5)C=C4)C=C3)cc1
REMARK SMILES IDX 7 1 6 2 5 3 4 4 3 5 2 6 1 7 25 8 26 9 87 10 27 11 86 12
REMARK SMILES IDX 28 13 29 14 30 15 80 16 31 17 85 18 79 19 81 20 32 21 84 22
REMARK SMILES IDX 78 23 77 24 33 26 65 27 45 28 64 29 46 30 49 31 63 32 82 33
REMARK SMILES IDX 47 34 48 35 62 37 83 38 50 39 34 40 35 41 43 42 36 43 37 44
REMARK SMILES IDX 41 45 44 46 38 47 39 48 42 49 40 50 66 51 67 52 75 53 68 54
REMARK SMILES IDX 69 55 73 56 76 57 70 58 71 59 74 60 72 61 51 62 52 63 60 64
REMARK SMILES IDX 53 65 54 66 58 67 61 68 55 69 56 70 59 71 57 72 8 73 9 74
REMARK SMILES IDX 10 75 11 76 12 77 13 78 14 79 15 80 16 81 24 82 17 83 23 84
REMARK SMILES IDX 18 85 22 86 19 87 21 88 20 89
REMARK H PARENT 81 25 49 36
REMARK Flexibility Score: inf
ROOT
ATOM      1  C   UNL A   1      44.163  18.822  25.304  1.00  0.00     0.188 C 
ENDROOT
BRANCH   1   2
ATOM      2  O   UNL A   1      42.742  18.968  25.176  1.00  0.00    -0.376 OA
BRANCH   2   3
ATOM      3  C   UNL A   1      42.058  19.069  26.428  1.00  0.00     0.202 C 
BRANCH   3   4
ATOM      4  C   UNL A   1      40.769  19.903  26.417  1.00  0.00     0.261 C 
BRANCH   4   5
ATOM      5  O   UNL A   1      40.976  21.303  26.636  1.00  0.00    -0.460 OA
BRANCH   5   6
ATOM      6  C   UNL A   1      40.060  22.299  26.704  1.00  0.00     0.338 C 
ATOM      7  O   UNL A   1      38.896  22.018  26.417  1.00  0.00    -0.246 OA
BRANCH   6   8
ATOM      8  C   UNL A   1      40.375  23.748  26.962  1.00  0.00     0.060 A 
ATOM      9  C   UNL A   1      41.191  24.017  28.081  1.00  0.00     0.016 A 
ATOM     10  C   UNL A   1      39.877  24.844  26.262  1.00  0.00     0.016 A 
ATOM     11  C   UNL A   1      41.382  25.320  28.563  1.00  0.00     0.010 A 
ATOM     12  C   UNL A   1      40.049  26.146  26.740  1.00  0.00     0.010 A 
ATOM     13  C   UNL A   1      40.715  26.400  27.961  1.00  0.00    -0.014 A 
BRANCH  13  14
ATOM     14  C   UNL A   1      40.753  27.981  28.524  1.00  0.00     0.031 A 
ATOM     15  C   UNL A   1      39.182  29.196  29.390  1.00  0.00     0.074 A 
ATOM     16  C   UNL A   1      42.152  28.214  28.098  1.00  0.00     0.049 A 
ATOM     17  N   UNL A   1      39.175  30.574  29.683  1.00  0.00    -0.248 NA
ATOM     18  C   UNL A   1      37.635  28.938  29.925  1.00  0.00     0.031 C 
ATOM     19  C   UNL A   1      43.254  27.222  27.893  1.00  0.00     0.029 A 
ATOM     20  N   UNL A   1      42.910  29.395  27.957  1.00  0.00    -0.354 N 
ATOM     21  C   UNL A   1      37.992  31.170  29.933  1.00  0.00     0.074 A 
ATOM     22  C   UNL A   1      37.039  30.121  30.041  1.00  0.00     0.031 C 
ATOM     23  C   UNL A   1      44.454  27.836  27.958  1.00  0.00     0.029 A 
ATOM     24  C   UNL A   1      44.245  29.257  28.157  1.00  0.00     0.049 A 
ATOM     25  H   UNL A   1      42.498  30.260  27.729  1.00  0.00     0.167 HD
ATOM     26  C   UNL A   1      37.837  32.517  29.984  1.00  0.00     0.037 A 
ATOM     27  C   UNL A   1      45.113  30.206  28.557  1.00  0.00     0.037 A 
ATOM     28  C   UNL A   1      38.953  33.463  29.966  1.00  0.00     0.049 A 
ATOM     29  C   UNL A   1      44.616  31.596  28.981  1.00  0.00     0.074 A 
ATOM     30  C   UNL A   1      38.919  34.833  30.136  1.00  0.00     0.029 A 
ATOM     31  N   UNL A   1      40.312  33.135  29.807  1.00  0.00    -0.354 N 
ATOM     32  N   UNL A   1      43.394  32.079  29.108  1.00  0.00    -0.248 NA
ATOM     33  C   UNL A   1      45.663  32.553  29.358  1.00  0.00     0.031 C 
ATOM     34  C   UNL A   1      40.234  35.323  30.068  1.00  0.00     0.029 A 
ATOM     35  C   UNL A   1      41.123  34.262  29.911  1.00  0.00     0.049 A 
ATOM     36  H   UNL A   1      40.646  32.223  29.642  1.00  0.00     0.167 HD
ATOM     37  C   UNL A   1      43.514  33.375  29.623  1.00  0.00     0.074 A 
ATOM     38  C   UNL A   1      44.949  33.586  29.781  1.00  0.00     0.031 C 
ATOM     39  C   UNL A   1      42.585  34.327  29.951  1.00  0.00     0.037 A 
BRANCH  26  40
ATOM     40  C   UNL A   1      36.421  33.005  29.956  1.00  0.00     0.064 A 
ATOM     41  C   UNL A   1      35.731  33.230  28.757  1.00  0.00     0.173 A 
ATOM     42  C   UNL A   1      35.780  33.370  31.152  1.00  0.00     0.173 A 
ATOM     43  F   UNL A   1      36.286  32.887  27.583  1.00  0.00    -0.203 F 
ATOM     44  C   UNL A   1      34.512  33.902  28.744  1.00  0.00     0.198 A 
ATOM     45  C   UNL A   1      34.534  33.992  31.139  1.00  0.00     0.198 A 
ATOM     46  F   UNL A   1      36.375  33.160  32.337  1.00  0.00    -0.203 F 
ATOM     47  F   UNL A   1      33.943  34.224  27.575  1.00  0.00    -0.200 F 
ATOM     48  C   UNL A   1      33.917  34.287  29.934  1.00  0.00     0.200 A 
ATOM     49  F   UNL A   1      33.948  34.339  32.294  1.00  0.00    -0.200 F 
ATOM     50  F   UNL A   1      32.758  34.959  29.918  1.00  0.00    -0.200 F 
ENDBRANCH  26  40
BRANCH  27  51
ATOM     51  C   UNL A   1      46.532  29.801  28.732  1.00  0.00     0.064 A 
ATOM     52  C   UNL A   1      47.017  29.329  29.960  1.00  0.00     0.173 A 
ATOM     53  C   UNL A   1      47.413  29.812  27.641  1.00  0.00     0.173 A 
ATOM     54  F   UNL A   1      46.217  29.308  31.035  1.00  0.00    -0.203 F 
ATOM     55  C   UNL A   1      48.333  28.887  30.089  1.00  0.00     0.198 A 
ATOM     56  C   UNL A   1      48.719  29.345  27.765  1.00  0.00     0.198 A 
ATOM     57  F   UNL A   1      46.993  30.249  26.444  1.00  0.00    -0.203 F 
ATOM     58  F   UNL A   1      48.782  28.463  31.278  1.00  0.00    -0.200 F 
ATOM     59  C   UNL A   1      49.179  28.885  28.989  1.00  0.00     0.200 A 
ATOM     60  F   UNL A   1      49.525  29.328  26.695  1.00  0.00    -0.200 F 
ATOM     61  F   UNL A   1      50.436  28.440  29.109  1.00  0.00    -0.200 F 
ENDBRANCH  27  51
BRANCH  39  62
ATOM     62  C   UNL A   1      43.156  35.669  30.395  1.00  0.00     0.064 A 
ATOM     63  C   UNL A   1      43.429  35.935  31.749  1.00  0.00     0.173 A 
ATOM     64  C   UNL A   1      43.500  36.660  29.460  1.00  0.00     0.173 A 
ATOM     65  F   UNL A   1      43.114  35.034  32.691  1.00  0.00    -0.203 F 
ATOM     66  C   UNL A   1      43.997  37.145  32.150  1.00  0.00     0.198 A 
ATOM     67  C   UNL A   1      44.102  37.854  29.861  1.00  0.00     0.198 A 
ATOM     68  F   UNL A   1      43.273  36.465  28.154  1.00  0.00    -0.203 F 
ATOM     69  F   UNL A   1      44.200  37.389  33.452  1.00  0.00    -0.200 F 
ATOM     70  C   UNL A   1      44.343  38.098  31.205  1.00  0.00     0.200 A 
ATOM     71  F   UNL A   1      44.454  38.768  28.946  1.00  0.00    -0.200 F 
ATOM     72  F   UNL A   1      44.907  39.252  31.591  1.00  0.00    -0.200 F 
ENDBRANCH  39  62
ENDBRANCH  13  14
ENDBRANCH   6   8
ENDBRANCH   5   6
ENDBRANCH   4   5
ENDBRANCH   3   4
ENDBRANCH   2   3
ENDBRANCH   1   2
BRANCH   1  73
ATOM     73  C   UNL A   1      44.902  19.498  24.144  1.00  0.00     0.188 C 
BRANCH  73  74
ATOM     74  O   UNL A   1      45.594  20.704  24.455  1.00  0.00    -0.376 OA
BRANCH  74  75
ATOM     75  C   UNL A   1      44.926  21.932  24.194  1.00  0.00     0.202 C 
BRANCH  75  76
ATOM     76  C   UNL A   1      43.796  22.344  25.147  1.00  0.00     0.261 C 
BRANCH  76  77
ATOM     77  O   UNL A   1      44.094  23.414  26.069  1.00  0.00    -0.460 OA
BRANCH  77  78
ATOM     78  C   UNL A   1      44.301  24.626  25.488  1.00  0.00     0.347 C 
ATOM     79  O   UNL A   1      43.412  25.322  25.002  1.00  0.00    -0.248 OA
BRANCH  78  80
ATOM     80  C   UNL A   1      45.750  25.117  25.549  1.00  0.00     0.287 C 
ATOM     81  C   UNL A   1      46.516  24.289  26.634  1.00  0.00     0.097 C 
ATOM     82  O   UNL A   1      46.519  25.327  24.316  1.00  0.00    -0.478 OA
ATOM     83  C   UNL A   1      47.879  24.839  26.413  1.00  0.00    -0.000 A 
ATOM     84  C   UNL A   1      47.806  25.525  24.774  1.00  0.00     0.124 A 
ATOM     85  C   UNL A   1      49.347  25.052  27.455  1.00  0.00     0.028 A 
ATOM     86  C   UNL A   1      49.199  26.438  24.099  1.00  0.00     0.048 A 
ATOM     87  C   UNL A   1      50.761  25.969  26.834  1.00  0.00     0.041 A 
ATOM     88  C   UNL A   1      50.723  26.680  25.175  1.00  0.00     0.024 A 
ATOM     89  Cl  UNL A   1      52.146  26.184  27.822  1.00  0.00    -0.084 Cl
ENDBRANCH  78  80
ENDBRANCH  77  78
ENDBRANCH  76  77
ENDBRANCH  75  76
ENDBRANCH  74  75
ENDBRANCH  73  74
ENDBRANCH   1  73
TORSDOF 17
ENDMDL
MODEL 3
REMARK VINA RESULT:     -10.8      4.920      7.473
REMARK SMILES O=C(OCCOCCOCCOC(=O)[C@H]1Cc2cc(Cl)ccc2O1)c1ccc(-c2c3nc(c(-c4c(F)c(F)c(F)c(F)c4F)c4ccc([nH]4)c(-c4c(F)c(F)c(F)c(F)c4F)c4nc(c(-c5c(F)c(F)c(F)c(F)c5F)c5ccc2[nH]5)C=C4)C=C3)cc1
REMARK SMILES IDX 7 1 6 2 5 3 4 4 3 5 2 6 1 7 25 8 26 9 87 10 27 11 86 12
REMARK SMILES IDX 28 13 29 14 30 15 80 16 31 17 85 18 79 19 81 20 32 21 84 22
REMARK SMILES IDX 78 23 77 24 33 26 65 27 45 28 64 29 46 30 49 31 63 32 82 33
REMARK SMILES IDX 47 34 48 35 62 37 83 38 50 39 34 40 35 41 43 42 36 43 37 44
REMARK SMILES IDX 41 45 44 46 38 47 39 48 42 49 40 50 66 51 67 52 75 53 68 54
REMARK SMILES IDX 69 55 73 56 76 57 70 58 71 59 74 60 72 61 51 62 52 63 60 64
REMARK SMILES IDX 53 65 54 66 58 67 61 68 55 69 56 70 59 71 57 72 8 73 9 74
REMARK SMILES IDX 10 75 11 76 12 77 13 78 14 79 15 80 16 81 24 82 17 83 23 84
REMARK SMILES IDX 18 85 22 86 19 87 21 88 20 89
REMARK H PARENT 81 25 49 36
REMARK Flexibility Score: inf
ROOT
ATOM      1  C   UNL A   1      44.282  22.398  25.036  1.00  0.00     0.188 C 
ENDROOT
BRANCH   1   2
ATOM      2  O   UNL A   1      42.995  21.767  25.098  1.00  0.00    -0.376 OA
BRANCH   2   3
ATOM      3  C   UNL A   1      42.900  20.750  26.099  1.00  0.00     0.202 C 
BRANCH   3   4
ATOM      4  C   UNL A   1      41.588  19.954  26.116  1.00  0.00     0.261 C 
BRANCH   4   5
ATOM      5  O   UNL A   1      40.546  20.560  26.889  1.00  0.00    -0.460 OA
BRANCH   5   6
ATOM      6  C   UNL A   1      39.865  21.707  26.651  1.00  0.00     0.338 C 
ATOM      7  O   UNL A   1      39.010  21.684  25.766  1.00  0.00    -0.246 OA
BRANCH   6   8
ATOM      8  C   UNL A   1      40.169  23.039  27.281  1.00  0.00     0.060 A 
ATOM      9  C   UNL A   1      39.372  24.124  26.858  1.00  0.00     0.016 A 
ATOM     10  C   UNL A   1      41.204  23.322  28.169  1.00  0.00     0.016 A 
ATOM     11  C   UNL A   1      39.684  25.449  27.194  1.00  0.00     0.010 A 
ATOM     12  C   UNL A   1      41.533  24.639  28.500  1.00  0.00     0.010 A 
ATOM     13  C   UNL A   1      40.845  25.736  27.932  1.00  0.00    -0.014 A 
BRANCH  13  14
ATOM     14  C   UNL A   1      41.399  27.281  28.281  1.00  0.00     0.031 A 
ATOM     15  C   UNL A   1      40.608  28.778  29.633  1.00  0.00     0.074 A 
ATOM     16  C   UNL A   1      42.481  27.239  27.272  1.00  0.00     0.049 A 
ATOM     17  N   UNL A   1      40.967  30.132  29.778  1.00  0.00    -0.248 NA
ATOM     18  C   UNL A   1      39.438  28.824  30.807  1.00  0.00     0.031 C 
ATOM     19  C   UNL A   1      43.191  26.054  26.697  1.00  0.00     0.029 A 
ATOM     20  N   UNL A   1      43.288  28.252  26.714  1.00  0.00    -0.354 N 
ATOM     21  C   UNL A   1      40.138  30.946  30.464  1.00  0.00     0.074 A 
ATOM     22  C   UNL A   1      39.167  30.099  31.066  1.00  0.00     0.031 C 
ATOM     23  C   UNL A   1      44.381  26.426  26.181  1.00  0.00     0.029 A 
ATOM     24  C   UNL A   1      44.527  27.861  26.325  1.00  0.00     0.049 A 
ATOM     25  H   UNL A   1      42.973  29.179  26.612  1.00  0.00     0.167 HD
ATOM     26  C   UNL A   1      40.255  32.297  30.459  1.00  0.00     0.037 A 
ATOM     27  C   UNL A   1      45.632  28.626  26.225  1.00  0.00     0.037 A 
ATOM     28  C   UNL A   1      41.391  33.010  29.875  1.00  0.00     0.049 A 
ATOM     29  C   UNL A   1      45.620  30.087  26.698  1.00  0.00     0.074 A 
ATOM     30  C   UNL A   1      41.671  34.362  29.923  1.00  0.00     0.029 A 
ATOM     31  N   UNL A   1      42.460  32.427  29.172  1.00  0.00    -0.354 N 
ATOM     32  N   UNL A   1      44.683  30.796  27.300  1.00  0.00    -0.248 NA
ATOM     33  C   UNL A   1      46.872  30.826  26.498  1.00  0.00     0.031 C 
ATOM     34  C   UNL A   1      42.882  34.590  29.249  1.00  0.00     0.029 A 
ATOM     35  C   UNL A   1      43.413  33.377  28.815  1.00  0.00     0.049 A 
ATOM     36  H   UNL A   1      42.526  31.468  28.959  1.00  0.00     0.167 HD
ATOM     37  C   UNL A   1      45.239  32.046  27.597  1.00  0.00     0.074 A 
ATOM     38  C   UNL A   1      46.608  31.979  27.098  1.00  0.00     0.031 C 
ATOM     39  C   UNL A   1      44.729  33.160  28.210  1.00  0.00     0.037 A 
BRANCH  26  40
ATOM     40  C   UNL A   1      39.079  33.048  31.006  1.00  0.00     0.064 A 
ATOM     41  C   UNL A   1      38.998  33.432  32.352  1.00  0.00     0.173 A 
ATOM     42  C   UNL A   1      37.956  33.282  30.195  1.00  0.00     0.173 A 
ATOM     43  F   UNL A   1      40.045  33.249  33.171  1.00  0.00    -0.203 F 
ATOM     44  C   UNL A   1      37.809  33.914  32.890  1.00  0.00     0.198 A 
ATOM     45  C   UNL A   1      36.785  33.817  30.725  1.00  0.00     0.198 A 
ATOM     46  F   UNL A   1      37.976  32.958  28.892  1.00  0.00    -0.203 F 
ATOM     47  F   UNL A   1      37.721  34.145  34.207  1.00  0.00    -0.200 F 
ATOM     48  C   UNL A   1      36.702  34.101  32.078  1.00  0.00     0.200 A 
ATOM     49  F   UNL A   1      35.724  34.022  29.932  1.00  0.00    -0.200 F 
ATOM     50  F   UNL A   1      35.549  34.537  32.605  1.00  0.00    -0.200 F 
ENDBRANCH  26  40
BRANCH  27  51
ATOM     51  C   UNL A   1      46.889  27.956  25.801  1.00  0.00     0.064 A 
ATOM     52  C   UNL A   1      47.243  27.842  24.449  1.00  0.00     0.173 A 
ATOM     53  C   UNL A   1      47.797  27.481  26.758  1.00  0.00     0.173 A 
ATOM     54  F   UNL A   1      46.404  28.273  23.496  1.00  0.00    -0.203 F 
ATOM     55  C   UNL A   1      48.458  27.273  24.072  1.00  0.00     0.198 A 
ATOM     56  C   UNL A   1      49.023  26.938  26.380  1.00  0.00     0.198 A 
ATOM     57  F   UNL A   1      47.505  27.573  28.063  1.00  0.00    -0.203 F 
ATOM     58  F   UNL A   1      48.765  27.153  22.773  1.00  0.00    -0.200 F 
ATOM     59  C   UNL A   1      49.351  26.832  25.037  1.00  0.00     0.200 A 
ATOM     60  F   UNL A   1      49.888  26.531  27.318  1.00  0.00    -0.200 F 
ATOM     61  F   UNL A   1      50.528  26.306  24.675  1.00  0.00    -0.200 F 
ENDBRANCH  27  51
BRANCH  39  62
ATOM     62  C   UNL A   1      45.658  34.369  28.244  1.00  0.00     0.064 A 
ATOM     63  C   UNL A   1      45.586  35.375  27.264  1.00  0.00     0.173 A 
ATOM     64  C   UNL A   1      46.568  34.559  29.298  1.00  0.00     0.173 A 
ATOM     65  F   UNL A   1      44.745  35.247  26.227  1.00  0.00    -0.203 F 
ATOM     66  C   UNL A   1      46.403  36.504  27.323  1.00  0.00     0.198 A 
ATOM     67  C   UNL A   1      47.357  35.708  29.373  1.00  0.00     0.198 A 
ATOM     68  F   UNL A   1      46.680  33.641  30.269  1.00  0.00    -0.203 F 
ATOM     69  F   UNL A   1      46.345  37.422  26.347  1.00  0.00    -0.200 F 
ATOM     70  C   UNL A   1      47.279  36.675  28.383  1.00  0.00     0.200 A 
ATOM     71  F   UNL A   1      48.191  35.882  30.408  1.00  0.00    -0.200 F 
ATOM     72  F   UNL A   1      48.049  37.771  28.447  1.00  0.00    -0.200 F 
ENDBRANCH  39  62
ENDBRANCH  13  14
ENDBRANCH   6   8
ENDBRANCH   5   6
ENDBRANCH   4   5
ENDBRANCH   3   4
ENDBRANCH   2   3
ENDBRANCH   1   2
BRANCH   1  73
ATOM     73  C   UNL A   1      44.932  22.482  26.421  1.00  0.00     0.188 C 
BRANCH  73  74
ATOM     74  O   UNL A   1      46.225  23.078  26.474  1.00  0.00    -0.376 OA
BRANCH  74  75
ATOM     75  C   UNL A   1      46.452  24.071  27.466  1.00  0.00     0.202 C 
BRANCH  75  76
ATOM     76  C   UNL A   1      45.515  24.089  28.681  1.00  0.00     0.261 C 
BRANCH  76  77
ATOM     77  O   UNL A   1      45.416  25.339  29.396  1.00  0.00    -0.460 OA
BRANCH  77  78
ATOM     78  C   UNL A   1      44.750  25.270  30.578  1.00  0.00     0.347 C 
ATOM     79  O   UNL A   1      44.483  24.221  31.163  1.00  0.00    -0.248 OA
BRANCH  78  80
ATOM     80  C   UNL A   1      44.408  26.630  31.192  1.00  0.00     0.287 C 
ATOM     81  C   UNL A   1      44.884  27.757  30.216  1.00  0.00     0.097 C 
ATOM     82  O   UNL A   1      43.081  26.875  31.773  1.00  0.00    -0.478 OA
ATOM     83  C   UNL A   1      44.336  28.930  30.945  1.00  0.00    -0.000 A 
ATOM     84  C   UNL A   1      43.077  28.238  31.991  1.00  0.00     0.124 A 
ATOM     85  C   UNL A   1      44.792  30.681  31.059  1.00  0.00     0.028 A 
ATOM     86  C   UNL A   1      42.208  29.265  33.183  1.00  0.00     0.048 A 
ATOM     87  C   UNL A   1      43.965  31.748  32.243  1.00  0.00     0.041 A 
ATOM     88  C   UNL A   1      42.681  31.079  33.322  1.00  0.00     0.024 A 
ATOM     89  Cl  UNL A   1      44.404  33.401  32.362  1.00  0.00    -0.084 Cl
ENDBRANCH  78  80
ENDBRANCH  77  78
ENDBRANCH  76  77
ENDBRANCH  75  76
ENDBRANCH  74  75
ENDBRANCH  73  74
ENDBRANCH   1  73
TORSDOF 17
ENDMDL
