MODEL 1
REMARK VINA RESULT:     -11.6      0.000      0.000
REMARK SMILES O=C(C[C@H]1CN(S(=O)(=O)c2cc(F)cc(F)c2)CCO1)OCCOCCOCCOC(=O)c1ccc(-c2c3nc(c(-c4c(F)c(F)c(F)c(F)c4F)c4ccc([nH]4)c(-c4c(F)c(F)c(F)c(F)c4F)c4nc(c(-c5c(F)c(F)c(F)c(F)c5F)c5ccc2[nH]5)C=C4)C=C3)cc1
REMARK SMILES IDX 25 1 24 2 23 3 22 4 21 5 2 6 1 7 3 8 4 9 5 10 20 11 6 12
REMARK SMILES IDX 19 13 18 14 7 15 8 16 9 17 10 18 11 19 17 20 12 21 15 22
REMARK SMILES IDX 13 23 14 24 16 25 26 26 27 27 28 28 29 29 30 30 31 31 32 32
REMARK SMILES IDX 33 33 34 34 95 35 35 36 94 37 36 38 37 39 38 40 88 41 39 42
REMARK SMILES IDX 93 43 87 44 89 45 40 46 92 47 86 48 85 49 41 51 73 52 53 53
REMARK SMILES IDX 72 54 54 55 57 56 71 57 90 58 55 59 56 60 70 62 91 63 58 64
REMARK SMILES IDX 42 65 43 66 51 67 44 68 45 69 49 70 52 71 46 72 47 73 50 74
REMARK SMILES IDX 48 75 74 76 75 77 83 78 76 79 77 80 81 81 84 82 78 83 79 84
REMARK SMILES IDX 82 85 80 86 59 87 60 88 68 89 61 90 62 91 66 92 69 93 63 94
REMARK SMILES IDX 64 95 67 96 65 97
REMARK H PARENT 89 50 57 61
REMARK Flexibility Score: inf
ROOT
ATOM      1  C   UNL A   1      33.720  28.423  25.757  1.00  0.00     0.188 C 
ENDROOT
BRANCH   1   2
ATOM      2  O   UNL A   1      32.767  27.700  24.977  1.00  0.00    -0.376 OA
BRANCH   2   3
ATOM      3  C   UNL A   1      31.403  27.916  25.321  1.00  0.00     0.202 C 
BRANCH   3   4
ATOM      4  C   UNL A   1      30.643  26.597  25.423  1.00  0.00     0.261 C 
BRANCH   4   5
ATOM      5  O   UNL A   1      31.067  25.815  26.557  1.00  0.00    -0.463 OA
BRANCH   5   6
ATOM      6  C   UNL A   1      31.433  24.512  26.525  1.00  0.00     0.308 C 
ATOM      7  O   UNL A   1      30.933  23.721  27.322  1.00  0.00    -0.252 OA
BRANCH   6   8
ATOM      8  C   UNL A   1      32.535  24.083  25.589  1.00  0.00     0.156 C 
BRANCH   8   9
ATOM      9  C   UNL A   1      33.836  23.689  26.280  1.00  0.00     0.144 C 
ATOM     10  C   UNL A   1      33.811  22.244  26.850  1.00  0.00     0.135 C 
ATOM     11  O   UNL A   1      34.982  23.927  25.450  1.00  0.00    -0.375 OA
ATOM     12  N   UNL A   1      34.131  21.154  25.879  1.00  0.00    -0.193 NA
ATOM     13  C   UNL A   1      35.180  22.916  24.456  1.00  0.00     0.177 C 
ATOM     14  C   UNL A   1      35.363  21.545  25.109  1.00  0.00     0.131 C 
BRANCH  12  15
ATOM     15  S   UNL A   1      32.924  20.413  24.933  1.00  0.00     0.243 S 
ATOM     16  O   UNL A   1      31.641  20.651  25.544  1.00  0.00    -0.207 OA
ATOM     17  O   UNL A   1      33.162  20.857  23.570  1.00  0.00    -0.207 OA
BRANCH  15  18
ATOM     18  C   UNL A   1      33.171  18.646  24.896  1.00  0.00     0.088 A 
ATOM     19  C   UNL A   1      32.627  17.766  25.826  1.00  0.00     0.061 A 
ATOM     20  C   UNL A   1      33.854  18.122  23.789  1.00  0.00     0.061 A 
ATOM     21  C   UNL A   1      32.734  16.389  25.625  1.00  0.00     0.127 A 
ATOM     22  C   UNL A   1      33.931  16.744  23.602  1.00  0.00     0.127 A 
ATOM     23  F   UNL A   1      32.172  15.556  26.511  1.00  0.00    -0.207 F 
ATOM     24  C   UNL A   1      33.367  15.865  24.511  1.00  0.00     0.078 A 
ATOM     25  F   UNL A   1      34.514  16.262  22.497  1.00  0.00    -0.207 F 
ENDBRANCH  15  18
ENDBRANCH  12  15
ENDBRANCH   8   9
ENDBRANCH   6   8
ENDBRANCH   5   6
ENDBRANCH   4   5
ENDBRANCH   3   4
ENDBRANCH   2   3
ENDBRANCH   1   2
BRANCH   1  26
ATOM     26  C   UNL A   1      33.172  29.440  26.768  1.00  0.00     0.188 C 
BRANCH  26  27
ATOM     27  O   UNL A   1      33.831  30.695  26.865  1.00  0.00    -0.376 OA
BRANCH  27  28
ATOM     28  C   UNL A   1      33.373  31.623  27.844  1.00  0.00     0.202 C 
BRANCH  28  29
ATOM     29  C   UNL A   1      33.302  33.079  27.391  1.00  0.00     0.261 C 
BRANCH  29  30
ATOM     30  O   UNL A   1      32.439  33.847  28.255  1.00  0.00    -0.460 OA
BRANCH  30  31
ATOM     31  C   UNL A   1      32.986  34.965  28.778  1.00  0.00     0.338 C 
ATOM     32  O   UNL A   1      32.556  36.107  28.710  1.00  0.00    -0.246 OA
BRANCH  31  33
ATOM     33  C   UNL A   1      34.192  34.625  29.546  1.00  0.00     0.060 A 
ATOM     34  C   UNL A   1      35.435  34.749  28.922  1.00  0.00     0.016 A 
ATOM     35  C   UNL A   1      34.085  34.051  30.814  1.00  0.00     0.016 A 
ATOM     36  C   UNL A   1      36.574  34.238  29.544  1.00  0.00     0.010 A 
ATOM     37  C   UNL A   1      35.233  33.572  31.451  1.00  0.00     0.010 A 
ATOM     38  C   UNL A   1      36.476  33.608  30.795  1.00  0.00    -0.014 A 
BRANCH  38  39
ATOM     39  C   UNL A   1      37.635  32.842  31.324  1.00  0.00     0.031 A 
ATOM     40  C   UNL A   1      38.165  33.161  32.699  1.00  0.00     0.074 A 
ATOM     41  C   UNL A   1      38.181  31.836  30.617  1.00  0.00     0.049 A 
ATOM     42  N   UNL A   1      39.131  32.588  33.372  1.00  0.00    -0.248 NA
ATOM     43  C   UNL A   1      37.528  34.282  33.408  1.00  0.00     0.031 C 
ATOM     44  C   UNL A   1      37.760  31.424  29.280  1.00  0.00     0.029 A 
ATOM     45  N   UNL A   1      39.201  30.972  30.931  1.00  0.00    -0.354 N 
ATOM     46  C   UNL A   1      39.221  33.284  34.571  1.00  0.00     0.074 A 
ATOM     47  C   UNL A   1      38.250  34.353  34.516  1.00  0.00     0.031 C 
ATOM     48  C   UNL A   1      38.500  30.370  28.896  1.00  0.00     0.029 A 
ATOM     49  C   UNL A   1      39.464  30.049  29.949  1.00  0.00     0.049 A 
ATOM     50  H   UNL A   1      39.696  31.010  31.781  1.00  0.00     0.167 HD
ATOM     51  C   UNL A   1      40.021  33.039  35.635  1.00  0.00     0.037 A 
ATOM     52  C   UNL A   1      40.374  29.056  29.904  1.00  0.00     0.037 A 
ATOM     53  C   UNL A   1      40.964  31.955  35.706  1.00  0.00     0.049 A 
ATOM     54  C   UNL A   1      41.276  28.816  31.087  1.00  0.00     0.074 A 
ATOM     55  C   UNL A   1      41.782  31.594  36.762  1.00  0.00     0.029 A 
ATOM     56  N   UNL A   1      41.216  31.060  34.678  1.00  0.00    -0.354 N 
ATOM     57  N   UNL A   1      41.316  29.448  32.234  1.00  0.00    -0.248 NA
ATOM     58  C   UNL A   1      42.253  27.723  30.972  1.00  0.00     0.031 C 
ATOM     59  C   UNL A   1      42.568  30.514  36.354  1.00  0.00     0.029 A 
ATOM     60  C   UNL A   1      42.198  30.164  35.065  1.00  0.00     0.049 A 
ATOM     61  H   UNL A   1      40.764  31.061  33.803  1.00  0.00     0.167 HD
ATOM     62  C   UNL A   1      42.296  28.813  32.988  1.00  0.00     0.074 A 
ATOM     63  C   UNL A   1      42.828  27.745  32.169  1.00  0.00     0.031 C 
ATOM     64  C   UNL A   1      42.710  29.093  34.247  1.00  0.00     0.037 A 
BRANCH  51  65
ATOM     65  C   UNL A   1      39.915  33.958  36.817  1.00  0.00     0.064 A 
ATOM     66  C   UNL A   1      39.073  33.636  37.894  1.00  0.00     0.173 A 
ATOM     67  C   UNL A   1      40.603  35.180  36.866  1.00  0.00     0.173 A 
ATOM     68  F   UNL A   1      38.385  32.485  37.894  1.00  0.00    -0.203 F 
ATOM     69  C   UNL A   1      38.922  34.506  38.970  1.00  0.00     0.198 A 
ATOM     70  C   UNL A   1      40.473  36.033  37.959  1.00  0.00     0.198 A 
ATOM     71  F   UNL A   1      41.428  35.531  35.867  1.00  0.00    -0.203 F 
ATOM     72  F   UNL A   1      38.091  34.191  39.972  1.00  0.00    -0.200 F 
ATOM     73  C   UNL A   1      39.627  35.699  39.005  1.00  0.00     0.200 A 
ATOM     74  F   UNL A   1      41.176  37.173  38.004  1.00  0.00    -0.200 F 
ATOM     75  F   UNL A   1      39.493  36.528  40.051  1.00  0.00    -0.200 F 
ENDBRANCH  51  65
BRANCH  52  76
ATOM     76  C   UNL A   1      40.438  28.187  28.700  1.00  0.00     0.064 A 
ATOM     77  C   UNL A   1      39.757  26.961  28.651  1.00  0.00     0.173 A 
ATOM     78  C   UNL A   1      41.226  28.541  27.597  1.00  0.00     0.173 A 
ATOM     79  F   UNL A   1      38.990  26.576  29.680  1.00  0.00    -0.203 F 
ATOM     80  C   UNL A   1      39.889  26.109  27.556  1.00  0.00     0.198 A 
ATOM     81  C   UNL A   1      41.336  27.700  26.492  1.00  0.00     0.198 A 
ATOM     82  F   UNL A   1      41.878  29.713  27.589  1.00  0.00    -0.203 F 
ATOM     83  F   UNL A   1      39.264  24.923  27.554  1.00  0.00    -0.200 F 
ATOM     84  C   UNL A   1      40.676  26.479  26.477  1.00  0.00     0.200 A 
ATOM     85  F   UNL A   1      42.081  28.070  25.442  1.00  0.00    -0.200 F 
ATOM     86  F   UNL A   1      40.802  25.660  25.424  1.00  0.00    -0.200 F 
ENDBRANCH  52  76
BRANCH  64  87
ATOM     87  C   UNL A   1      43.772  28.225  34.857  1.00  0.00     0.064 A 
ATOM     88  C   UNL A   1      45.128  28.562  34.713  1.00  0.00     0.173 A 
ATOM     89  C   UNL A   1      43.458  27.001  35.462  1.00  0.00     0.173 A 
ATOM     90  F   UNL A   1      45.479  29.717  34.129  1.00  0.00    -0.203 F 
ATOM     91  C   UNL A   1      46.130  27.689  35.127  1.00  0.00     0.198 A 
ATOM     92  C   UNL A   1      44.465  26.142  35.899  1.00  0.00     0.198 A 
ATOM     93  F   UNL A   1      42.178  26.639  35.631  1.00  0.00    -0.203 F 
ATOM     94  F   UNL A   1      47.417  28.009  34.933  1.00  0.00    -0.200 F 
ATOM     95  C   UNL A   1      45.798  26.480  35.718  1.00  0.00     0.200 A 
ATOM     96  F   UNL A   1      44.144  24.981  36.485  1.00  0.00    -0.200 F 
ATOM     97  F   UNL A   1      46.764  25.637  36.109  1.00  0.00    -0.200 F 
ENDBRANCH  64  87
ENDBRANCH  38  39
ENDBRANCH  31  33
ENDBRANCH  30  31
ENDBRANCH  29  30
ENDBRANCH  28  29
ENDBRANCH  27  28
ENDBRANCH  26  27
ENDBRANCH   1  26
TORSDOF 20
ENDMDL
MODEL 2
REMARK VINA RESULT:     -11.6      2.720      4.288
REMARK SMILES O=C(C[C@H]1CN(S(=O)(=O)c2cc(F)cc(F)c2)CCO1)OCCOCCOCCOC(=O)c1ccc(-c2c3nc(c(-c4c(F)c(F)c(F)c(F)c4F)c4ccc([nH]4)c(-c4c(F)c(F)c(F)c(F)c4F)c4nc(c(-c5c(F)c(F)c(F)c(F)c5F)c5ccc2[nH]5)C=C4)C=C3)cc1
REMARK SMILES IDX 25 1 24 2 23 3 22 4 21 5 2 6 1 7 3 8 4 9 5 10 20 11 6 12
REMARK SMILES IDX 19 13 18 14 7 15 8 16 9 17 10 18 11 19 17 20 12 21 15 22
REMARK SMILES IDX 13 23 14 24 16 25 26 26 27 27 28 28 29 29 30 30 31 31 32 32
REMARK SMILES IDX 33 33 34 34 95 35 35 36 94 37 36 38 37 39 38 40 88 41 39 42
REMARK SMILES IDX 93 43 87 44 89 45 40 46 92 47 86 48 85 49 41 51 73 52 53 53
REMARK SMILES IDX 72 54 54 55 57 56 71 57 90 58 55 59 56 60 70 62 91 63 58 64
REMARK SMILES IDX 42 65 43 66 51 67 44 68 45 69 49 70 52 71 46 72 47 73 50 74
REMARK SMILES IDX 48 75 74 76 75 77 83 78 76 79 77 80 81 81 84 82 78 83 79 84
REMARK SMILES IDX 82 85 80 86 59 87 60 88 68 89 61 90 62 91 66 92 69 93 63 94
REMARK SMILES IDX 64 95 67 96 65 97
REMARK H PARENT 89 50 57 61
REMARK Flexibility Score: inf
ROOT
ATOM      1  C   UNL A   1      30.215  28.463  23.204  1.00  0.00     0.188 C 
ENDROOT
BRANCH   1   2
ATOM      2  O   UNL A   1      29.395  27.343  23.542  1.00  0.00    -0.376 OA
BRANCH   2   3
ATOM      3  C   UNL A   1      30.095  26.176  23.958  1.00  0.00     0.202 C 
BRANCH   3   4
ATOM      4  C   UNL A   1      29.549  25.647  25.281  1.00  0.00     0.261 C 
BRANCH   4   5
ATOM      5  O   UNL A   1      30.585  25.071  26.101  1.00  0.00    -0.463 OA
BRANCH   5   6
ATOM      6  C   UNL A   1      30.566  23.829  26.640  1.00  0.00     0.308 C 
ATOM      7  O   UNL A   1      29.693  23.533  27.453  1.00  0.00    -0.252 OA
BRANCH   6   8
ATOM      8  C   UNL A   1      31.687  22.873  26.319  1.00  0.00     0.156 C 
BRANCH   8   9
ATOM      9  C   UNL A   1      31.429  21.975  25.114  1.00  0.00     0.144 C 
ATOM     10  C   UNL A   1      32.074  22.510  23.806  1.00  0.00     0.135 C 
ATOM     11  O   UNL A   1      31.778  20.608  25.373  1.00  0.00    -0.375 OA
ATOM     12  N   UNL A   1      33.516  22.172  23.603  1.00  0.00    -0.193 NA
ATOM     13  C   UNL A   1      33.185  20.357  25.284  1.00  0.00     0.177 C 
ATOM     14  C   UNL A   1      33.709  20.708  23.891  1.00  0.00     0.131 C 
BRANCH  12  15
ATOM     15  S   UNL A   1      34.763  23.170  24.197  1.00  0.00     0.243 S 
ATOM     16  O   UNL A   1      35.157  22.698  25.500  1.00  0.00    -0.207 OA
ATOM     17  O   UNL A   1      35.750  23.244  23.134  1.00  0.00    -0.207 OA
BRANCH  15  18
ATOM     18  C   UNL A   1      34.170  24.840  24.398  1.00  0.00     0.088 A 
ATOM     19  C   UNL A   1      34.013  25.467  25.631  1.00  0.00     0.061 A 
ATOM     20  C   UNL A   1      33.970  25.590  23.229  1.00  0.00     0.061 A 
ATOM     21  C   UNL A   1      33.704  26.826  25.685  1.00  0.00     0.127 A 
ATOM     22  C   UNL A   1      33.680  26.950  23.311  1.00  0.00     0.127 A 
ATOM     23  F   UNL A   1      33.594  27.423  26.880  1.00  0.00    -0.207 F 
ATOM     24  C   UNL A   1      33.551  27.583  24.535  1.00  0.00     0.078 A 
ATOM     25  F   UNL A   1      33.576  27.668  22.185  1.00  0.00    -0.207 F 
ENDBRANCH  15  18
ENDBRANCH  12  15
ENDBRANCH   8   9
ENDBRANCH   6   8
ENDBRANCH   5   6
ENDBRANCH   4   5
ENDBRANCH   3   4
ENDBRANCH   2   3
ENDBRANCH   1   2
BRANCH   1  26
ATOM     26  C   UNL A   1      30.854  29.240  24.362  1.00  0.00     0.188 C 
BRANCH  26  27
ATOM     27  O   UNL A   1      30.371  30.550  24.625  1.00  0.00    -0.376 OA
BRANCH  27  28
ATOM     28  C   UNL A   1      31.000  31.306  25.656  1.00  0.00     0.202 C 
BRANCH  28  29
ATOM     29  C   UNL A   1      31.808  30.498  26.668  1.00  0.00     0.261 C 
BRANCH  29  30
ATOM     30  O   UNL A   1      33.221  30.741  26.513  1.00  0.00    -0.460 OA
BRANCH  30  31
ATOM     31  C   UNL A   1      33.772  31.571  27.423  1.00  0.00     0.338 C 
ATOM     32  O   UNL A   1      33.247  32.528  27.974  1.00  0.00    -0.246 OA
BRANCH  31  33
ATOM     33  C   UNL A   1      35.133  31.127  27.754  1.00  0.00     0.060 A 
ATOM     34  C   UNL A   1      35.361  29.761  27.939  1.00  0.00     0.016 A 
ATOM     35  C   UNL A   1      36.137  32.059  28.023  1.00  0.00     0.016 A 
ATOM     36  C   UNL A   1      36.581  29.329  28.456  1.00  0.00     0.010 A 
ATOM     37  C   UNL A   1      37.372  31.620  28.509  1.00  0.00     0.010 A 
ATOM     38  C   UNL A   1      37.582  30.257  28.785  1.00  0.00    -0.014 A 
BRANCH  38  39
ATOM     39  C   UNL A   1      38.763  29.817  29.572  1.00  0.00     0.031 A 
ATOM     40  C   UNL A   1      38.951  30.336  30.974  1.00  0.00     0.074 A 
ATOM     41  C   UNL A   1      39.634  28.922  29.071  1.00  0.00     0.049 A 
ATOM     42  N   UNL A   1      39.879  30.047  31.852  1.00  0.00    -0.248 NA
ATOM     43  C   UNL A   1      37.966  31.322  31.451  1.00  0.00     0.031 C 
ATOM     44  C   UNL A   1      39.564  28.339  27.733  1.00  0.00     0.029 A 
ATOM     45  N   UNL A   1      40.743  28.340  29.635  1.00  0.00    -0.354 N 
ATOM     46  C   UNL A   1      39.595  30.820  32.971  1.00  0.00     0.074 A 
ATOM     47  C   UNL A   1      38.442  31.628  32.648  1.00  0.00     0.031 C 
ATOM     48  C   UNL A   1      40.573  27.464  27.586  1.00  0.00     0.029 A 
ATOM     49  C   UNL A   1      41.375  27.443  28.810  1.00  0.00     0.049 A 
ATOM     50  H   UNL A   1      41.055  28.546  30.546  1.00  0.00     0.167 HD
ATOM     51  C   UNL A   1      40.221  30.835  34.171  1.00  0.00     0.037 A 
ATOM     52  C   UNL A   1      42.472  26.688  29.016  1.00  0.00     0.037 A 
ATOM     53  C   UNL A   1      41.349  30.006  34.506  1.00  0.00     0.049 A 
ATOM     54  C   UNL A   1      43.173  26.739  30.349  1.00  0.00     0.074 A 
ATOM     55  C   UNL A   1      42.018  29.913  35.714  1.00  0.00     0.029 A 
ATOM     56  N   UNL A   1      41.972  29.131  33.631  1.00  0.00    -0.354 N 
ATOM     57  N   UNL A   1      42.864  27.434  31.416  1.00  0.00    -0.248 NA
ATOM     58  C   UNL A   1      44.368  25.897  30.509  1.00  0.00     0.031 C 
ATOM     59  C   UNL A   1      43.081  29.021  35.553  1.00  0.00     0.029 A 
ATOM     60  C   UNL A   1      43.038  28.514  34.264  1.00  0.00     0.049 A 
ATOM     61  H   UNL A   1      41.699  28.971  32.699  1.00  0.00     0.167 HD
ATOM     62  C   UNL A   1      43.804  27.094  32.381  1.00  0.00     0.074 A 
ATOM     63  C   UNL A   1      44.696  26.128  31.775  1.00  0.00     0.031 C 
ATOM     64  C   UNL A   1      43.911  27.541  33.656  1.00  0.00     0.037 A 
BRANCH  51  65
ATOM     65  C   UNL A   1      39.704  31.778  35.219  1.00  0.00     0.064 A 
ATOM     66  C   UNL A   1      38.746  31.347  36.150  1.00  0.00     0.173 A 
ATOM     67  C   UNL A   1      40.115  33.119  35.273  1.00  0.00     0.173 A 
ATOM     68  F   UNL A   1      38.312  30.078  36.137  1.00  0.00    -0.203 F 
ATOM     69  C   UNL A   1      38.216  32.226  37.091  1.00  0.00     0.198 A 
ATOM     70  C   UNL A   1      39.605  33.986  36.236  1.00  0.00     0.198 A 
ATOM     71  F   UNL A   1      41.035  33.578  34.411  1.00  0.00    -0.203 F 
ATOM     72  F   UNL A   1      37.281  31.800  37.951  1.00  0.00    -0.200 F 
ATOM     73  C   UNL A   1      38.650  33.542  37.137  1.00  0.00     0.200 A 
ATOM     74  F   UNL A   1      40.047  35.250  36.296  1.00  0.00    -0.200 F 
ATOM     75  F   UNL A   1      38.152  34.382  38.055  1.00  0.00    -0.200 F 
ENDBRANCH  51  65
BRANCH  52  76
ATOM     76  C   UNL A   1      42.942  25.783  27.935  1.00  0.00     0.064 A 
ATOM     77  C   UNL A   1      43.879  26.211  26.984  1.00  0.00     0.173 A 
ATOM     78  C   UNL A   1      42.419  24.490  27.802  1.00  0.00     0.173 A 
ATOM     79  F   UNL A   1      44.409  27.439  27.068  1.00  0.00    -0.203 F 
ATOM     80  C   UNL A   1      44.252  25.390  25.922  1.00  0.00     0.198 A 
ATOM     81  C   UNL A   1      42.814  23.660  26.753  1.00  0.00     0.198 A 
ATOM     82  F   UNL A   1      41.537  24.027  28.699  1.00  0.00    -0.203 F 
ATOM     83  F   UNL A   1      45.116  25.841  25.001  1.00  0.00    -0.200 F 
ATOM     84  C   UNL A   1      43.721  24.115  25.808  1.00  0.00     0.200 A 
ATOM     85  F   UNL A   1      42.314  22.421  26.658  1.00  0.00    -0.200 F 
ATOM     86  F   UNL A   1      44.081  23.326  24.787  1.00  0.00    -0.200 F 
ENDBRANCH  52  76
BRANCH  64  87
ATOM     87  C   UNL A   1      45.007  26.984  34.517  1.00  0.00     0.064 A 
ATOM     88  C   UNL A   1      46.288  27.560  34.490  1.00  0.00     0.173 A 
ATOM     89  C   UNL A   1      44.828  25.810  35.260  1.00  0.00     0.173 A 
ATOM     90  F   UNL A   1      46.511  28.677  33.783  1.00  0.00    -0.203 F 
ATOM     91  C   UNL A   1      47.356  26.961  35.153  1.00  0.00     0.198 A 
ATOM     92  C   UNL A   1      45.894  25.229  35.943  1.00  0.00     0.198 A 
ATOM     93  F   UNL A   1      43.621  25.228  35.324  1.00  0.00    -0.203 F 
ATOM     94  F   UNL A   1      48.579  27.501  35.071  1.00  0.00    -0.200 F 
ATOM     95  C   UNL A   1      47.158  25.796  35.877  1.00  0.00     0.200 A 
ATOM     96  F   UNL A   1      45.700  24.111  36.657  1.00  0.00    -0.200 F 
ATOM     97  F   UNL A   1      48.189  25.217  36.509  1.00  0.00    -0.200 F 
ENDBRANCH  64  87
ENDBRANCH  38  39
ENDBRANCH  31  33
ENDBRANCH  30  31
ENDBRANCH  29  30
ENDBRANCH  28  29
ENDBRANCH  27  28
ENDBRANCH  26  27
ENDBRANCH   1  26
TORSDOF 20
ENDMDL
MODEL 3
REMARK VINA RESULT:     -11.3      4.752      9.387
REMARK SMILES O=C(C[C@H]1CN(S(=O)(=O)c2cc(F)cc(F)c2)CCO1)OCCOCCOCCOC(=O)c1ccc(-c2c3nc(c(-c4c(F)c(F)c(F)c(F)c4F)c4ccc([nH]4)c(-c4c(F)c(F)c(F)c(F)c4F)c4nc(c(-c5c(F)c(F)c(F)c(F)c5F)c5ccc2[nH]5)C=C4)C=C3)cc1
REMARK SMILES IDX 25 1 24 2 23 3 22 4 21 5 2 6 1 7 3 8 4 9 5 10 20 11 6 12
REMARK SMILES IDX 19 13 18 14 7 15 8 16 9 17 10 18 11 19 17 20 12 21 15 22
REMARK SMILES IDX 13 23 14 24 16 25 26 26 27 27 28 28 29 29 30 30 31 31 32 32
REMARK SMILES IDX 33 33 34 34 95 35 35 36 94 37 36 38 37 39 38 40 88 41 39 42
REMARK SMILES IDX 93 43 87 44 89 45 40 46 92 47 86 48 85 49 41 51 73 52 53 53
REMARK SMILES IDX 72 54 54 55 57 56 71 57 90 58 55 59 56 60 70 62 91 63 58 64
REMARK SMILES IDX 42 65 43 66 51 67 44 68 45 69 49 70 52 71 46 72 47 73 50 74
REMARK SMILES IDX 48 75 74 76 75 77 83 78 76 79 77 80 81 81 84 82 78 83 79 84
REMARK SMILES IDX 82 85 80 86 59 87 60 88 68 89 61 90 62 91 66 92 69 93 63 94
REMARK SMILES IDX 64 95 67 96 65 97
REMARK H PARENT 89 50 57 61
REMARK Flexibility Score: inf
ROOT
ATOM      1  C   UNL A   1      34.036  31.337  27.869  1.00  0.00     0.188 C 
ENDROOT
BRANCH   1   2
ATOM      2  O   UNL A   1      34.925  30.225  27.757  1.00  0.00    -0.376 OA
BRANCH   2   3
ATOM      3  C   UNL A   1      34.717  29.387  26.626  1.00  0.00     0.202 C 
BRANCH   3   4
ATOM      4  C   UNL A   1      33.262  28.938  26.531  1.00  0.00     0.261 C 
BRANCH   4   5
ATOM      5  O   UNL A   1      33.003  28.196  25.322  1.00  0.00    -0.463 OA
BRANCH   5   6
ATOM      6  C   UNL A   1      33.259  26.879  25.134  1.00  0.00     0.308 C 
ATOM      7  O   UNL A   1      34.156  26.337  25.775  1.00  0.00    -0.252 OA
BRANCH   6   8
ATOM      8  C   UNL A   1      32.513  26.135  24.055  1.00  0.00     0.156 C 
BRANCH   8   9
ATOM      9  C   UNL A   1      31.107  25.693  24.445  1.00  0.00     0.144 C 
ATOM     10  C   UNL A   1      30.653  24.394  23.724  1.00  0.00     0.135 C 
ATOM     11  O   UNL A   1      30.941  25.611  25.868  1.00  0.00    -0.375 OA
ATOM     12  N   UNL A   1      31.104  23.111  24.345  1.00  0.00    -0.193 NA
ATOM     13  C   UNL A   1      31.496  24.419  26.434  1.00  0.00     0.177 C 
ATOM     14  C   UNL A   1      30.842  23.178  25.824  1.00  0.00     0.131 C 
BRANCH  12  15
ATOM     15  S   UNL A   1      32.592  22.389  23.931  1.00  0.00     0.243 S 
ATOM     16  O   UNL A   1      32.962  22.811  22.604  1.00  0.00    -0.207 OA
ATOM     17  O   UNL A   1      33.485  22.661  25.044  1.00  0.00    -0.207 OA
BRANCH  15  18
ATOM     18  C   UNL A   1      32.422  20.614  23.893  1.00  0.00     0.088 A 
ATOM     19  C   UNL A   1      32.251  19.874  22.726  1.00  0.00     0.061 A 
ATOM     20  C   UNL A   1      32.595  19.931  25.106  1.00  0.00     0.061 A 
ATOM     21  C   UNL A   1      32.295  18.480  22.774  1.00  0.00     0.127 A 
ATOM     22  C   UNL A   1      32.654  18.540  25.124  1.00  0.00     0.127 A 
ATOM     23  F   UNL A   1      32.168  17.785  21.637  1.00  0.00    -0.207 F 
ATOM     24  C   UNL A   1      32.512  17.801  23.962  1.00  0.00     0.078 A 
ATOM     25  F   UNL A   1      32.903  17.908  26.278  1.00  0.00    -0.207 F 
ENDBRANCH  15  18
ENDBRANCH  12  15
ENDBRANCH   8   9
ENDBRANCH   6   8
ENDBRANCH   5   6
ENDBRANCH   4   5
ENDBRANCH   3   4
ENDBRANCH   2   3
ENDBRANCH   1   2
BRANCH   1  26
ATOM     26  C   UNL A   1      34.645  32.683  28.283  1.00  0.00     0.188 C 
BRANCH  26  27
ATOM     27  O   UNL A   1      34.031  33.384  29.356  1.00  0.00    -0.376 OA
BRANCH  27  28
ATOM     28  C   UNL A   1      34.853  33.818  30.435  1.00  0.00     0.202 C 
BRANCH  28  29
ATOM     29  C   UNL A   1      34.649  33.084  31.758  1.00  0.00     0.261 C 
BRANCH  29  30
ATOM     30  O   UNL A   1      35.190  31.748  31.695  1.00  0.00    -0.460 OA
BRANCH  30  31
ATOM     31  C   UNL A   1      36.281  31.526  32.460  1.00  0.00     0.338 C 
ATOM     32  O   UNL A   1      36.447  31.839  33.629  1.00  0.00    -0.246 OA
BRANCH  31  33
ATOM     33  C   UNL A   1      37.278  30.756  31.704  1.00  0.00     0.060 A 
ATOM     34  C   UNL A   1      38.321  30.148  32.406  1.00  0.00     0.016 A 
ATOM     35  C   UNL A   1      37.266  30.759  30.308  1.00  0.00     0.016 A 
ATOM     36  C   UNL A   1      39.392  29.593  31.707  1.00  0.00     0.010 A 
ATOM     37  C   UNL A   1      38.324  30.170  29.609  1.00  0.00     0.010 A 
ATOM     38  C   UNL A   1      39.423  29.636  30.304  1.00  0.00    -0.014 A 
BRANCH  38  39
ATOM     39  C   UNL A   1      40.676  29.284  29.585  1.00  0.00     0.031 A 
ATOM     40  C   UNL A   1      40.828  27.903  29.002  1.00  0.00     0.074 A 
ATOM     41  C   UNL A   1      41.649  30.195  29.403  1.00  0.00     0.049 A 
ATOM     42  N   UNL A   1      41.811  27.399  28.298  1.00  0.00    -0.248 NA
ATOM     43  C   UNL A   1      39.728  26.955  29.252  1.00  0.00     0.031 C 
ATOM     44  C   UNL A   1      41.624  31.564  29.912  1.00  0.00     0.029 A 
ATOM     45  N   UNL A   1      42.843  30.105  28.731  1.00  0.00    -0.354 N 
ATOM     46  C   UNL A   1      41.452  26.083  28.034  1.00  0.00     0.074 A 
ATOM     47  C   UNL A   1      40.190  25.846  28.693  1.00  0.00     0.031 C 
ATOM     48  C   UNL A   1      42.741  32.196  29.514  1.00  0.00     0.029 A 
ATOM     49  C   UNL A   1      43.571  31.269  28.744  1.00  0.00     0.049 A 
ATOM     50  H   UNL A   1      43.148  29.285  28.281  1.00  0.00     0.167 HD
ATOM     51  C   UNL A   1      42.103  25.162  27.286  1.00  0.00     0.037 A 
ATOM     52  C   UNL A   1      44.768  31.558  28.196  1.00  0.00     0.037 A 
ATOM     53  C   UNL A   1      43.344  25.406  26.600  1.00  0.00     0.049 A 
ATOM     54  C   UNL A   1      45.491  30.511  27.389  1.00  0.00     0.074 A 
ATOM     55  C   UNL A   1      44.053  24.552  25.775  1.00  0.00     0.029 A 
ATOM     56  N   UNL A   1      44.060  26.592  26.661  1.00  0.00    -0.354 N 
ATOM     57  N   UNL A   1      45.119  29.287  27.104  1.00  0.00    -0.248 NA
ATOM     58  C   UNL A   1      46.797  30.884  26.824  1.00  0.00     0.031 C 
ATOM     59  C   UNL A   1      45.226  25.201  25.380  1.00  0.00     0.029 A 
ATOM     60  C   UNL A   1      45.218  26.481  25.911  1.00  0.00     0.049 A 
ATOM     61  H   UNL A   1      43.785  27.393  27.163  1.00  0.00     0.167 HD
ATOM     62  C   UNL A   1      46.123  28.756  26.305  1.00  0.00     0.074 A 
ATOM     63  C   UNL A   1      47.124  29.790  26.148  1.00  0.00     0.031 C 
ATOM     64  C   UNL A   1      46.201  27.523  25.749  1.00  0.00     0.037 A 
BRANCH  51  65
ATOM     65  C   UNL A   1      41.488  23.798  27.164  1.00  0.00     0.064 A 
ATOM     66  C   UNL A   1      42.116  22.682  27.740  1.00  0.00     0.173 A 
ATOM     67  C   UNL A   1      40.307  23.583  26.437  1.00  0.00     0.173 A 
ATOM     68  F   UNL A   1      43.252  22.830  28.437  1.00  0.00    -0.203 F 
ATOM     69  C   UNL A   1      41.587  21.403  27.586  1.00  0.00     0.198 A 
ATOM     70  C   UNL A   1      39.764  22.307  26.313  1.00  0.00     0.198 A 
ATOM     71  F   UNL A   1      39.663  24.617  25.875  1.00  0.00    -0.203 F 
ATOM     72  F   UNL A   1      42.219  20.350  28.120  1.00  0.00    -0.200 F 
ATOM     73  C   UNL A   1      40.409  21.218  26.880  1.00  0.00     0.200 A 
ATOM     74  F   UNL A   1      38.611  22.134  25.652  1.00  0.00    -0.200 F 
ATOM     75  F   UNL A   1      39.891  19.989  26.748  1.00  0.00    -0.200 F 
ENDBRANCH  51  65
BRANCH  52  76
ATOM     76  C   UNL A   1      45.330  32.924  28.361  1.00  0.00     0.064 A 
ATOM     77  C   UNL A   1      44.922  33.983  27.537  1.00  0.00     0.173 A 
ATOM     78  C   UNL A   1      46.327  33.182  29.311  1.00  0.00     0.173 A 
ATOM     79  F   UNL A   1      43.971  33.788  26.612  1.00  0.00    -0.203 F 
ATOM     80  C   UNL A   1      45.513  35.241  27.637  1.00  0.00     0.198 A 
ATOM     81  C   UNL A   1      46.898  34.448  29.428  1.00  0.00     0.198 A 
ATOM     82  F   UNL A   1      46.734  32.207  30.137  1.00  0.00    -0.203 F 
ATOM     83  F   UNL A   1      45.136  36.223  26.807  1.00  0.00    -0.200 F 
ATOM     84  C   UNL A   1      46.499  35.473  28.583  1.00  0.00     0.200 A 
ATOM     85  F   UNL A   1      47.836  34.674  30.357  1.00  0.00    -0.200 F 
ATOM     86  F   UNL A   1      47.066  36.683  28.680  1.00  0.00    -0.200 F 
ENDBRANCH  52  76
BRANCH  64  87
ATOM     87  C   UNL A   1      47.388  27.204  24.887  1.00  0.00     0.064 A 
ATOM     88  C   UNL A   1      48.517  26.580  25.441  1.00  0.00     0.173 A 
ATOM     89  C   UNL A   1      47.460  27.633  23.554  1.00  0.00     0.173 A 
ATOM     90  F   UNL A   1      48.500  26.163  26.715  1.00  0.00    -0.203 F 
ATOM     91  C   UNL A   1      49.685  26.424  24.701  1.00  0.00     0.198 A 
ATOM     92  C   UNL A   1      48.623  27.452  22.809  1.00  0.00     0.198 A 
ATOM     93  F   UNL A   1      46.405  28.226  22.977  1.00  0.00    -0.203 F 
ATOM     94  F   UNL A   1      50.767  25.872  25.267  1.00  0.00    -0.200 F 
ATOM     95  C   UNL A   1      49.738  26.862  23.386  1.00  0.00     0.200 A 
ATOM     96  F   UNL A   1      48.669  27.860  21.533  1.00  0.00    -0.200 F 
ATOM     97  F   UNL A   1      50.866  26.718  22.676  1.00  0.00    -0.200 F 
ENDBRANCH  64  87
ENDBRANCH  38  39
ENDBRANCH  31  33
ENDBRANCH  30  31
ENDBRANCH  29  30
ENDBRANCH  28  29
ENDBRANCH  27  28
ENDBRANCH  26  27
ENDBRANCH   1  26
TORSDOF 20
ENDMDL
