MODEL 1
REMARK VINA RESULT:      -9.6      0.000      0.000
REMARK SMILES CC[C@@]1(CC(=O)OCCOCCOCCOC(=O)c2ccc(-c3c4nc(c(-c5c(F)c(F)c(F)c(F)c5F)c5ccc([nH]5)c(-c5c(F)c(F)c(F)c(F)c5F)c5nc(c(-c6c(F)c(F)c(F)c(F)c6F)c6ccc3[nH]6)C=C5)C=C4)cc2)OC[C@H](Cc2ccccc2)c2c1[nH]c1ccccc21
REMARK SMILES IDX 11 1 10 2 9 3 8 4 7 5 5 6 6 7 4 8 3 9 82 10 93 11 83 12
REMARK SMILES IDX 92 13 94 14 84 15 100 16 95 17 99 19 96 20 98 21 97 22 2 23
REMARK SMILES IDX 1 24 85 25 86 26 87 27 91 28 88 29 90 30 89 31 12 32 13 33
REMARK SMILES IDX 14 34 15 35 16 36 17 37 18 38 19 39 20 40 81 41 21 42 80 43
REMARK SMILES IDX 22 44 23 45 24 46 74 47 25 48 79 49 73 50 75 51 26 52 78 53
REMARK SMILES IDX 72 54 71 55 27 57 59 58 39 59 58 60 40 61 43 62 57 63 76 64
REMARK SMILES IDX 41 65 42 66 56 68 77 69 44 70 28 71 29 72 37 73 30 74 31 75
REMARK SMILES IDX 35 76 38 77 32 78 33 79 36 80 34 81 60 82 61 83 69 84 62 85
REMARK SMILES IDX 63 86 67 87 70 88 64 89 65 90 68 91 66 92 45 93 46 94 54 95
REMARK SMILES IDX 47 96 48 97 52 98 55 99 49 100 50 101 53 102 51 103
REMARK H PARENT 94 18 75 56 43 67
REMARK Flexibility Score: inf
ROOT
ATOM      1  C   UNL A   1      32.920  36.818  31.745  1.00  0.00     0.188 C 
ENDROOT
BRANCH   1   2
ATOM      2  O   UNL A   1      33.407  35.721  32.509  1.00  0.00    -0.376 OA
BRANCH   2   3
ATOM      3  C   UNL A   1      34.481  35.907  33.420  1.00  0.00     0.202 C 
BRANCH   3   4
ATOM      4  C   UNL A   1      35.445  34.720  33.566  1.00  0.00     0.261 C 
BRANCH   4   5
ATOM      5  O   UNL A   1      35.207  33.902  34.749  1.00  0.00    -0.463 OA
BRANCH   5   6
ATOM      6  C   UNL A   1      36.286  33.665  35.531  1.00  0.00     0.309 C 
ATOM      7  O   UNL A   1      36.203  33.621  36.760  1.00  0.00    -0.252 OA
BRANCH   6   8
ATOM      8  C   UNL A   1      37.581  33.167  34.863  1.00  0.00     0.164 C 
BRANCH   8   9
ATOM      9  C   UNL A   1      38.013  32.064  33.874  1.00  0.00     0.118 C 
ATOM     10  O   UNL A   1      38.743  31.008  34.579  1.00  0.00    -0.368 OA
ATOM     11  C   UNL A   1      39.050  32.610  32.893  1.00  0.00     0.053 A 
ATOM     12  C   UNL A   1      40.087  31.246  35.017  1.00  0.00     0.170 C 
ATOM     13  C   UNL A   1      40.430  32.432  32.923  1.00  0.00    -0.011 A 
ATOM     14  N   UNL A   1      38.780  33.464  31.854  1.00  0.00    -0.356 N 
ATOM     15  C   UNL A   1      41.138  31.632  33.975  1.00  0.00     0.052 C 
ATOM     16  C   UNL A   1      40.982  33.075  31.784  1.00  0.00     0.003 A 
ATOM     17  C   UNL A   1      39.937  33.748  31.156  1.00  0.00     0.046 A 
ATOM     18  H   UNL A   1      37.891  33.824  31.637  1.00  0.00     0.166 HD
ATOM     19  C   UNL A   1      42.276  33.156  31.234  1.00  0.00     0.010 A 
ATOM     20  C   UNL A   1      40.137  34.533  30.015  1.00  0.00     0.026 A 
ATOM     21  C   UNL A   1      42.487  33.916  30.086  1.00  0.00     0.001 A 
ATOM     22  C   UNL A   1      41.433  34.603  29.493  1.00  0.00     0.002 A 
BRANCH   9  23
ATOM     23  C   UNL A   1      36.827  31.352  33.190  1.00  0.00     0.039 C 
ATOM     24  C   UNL A   1      37.180  29.988  32.587  1.00  0.00     0.007 C 
ENDBRANCH   9  23
BRANCH  15  25
ATOM     25  C   UNL A   1      42.319  32.405  34.643  1.00  0.00     0.046 C 
BRANCH  25  26
ATOM     26  C   UNL A   1      43.413  31.719  35.441  1.00  0.00    -0.047 A 
ATOM     27  C   UNL A   1      44.706  32.225  35.570  1.00  0.00     0.004 A 
ATOM     28  C   UNL A   1      43.072  30.596  36.218  1.00  0.00     0.004 A 
ATOM     29  C   UNL A   1      45.646  31.580  36.390  1.00  0.00     0.000 A 
ATOM     30  C   UNL A   1      44.002  29.951  37.029  1.00  0.00     0.000 A 
ATOM     31  C   UNL A   1      45.301  30.434  37.104  1.00  0.00     0.000 A 
ENDBRANCH  25  26
ENDBRANCH  15  25
ENDBRANCH   8   9
ENDBRANCH   6   8
ENDBRANCH   5   6
ENDBRANCH   4   5
ENDBRANCH   3   4
ENDBRANCH   2   3
ENDBRANCH   1   2
BRANCH   1  32
ATOM     32  C   UNL A   1      32.983  36.800  30.213  1.00  0.00     0.188 C 
BRANCH  32  33
ATOM     33  O   UNL A   1      34.000  35.960  29.732  1.00  0.00    -0.376 OA
BRANCH  33  34
ATOM     34  C   UNL A   1      33.725  34.604  29.465  1.00  0.00     0.202 C 
BRANCH  34  35
ATOM     35  C   UNL A   1      34.581  33.456  30.043  1.00  0.00     0.261 C 
BRANCH  35  36
ATOM     36  O   UNL A   1      35.569  32.899  29.159  1.00  0.00    -0.460 OA
BRANCH  36  37
ATOM     37  C   UNL A   1      35.311  31.710  28.560  1.00  0.00     0.338 C 
ATOM     38  O   UNL A   1      34.266  31.389  28.002  1.00  0.00    -0.246 OA
BRANCH  37  39
ATOM     39  C   UNL A   1      36.613  30.997  28.387  1.00  0.00     0.060 A 
ATOM     40  C   UNL A   1      36.712  29.698  27.869  1.00  0.00     0.016 A 
ATOM     41  C   UNL A   1      37.731  31.550  29.001  1.00  0.00     0.016 A 
ATOM     42  C   UNL A   1      37.834  28.889  28.162  1.00  0.00     0.010 A 
ATOM     43  C   UNL A   1      38.865  30.757  29.209  1.00  0.00     0.010 A 
ATOM     44  C   UNL A   1      38.893  29.385  28.929  1.00  0.00    -0.014 A 
BRANCH  44  45
ATOM     45  C   UNL A   1      40.171  28.636  29.124  1.00  0.00     0.031 A 
ATOM     46  C   UNL A   1      40.417  28.355  30.551  1.00  0.00     0.074 A 
ATOM     47  C   UNL A   1      41.051  28.104  28.221  1.00  0.00     0.049 A 
ATOM     48  N   UNL A   1      41.547  28.563  31.129  1.00  0.00    -0.248 NA
ATOM     49  C   UNL A   1      39.347  27.925  31.459  1.00  0.00     0.031 C 
ATOM     50  C   UNL A   1      41.039  28.287  26.789  1.00  0.00     0.029 A 
ATOM     51  N   UNL A   1      42.128  27.232  28.339  1.00  0.00    -0.354 N 
ATOM     52  C   UNL A   1      41.396  28.146  32.437  1.00  0.00     0.074 A 
ATOM     53  C   UNL A   1      40.008  27.819  32.613  1.00  0.00     0.031 C 
ATOM     54  C   UNL A   1      41.741  27.325  26.141  1.00  0.00     0.029 A 
ATOM     55  C   UNL A   1      42.509  26.600  27.134  1.00  0.00     0.049 A 
ATOM     56  H   UNL A   1      42.589  27.069  29.193  1.00  0.00     0.167 HD
ATOM     57  C   UNL A   1      42.505  27.948  33.186  1.00  0.00     0.037 A 
ATOM     58  C   UNL A   1      43.511  25.714  26.856  1.00  0.00     0.037 A 
ATOM     59  C   UNL A   1      43.626  28.675  32.634  1.00  0.00     0.049 A 
ATOM     60  C   UNL A   1      44.594  26.035  27.796  1.00  0.00     0.074 A 
ATOM     61  C   UNL A   1      44.015  29.996  32.665  1.00  0.00     0.029 A 
ATOM     62  N   UNL A   1      44.288  28.082  31.588  1.00  0.00    -0.354 N 
ATOM     63  N   UNL A   1      45.284  27.137  27.728  1.00  0.00    -0.248 NA
ATOM     64  C   UNL A   1      44.761  25.251  29.010  1.00  0.00     0.031 C 
ATOM     65  C   UNL A   1      44.842  30.212  31.528  1.00  0.00     0.029 A 
ATOM     66  C   UNL A   1      44.972  29.013  30.836  1.00  0.00     0.049 A 
ATOM     67  H   UNL A   1      44.276  27.116  31.398  1.00  0.00     0.167 HD
ATOM     68  C   UNL A   1      45.532  27.423  29.048  1.00  0.00     0.074 A 
ATOM     69  C   UNL A   1      45.401  26.156  29.753  1.00  0.00     0.031 C 
ATOM     70  C   UNL A   1      45.432  28.701  29.500  1.00  0.00     0.037 A 
BRANCH  57  71
ATOM     71  C   UNL A   1      42.674  26.843  34.187  1.00  0.00     0.064 A 
ATOM     72  C   UNL A   1      42.246  27.063  35.508  1.00  0.00     0.173 A 
ATOM     73  C   UNL A   1      43.524  25.736  33.994  1.00  0.00     0.173 A 
ATOM     74  F   UNL A   1      41.399  28.061  35.795  1.00  0.00    -0.203 F 
ATOM     75  C   UNL A   1      42.741  26.310  36.575  1.00  0.00     0.198 A 
ATOM     76  C   UNL A   1      44.012  24.982  35.057  1.00  0.00     0.198 A 
ATOM     77  F   UNL A   1      43.979  25.391  32.785  1.00  0.00    -0.203 F 
ATOM     78  F   UNL A   1      42.386  26.622  37.828  1.00  0.00    -0.200 F 
ATOM     79  C   UNL A   1      43.649  25.291  36.351  1.00  0.00     0.200 A 
ATOM     80  F   UNL A   1      44.894  24.000  34.820  1.00  0.00    -0.200 F 
ATOM     81  F   UNL A   1      44.194  24.628  37.378  1.00  0.00    -0.200 F 
ENDBRANCH  57  71
BRANCH  58  82
ATOM     82  C   UNL A   1      43.731  24.660  25.816  1.00  0.00     0.064 A 
ATOM     83  C   UNL A   1      44.915  24.584  25.054  1.00  0.00     0.173 A 
ATOM     84  C   UNL A   1      42.947  23.495  25.818  1.00  0.00     0.173 A 
ATOM     85  F   UNL A   1      45.756  25.626  25.005  1.00  0.00    -0.203 F 
ATOM     86  C   UNL A   1      45.310  23.407  24.398  1.00  0.00     0.198 A 
ATOM     87  C   UNL A   1      43.347  22.314  25.181  1.00  0.00     0.198 A 
ATOM     88  F   UNL A   1      41.835  23.449  26.551  1.00  0.00    -0.203 F 
ATOM     89  F   UNL A   1      46.486  23.357  23.757  1.00  0.00    -0.200 F 
ATOM     90  C   UNL A   1      44.535  22.265  24.481  1.00  0.00     0.200 A 
ATOM     91  F   UNL A   1      42.634  21.190  25.340  1.00  0.00    -0.200 F 
ATOM     92  F   UNL A   1      44.957  21.112  23.944  1.00  0.00    -0.200 F 
ENDBRANCH  58  82
BRANCH  70  93
ATOM     93  C   UNL A   1      45.648  29.817  28.511  1.00  0.00     0.064 A 
ATOM     94  C   UNL A   1      44.641  30.649  27.991  1.00  0.00     0.173 A 
ATOM     95  C   UNL A   1      46.961  30.089  28.104  1.00  0.00     0.173 A 
ATOM     96  F   UNL A   1      43.366  30.504  28.362  1.00  0.00    -0.203 F 
ATOM     97  C   UNL A   1      44.931  31.682  27.099  1.00  0.00     0.198 A 
ATOM     98  C   UNL A   1      47.255  31.145  27.243  1.00  0.00     0.198 A 
ATOM     99  F   UNL A   1      47.976  29.344  28.571  1.00  0.00    -0.203 F 
ATOM    100  F   UNL A   1      43.945  32.447  26.609  1.00  0.00    -0.200 F 
ATOM    101  C   UNL A   1      46.240  31.935  26.734  1.00  0.00     0.200 A 
ATOM    102  F   UNL A   1      48.530  31.404  26.922  1.00  0.00    -0.200 F 
ATOM    103  F   UNL A   1      46.527  32.951  25.907  1.00  0.00    -0.200 F 
ENDBRANCH  70  93
ENDBRANCH  44  45
ENDBRANCH  37  39
ENDBRANCH  36  37
ENDBRANCH  35  36
ENDBRANCH  34  35
ENDBRANCH  33  34
ENDBRANCH  32  33
ENDBRANCH   1  32
TORSDOF 21
ENDMDL
MODEL 2
REMARK VINA RESULT:      -9.3      2.293      3.633
REMARK SMILES CC[C@@]1(CC(=O)OCCOCCOCCOC(=O)c2ccc(-c3c4nc(c(-c5c(F)c(F)c(F)c(F)c5F)c5ccc([nH]5)c(-c5c(F)c(F)c(F)c(F)c5F)c5nc(c(-c6c(F)c(F)c(F)c(F)c6F)c6ccc3[nH]6)C=C5)C=C4)cc2)OC[C@H](Cc2ccccc2)c2c1[nH]c1ccccc21
REMARK SMILES IDX 11 1 10 2 9 3 8 4 7 5 5 6 6 7 4 8 3 9 82 10 93 11 83 12
REMARK SMILES IDX 92 13 94 14 84 15 100 16 95 17 99 19 96 20 98 21 97 22 2 23
REMARK SMILES IDX 1 24 85 25 86 26 87 27 91 28 88 29 90 30 89 31 12 32 13 33
REMARK SMILES IDX 14 34 15 35 16 36 17 37 18 38 19 39 20 40 81 41 21 42 80 43
REMARK SMILES IDX 22 44 23 45 24 46 74 47 25 48 79 49 73 50 75 51 26 52 78 53
REMARK SMILES IDX 72 54 71 55 27 57 59 58 39 59 58 60 40 61 43 62 57 63 76 64
REMARK SMILES IDX 41 65 42 66 56 68 77 69 44 70 28 71 29 72 37 73 30 74 31 75
REMARK SMILES IDX 35 76 38 77 32 78 33 79 36 80 34 81 60 82 61 83 69 84 62 85
REMARK SMILES IDX 63 86 67 87 70 88 64 89 65 90 68 91 66 92 45 93 46 94 54 95
REMARK SMILES IDX 47 96 48 97 52 98 55 99 49 100 50 101 53 102 51 103
REMARK H PARENT 94 18 75 56 43 67
REMARK Flexibility Score: inf
ROOT
ATOM      1  C   UNL A   1      33.460  37.092  31.853  1.00  0.00     0.188 C 
ENDROOT
BRANCH   1   2
ATOM      2  O   UNL A   1      34.554  36.715  32.681  1.00  0.00    -0.376 OA
BRANCH   2   3
ATOM      3  C   UNL A   1      34.322  36.032  33.904  1.00  0.00     0.202 C 
BRANCH   3   4
ATOM      4  C   UNL A   1      35.158  34.764  34.128  1.00  0.00     0.261 C 
BRANCH   4   5
ATOM      5  O   UNL A   1      36.589  34.948  33.916  1.00  0.00    -0.463 OA
BRANCH   5   6
ATOM      6  C   UNL A   1      37.216  33.966  33.227  1.00  0.00     0.309 C 
ATOM      7  O   UNL A   1      37.588  34.123  32.062  1.00  0.00    -0.252 OA
BRANCH   6   8
ATOM      8  C   UNL A   1      37.719  32.733  34.000  1.00  0.00     0.164 C 
BRANCH   8   9
ATOM      9  C   UNL A   1      38.935  32.335  34.863  1.00  0.00     0.118 C 
ATOM     10  O   UNL A   1      38.643  31.113  35.618  1.00  0.00    -0.368 OA
ATOM     11  C   UNL A   1      39.170  33.374  35.958  1.00  0.00     0.053 A 
ATOM     12  C   UNL A   1      37.766  31.172  36.749  1.00  0.00     0.170 C 
ATOM     13  C   UNL A   1      38.817  33.293  37.302  1.00  0.00    -0.011 A 
ATOM     14  N   UNL A   1      39.696  34.625  35.758  1.00  0.00    -0.356 N 
ATOM     15  C   UNL A   1      38.124  32.108  37.904  1.00  0.00     0.052 C 
ATOM     16  C   UNL A   1      39.281  34.466  37.951  1.00  0.00     0.003 A 
ATOM     17  C   UNL A   1      39.789  35.302  36.958  1.00  0.00     0.046 A 
ATOM     18  H   UNL A   1      39.968  34.989  34.886  1.00  0.00     0.166 HD
ATOM     19  C   UNL A   1      39.308  34.902  39.290  1.00  0.00     0.010 A 
ATOM     20  C   UNL A   1      40.290  36.576  37.243  1.00  0.00     0.026 A 
ATOM     21  C   UNL A   1      39.825  36.161  39.592  1.00  0.00     0.001 A 
ATOM     22  C   UNL A   1      40.299  36.988  38.580  1.00  0.00     0.002 A 
BRANCH   9  23
ATOM     23  C   UNL A   1      40.196  32.009  34.035  1.00  0.00     0.039 C 
ATOM     24  C   UNL A   1      41.403  31.582  34.876  1.00  0.00     0.007 C 
ENDBRANCH   9  23
BRANCH  15  25
ATOM     25  C   UNL A   1      36.847  32.493  38.719  1.00  0.00     0.046 C 
BRANCH  25  26
ATOM     26  C   UNL A   1      36.669  32.157  40.188  1.00  0.00    -0.047 A 
ATOM     27  C   UNL A   1      35.424  32.038  40.805  1.00  0.00     0.004 A 
ATOM     28  C   UNL A   1      37.805  31.796  40.936  1.00  0.00     0.004 A 
ATOM     29  C   UNL A   1      35.330  31.646  42.151  1.00  0.00     0.000 A 
ATOM     30  C   UNL A   1      37.716  31.410  42.271  1.00  0.00     0.000 A 
ATOM     31  C   UNL A   1      36.475  31.350  42.889  1.00  0.00     0.000 A 
ENDBRANCH  25  26
ENDBRANCH  15  25
ENDBRANCH   8   9
ENDBRANCH   6   8
ENDBRANCH   5   6
ENDBRANCH   4   5
ENDBRANCH   3   4
ENDBRANCH   2   3
ENDBRANCH   1   2
BRANCH   1  32
ATOM     32  C   UNL A   1      33.088  36.266  30.616  1.00  0.00     0.188 C 
BRANCH  32  33
ATOM     33  O   UNL A   1      34.011  35.238  30.365  1.00  0.00    -0.376 OA
BRANCH  33  34
ATOM     34  C   UNL A   1      33.920  34.023  31.073  1.00  0.00     0.202 C 
BRANCH  34  35
ATOM     35  C   UNL A   1      34.635  32.737  30.605  1.00  0.00     0.261 C 
BRANCH  35  36
ATOM     36  O   UNL A   1      35.526  32.881  29.486  1.00  0.00    -0.460 OA
BRANCH  36  37
ATOM     37  C   UNL A   1      35.387  32.042  28.430  1.00  0.00     0.338 C 
ATOM     38  O   UNL A   1      34.531  32.113  27.553  1.00  0.00    -0.246 OA
BRANCH  37  39
ATOM     39  C   UNL A   1      36.642  31.239  28.319  1.00  0.00     0.060 A 
ATOM     40  C   UNL A   1      36.657  29.886  27.952  1.00  0.00     0.016 A 
ATOM     41  C   UNL A   1      37.803  31.793  28.848  1.00  0.00     0.016 A 
ATOM     42  C   UNL A   1      37.738  29.052  28.319  1.00  0.00     0.010 A 
ATOM     43  C   UNL A   1      38.895  30.963  29.129  1.00  0.00     0.010 A 
ATOM     44  C   UNL A   1      38.840  29.569  29.007  1.00  0.00    -0.014 A 
BRANCH  44  45
ATOM     45  C   UNL A   1      40.077  28.774  29.267  1.00  0.00     0.031 A 
ATOM     46  C   UNL A   1      40.303  28.585  30.712  1.00  0.00     0.074 A 
ATOM     47  C   UNL A   1      40.934  28.134  28.412  1.00  0.00     0.049 A 
ATOM     48  N   UNL A   1      41.438  28.778  31.284  1.00  0.00    -0.248 NA
ATOM     49  C   UNL A   1      39.208  28.276  31.640  1.00  0.00     0.031 C 
ATOM     50  C   UNL A   1      40.938  28.212  26.971  1.00  0.00     0.029 A 
ATOM     51  N   UNL A   1      41.966  27.221  28.602  1.00  0.00    -0.354 N 
ATOM     52  C   UNL A   1      41.260  28.466  32.617  1.00  0.00     0.074 A 
ATOM     53  C   UNL A   1      39.857  28.222  32.804  1.00  0.00     0.031 C 
ATOM     54  C   UNL A   1      41.594  27.172  26.401  1.00  0.00     0.029 A 
ATOM     55  C   UNL A   1      42.320  26.484  27.450  1.00  0.00     0.049 A 
ATOM     56  H   UNL A   1      42.414  27.097  29.470  1.00  0.00     0.167 HD
ATOM     57  C   UNL A   1      42.355  28.268  33.388  1.00  0.00     0.037 A 
ATOM     58  C   UNL A   1      43.278  25.532  27.245  1.00  0.00     0.037 A 
ATOM     59  C   UNL A   1      43.513  28.896  32.794  1.00  0.00     0.049 A 
ATOM     60  C   UNL A   1      44.371  25.866  28.169  1.00  0.00     0.074 A 
ATOM     61  C   UNL A   1      43.968  30.195  32.732  1.00  0.00     0.029 A 
ATOM     62  N   UNL A   1      44.150  28.197  31.799  1.00  0.00    -0.354 N 
ATOM     63  N   UNL A   1      45.116  26.925  28.027  1.00  0.00    -0.248 NA
ATOM     64  C   UNL A   1      44.492  25.165  29.437  1.00  0.00     0.031 C 
ATOM     65  C   UNL A   1      44.810  30.286  31.590  1.00  0.00     0.029 A 
ATOM     66  C   UNL A   1      44.884  29.035  30.988  1.00  0.00     0.049 A 
ATOM     67  H   UNL A   1      44.090  27.221  31.680  1.00  0.00     0.167 HD
ATOM     68  C   UNL A   1      45.371  27.293  29.325  1.00  0.00     0.074 A 
ATOM     69  C   UNL A   1      45.173  26.089  30.119  1.00  0.00     0.031 C 
ATOM     70  C   UNL A   1      45.333  28.604  29.682  1.00  0.00     0.037 A 
BRANCH  57  71
ATOM     71  C   UNL A   1      42.463  27.232  34.467  1.00  0.00     0.064 A 
ATOM     72  C   UNL A   1      42.902  25.942  34.118  1.00  0.00     0.173 A 
ATOM     73  C   UNL A   1      41.845  27.348  35.728  1.00  0.00     0.173 A 
ATOM     74  F   UNL A   1      43.544  25.729  32.961  1.00  0.00    -0.203 F 
ATOM     75  C   UNL A   1      42.624  24.831  34.916  1.00  0.00     0.198 A 
ATOM     76  C   UNL A   1      41.573  26.240  36.526  1.00  0.00     0.198 A 
ATOM     77  F   UNL A   1      41.409  28.520  36.201  1.00  0.00    -0.203 F 
ATOM     78  F   UNL A   1      42.971  23.608  34.494  1.00  0.00    -0.200 F 
ATOM     79  C   UNL A   1      41.930  24.977  36.104  1.00  0.00     0.200 A 
ATOM     80  F   UNL A   1      40.897  26.402  37.673  1.00  0.00    -0.200 F 
ATOM     81  F   UNL A   1      41.583  23.904  36.825  1.00  0.00    -0.200 F 
ENDBRANCH  57  71
BRANCH  58  82
ATOM     82  C   UNL A   1      43.450  24.395  26.286  1.00  0.00     0.064 A 
ATOM     83  C   UNL A   1      44.423  24.406  25.266  1.00  0.00     0.173 A 
ATOM     84  C   UNL A   1      42.919  23.131  26.591  1.00  0.00     0.173 A 
ATOM     85  F   UNL A   1      45.021  25.552  24.913  1.00  0.00    -0.203 F 
ATOM     86  C   UNL A   1      44.872  23.229  24.646  1.00  0.00     0.198 A 
ATOM     87  C   UNL A   1      43.378  21.953  25.989  1.00  0.00     0.198 A 
ATOM     88  F   UNL A   1      42.031  23.008  27.577  1.00  0.00    -0.203 F 
ATOM     89  F   UNL A   1      45.861  23.281  23.742  1.00  0.00    -0.200 F 
ATOM     90  C   UNL A   1      44.364  22.000  25.024  1.00  0.00     0.200 A 
ATOM     91  F   UNL A   1      42.943  20.762  26.423  1.00  0.00    -0.200 F 
ATOM     92  F   UNL A   1      44.862  20.866  24.510  1.00  0.00    -0.200 F 
ENDBRANCH  58  82
BRANCH  70  93
ATOM     93  C   UNL A   1      45.610  29.633  28.616  1.00  0.00     0.064 A 
ATOM     94  C   UNL A   1      44.632  30.353  27.908  1.00  0.00     0.173 A 
ATOM     95  C   UNL A   1      46.947  29.941  28.332  1.00  0.00     0.173 A 
ATOM     96  F   UNL A   1      43.331  30.170  28.148  1.00  0.00    -0.203 F 
ATOM     97  C   UNL A   1      44.975  31.313  26.954  1.00  0.00     0.198 A 
ATOM     98  C   UNL A   1      47.289  30.926  27.408  1.00  0.00     0.198 A 
ATOM     99  F   UNL A   1      47.935  29.303  28.980  1.00  0.00    -0.203 F 
ATOM    100  F   UNL A   1      44.017  31.970  26.285  1.00  0.00    -0.200 F 
ATOM    101  C   UNL A   1      46.304  31.606  26.713  1.00  0.00     0.200 A 
ATOM    102  F   UNL A   1      48.579  31.228  27.205  1.00  0.00    -0.200 F 
ATOM    103  F   UNL A   1      46.637  32.554  25.826  1.00  0.00    -0.200 F 
ENDBRANCH  70  93
ENDBRANCH  44  45
ENDBRANCH  37  39
ENDBRANCH  36  37
ENDBRANCH  35  36
ENDBRANCH  34  35
ENDBRANCH  33  34
ENDBRANCH  32  33
ENDBRANCH   1  32
TORSDOF 21
ENDMDL
MODEL 3
REMARK VINA RESULT:      -8.7      4.474     10.692
REMARK SMILES CC[C@@]1(CC(=O)OCCOCCOCCOC(=O)c2ccc(-c3c4nc(c(-c5c(F)c(F)c(F)c(F)c5F)c5ccc([nH]5)c(-c5c(F)c(F)c(F)c(F)c5F)c5nc(c(-c6c(F)c(F)c(F)c(F)c6F)c6ccc3[nH]6)C=C5)C=C4)cc2)OC[C@H](Cc2ccccc2)c2c1[nH]c1ccccc21
REMARK SMILES IDX 11 1 10 2 9 3 8 4 7 5 5 6 6 7 4 8 3 9 82 10 93 11 83 12
REMARK SMILES IDX 92 13 94 14 84 15 100 16 95 17 99 19 96 20 98 21 97 22 2 23
REMARK SMILES IDX 1 24 85 25 86 26 87 27 91 28 88 29 90 30 89 31 12 32 13 33
REMARK SMILES IDX 14 34 15 35 16 36 17 37 18 38 19 39 20 40 81 41 21 42 80 43
REMARK SMILES IDX 22 44 23 45 24 46 74 47 25 48 79 49 73 50 75 51 26 52 78 53
REMARK SMILES IDX 72 54 71 55 27 57 59 58 39 59 58 60 40 61 43 62 57 63 76 64
REMARK SMILES IDX 41 65 42 66 56 68 77 69 44 70 28 71 29 72 37 73 30 74 31 75
REMARK SMILES IDX 35 76 38 77 32 78 33 79 36 80 34 81 60 82 61 83 69 84 62 85
REMARK SMILES IDX 63 86 67 87 70 88 64 89 65 90 68 91 66 92 45 93 46 94 54 95
REMARK SMILES IDX 47 96 48 97 52 98 55 99 49 100 50 101 53 102 51 103
REMARK H PARENT 94 18 75 56 43 67
REMARK Flexibility Score: inf
ROOT
ATOM      1  C   UNL A   1      49.561  35.628  25.048  1.00  0.00     0.188 C 
ENDROOT
BRANCH   1   2
ATOM      2  O   UNL A   1      48.596  34.584  25.011  1.00  0.00    -0.376 OA
BRANCH   2   3
ATOM      3  C   UNL A   1      48.296  33.847  26.188  1.00  0.00     0.202 C 
BRANCH   3   4
ATOM      4  C   UNL A   1      46.805  33.714  26.531  1.00  0.00     0.261 C 
BRANCH   4   5
ATOM      5  O   UNL A   1      46.247  32.395  26.259  1.00  0.00    -0.463 OA
BRANCH   5   6
ATOM      6  C   UNL A   1      44.916  32.357  26.010  1.00  0.00     0.309 C 
ATOM      7  O   UNL A   1      44.425  32.887  25.012  1.00  0.00    -0.252 OA
BRANCH   6   8
ATOM      8  C   UNL A   1      44.043  31.399  26.841  1.00  0.00     0.164 C 
BRANCH   8   9
ATOM      9  C   UNL A   1      44.202  30.456  28.053  1.00  0.00     0.118 C 
ATOM     10  O   UNL A   1      45.142  29.378  27.737  1.00  0.00    -0.368 OA
ATOM     11  C   UNL A   1      42.895  29.713  28.320  1.00  0.00     0.053 A 
ATOM     12  C   UNL A   1      44.732  28.314  26.869  1.00  0.00     0.170 C 
ATOM     13  C   UNL A   1      42.570  28.404  27.975  1.00  0.00    -0.011 A 
ATOM     14  N   UNL A   1      41.770  30.269  28.876  1.00  0.00    -0.356 N 
ATOM     15  C   UNL A   1      43.509  27.482  27.258  1.00  0.00     0.052 C 
ATOM     16  C   UNL A   1      41.271  28.127  28.473  1.00  0.00     0.003 A 
ATOM     17  C   UNL A   1      40.775  29.320  28.993  1.00  0.00     0.046 A 
ATOM     18  H   UNL A   1      41.684  31.210  29.150  1.00  0.00     0.166 HD
ATOM     19  C   UNL A   1      40.464  26.973  28.519  1.00  0.00     0.010 A 
ATOM     20  C   UNL A   1      39.486  29.420  29.528  1.00  0.00     0.026 A 
ATOM     21  C   UNL A   1      39.185  27.052  29.069  1.00  0.00     0.001 A 
ATOM     22  C   UNL A   1      38.702  28.261  29.556  1.00  0.00     0.002 A 
BRANCH   9  23
ATOM     23  C   UNL A   1      44.787  31.153  29.299  1.00  0.00     0.039 C 
ATOM     24  C   UNL A   1      45.976  30.417  29.926  1.00  0.00     0.007 C 
ENDBRANCH   9  23
BRANCH  15  25
ATOM     25  C   UNL A   1      42.872  26.817  25.997  1.00  0.00     0.046 C 
BRANCH  25  26
ATOM     26  C   UNL A   1      43.124  25.372  25.604  1.00  0.00    -0.047 A 
ATOM     27  C   UNL A   1      44.269  24.945  24.934  1.00  0.00     0.004 A 
ATOM     28  C   UNL A   1      42.234  24.386  26.069  1.00  0.00     0.004 A 
ATOM     29  C   UNL A   1      44.475  23.580  24.673  1.00  0.00     0.000 A 
ATOM     30  C   UNL A   1      42.433  23.033  25.809  1.00  0.00     0.000 A 
ATOM     31  C   UNL A   1      43.549  22.626  25.093  1.00  0.00     0.000 A 
ENDBRANCH  25  26
ENDBRANCH  15  25
ENDBRANCH   8   9
ENDBRANCH   6   8
ENDBRANCH   5   6
ENDBRANCH   4   5
ENDBRANCH   3   4
ENDBRANCH   2   3
ENDBRANCH   1   2
BRANCH   1  32
ATOM     32  C   UNL A   1      49.151  37.087  24.812  1.00  0.00     0.188 C 
BRANCH  32  33
ATOM     33  O   UNL A   1      48.630  37.688  25.969  1.00  0.00    -0.376 OA
BRANCH  33  34
ATOM     34  C   UNL A   1      47.255  37.585  26.257  1.00  0.00     0.202 C 
BRANCH  34  35
ATOM     35  C   UNL A   1      46.630  38.186  27.535  1.00  0.00     0.261 C 
BRANCH  35  36
ATOM     36  O   UNL A   1      45.301  37.740  27.858  1.00  0.00    -0.460 OA
BRANCH  36  37
ATOM     37  C   UNL A   1      44.807  38.007  29.092  1.00  0.00     0.338 C 
ATOM     38  O   UNL A   1      44.611  39.120  29.572  1.00  0.00    -0.246 OA
BRANCH  37  39
ATOM     39  C   UNL A   1      44.220  36.742  29.629  1.00  0.00     0.060 A 
ATOM     40  C   UNL A   1      43.883  35.649  28.818  1.00  0.00     0.016 A 
ATOM     41  C   UNL A   1      43.760  36.759  30.941  1.00  0.00     0.016 A 
ATOM     42  C   UNL A   1      42.918  34.707  29.245  1.00  0.00     0.010 A 
ATOM     43  C   UNL A   1      42.868  35.769  31.370  1.00  0.00     0.010 A 
ATOM     44  C   UNL A   1      42.320  34.815  30.504  1.00  0.00    -0.014 A 
BRANCH  44  45
ATOM     45  C   UNL A   1      41.427  33.758  31.068  1.00  0.00     0.031 A 
ATOM     46  C   UNL A   1      40.055  33.874  30.539  1.00  0.00     0.074 A 
ATOM     47  C   UNL A   1      41.697  32.688  31.878  1.00  0.00     0.049 A 
ATOM     48  N   UNL A   1      39.004  33.832  31.279  1.00  0.00    -0.248 NA
ATOM     49  C   UNL A   1      39.784  34.170  29.127  1.00  0.00     0.031 C 
ATOM     50  C   UNL A   1      42.943  32.400  32.546  1.00  0.00     0.029 A 
ATOM     51  N   UNL A   1      40.960  31.572  32.261  1.00  0.00    -0.354 N 
ATOM     52  C   UNL A   1      37.924  33.934  30.425  1.00  0.00     0.074 A 
ATOM     53  C   UNL A   1      38.451  34.203  29.116  1.00  0.00     0.031 C 
ATOM     54  C   UNL A   1      43.043  31.098  32.910  1.00  0.00     0.029 A 
ATOM     55  C   UNL A   1      41.733  30.499  32.759  1.00  0.00     0.049 A 
ATOM     56  H   UNL A   1      39.979  31.532  32.190  1.00  0.00     0.167 HD
ATOM     57  C   UNL A   1      36.698  33.597  30.888  1.00  0.00     0.037 A 
ATOM     58  C   UNL A   1      41.371  29.272  33.239  1.00  0.00     0.037 A 
ATOM     59  C   UNL A   1      36.668  33.656  32.332  1.00  0.00     0.049 A 
ATOM     60  C   UNL A   1      40.046  29.461  33.846  1.00  0.00     0.074 A 
ATOM     61  C   UNL A   1      36.571  34.685  33.243  1.00  0.00     0.029 A 
ATOM     62  N   UNL A   1      37.164  32.566  33.003  1.00  0.00    -0.354 N 
ATOM     63  N   UNL A   1      39.859  30.157  34.930  1.00  0.00    -0.248 NA
ATOM     64  C   UNL A   1      38.848  29.096  33.106  1.00  0.00     0.031 C 
ATOM     65  C   UNL A   1      37.141  34.216  34.459  1.00  0.00     0.029 A 
ATOM     66  C   UNL A   1      37.547  32.899  34.284  1.00  0.00     0.049 A 
ATOM     67  H   UNL A   1      37.239  31.663  32.617  1.00  0.00     0.167 HD
ATOM     68  C   UNL A   1      38.633  30.735  34.713  1.00  0.00     0.074 A 
ATOM     69  C   UNL A   1      37.974  29.894  33.724  1.00  0.00     0.031 C 
ATOM     70  C   UNL A   1      38.423  32.037  35.048  1.00  0.00     0.037 A 
BRANCH  57  71
ATOM     71  C   UNL A   1      35.649  32.883  30.087  1.00  0.00     0.064 A 
ATOM     72  C   UNL A   1      35.873  31.540  29.734  1.00  0.00     0.173 A 
ATOM     73  C   UNL A   1      34.623  33.540  29.379  1.00  0.00     0.173 A 
ATOM     74  F   UNL A   1      36.794  30.809  30.377  1.00  0.00    -0.203 F 
ATOM     75  C   UNL A   1      35.208  30.943  28.661  1.00  0.00     0.198 A 
ATOM     76  C   UNL A   1      33.957  32.941  28.314  1.00  0.00     0.198 A 
ATOM     77  F   UNL A   1      34.282  34.807  29.634  1.00  0.00    -0.203 F 
ATOM     78  F   UNL A   1      35.528  29.694  28.296  1.00  0.00    -0.200 F 
ATOM     79  C   UNL A   1      34.274  31.655  27.932  1.00  0.00     0.200 A 
ATOM     80  F   UNL A   1      33.056  33.650  27.617  1.00  0.00    -0.200 F 
ATOM     81  F   UNL A   1      33.702  31.116  26.848  1.00  0.00    -0.200 F 
ENDBRANCH  57  71
BRANCH  58  82
ATOM     82  C   UNL A   1      42.044  27.939  33.346  1.00  0.00     0.064 A 
ATOM     83  C   UNL A   1      42.927  27.456  32.359  1.00  0.00     0.173 A 
ATOM     84  C   UNL A   1      42.122  27.288  34.587  1.00  0.00     0.173 A 
ATOM     85  F   UNL A   1      42.962  28.022  31.145  1.00  0.00    -0.203 F 
ATOM     86  C   UNL A   1      43.860  26.439  32.621  1.00  0.00     0.198 A 
ATOM     87  C   UNL A   1      43.064  26.288  34.858  1.00  0.00     0.198 A 
ATOM     88  F   UNL A   1      41.365  27.706  35.601  1.00  0.00    -0.203 F 
ATOM     89  F   UNL A   1      44.738  26.073  31.676  1.00  0.00    -0.200 F 
ATOM     90  C   UNL A   1      43.942  25.871  33.879  1.00  0.00     0.200 A 
ATOM     91  F   UNL A   1      43.194  25.806  36.102  1.00  0.00    -0.200 F 
ATOM     92  F   UNL A   1      44.898  24.975  34.163  1.00  0.00    -0.200 F 
ENDBRANCH  58  82
BRANCH  70  93
ATOM     93  C   UNL A   1      39.267  32.624  36.150  1.00  0.00     0.064 A 
ATOM     94  C   UNL A   1      40.426  33.397  35.961  1.00  0.00     0.173 A 
ATOM     95  C   UNL A   1      38.846  32.434  37.472  1.00  0.00     0.173 A 
ATOM     96  F   UNL A   1      40.875  33.681  34.736  1.00  0.00    -0.203 F 
ATOM     97  C   UNL A   1      41.135  33.931  37.039  1.00  0.00     0.198 A 
ATOM     98  C   UNL A   1      39.531  32.999  38.546  1.00  0.00     0.198 A 
ATOM     99  F   UNL A   1      37.738  31.718  37.728  1.00  0.00    -0.203 F 
ATOM    100  F   UNL A   1      42.246  34.649  36.825  1.00  0.00    -0.200 F 
ATOM    101  C   UNL A   1      40.679  33.740  38.330  1.00  0.00     0.200 A 
ATOM    102  F   UNL A   1      39.064  32.837  39.791  1.00  0.00    -0.200 F 
ATOM    103  F   UNL A   1      41.336  34.283  39.365  1.00  0.00    -0.200 F 
ENDBRANCH  70  93
ENDBRANCH  44  45
ENDBRANCH  37  39
ENDBRANCH  36  37
ENDBRANCH  35  36
ENDBRANCH  34  35
ENDBRANCH  33  34
ENDBRANCH  32  33
ENDBRANCH   1  32
TORSDOF 21
ENDMDL
