MODEL 1
REMARK VINA RESULT:     -11.3      0.000      0.000
REMARK SMILES CC1(C)[C@H](C(=O)Nc2ccccc2C(N)=O)[C@@H]1C(=O)OCCOCCOCCOC(=O)c1ccc(-c2c3nc(c(-c4c(F)c(F)c(F)c(F)c4F)c4ccc([nH]4)c(-c4c(F)c(F)c(F)c(F)c4F)c4nc(c(-c5c(F)c(F)c(F)c(F)c5F)c5ccc2[nH]5)C=C4)C=C3)cc1
REMARK SMILES IDX 24 1 23 2 22 3 21 4 20 5 18 6 19 7 17 8 1 9 2 10 3 11 4 12
REMARK SMILES IDX 5 13 6 14 7 15 8 17 9 18 13 19 10 20 12 21 11 22 14 23 15 24
REMARK SMILES IDX 16 25 25 28 26 29 27 30 28 31 29 32 30 33 31 34 32 35 33 36
REMARK SMILES IDX 94 37 34 38 93 39 35 40 36 41 37 42 87 43 38 44 92 45 86 46
REMARK SMILES IDX 88 47 39 48 91 49 85 50 84 51 40 53 72 54 52 55 71 56 53 57
REMARK SMILES IDX 56 58 70 59 89 60 54 61 55 62 69 64 90 65 57 66 41 67 42 68
REMARK SMILES IDX 50 69 43 70 44 71 48 72 51 73 45 74 46 75 49 76 47 77 73 78
REMARK SMILES IDX 74 79 82 80 75 81 76 82 80 83 83 84 77 85 78 86 81 87 79 88
REMARK SMILES IDX 58 89 59 90 67 91 60 92 61 93 65 94 68 95 62 96 63 97 66 98
REMARK SMILES IDX 64 99
REMARK H PARENT 7 16 15 26 15 27 88 52 56 63
REMARK Flexibility Score: inf
ROOT
ATOM      1  C   UNL A   1      32.982  29.258  24.855  1.00  0.00     0.188 C 
ENDROOT
BRANCH   1   2
ATOM      2  O   UNL A   1      33.220  27.869  24.971  1.00  0.00    -0.376 OA
BRANCH   2   3
ATOM      3  C   UNL A   1      32.810  27.055  23.884  1.00  0.00     0.202 C 
BRANCH   3   4
ATOM      4  C   UNL A   1      32.801  25.525  24.059  1.00  0.00     0.261 C 
BRANCH   4   5
ATOM      5  O   UNL A   1      34.025  24.879  24.457  1.00  0.00    -0.463 OA
BRANCH   5   6
ATOM      6  C   UNL A   1      34.072  24.354  25.698  1.00  0.00     0.310 C 
ATOM      7  O   UNL A   1      33.136  24.405  26.501  1.00  0.00    -0.252 OA
BRANCH   6   8
ATOM      8  C   UNL A   1      35.322  23.556  25.933  1.00  0.00     0.118 C 
ATOM      9  C   UNL A   1      37.487  22.564  24.897  1.00  0.00     0.013 C 
ATOM     10  C   UNL A   1      35.962  22.723  24.860  1.00  0.00    -0.009 C 
ATOM     11  C   UNL A   1      35.532  22.971  23.443  1.00  0.00     0.013 C 
ATOM     12  C   UNL A   1      35.284  22.024  26.046  1.00  0.00     0.100 C 
BRANCH  12  13
ATOM     13  C   UNL A   1      34.064  21.574  26.776  1.00  0.00     0.228 C 
ATOM     14  O   UNL A   1      34.108  21.674  28.007  1.00  0.00    -0.274 OA
ATOM     15  N   UNL A   1      32.849  21.233  26.259  1.00  0.00    -0.325 N 
ATOM     16  H   UNL A   1      32.136  21.149  26.933  1.00  0.00     0.169 HD
BRANCH  15  17
ATOM     17  C   UNL A   1      32.428  20.983  24.958  1.00  0.00     0.053 A 
ATOM     18  C   UNL A   1      31.824  22.083  24.327  1.00  0.00     0.027 A 
ATOM     19  C   UNL A   1      32.627  19.789  24.255  1.00  0.00     0.063 A 
ATOM     20  C   UNL A   1      31.624  22.080  22.952  1.00  0.00     0.002 A 
ATOM     21  C   UNL A   1      32.394  19.789  22.868  1.00  0.00     0.016 A 
ATOM     22  C   UNL A   1      31.949  20.947  22.217  1.00  0.00     0.001 A 
BRANCH  19  23
ATOM     23  C   UNL A   1      32.995  18.530  24.973  1.00  0.00     0.250 C 
ATOM     24  N   UNL A   1      34.257  18.032  24.807  1.00  0.00    -0.366 N 
ATOM     25  O   UNL A   1      32.214  17.933  25.704  1.00  0.00    -0.269 OA
ATOM     26  H   UNL A   1      34.898  18.499  24.223  1.00  0.00     0.159 HD
ATOM     27  H   UNL A   1      34.526  17.206  25.271  1.00  0.00     0.159 HD
ENDBRANCH  19  23
ENDBRANCH  15  17
ENDBRANCH  12  13
ENDBRANCH   6   8
ENDBRANCH   5   6
ENDBRANCH   4   5
ENDBRANCH   3   4
ENDBRANCH   2   3
ENDBRANCH   1   2
BRANCH   1  28
ATOM     28  C   UNL A   1      31.483  29.629  24.818  1.00  0.00     0.188 C 
BRANCH  28  29
ATOM     29  O   UNL A   1      31.049  30.836  25.418  1.00  0.00    -0.376 OA
BRANCH  29  30
ATOM     30  C   UNL A   1      31.689  31.254  26.615  1.00  0.00     0.202 C 
BRANCH  30  31
ATOM     31  C   UNL A   1      31.753  32.754  26.974  1.00  0.00     0.261 C 
BRANCH  31  32
ATOM     32  O   UNL A   1      33.056  33.377  26.931  1.00  0.00    -0.460 OA
BRANCH  32  33
ATOM     33  C   UNL A   1      33.602  33.713  28.130  1.00  0.00     0.338 C 
ATOM     34  O   UNL A   1      33.099  34.410  28.994  1.00  0.00    -0.246 OA
BRANCH  33  35
ATOM     35  C   UNL A   1      34.845  32.940  28.375  1.00  0.00     0.060 A 
ATOM     36  C   UNL A   1      34.742  31.563  28.639  1.00  0.00     0.016 A 
ATOM     37  C   UNL A   1      36.090  33.566  28.425  1.00  0.00     0.016 A 
ATOM     38  C   UNL A   1      35.871  30.819  28.990  1.00  0.00     0.010 A 
ATOM     39  C   UNL A   1      37.217  32.826  28.812  1.00  0.00     0.010 A 
ATOM     40  C   UNL A   1      37.106  31.460  29.138  1.00  0.00    -0.014 A 
BRANCH  40  41
ATOM     41  C   UNL A   1      38.209  30.764  29.854  1.00  0.00     0.031 A 
ATOM     42  C   UNL A   1      38.435  31.101  31.306  1.00  0.00     0.074 A 
ATOM     43  C   UNL A   1      38.975  29.833  29.258  1.00  0.00     0.049 A 
ATOM     44  N   UNL A   1      39.356  30.669  32.132  1.00  0.00    -0.248 NA
ATOM     45  C   UNL A   1      37.493  32.058  31.906  1.00  0.00     0.031 C 
ATOM     46  C   UNL A   1      38.831  29.374  27.880  1.00  0.00     0.029 A 
ATOM     47  N   UNL A   1      40.039  29.113  29.746  1.00  0.00    -0.354 N 
ATOM     48  C   UNL A   1      39.109  31.310  33.339  1.00  0.00     0.074 A 
ATOM     49  C   UNL A   1      37.974  32.182  33.133  1.00  0.00     0.031 C 
ATOM     50  C   UNL A   1      39.785  28.461  27.624  1.00  0.00     0.029 A 
ATOM     51  C   UNL A   1      40.624  28.294  28.811  1.00  0.00     0.049 A 
ATOM     52  H   UNL A   1      40.353  29.177  30.676  1.00  0.00     0.167 HD
ATOM     53  C   UNL A   1      39.764  31.180  34.518  1.00  0.00     0.037 A 
ATOM     54  C   UNL A   1      41.724  27.519  28.899  1.00  0.00     0.037 A 
ATOM     55  C   UNL A   1      40.895  30.316  34.727  1.00  0.00     0.049 A 
ATOM     56  C   UNL A   1      42.485  27.448  30.201  1.00  0.00     0.074 A 
ATOM     57  C   UNL A   1      41.618  30.105  35.888  1.00  0.00     0.029 A 
ATOM     58  N   UNL A   1      41.475  29.524  33.747  1.00  0.00    -0.354 N 
ATOM     59  N   UNL A   1      42.232  28.039  31.344  1.00  0.00    -0.248 NA
ATOM     60  C   UNL A   1      43.682  26.592  30.226  1.00  0.00     0.031 C 
ATOM     61  C   UNL A   1      42.672  29.233  35.596  1.00  0.00     0.029 A 
ATOM     62  C   UNL A   1      42.563  28.844  34.271  1.00  0.00     0.049 A 
ATOM     63  H   UNL A   1      41.161  29.455  32.816  1.00  0.00     0.167 HD
ATOM     64  C   UNL A   1      43.211  27.599  32.229  1.00  0.00     0.074 A 
ATOM     65  C   UNL A   1      44.055  26.683  31.494  1.00  0.00     0.031 C 
ATOM     66  C   UNL A   1      43.390  27.922  33.535  1.00  0.00     0.037 A 
BRANCH  53  67
ATOM     67  C   UNL A   1      39.290  32.020  35.670  1.00  0.00     0.064 A 
ATOM     68  C   UNL A   1      39.701  33.352  35.834  1.00  0.00     0.173 A 
ATOM     69  C   UNL A   1      38.387  31.493  36.607  1.00  0.00     0.173 A 
ATOM     70  F   UNL A   1      40.573  33.901  34.975  1.00  0.00    -0.203 F 
ATOM     71  C   UNL A   1      39.248  34.114  36.908  1.00  0.00     0.198 A 
ATOM     72  C   UNL A   1      37.911  32.270  37.659  1.00  0.00     0.198 A 
ATOM     73  F   UNL A   1      37.959  30.227  36.495  1.00  0.00    -0.203 F 
ATOM     74  F   UNL A   1      39.695  35.367  37.074  1.00  0.00    -0.200 F 
ATOM     75  C   UNL A   1      38.348  33.575  37.815  1.00  0.00     0.200 A 
ATOM     76  F   UNL A   1      37.029  31.751  38.526  1.00  0.00    -0.200 F 
ATOM     77  F   UNL A   1      37.906  34.313  38.842  1.00  0.00    -0.200 F 
ENDBRANCH  53  67
BRANCH  54  78
ATOM     78  C   UNL A   1      42.190  26.746  27.714  1.00  0.00     0.064 A 
ATOM     79  C   UNL A   1      41.694  25.461  27.446  1.00  0.00     0.173 A 
ATOM     80  C   UNL A   1      43.165  27.260  26.847  1.00  0.00     0.173 A 
ATOM     81  F   UNL A   1      40.782  24.912  28.262  1.00  0.00    -0.203 F 
ATOM     82  C   UNL A   1      42.170  24.716  26.369  1.00  0.00     0.198 A 
ATOM     83  C   UNL A   1      43.617  26.525  25.752  1.00  0.00     0.198 A 
ATOM     84  F   UNL A   1      43.677  28.481  27.061  1.00  0.00    -0.203 F 
ATOM     85  F   UNL A   1      41.716  23.471  26.166  1.00  0.00    -0.200 F 
ATOM     86  C   UNL A   1      43.126  25.250  25.520  1.00  0.00     0.200 A 
ATOM     87  F   UNL A   1      44.531  27.053  24.927  1.00  0.00    -0.200 F 
ATOM     88  F   UNL A   1      43.579  24.535  24.481  1.00  0.00    -0.200 F 
ENDBRANCH  54  78
BRANCH  66  89
ATOM     89  C   UNL A   1      44.507  27.239  34.276  1.00  0.00     0.064 A 
ATOM     90  C   UNL A   1      45.767  27.833  34.434  1.00  0.00     0.173 A 
ATOM     91  C   UNL A   1      44.297  25.985  34.871  1.00  0.00     0.173 A 
ATOM     92  F   UNL A   1      46.027  29.027  33.877  1.00  0.00    -0.203 F 
ATOM     93  C   UNL A   1      46.784  27.183  35.131  1.00  0.00     0.198 A 
ATOM     94  C   UNL A   1      45.304  25.354  35.596  1.00  0.00     0.198 A 
ATOM     95  F   UNL A   1      43.107  25.374  34.760  1.00  0.00    -0.203 F 
ATOM     96  F   UNL A   1      47.998  27.746  35.221  1.00  0.00    -0.200 F 
ATOM     97  C   UNL A   1      46.549  25.949  35.717  1.00  0.00     0.200 A 
ATOM     98  F   UNL A   1      45.067  24.170  36.177  1.00  0.00    -0.200 F 
ATOM     99  F   UNL A   1      47.527  25.328  36.392  1.00  0.00    -0.200 F 
ENDBRANCH  66  89
ENDBRANCH  40  41
ENDBRANCH  33  35
ENDBRANCH  32  33
ENDBRANCH  31  32
ENDBRANCH  30  31
ENDBRANCH  29  30
ENDBRANCH  28  29
ENDBRANCH   1  28
TORSDOF 20
ENDMDL
MODEL 2
REMARK VINA RESULT:     -11.2      4.319      6.715
REMARK SMILES CC1(C)[C@H](C(=O)Nc2ccccc2C(N)=O)[C@@H]1C(=O)OCCOCCOCCOC(=O)c1ccc(-c2c3nc(c(-c4c(F)c(F)c(F)c(F)c4F)c4ccc([nH]4)c(-c4c(F)c(F)c(F)c(F)c4F)c4nc(c(-c5c(F)c(F)c(F)c(F)c5F)c5ccc2[nH]5)C=C4)C=C3)cc1
REMARK SMILES IDX 24 1 23 2 22 3 21 4 20 5 18 6 19 7 17 8 1 9 2 10 3 11 4 12
REMARK SMILES IDX 5 13 6 14 7 15 8 17 9 18 13 19 10 20 12 21 11 22 14 23 15 24
REMARK SMILES IDX 16 25 25 28 26 29 27 30 28 31 29 32 30 33 31 34 32 35 33 36
REMARK SMILES IDX 94 37 34 38 93 39 35 40 36 41 37 42 87 43 38 44 92 45 86 46
REMARK SMILES IDX 88 47 39 48 91 49 85 50 84 51 40 53 72 54 52 55 71 56 53 57
REMARK SMILES IDX 56 58 70 59 89 60 54 61 55 62 69 64 90 65 57 66 41 67 42 68
REMARK SMILES IDX 50 69 43 70 44 71 48 72 51 73 45 74 46 75 49 76 47 77 73 78
REMARK SMILES IDX 74 79 82 80 75 81 76 82 80 83 83 84 77 85 78 86 81 87 79 88
REMARK SMILES IDX 58 89 59 90 67 91 60 92 61 93 65 94 68 95 62 96 63 97 66 98
REMARK SMILES IDX 64 99
REMARK H PARENT 7 16 15 26 15 27 88 52 56 63
REMARK Flexibility Score: inf
ROOT
ATOM      1  C   UNL A   1      34.285  32.395  27.917  1.00  0.00     0.188 C 
ENDROOT
BRANCH   1   2
ATOM      2  O   UNL A   1      33.494  31.223  27.941  1.00  0.00    -0.376 OA
BRANCH   2   3
ATOM      3  C   UNL A   1      32.609  31.024  26.851  1.00  0.00     0.202 C 
BRANCH   3   4
ATOM      4  C   UNL A   1      31.797  29.717  26.777  1.00  0.00     0.261 C 
BRANCH   4   5
ATOM      5  O   UNL A   1      31.049  29.449  25.576  1.00  0.00    -0.463 OA
BRANCH   5   6
ATOM      6  C   UNL A   1      31.358  28.328  24.892  1.00  0.00     0.310 C 
ATOM      7  O   UNL A   1      30.575  27.390  24.722  1.00  0.00    -0.252 OA
BRANCH   6   8
ATOM      8  C   UNL A   1      32.698  28.422  24.219  1.00  0.00     0.118 C 
ATOM      9  C   UNL A   1      34.029  28.205  21.999  1.00  0.00     0.013 C 
ATOM     10  C   UNL A   1      33.058  27.595  23.019  1.00  0.00    -0.009 C 
ATOM     11  C   UNL A   1      31.937  26.921  22.282  1.00  0.00     0.013 C 
ATOM     12  C   UNL A   1      33.744  27.305  24.360  1.00  0.00     0.100 C 
BRANCH  12  13
ATOM     13  C   UNL A   1      33.733  26.737  25.740  1.00  0.00     0.228 C 
ATOM     14  O   UNL A   1      33.996  27.532  26.649  1.00  0.00    -0.274 OA
ATOM     15  N   UNL A   1      33.304  25.507  26.142  1.00  0.00    -0.325 N 
ATOM     16  H   UNL A   1      33.214  25.414  27.118  1.00  0.00     0.169 HD
BRANCH  15  17
ATOM     17  C   UNL A   1      32.970  24.359  25.432  1.00  0.00     0.053 A 
ATOM     18  C   UNL A   1      31.618  24.288  25.058  1.00  0.00     0.027 A 
ATOM     19  C   UNL A   1      33.867  23.364  25.028  1.00  0.00     0.063 A 
ATOM     20  C   UNL A   1      31.202  23.365  24.106  1.00  0.00     0.002 A 
ATOM     21  C   UNL A   1      33.426  22.418  24.086  1.00  0.00     0.016 A 
ATOM     22  C   UNL A   1      32.118  22.457  23.589  1.00  0.00     0.001 A 
BRANCH  19  23
ATOM     23  C   UNL A   1      35.226  23.262  25.643  1.00  0.00     0.250 C 
ATOM     24  N   UNL A   1      35.475  22.228  26.502  1.00  0.00    -0.366 N 
ATOM     25  O   UNL A   1      36.122  24.062  25.404  1.00  0.00    -0.269 OA
ATOM     26  H   UNL A   1      34.765  21.575  26.706  1.00  0.00     0.159 HD
ATOM     27  H   UNL A   1      36.362  22.135  26.918  1.00  0.00     0.159 HD
ENDBRANCH  19  23
ENDBRANCH  15  17
ENDBRANCH  12  13
ENDBRANCH   6   8
ENDBRANCH   5   6
ENDBRANCH   4   5
ENDBRANCH   3   4
ENDBRANCH   2   3
ENDBRANCH   1   2
BRANCH   1  28
ATOM     28  C   UNL A   1      33.464  33.699  28.025  1.00  0.00     0.188 C 
BRANCH  28  29
ATOM     29  O   UNL A   1      33.190  34.246  29.302  1.00  0.00    -0.376 OA
BRANCH  29  30
ATOM     30  C   UNL A   1      34.288  34.520  30.160  1.00  0.00     0.202 C 
BRANCH  30  31
ATOM     31  C   UNL A   1      34.305  33.955  31.597  1.00  0.00     0.261 C 
BRANCH  31  32
ATOM     32  O   UNL A   1      34.520  32.532  31.732  1.00  0.00    -0.460 OA
BRANCH  32  33
ATOM     33  C   UNL A   1      35.529  32.152  32.560  1.00  0.00     0.338 C 
ATOM     34  O   UNL A   1      35.594  32.326  33.764  1.00  0.00    -0.246 OA
BRANCH  33  35
ATOM     35  C   UNL A   1      36.495  31.282  31.844  1.00  0.00     0.060 A 
ATOM     36  C   UNL A   1      37.491  30.624  32.588  1.00  0.00     0.016 A 
ATOM     37  C   UNL A   1      36.480  31.172  30.455  1.00  0.00     0.016 A 
ATOM     38  C   UNL A   1      38.491  29.890  31.948  1.00  0.00     0.010 A 
ATOM     39  C   UNL A   1      37.505  30.464  29.809  1.00  0.00     0.010 A 
ATOM     40  C   UNL A   1      38.538  29.856  30.549  1.00  0.00    -0.014 A 
BRANCH  40  41
ATOM     41  C   UNL A   1      39.781  29.398  29.872  1.00  0.00     0.031 A 
ATOM     42  C   UNL A   1      40.909  30.386  29.715  1.00  0.00     0.074 A 
ATOM     43  C   UNL A   1      39.934  28.136  29.433  1.00  0.00     0.049 A 
ATOM     44  N   UNL A   1      42.069  30.245  29.122  1.00  0.00    -0.248 NA
ATOM     45  C   UNL A   1      40.695  31.716  30.307  1.00  0.00     0.031 C 
ATOM     46  C   UNL A   1      38.949  27.068  29.568  1.00  0.00     0.029 A 
ATOM     47  N   UNL A   1      40.986  27.546  28.772  1.00  0.00    -0.354 N 
ATOM     48  C   UNL A   1      42.713  31.468  29.261  1.00  0.00     0.074 A 
ATOM     49  C   UNL A   1      41.807  32.348  29.965  1.00  0.00     0.031 C 
ATOM     50  C   UNL A   1      39.434  25.954  28.990  1.00  0.00     0.029 A 
ATOM     51  C   UNL A   1      40.750  26.240  28.419  1.00  0.00     0.049 A 
ATOM     52  H   UNL A   1      41.827  28.015  28.571  1.00  0.00     0.167 HD
ATOM     53  C   UNL A   1      43.952  31.827  28.846  1.00  0.00     0.037 A 
ATOM     54  C   UNL A   1      41.503  25.384  27.697  1.00  0.00     0.037 A 
ATOM     55  C   UNL A   1      44.855  30.955  28.143  1.00  0.00     0.049 A 
ATOM     56  C   UNL A   1      42.849  25.829  27.178  1.00  0.00     0.074 A 
ATOM     57  C   UNL A   1      46.136  31.222  27.692  1.00  0.00     0.029 A 
ATOM     58  N   UNL A   1      44.568  29.648  27.778  1.00  0.00    -0.354 N 
ATOM     59  N   UNL A   1      43.460  26.978  27.333  1.00  0.00    -0.248 NA
ATOM     60  C   UNL A   1      43.613  24.850  26.389  1.00  0.00     0.031 C 
ATOM     61  C   UNL A   1      46.601  30.097  27.002  1.00  0.00     0.029 A 
ATOM     62  C   UNL A   1      45.638  29.104  27.085  1.00  0.00     0.049 A 
ATOM     63  H   UNL A   1      43.729  29.176  27.981  1.00  0.00     0.167 HD
ATOM     64  C   UNL A   1      44.690  26.848  26.697  1.00  0.00     0.074 A 
ATOM     65  C   UNL A   1      44.743  25.505  26.163  1.00  0.00     0.031 C 
ATOM     66  C   UNL A   1      45.688  27.760  26.570  1.00  0.00     0.037 A 
BRANCH  53  67
ATOM     67  C   UNL A   1      44.392  33.238  29.115  1.00  0.00     0.064 A 
ATOM     68  C   UNL A   1      45.091  33.586  30.280  1.00  0.00     0.173 A 
ATOM     69  C   UNL A   1      44.136  34.250  28.177  1.00  0.00     0.173 A 
ATOM     70  F   UNL A   1      45.350  32.660  31.215  1.00  0.00    -0.203 F 
ATOM     71  C   UNL A   1      45.492  34.900  30.509  1.00  0.00     0.198 A 
ATOM     72  C   UNL A   1      44.568  35.555  28.394  1.00  0.00     0.198 A 
ATOM     73  F   UNL A   1      43.475  33.971  27.044  1.00  0.00    -0.203 F 
ATOM     74  F   UNL A   1      46.113  35.220  31.653  1.00  0.00    -0.200 F 
ATOM     75  C   UNL A   1      45.236  35.882  29.563  1.00  0.00     0.200 A 
ATOM     76  F   UNL A   1      44.334  36.499  27.472  1.00  0.00    -0.200 F 
ATOM     77  F   UNL A   1      45.631  37.144  29.781  1.00  0.00    -0.200 F 
ENDBRANCH  53  67
BRANCH  54  78
ATOM     78  C   UNL A   1      41.002  24.012  27.408  1.00  0.00     0.064 A 
ATOM     79  C   UNL A   1      41.585  22.885  28.007  1.00  0.00     0.173 A 
ATOM     80  C   UNL A   1      39.955  23.796  26.499  1.00  0.00     0.173 A 
ATOM     81  F   UNL A   1      42.609  23.036  28.861  1.00  0.00    -0.203 F 
ATOM     82  C   UNL A   1      41.153  21.598  27.694  1.00  0.00     0.198 A 
ATOM     83  C   UNL A   1      39.504  22.509  26.212  1.00  0.00     0.198 A 
ATOM     84  F   UNL A   1      39.367  24.837  25.893  1.00  0.00    -0.203 F 
ATOM     85  F   UNL A   1      41.763  20.537  28.243  1.00  0.00    -0.200 F 
ATOM     86  C   UNL A   1      40.109  21.411  26.802  1.00  0.00     0.200 A 
ATOM     87  F   UNL A   1      38.485  22.335  25.358  1.00  0.00    -0.200 F 
ATOM     88  F   UNL A   1      39.691  20.173  26.505  1.00  0.00    -0.200 F 
ENDBRANCH  54  78
BRANCH  66  89
ATOM     89  C   UNL A   1      46.949  27.322  25.878  1.00  0.00     0.064 A 
ATOM     90  C   UNL A   1      47.184  27.586  24.521  1.00  0.00     0.173 A 
ATOM     91  C   UNL A   1      47.957  26.660  26.598  1.00  0.00     0.173 A 
ATOM     92  F   UNL A   1      46.250  28.205  23.781  1.00  0.00    -0.203 F 
ATOM     93  C   UNL A   1      48.364  27.176  23.903  1.00  0.00     0.198 A 
ATOM     94  C   UNL A   1      49.150  26.283  25.987  1.00  0.00     0.198 A 
ATOM     95  F   UNL A   1      47.791  26.390  27.902  1.00  0.00    -0.203 F 
ATOM     96  F   UNL A   1      48.541  27.390  22.592  1.00  0.00    -0.200 F 
ATOM     97  C   UNL A   1      49.347  26.532  24.638  1.00  0.00     0.200 A 
ATOM     98  F   UNL A   1      50.107  25.678  26.704  1.00  0.00    -0.200 F 
ATOM     99  F   UNL A   1      50.485  26.144  24.044  1.00  0.00    -0.200 F 
ENDBRANCH  66  89
ENDBRANCH  40  41
ENDBRANCH  33  35
ENDBRANCH  32  33
ENDBRANCH  31  32
ENDBRANCH  30  31
ENDBRANCH  29  30
ENDBRANCH  28  29
ENDBRANCH   1  28
TORSDOF 20
ENDMDL
MODEL 3
REMARK VINA RESULT:     -11.2      4.298      6.842
REMARK SMILES CC1(C)[C@H](C(=O)Nc2ccccc2C(N)=O)[C@@H]1C(=O)OCCOCCOCCOC(=O)c1ccc(-c2c3nc(c(-c4c(F)c(F)c(F)c(F)c4F)c4ccc([nH]4)c(-c4c(F)c(F)c(F)c(F)c4F)c4nc(c(-c5c(F)c(F)c(F)c(F)c5F)c5ccc2[nH]5)C=C4)C=C3)cc1
REMARK SMILES IDX 24 1 23 2 22 3 21 4 20 5 18 6 19 7 17 8 1 9 2 10 3 11 4 12
REMARK SMILES IDX 5 13 6 14 7 15 8 17 9 18 13 19 10 20 12 21 11 22 14 23 15 24
REMARK SMILES IDX 16 25 25 28 26 29 27 30 28 31 29 32 30 33 31 34 32 35 33 36
REMARK SMILES IDX 94 37 34 38 93 39 35 40 36 41 37 42 87 43 38 44 92 45 86 46
REMARK SMILES IDX 88 47 39 48 91 49 85 50 84 51 40 53 72 54 52 55 71 56 53 57
REMARK SMILES IDX 56 58 70 59 89 60 54 61 55 62 69 64 90 65 57 66 41 67 42 68
REMARK SMILES IDX 50 69 43 70 44 71 48 72 51 73 45 74 46 75 49 76 47 77 73 78
REMARK SMILES IDX 74 79 82 80 75 81 76 82 80 83 83 84 77 85 78 86 81 87 79 88
REMARK SMILES IDX 58 89 59 90 67 91 60 92 61 93 65 94 68 95 62 96 63 97 66 98
REMARK SMILES IDX 64 99
REMARK H PARENT 7 16 15 26 15 27 88 52 56 63
REMARK Flexibility Score: inf
ROOT
ATOM      1  C   UNL A   1      34.714  31.838  28.056  1.00  0.00     0.188 C 
ENDROOT
BRANCH   1   2
ATOM      2  O   UNL A   1      33.778  30.779  28.013  1.00  0.00    -0.376 OA
BRANCH   2   3
ATOM      3  C   UNL A   1      33.518  30.204  26.743  1.00  0.00     0.202 C 
BRANCH   3   4
ATOM      4  C   UNL A   1      33.218  28.696  26.652  1.00  0.00     0.261 C 
BRANCH   4   5
ATOM      5  O   UNL A   1      33.774  27.959  25.547  1.00  0.00    -0.463 OA
BRANCH   5   6
ATOM      6  C   UNL A   1      33.224  26.760  25.264  1.00  0.00     0.310 C 
ATOM      7  O   UNL A   1      33.480  25.724  25.883  1.00  0.00    -0.252 OA
BRANCH   6   8
ATOM      8  C   UNL A   1      32.142  26.860  24.228  1.00  0.00     0.118 C 
ATOM      9  C   UNL A   1      29.635  26.476  23.667  1.00  0.00     0.013 C 
ATOM     10  C   UNL A   1      30.967  25.926  24.194  1.00  0.00    -0.009 C 
ATOM     11  C   UNL A   1      30.702  25.103  25.422  1.00  0.00     0.013 C 
ATOM     12  C   UNL A   1      32.027  25.835  23.089  1.00  0.00     0.100 C 
BRANCH  12  13
ATOM     13  C   UNL A   1      33.377  25.429  22.601  1.00  0.00     0.228 C 
ATOM     14  O   UNL A   1      34.018  26.303  22.009  1.00  0.00    -0.274 OA
ATOM     15  N   UNL A   1      34.062  24.281  22.873  1.00  0.00    -0.325 N 
ATOM     16  H   UNL A   1      35.007  24.305  22.599  1.00  0.00     0.169 HD
BRANCH  15  17
ATOM     17  C   UNL A   1      33.674  23.084  23.464  1.00  0.00     0.053 A 
ATOM     18  C   UNL A   1      32.506  22.526  22.919  1.00  0.00     0.027 A 
ATOM     19  C   UNL A   1      34.379  22.406  24.464  1.00  0.00     0.063 A 
ATOM     20  C   UNL A   1      32.164  21.208  23.195  1.00  0.00     0.002 A 
ATOM     21  C   UNL A   1      34.006  21.082  24.756  1.00  0.00     0.016 A 
ATOM     22  C   UNL A   1      32.940  20.473  24.083  1.00  0.00     0.001 A 
BRANCH  19  23
ATOM     23  C   UNL A   1      35.443  23.097  25.255  1.00  0.00     0.250 C 
ATOM     24  N   UNL A   1      35.674  22.683  26.537  1.00  0.00    -0.366 N 
ATOM     25  O   UNL A   1      36.116  24.013  24.798  1.00  0.00    -0.269 OA
ATOM     26  H   UNL A   1      35.142  21.948  26.920  1.00  0.00     0.159 HD
ATOM     27  H   UNL A   1      36.371  23.120  27.078  1.00  0.00     0.159 HD
ENDBRANCH  19  23
ENDBRANCH  15  17
ENDBRANCH  12  13
ENDBRANCH   6   8
ENDBRANCH   5   6
ENDBRANCH   4   5
ENDBRANCH   3   4
ENDBRANCH   2   3
ENDBRANCH   1   2
BRANCH   1  28
ATOM     28  C   UNL A   1      34.063  33.239  28.088  1.00  0.00     0.188 C 
BRANCH  28  29
ATOM     29  O   UNL A   1      33.591  33.760  29.317  1.00  0.00    -0.376 OA
BRANCH  29  30
ATOM     30  C   UNL A   1      34.549  34.210  30.263  1.00  0.00     0.202 C 
BRANCH  30  31
ATOM     31  C   UNL A   1      34.476  33.723  31.726  1.00  0.00     0.261 C 
BRANCH  31  32
ATOM     32  O   UNL A   1      34.776  32.328  31.962  1.00  0.00    -0.460 OA
BRANCH  32  33
ATOM     33  C   UNL A   1      35.882  32.069  32.709  1.00  0.00     0.338 C 
ATOM     34  O   UNL A   1      36.045  32.323  33.889  1.00  0.00    -0.246 OA
BRANCH  33  35
ATOM     35  C   UNL A   1      36.838  31.220  31.954  1.00  0.00     0.060 A 
ATOM     36  C   UNL A   1      37.836  30.530  32.665  1.00  0.00     0.016 A 
ATOM     37  C   UNL A   1      36.810  31.160  30.561  1.00  0.00     0.016 A 
ATOM     38  C   UNL A   1      38.826  29.815  31.990  1.00  0.00     0.010 A 
ATOM     39  C   UNL A   1      37.826  30.471  29.882  1.00  0.00     0.010 A 
ATOM     40  C   UNL A   1      38.862  29.831  30.591  1.00  0.00    -0.014 A 
BRANCH  40  41
ATOM     41  C   UNL A   1      40.097  29.392  29.887  1.00  0.00     0.031 A 
ATOM     42  C   UNL A   1      41.206  30.396  29.707  1.00  0.00     0.074 A 
ATOM     43  C   UNL A   1      40.258  28.132  29.443  1.00  0.00     0.049 A 
ATOM     44  N   UNL A   1      42.356  30.272  29.090  1.00  0.00    -0.248 NA
ATOM     45  C   UNL A   1      40.987  31.722  30.305  1.00  0.00     0.031 C 
ATOM     46  C   UNL A   1      39.292  27.050  29.598  1.00  0.00     0.029 A 
ATOM     47  N   UNL A   1      41.304  27.558  28.760  1.00  0.00    -0.354 N 
ATOM     48  C   UNL A   1      42.985  31.504  29.216  1.00  0.00     0.074 A 
ATOM     49  C   UNL A   1      42.081  32.370  29.940  1.00  0.00     0.031 C 
ATOM     50  C   UNL A   1      39.780  25.944  29.008  1.00  0.00     0.029 A 
ATOM     51  C   UNL A   1      41.080  26.249  28.410  1.00  0.00     0.049 A 
ATOM     52  H   UNL A   1      42.134  28.039  28.542  1.00  0.00     0.167 HD
ATOM     53  C   UNL A   1      44.210  31.881  28.776  1.00  0.00     0.037 A 
ATOM     54  C   UNL A   1      41.829  25.404  27.672  1.00  0.00     0.037 A 
ATOM     55  C   UNL A   1      45.110  31.022  28.053  1.00  0.00     0.049 A 
ATOM     56  C   UNL A   1      43.157  25.869  27.125  1.00  0.00     0.074 A 
ATOM     57  C   UNL A   1      46.378  31.308  27.575  1.00  0.00     0.029 A 
ATOM     58  N   UNL A   1      44.834  29.712  27.693  1.00  0.00    -0.354 N 
ATOM     59  N   UNL A   1      43.755  27.027  27.269  1.00  0.00    -0.248 NA
ATOM     60  C   UNL A   1      43.918  24.902  26.319  1.00  0.00     0.031 C 
ATOM     61  C   UNL A   1      46.844  30.190  26.875  1.00  0.00     0.029 A 
ATOM     62  C   UNL A   1      45.897  29.184  26.977  1.00  0.00     0.049 A 
ATOM     63  H   UNL A   1      44.006  29.227  27.913  1.00  0.00     0.167 HD
ATOM     64  C   UNL A   1      44.974  26.915  26.606  1.00  0.00     0.074 A 
ATOM     65  C   UNL A   1      45.034  25.573  26.070  1.00  0.00     0.031 C 
ATOM     66  C   UNL A   1      45.955  27.840  26.460  1.00  0.00     0.037 A 
BRANCH  53  67
ATOM     67  C   UNL A   1      44.635  33.298  29.037  1.00  0.00     0.064 A 
ATOM     68  C   UNL A   1      45.339  33.658  30.196  1.00  0.00     0.173 A 
ATOM     69  C   UNL A   1      44.360  34.304  28.098  1.00  0.00     0.173 A 
ATOM     70  F   UNL A   1      45.616  32.737  31.132  1.00  0.00    -0.203 F 
ATOM     71  C   UNL A   1      45.726  34.977  30.418  1.00  0.00     0.198 A 
ATOM     72  C   UNL A   1      44.779  35.614  28.308  1.00  0.00     0.198 A 
ATOM     73  F   UNL A   1      43.694  34.013  26.971  1.00  0.00    -0.203 F 
ATOM     74  F   UNL A   1      46.352  35.308  31.556  1.00  0.00    -0.200 F 
ATOM     75  C   UNL A   1      45.452  35.953  29.471  1.00  0.00     0.200 A 
ATOM     76  F   UNL A   1      44.526  36.552  27.384  1.00  0.00    -0.200 F 
ATOM     77  F   UNL A   1      45.834  37.220  29.682  1.00  0.00    -0.200 F 
ENDBRANCH  53  67
BRANCH  54  78
ATOM     78  C   UNL A   1      41.342  24.025  27.392  1.00  0.00     0.064 A 
ATOM     79  C   UNL A   1      40.251  23.800  26.539  1.00  0.00     0.173 A 
ATOM     80  C   UNL A   1      41.935  22.907  27.997  1.00  0.00     0.173 A 
ATOM     81  F   UNL A   1      39.631  24.838  25.959  1.00  0.00    -0.203 F 
ATOM     82  C   UNL A   1      39.761  22.515  26.320  1.00  0.00     0.198 A 
ATOM     83  C   UNL A   1      41.463  21.619  27.752  1.00  0.00     0.198 A 
ATOM     84  F   UNL A   1      42.977  23.066  28.826  1.00  0.00    -0.203 F 
ATOM     85  F   UNL A   1      38.684  22.334  25.542  1.00  0.00    -0.200 F 
ATOM     86  C   UNL A   1      40.370  21.424  26.921  1.00  0.00     0.200 A 
ATOM     87  F   UNL A   1      42.064  20.568  28.325  1.00  0.00    -0.200 F 
ATOM     88  F   UNL A   1      39.901  20.188  26.706  1.00  0.00    -0.200 F 
ENDBRANCH  54  78
BRANCH  66  89
ATOM     89  C   UNL A   1      47.208  27.421  25.741  1.00  0.00     0.064 A 
ATOM     90  C   UNL A   1      48.236  26.718  26.384  1.00  0.00     0.173 A 
ATOM     91  C   UNL A   1      47.361  27.694  24.371  1.00  0.00     0.173 A 
ATOM     92  F   UNL A   1      48.148  26.439  27.694  1.00  0.00    -0.203 F 
ATOM     93  C   UNL A   1      49.384  26.334  25.693  1.00  0.00     0.198 A 
ATOM     94  C   UNL A   1      48.493  27.278  23.676  1.00  0.00     0.198 A 
ATOM     95  F   UNL A   1      46.404  28.355  23.702  1.00  0.00    -0.203 F 
ATOM     96  F   UNL A   1      50.379  25.712  26.343  1.00  0.00    -0.200 F 
ATOM     97  C   UNL A   1      49.508  26.608  24.340  1.00  0.00     0.200 A 
ATOM     98  F   UNL A   1      48.601  27.528  22.364  1.00  0.00    -0.200 F 
ATOM     99  F   UNL A   1      50.610  26.232  23.676  1.00  0.00    -0.200 F 
ENDBRANCH  66  89
ENDBRANCH  40  41
ENDBRANCH  33  35
ENDBRANCH  32  33
ENDBRANCH  31  32
ENDBRANCH  30  31
ENDBRANCH  29  30
ENDBRANCH  28  29
ENDBRANCH   1  28
TORSDOF 20
ENDMDL
