MODEL 1
REMARK VINA RESULT:     -11.6      0.000      0.000
REMARK SMILES O=C(OCCOCCOCCOC(=O)c1cc(N2C(=O)C[C@H](Nc3ccccc3O)C2=O)ccc1O)c1ccc(-c2c3nc(c(-c4c(F)c(F)c(F)c(F)c4F)c4ccc([nH]4)c(-c4c(F)c(F)c(F)c(F)c4F)c4nc(c(-c5c(F)c(F)c(F)c(F)c5F)c5ccc2[nH]5)C=C4)C=C3)cc1
REMARK SMILES IDX 8 1 7 2 6 3 5 4 4 5 3 6 2 7 1 8 37 9 38 10 99 11 39 12 98 13
REMARK SMILES IDX 40 14 41 15 42 16 92 17 43 18 97 19 91 20 93 21 44 22 96 23
REMARK SMILES IDX 90 24 89 25 45 27 77 28 57 29 76 30 58 31 61 32 75 33 94 34
REMARK SMILES IDX 59 35 60 36 74 38 95 39 62 40 46 41 47 42 55 43 48 44 49 45
REMARK SMILES IDX 53 46 56 47 50 48 51 49 54 50 52 51 78 52 79 53 87 54 80 55
REMARK SMILES IDX 81 56 85 57 88 58 82 59 83 60 86 61 84 62 63 63 64 64 72 65
REMARK SMILES IDX 65 66 66 67 70 68 73 69 67 70 68 71 71 72 69 73 9 74 10 75
REMARK SMILES IDX 11 76 12 77 13 78 14 79 15 80 16 81 35 82 17 83 34 84 33 85
REMARK SMILES IDX 36 86 18 88 19 89 31 90 20 91 21 92 22 93 32 94 23 95 24 97
REMARK SMILES IDX 25 98 29 99 26 100 28 101 27 102 30 103
REMARK H PARENT 93 26 61 37 36 87 23 96 30 104
REMARK Flexibility Score: inf
ROOT
ATOM      1  C   UNL A   1      34.078  25.017  22.895  1.00  0.00     0.188 C 
ENDROOT
BRANCH   1   2
ATOM      2  C   UNL A   1      34.531  23.559  22.945  1.00  0.00     0.188 C 
BRANCH   2   3
ATOM      3  O   UNL A   1      35.280  23.242  24.117  1.00  0.00    -0.376 OA
BRANCH   3   4
ATOM      4  C   UNL A   1      36.521  22.568  23.882  1.00  0.00     0.202 C 
BRANCH   4   5
ATOM      5  C   UNL A   1      36.762  21.271  24.675  1.00  0.00     0.261 C 
BRANCH   5   6
ATOM      6  O   UNL A   1      37.438  21.460  25.929  1.00  0.00    -0.460 OA
BRANCH   6   7
ATOM      7  C   UNL A   1      38.773  21.576  26.141  1.00  0.00     0.338 C 
ATOM      8  O   UNL A   1      39.486  20.581  26.014  1.00  0.00    -0.246 OA
BRANCH   7   9
ATOM      9  C   UNL A   1      39.422  22.865  26.517  1.00  0.00     0.060 A 
ATOM     10  C   UNL A   1      38.945  24.130  26.180  1.00  0.00     0.016 A 
ATOM     11  C   UNL A   1      40.540  22.794  27.353  1.00  0.00     0.016 A 
ATOM     12  C   UNL A   1      39.598  25.288  26.565  1.00  0.00     0.010 A 
ATOM     13  C   UNL A   1      41.149  23.955  27.832  1.00  0.00     0.010 A 
ATOM     14  C   UNL A   1      40.698  25.210  27.409  1.00  0.00    -0.014 A 
BRANCH  14  15
ATOM     15  C   UNL A   1      41.453  26.442  27.697  1.00  0.00     0.031 A 
ATOM     16  C   UNL A   1      40.784  27.474  28.549  1.00  0.00     0.074 A 
ATOM     17  C   UNL A   1      42.737  26.565  27.317  1.00  0.00     0.049 A 
ATOM     18  N   UNL A   1      41.200  28.661  28.896  1.00  0.00    -0.248 NA
ATOM     19  C   UNL A   1      39.462  27.117  29.093  1.00  0.00     0.031 C 
ATOM     20  C   UNL A   1      43.506  25.544  26.603  1.00  0.00     0.029 A 
ATOM     21  N   UNL A   1      43.638  27.578  27.512  1.00  0.00    -0.354 N 
ATOM     22  C   UNL A   1      40.176  29.199  29.661  1.00  0.00     0.074 A 
ATOM     23  C   UNL A   1      39.105  28.234  29.701  1.00  0.00     0.031 C 
ATOM     24  C   UNL A   1      44.769  25.969  26.455  1.00  0.00     0.029 A 
ATOM     25  C   UNL A   1      44.873  27.325  26.967  1.00  0.00     0.049 A 
ATOM     26  H   UNL A   1      43.421  28.408  27.995  1.00  0.00     0.167 HD
ATOM     27  C   UNL A   1      40.149  30.397  30.284  1.00  0.00     0.037 A 
ATOM     28  C   UNL A   1      45.952  28.122  26.859  1.00  0.00     0.037 A 
ATOM     29  C   UNL A   1      41.243  31.324  30.238  1.00  0.00     0.049 A 
ATOM     30  C   UNL A   1      45.854  29.497  27.457  1.00  0.00     0.074 A 
ATOM     31  C   UNL A   1      41.333  32.588  30.784  1.00  0.00     0.029 A 
ATOM     32  N   UNL A   1      42.452  31.071  29.598  1.00  0.00    -0.354 N 
ATOM     33  N   UNL A   1      44.863  30.032  28.132  1.00  0.00    -0.248 NA
ATOM     34  C   UNL A   1      47.011  30.380  27.284  1.00  0.00     0.031 C 
ATOM     35  C   UNL A   1      42.575  33.123  30.426  1.00  0.00     0.029 A 
ATOM     36  C   UNL A   1      43.286  32.168  29.714  1.00  0.00     0.049 A 
ATOM     37  H   UNL A   1      42.680  30.236  29.130  1.00  0.00     0.167 HD
ATOM     38  C   UNL A   1      45.285  31.301  28.491  1.00  0.00     0.074 A 
ATOM     39  C   UNL A   1      46.631  31.449  27.970  1.00  0.00     0.031 C 
ATOM     40  C   UNL A   1      44.626  32.260  29.188  1.00  0.00     0.037 A 
BRANCH  27  41
ATOM     41  C   UNL A   1      38.877  30.765  30.988  1.00  0.00     0.064 A 
ATOM     42  C   UNL A   1      37.800  31.371  30.320  1.00  0.00     0.173 A 
ATOM     43  C   UNL A   1      38.764  30.572  32.372  1.00  0.00     0.173 A 
ATOM     44  F   UNL A   1      37.873  31.614  29.002  1.00  0.00    -0.203 F 
ATOM     45  C   UNL A   1      36.677  31.805  31.019  1.00  0.00     0.198 A 
ATOM     46  C   UNL A   1      37.625  30.977  33.063  1.00  0.00     0.198 A 
ATOM     47  F   UNL A   1      39.769  30.011  33.061  1.00  0.00    -0.203 F 
ATOM     48  F   UNL A   1      35.697  32.453  30.374  1.00  0.00    -0.200 F 
ATOM     49  C   UNL A   1      36.588  31.604  32.388  1.00  0.00     0.200 A 
ATOM     50  F   UNL A   1      37.541  30.780  34.386  1.00  0.00    -0.200 F 
ATOM     51  F   UNL A   1      35.512  32.034  33.062  1.00  0.00    -0.200 F 
ENDBRANCH  27  41
BRANCH  28  52
ATOM     52  C   UNL A   1      47.168  27.668  26.127  1.00  0.00     0.064 A 
ATOM     53  C   UNL A   1      47.256  27.751  24.730  1.00  0.00     0.173 A 
ATOM     54  C   UNL A   1      48.267  27.122  26.809  1.00  0.00     0.173 A 
ATOM     55  F   UNL A   1      46.233  28.256  24.024  1.00  0.00    -0.203 F 
ATOM     56  C   UNL A   1      48.377  27.282  24.046  1.00  0.00     0.198 A 
ATOM     57  C   UNL A   1      49.401  26.683  26.128  1.00  0.00     0.198 A 
ATOM     58  F   UNL A   1      48.252  27.028  28.148  1.00  0.00    -0.203 F 
ATOM     59  F   UNL A   1      48.414  27.332  22.707  1.00  0.00    -0.200 F 
ATOM     60  C   UNL A   1      49.451  26.752  24.746  1.00  0.00     0.200 A 
ATOM     61  F   UNL A   1      50.447  26.202  26.814  1.00  0.00    -0.200 F 
ATOM     62  F   UNL A   1      50.531  26.308  24.089  1.00  0.00    -0.200 F 
ENDBRANCH  28  52
BRANCH  40  63
ATOM     63  C   UNL A   1      45.377  33.526  29.463  1.00  0.00     0.064 A 
ATOM     64  C   UNL A   1      45.304  34.629  28.602  1.00  0.00     0.173 A 
ATOM     65  C   UNL A   1      46.137  33.647  30.636  1.00  0.00     0.173 A 
ATOM     66  F   UNL A   1      44.605  34.551  27.460  1.00  0.00    -0.203 F 
ATOM     67  C   UNL A   1      45.989  35.804  28.894  1.00  0.00     0.198 A 
ATOM     68  C   UNL A   1      46.787  34.837  30.943  1.00  0.00     0.198 A 
ATOM     69  F   UNL A   1      46.229  32.619  31.493  1.00  0.00    -0.203 F 
ATOM     70  F   UNL A   1      45.950  36.830  28.033  1.00  0.00    -0.200 F 
ATOM     71  C   UNL A   1      46.720  35.910  30.069  1.00  0.00     0.200 A 
ATOM     72  F   UNL A   1      47.478  34.943  32.087  1.00  0.00    -0.200 F 
ATOM     73  F   UNL A   1      47.365  37.048  30.355  1.00  0.00    -0.200 F 
ENDBRANCH  40  63
ENDBRANCH  14  15
ENDBRANCH   7   9
ENDBRANCH   6   7
ENDBRANCH   5   6
ENDBRANCH   4   5
ENDBRANCH   3   4
ENDBRANCH   2   3
ENDBRANCH   1   2
BRANCH   1  74
ATOM     74  O   UNL A   1      33.668  25.517  21.630  1.00  0.00    -0.376 OA
BRANCH  74  75
ATOM     75  C   UNL A   1      32.999  26.773  21.616  1.00  0.00     0.202 C 
BRANCH  75  76
ATOM     76  C   UNL A   1      33.598  27.943  22.420  1.00  0.00     0.261 C 
BRANCH  76  77
ATOM     77  O   UNL A   1      32.715  29.022  22.794  1.00  0.00    -0.460 OA
BRANCH  77  78
ATOM     78  C   UNL A   1      32.321  28.985  24.092  1.00  0.00     0.342 C 
ATOM     79  O   UNL A   1      32.783  29.649  25.012  1.00  0.00    -0.246 OA
BRANCH  78  80
ATOM     80  C   UNL A   1      31.254  27.997  24.348  1.00  0.00     0.103 A 
ATOM     81  C   UNL A   1      31.551  26.732  24.893  1.00  0.00     0.046 A 
ATOM     82  C   UNL A   1      30.025  28.220  23.719  1.00  0.00     0.130 A 
ATOM     83  C   UNL A   1      30.642  25.671  24.722  1.00  0.00     0.053 A 
ATOM     84  C   UNL A   1      29.120  27.175  23.561  1.00  0.00     0.049 A 
ATOM     85  C   UNL A   1      29.439  25.903  24.040  1.00  0.00     0.031 A 
BRANCH  82  86
ATOM     86  O   UNL A   1      29.714  29.464  23.249  1.00  0.00    -0.507 OA
ATOM     87  H   UNL A   1      29.379  30.116  23.835  1.00  0.00     0.293 HD
ENDBRANCH  82  86
BRANCH  83  88
ATOM     88  N   UNL A   1      30.942  24.355  25.161  1.00  0.00    -0.249 N 
ATOM     89  C   UNL A   1      31.387  24.055  26.419  1.00  0.00     0.236 C 
ATOM     90  C   UNL A   1      31.098  23.295  24.300  1.00  0.00     0.256 C 
ATOM     91  O   UNL A   1      31.519  24.822  27.364  1.00  0.00    -0.274 OA
ATOM     92  C   UNL A   1      31.703  22.593  26.509  1.00  0.00     0.136 C 
ATOM     93  C   UNL A   1      31.470  22.050  25.107  1.00  0.00     0.179 C 
ATOM     94  O   UNL A   1      31.058  23.363  23.087  1.00  0.00    -0.272 OA
BRANCH  93  95
ATOM     95  N   UNL A   1      32.704  21.394  24.639  1.00  0.00    -0.370 N 
ATOM     96  H   UNL A   1      33.552  21.893  24.607  1.00  0.00     0.161 HD
BRANCH  95  97
ATOM     97  C   UNL A   1      32.656  20.052  24.242  1.00  0.00     0.077 A 
ATOM     98  C   UNL A   1      33.186  19.076  25.096  1.00  0.00     0.029 A 
ATOM     99  C   UNL A   1      32.267  19.644  22.956  1.00  0.00     0.138 A 
ATOM    100  C   UNL A   1      33.270  17.735  24.702  1.00  0.00     0.002 A 
ATOM    101  C   UNL A   1      32.368  18.311  22.544  1.00  0.00     0.048 A 
ATOM    102  C   UNL A   1      32.865  17.353  23.425  1.00  0.00     0.004 A 
BRANCH  99 103
ATOM    103  O   UNL A   1      31.794  20.581  22.081  1.00  0.00    -0.506 OA
ATOM    104  H   UNL A   1      30.951  20.968  22.221  1.00  0.00     0.293 HD
ENDBRANCH  99 103
ENDBRANCH  95  97
ENDBRANCH  93  95
ENDBRANCH  83  88
ENDBRANCH  78  80
ENDBRANCH  77  78
ENDBRANCH  76  77
ENDBRANCH  75  76
ENDBRANCH  74  75
ENDBRANCH   1  74
TORSDOF 22
ENDMDL
MODEL 2
REMARK VINA RESULT:     -11.5      4.256      8.015
REMARK SMILES O=C(OCCOCCOCCOC(=O)c1cc(N2C(=O)C[C@H](Nc3ccccc3O)C2=O)ccc1O)c1ccc(-c2c3nc(c(-c4c(F)c(F)c(F)c(F)c4F)c4ccc([nH]4)c(-c4c(F)c(F)c(F)c(F)c4F)c4nc(c(-c5c(F)c(F)c(F)c(F)c5F)c5ccc2[nH]5)C=C4)C=C3)cc1
REMARK SMILES IDX 8 1 7 2 6 3 5 4 4 5 3 6 2 7 1 8 37 9 38 10 99 11 39 12 98 13
REMARK SMILES IDX 40 14 41 15 42 16 92 17 43 18 97 19 91 20 93 21 44 22 96 23
REMARK SMILES IDX 90 24 89 25 45 27 77 28 57 29 76 30 58 31 61 32 75 33 94 34
REMARK SMILES IDX 59 35 60 36 74 38 95 39 62 40 46 41 47 42 55 43 48 44 49 45
REMARK SMILES IDX 53 46 56 47 50 48 51 49 54 50 52 51 78 52 79 53 87 54 80 55
REMARK SMILES IDX 81 56 85 57 88 58 82 59 83 60 86 61 84 62 63 63 64 64 72 65
REMARK SMILES IDX 65 66 66 67 70 68 73 69 67 70 68 71 71 72 69 73 9 74 10 75
REMARK SMILES IDX 11 76 12 77 13 78 14 79 15 80 16 81 35 82 17 83 34 84 33 85
REMARK SMILES IDX 36 86 18 88 19 89 31 90 20 91 21 92 22 93 32 94 23 95 24 97
REMARK SMILES IDX 25 98 29 99 26 100 28 101 27 102 30 103
REMARK H PARENT 93 26 61 37 36 87 23 96 30 104
REMARK Flexibility Score: inf
ROOT
ATOM      1  C   UNL A   1      41.102  21.932  27.349  1.00  0.00     0.188 C 
ENDROOT
BRANCH   1   2
ATOM      2  C   UNL A   1      42.231  20.909  27.458  1.00  0.00     0.188 C 
BRANCH   2   3
ATOM      3  O   UNL A   1      43.345  21.210  26.618  1.00  0.00    -0.376 OA
BRANCH   3   4
ATOM      4  C   UNL A   1      43.009  21.637  25.294  1.00  0.00     0.202 C 
BRANCH   4   5
ATOM      5  C   UNL A   1      43.973  22.636  24.627  1.00  0.00     0.261 C 
BRANCH   5   6
ATOM      6  O   UNL A   1      43.510  23.997  24.627  1.00  0.00    -0.460 OA
BRANCH   6   7
ATOM      7  C   UNL A   1      44.139  25.086  25.133  1.00  0.00     0.338 C 
ATOM      8  O   UNL A   1      45.217  25.431  24.648  1.00  0.00    -0.246 OA
BRANCH   7   9
ATOM      9  C   UNL A   1      43.580  25.893  26.254  1.00  0.00     0.060 A 
ATOM     10  C   UNL A   1      43.791  27.257  26.442  1.00  0.00     0.016 A 
ATOM     11  C   UNL A   1      42.697  25.248  27.125  1.00  0.00     0.016 A 
ATOM     12  C   UNL A   1      43.237  27.947  27.507  1.00  0.00     0.010 A 
ATOM     13  C   UNL A   1      42.052  25.952  28.143  1.00  0.00     0.010 A 
ATOM     14  C   UNL A   1      42.349  27.303  28.358  1.00  0.00    -0.014 A 
BRANCH  14  15
ATOM     15  C   UNL A   1      41.877  28.018  29.556  1.00  0.00     0.031 A 
ATOM     16  C   UNL A   1      40.589  28.769  29.444  1.00  0.00     0.074 A 
ATOM     17  C   UNL A   1      42.516  27.885  30.732  1.00  0.00     0.049 A 
ATOM     18  N   UNL A   1      39.990  29.526  30.322  1.00  0.00    -0.248 NA
ATOM     19  C   UNL A   1      39.869  28.647  28.165  1.00  0.00     0.031 C 
ATOM     20  C   UNL A   1      43.702  27.056  30.957  1.00  0.00     0.029 A 
ATOM     21  N   UNL A   1      42.239  28.404  31.969  1.00  0.00    -0.354 N 
ATOM     22  C   UNL A   1      38.851  29.996  29.686  1.00  0.00     0.074 A 
ATOM     23  C   UNL A   1      38.855  29.475  28.340  1.00  0.00     0.031 C 
ATOM     24  C   UNL A   1      44.026  27.096  32.258  1.00  0.00     0.029 A 
ATOM     25  C   UNL A   1      43.140  28.027  32.935  1.00  0.00     0.049 A 
ATOM     26  H   UNL A   1      41.470  28.992  32.147  1.00  0.00     0.167 HD
ATOM     27  C   UNL A   1      37.882  30.787  30.196  1.00  0.00     0.037 A 
ATOM     28  C   UNL A   1      43.256  28.428  34.214  1.00  0.00     0.037 A 
ATOM     29  C   UNL A   1      37.903  31.270  31.547  1.00  0.00     0.049 A 
ATOM     30  C   UNL A   1      42.232  29.403  34.725  1.00  0.00     0.074 A 
ATOM     31  C   UNL A   1      37.013  32.113  32.180  1.00  0.00     0.029 A 
ATOM     32  N   UNL A   1      38.882  30.940  32.477  1.00  0.00    -0.354 N 
ATOM     33  N   UNL A   1      41.185  29.896  34.106  1.00  0.00    -0.248 NA
ATOM     34  C   UNL A   1      42.399  29.881  36.101  1.00  0.00     0.031 C 
ATOM     35  C   UNL A   1      37.484  32.338  33.477  1.00  0.00     0.029 A 
ATOM     36  C   UNL A   1      38.632  31.583  33.675  1.00  0.00     0.049 A 
ATOM     37  H   UNL A   1      39.642  30.338  32.308  1.00  0.00     0.167 HD
ATOM     38  C   UNL A   1      40.549  30.717  35.022  1.00  0.00     0.074 A 
ATOM     39  C   UNL A   1      41.324  30.643  36.246  1.00  0.00     0.031 C 
ATOM     40  C   UNL A   1      39.428  31.465  34.872  1.00  0.00     0.037 A 
BRANCH  27  41
ATOM     41  C   UNL A   1      36.790  31.210  29.259  1.00  0.00     0.064 A 
ATOM     42  C   UNL A   1      36.682  32.525  28.781  1.00  0.00     0.173 A 
ATOM     43  C   UNL A   1      35.793  30.295  28.892  1.00  0.00     0.173 A 
ATOM     44  F   UNL A   1      37.589  33.449  29.135  1.00  0.00    -0.203 F 
ATOM     45  C   UNL A   1      35.595  32.918  28.005  1.00  0.00     0.198 A 
ATOM     46  C   UNL A   1      34.725  30.683  28.087  1.00  0.00     0.198 A 
ATOM     47  F   UNL A   1      35.840  29.029  29.332  1.00  0.00    -0.203 F 
ATOM     48  F   UNL A   1      35.471  34.198  27.628  1.00  0.00    -0.200 F 
ATOM     49  C   UNL A   1      34.620  31.997  27.655  1.00  0.00     0.200 A 
ATOM     50  F   UNL A   1      33.785  29.790  27.749  1.00  0.00    -0.200 F 
ATOM     51  F   UNL A   1      33.568  32.379  26.918  1.00  0.00    -0.200 F 
ENDBRANCH  27  41
BRANCH  28  52
ATOM     52  C   UNL A   1      44.387  27.960  35.063  1.00  0.00     0.064 A 
ATOM     53  C   UNL A   1      44.293  26.789  35.829  1.00  0.00     0.173 A 
ATOM     54  C   UNL A   1      45.587  28.685  35.141  1.00  0.00     0.173 A 
ATOM     55  F   UNL A   1      43.167  26.060  35.801  1.00  0.00    -0.203 F 
ATOM     56  C   UNL A   1      45.338  26.379  36.657  1.00  0.00     0.198 A 
ATOM     57  C   UNL A   1      46.644  28.258  35.944  1.00  0.00     0.198 A 
ATOM     58  F   UNL A   1      45.747  29.806  34.421  1.00  0.00    -0.203 F 
ATOM     59  F   UNL A   1      45.201  25.281  37.413  1.00  0.00    -0.200 F 
ATOM     60  C   UNL A   1      46.514  27.112  36.711  1.00  0.00     0.200 A 
ATOM     61  F   UNL A   1      47.788  28.954  35.966  1.00  0.00    -0.200 F 
ATOM     62  F   UNL A   1      47.521  26.715  37.502  1.00  0.00    -0.200 F 
ENDBRANCH  28  52
BRANCH  40  63
ATOM     63  C   UNL A   1      38.955  32.216  36.078  1.00  0.00     0.064 A 
ATOM     64  C   UNL A   1      38.153  31.611  37.056  1.00  0.00     0.173 A 
ATOM     65  C   UNL A   1      39.359  33.544  36.278  1.00  0.00     0.173 A 
ATOM     66  F   UNL A   1      37.728  30.349  36.896  1.00  0.00    -0.203 F 
ATOM     67  C   UNL A   1      37.750  32.321  38.181  1.00  0.00     0.198 A 
ATOM     68  C   UNL A   1      38.985  34.237  37.424  1.00  0.00     0.198 A 
ATOM     69  F   UNL A   1      40.133  34.161  35.372  1.00  0.00    -0.203 F 
ATOM     70  F   UNL A   1      36.940  31.744  39.080  1.00  0.00    -0.200 F 
ATOM     71  C   UNL A   1      38.176  33.629  38.369  1.00  0.00     0.200 A 
ATOM     72  F   UNL A   1      39.413  35.494  37.612  1.00  0.00    -0.200 F 
ATOM     73  F   UNL A   1      37.798  34.305  39.463  1.00  0.00    -0.200 F 
ENDBRANCH  40  63
ENDBRANCH  14  15
ENDBRANCH   7   9
ENDBRANCH   6   7
ENDBRANCH   5   6
ENDBRANCH   4   5
ENDBRANCH   3   4
ENDBRANCH   2   3
ENDBRANCH   1   2
BRANCH   1  74
ATOM     74  O   UNL A   1      39.815  21.431  27.013  1.00  0.00    -0.376 OA
BRANCH  74  75
ATOM     75  C   UNL A   1      38.955  22.296  26.279  1.00  0.00     0.202 C 
BRANCH  75  76
ATOM     76  C   UNL A   1      37.911  21.676  25.331  1.00  0.00     0.261 C 
BRANCH  76  77
ATOM     77  O   UNL A   1      36.798  22.501  24.927  1.00  0.00    -0.460 OA
BRANCH  77  78
ATOM     78  C   UNL A   1      35.614  22.136  25.482  1.00  0.00     0.342 C 
ATOM     79  O   UNL A   1      35.409  21.892  26.664  1.00  0.00    -0.246 OA
BRANCH  78  80
ATOM     80  C   UNL A   1      34.525  22.006  24.494  1.00  0.00     0.103 A 
ATOM     81  C   UNL A   1      33.953  23.144  23.889  1.00  0.00     0.046 A 
ATOM     82  C   UNL A   1      33.858  20.777  24.448  1.00  0.00     0.130 A 
ATOM     83  C   UNL A   1      32.670  23.056  23.316  1.00  0.00     0.053 A 
ATOM     84  C   UNL A   1      32.596  20.686  23.871  1.00  0.00     0.049 A 
ATOM     85  C   UNL A   1      31.997  21.825  23.330  1.00  0.00     0.031 A 
BRANCH  82  86
ATOM     86  O   UNL A   1      34.444  19.663  24.978  1.00  0.00    -0.507 OA
ATOM     87  H   UNL A   1      34.003  18.837  24.937  1.00  0.00     0.293 HD
ENDBRANCH  82  86
BRANCH  83  88
ATOM     88  N   UNL A   1      32.011  24.196  22.789  1.00  0.00    -0.249 N 
ATOM     89  C   UNL A   1      32.435  24.877  21.681  1.00  0.00     0.236 C 
ATOM     90  C   UNL A   1      31.063  24.904  23.488  1.00  0.00     0.256 C 
ATOM     91  O   UNL A   1      33.366  24.585  20.940  1.00  0.00    -0.274 OA
ATOM     92  C   UNL A   1      31.572  26.083  21.466  1.00  0.00     0.136 C 
ATOM     93  C   UNL A   1      30.609  26.096  22.643  1.00  0.00     0.179 C 
ATOM     94  O   UNL A   1      30.724  24.683  24.634  1.00  0.00    -0.272 OA
BRANCH  93  95
ATOM     95  N   UNL A   1      30.727  27.389  23.340  1.00  0.00    -0.370 N 
ATOM     96  H   UNL A   1      31.399  27.513  24.050  1.00  0.00     0.161 HD
BRANCH  95  97
ATOM     97  C   UNL A   1      29.873  28.440  22.982  1.00  0.00     0.077 A 
ATOM     98  C   UNL A   1      28.498  28.297  23.205  1.00  0.00     0.029 A 
ATOM     99  C   UNL A   1      30.297  29.559  22.248  1.00  0.00     0.138 A 
ATOM    100  C   UNL A   1      27.586  29.264  22.763  1.00  0.00     0.002 A 
ATOM    101  C   UNL A   1      29.393  30.519  21.782  1.00  0.00     0.048 A 
ATOM    102  C   UNL A   1      28.034  30.373  22.048  1.00  0.00     0.004 A 
BRANCH  99 103
ATOM    103  O   UNL A   1      31.627  29.702  21.970  1.00  0.00    -0.506 OA
ATOM    104  H   UNL A   1      32.221  28.999  22.152  1.00  0.00     0.293 HD
ENDBRANCH  99 103
ENDBRANCH  95  97
ENDBRANCH  93  95
ENDBRANCH  83  88
ENDBRANCH  78  80
ENDBRANCH  77  78
ENDBRANCH  76  77
ENDBRANCH  75  76
ENDBRANCH  74  75
ENDBRANCH   1  74
TORSDOF 22
ENDMDL
MODEL 3
REMARK VINA RESULT:     -11.4      0.662      7.001
REMARK SMILES O=C(OCCOCCOCCOC(=O)c1cc(N2C(=O)C[C@H](Nc3ccccc3O)C2=O)ccc1O)c1ccc(-c2c3nc(c(-c4c(F)c(F)c(F)c(F)c4F)c4ccc([nH]4)c(-c4c(F)c(F)c(F)c(F)c4F)c4nc(c(-c5c(F)c(F)c(F)c(F)c5F)c5ccc2[nH]5)C=C4)C=C3)cc1
REMARK SMILES IDX 8 1 7 2 6 3 5 4 4 5 3 6 2 7 1 8 37 9 38 10 99 11 39 12 98 13
REMARK SMILES IDX 40 14 41 15 42 16 92 17 43 18 97 19 91 20 93 21 44 22 96 23
REMARK SMILES IDX 90 24 89 25 45 27 77 28 57 29 76 30 58 31 61 32 75 33 94 34
REMARK SMILES IDX 59 35 60 36 74 38 95 39 62 40 46 41 47 42 55 43 48 44 49 45
REMARK SMILES IDX 53 46 56 47 50 48 51 49 54 50 52 51 78 52 79 53 87 54 80 55
REMARK SMILES IDX 81 56 85 57 88 58 82 59 83 60 86 61 84 62 63 63 64 64 72 65
REMARK SMILES IDX 65 66 66 67 70 68 73 69 67 70 68 71 71 72 69 73 9 74 10 75
REMARK SMILES IDX 11 76 12 77 13 78 14 79 15 80 16 81 35 82 17 83 34 84 33 85
REMARK SMILES IDX 36 86 18 88 19 89 31 90 20 91 21 92 22 93 32 94 23 95 24 97
REMARK SMILES IDX 25 98 29 99 26 100 28 101 27 102 30 103
REMARK H PARENT 93 26 61 37 36 87 23 96 30 104
REMARK Flexibility Score: inf
ROOT
ATOM      1  C   UNL A   1      34.293  25.146  23.411  1.00  0.00     0.188 C 
ENDROOT
BRANCH   1   2
ATOM      2  C   UNL A   1      34.603  23.691  23.061  1.00  0.00     0.188 C 
BRANCH   2   3
ATOM      3  O   UNL A   1      35.250  22.984  24.118  1.00  0.00    -0.376 OA
BRANCH   3   4
ATOM      4  C   UNL A   1      36.670  22.861  23.987  1.00  0.00     0.202 C 
BRANCH   4   5
ATOM      5  C   UNL A   1      37.297  21.546  24.484  1.00  0.00     0.261 C 
BRANCH   5   6
ATOM      6  O   UNL A   1      37.807  21.601  25.826  1.00  0.00    -0.460 OA
BRANCH   6   7
ATOM      7  C   UNL A   1      39.092  21.796  26.216  1.00  0.00     0.338 C 
ATOM      8  O   UNL A   1      39.877  20.849  26.179  1.00  0.00    -0.246 OA
BRANCH   7   9
ATOM      9  C   UNL A   1      39.601  23.116  26.685  1.00  0.00     0.060 A 
ATOM     10  C   UNL A   1      39.061  24.352  26.340  1.00  0.00     0.016 A 
ATOM     11  C   UNL A   1      40.640  23.100  27.621  1.00  0.00     0.016 A 
ATOM     12  C   UNL A   1      39.585  25.542  26.816  1.00  0.00     0.010 A 
ATOM     13  C   UNL A   1      41.112  24.287  28.186  1.00  0.00     0.010 A 
ATOM     14  C   UNL A   1      40.605  25.518  27.756  1.00  0.00    -0.014 A 
BRANCH  14  15
ATOM     15  C   UNL A   1      41.233  26.792  28.147  1.00  0.00     0.031 A 
ATOM     16  C   UNL A   1      42.657  27.008  27.744  1.00  0.00     0.074 A 
ATOM     17  C   UNL A   1      40.508  27.767  28.724  1.00  0.00     0.049 A 
ATOM     18  N   UNL A   1      43.455  28.005  28.015  1.00  0.00    -0.248 NA
ATOM     19  C   UNL A   1      43.269  25.955  26.915  1.00  0.00     0.031 C 
ATOM     20  C   UNL A   1      39.077  27.687  29.023  1.00  0.00     0.029 A 
ATOM     21  N   UNL A   1      40.857  29.030  29.123  1.00  0.00    -0.354 N 
ATOM     22  C   UNL A   1      44.665  27.677  27.423  1.00  0.00     0.074 A 
ATOM     23  C   UNL A   1      44.516  26.378  26.811  1.00  0.00     0.031 C 
ATOM     24  C   UNL A   1      38.666  28.862  29.523  1.00  0.00     0.029 A 
ATOM     25  C   UNL A   1      39.816  29.737  29.675  1.00  0.00     0.049 A 
ATOM     26  H   UNL A   1      41.766  29.395  29.025  1.00  0.00     0.167 HD
ATOM     27  C   UNL A   1      45.798  28.412  27.388  1.00  0.00     0.037 A 
ATOM     28  C   UNL A   1      39.810  30.941  30.275  1.00  0.00     0.037 A 
ATOM     29  C   UNL A   1      45.902  29.710  27.992  1.00  0.00     0.049 A 
ATOM     30  C   UNL A   1      41.112  31.689  30.330  1.00  0.00     0.074 A 
ATOM     31  C   UNL A   1      46.998  30.543  28.072  1.00  0.00     0.029 A 
ATOM     32  N   UNL A   1      44.849  30.361  28.625  1.00  0.00    -0.354 N 
ATOM     33  N   UNL A   1      42.275  31.355  29.821  1.00  0.00    -0.248 NA
ATOM     34  C   UNL A   1      41.110  32.974  31.037  1.00  0.00     0.031 C 
ATOM     35  C   UNL A   1      46.624  31.675  28.803  1.00  0.00     0.029 A 
ATOM     36  C   UNL A   1      45.277  31.579  29.121  1.00  0.00     0.049 A 
ATOM     37  H   UNL A   1      43.934  30.008  28.708  1.00  0.00     0.167 HD
ATOM     38  C   UNL A   1      43.137  32.397  30.117  1.00  0.00     0.074 A 
ATOM     39  C   UNL A   1      42.355  33.383  30.839  1.00  0.00     0.031 C 
ATOM     40  C   UNL A   1      44.454  32.533  29.822  1.00  0.00     0.037 A 
BRANCH  27  41
ATOM     41  C   UNL A   1      46.994  27.782  26.740  1.00  0.00     0.064 A 
ATOM     42  C   UNL A   1      47.293  27.967  25.381  1.00  0.00     0.173 A 
ATOM     43  C   UNL A   1      47.817  26.921  27.481  1.00  0.00     0.173 A 
ATOM     44  F   UNL A   1      46.515  28.751  24.619  1.00  0.00    -0.203 F 
ATOM     45  C   UNL A   1      48.345  27.281  24.780  1.00  0.00     0.198 A 
ATOM     46  C   UNL A   1      48.889  26.263  26.884  1.00  0.00     0.198 A 
ATOM     47  F   UNL A   1      47.568  26.698  28.780  1.00  0.00    -0.203 F 
ATOM     48  F   UNL A   1      48.561  27.410  23.463  1.00  0.00    -0.200 F 
ATOM     49  C   UNL A   1      49.144  26.433  25.531  1.00  0.00     0.200 A 
ATOM     50  F   UNL A   1      49.660  25.445  27.613  1.00  0.00    -0.200 F 
ATOM     51  F   UNL A   1      50.148  25.763  24.948  1.00  0.00    -0.200 F 
ENDBRANCH  27  41
BRANCH  28  52
ATOM     52  C   UNL A   1      38.569  31.476  30.902  1.00  0.00     0.064 A 
ATOM     53  C   UNL A   1      37.607  32.166  30.152  1.00  0.00     0.173 A 
ATOM     54  C   UNL A   1      38.324  31.324  32.277  1.00  0.00     0.173 A 
ATOM     55  F   UNL A   1      37.790  32.350  28.836  1.00  0.00    -0.203 F 
ATOM     56  C   UNL A   1      36.469  32.705  30.753  1.00  0.00     0.198 A 
ATOM     57  C   UNL A   1      37.171  31.833  32.871  1.00  0.00     0.198 A 
ATOM     58  F   UNL A   1      39.199  30.660  33.049  1.00  0.00    -0.203 F 
ATOM     59  F   UNL A   1      35.590  33.400  30.018  1.00  0.00    -0.200 F 
ATOM     60  C   UNL A   1      36.250  32.535  32.111  1.00  0.00     0.200 A 
ATOM     61  F   UNL A   1      36.952  31.637  34.179  1.00  0.00    -0.200 F 
ATOM     62  F   UNL A   1      35.154  33.046  32.688  1.00  0.00    -0.200 F 
ENDBRANCH  28  52
BRANCH  40  63
ATOM     63  C   UNL A   1      45.106  33.815  30.239  1.00  0.00     0.064 A 
ATOM     64  C   UNL A   1      45.753  33.946  31.476  1.00  0.00     0.173 A 
ATOM     65  C   UNL A   1      45.127  34.908  29.359  1.00  0.00     0.173 A 
ATOM     66  F   UNL A   1      45.741  32.933  32.355  1.00  0.00    -0.203 F 
ATOM     67  C   UNL A   1      46.376  35.138  31.828  1.00  0.00     0.198 A 
ATOM     68  C   UNL A   1      45.785  36.084  29.700  1.00  0.00     0.198 A 
ATOM     69  F   UNL A   1      44.528  34.825  28.162  1.00  0.00    -0.203 F 
ATOM     70  F   UNL A   1      46.943  35.262  33.036  1.00  0.00    -0.200 F 
ATOM     71  C   UNL A   1      46.401  36.201  30.936  1.00  0.00     0.200 A 
ATOM     72  F   UNL A   1      45.824  37.102  28.830  1.00  0.00    -0.200 F 
ATOM     73  F   UNL A   1      47.016  37.342  31.272  1.00  0.00    -0.200 F 
ENDBRANCH  40  63
ENDBRANCH  14  15
ENDBRANCH   7   9
ENDBRANCH   6   7
ENDBRANCH   5   6
ENDBRANCH   4   5
ENDBRANCH   3   4
ENDBRANCH   2   3
ENDBRANCH   1   2
BRANCH   1  74
ATOM     74  O   UNL A   1      33.372  25.825  22.569  1.00  0.00    -0.376 OA
BRANCH  74  75
ATOM     75  C   UNL A   1      33.760  27.105  22.084  1.00  0.00     0.202 C 
BRANCH  75  76
ATOM     76  C   UNL A   1      33.905  28.266  23.085  1.00  0.00     0.261 C 
BRANCH  76  77
ATOM     77  O   UNL A   1      32.786  29.165  23.237  1.00  0.00    -0.460 OA
BRANCH  77  78
ATOM     78  C   UNL A   1      32.198  29.110  24.459  1.00  0.00     0.342 C 
ATOM     79  O   UNL A   1      32.475  29.799  25.432  1.00  0.00    -0.246 OA
BRANCH  78  80
ATOM     80  C   UNL A   1      31.158  28.066  24.557  1.00  0.00     0.103 A 
ATOM     81  C   UNL A   1      31.455  26.791  25.080  1.00  0.00     0.046 A 
ATOM     82  C   UNL A   1      29.994  28.263  23.806  1.00  0.00     0.130 A 
ATOM     83  C   UNL A   1      30.621  25.701  24.768  1.00  0.00     0.053 A 
ATOM     84  C   UNL A   1      29.162  27.189  23.508  1.00  0.00     0.049 A 
ATOM     85  C   UNL A   1      29.488  25.912  23.968  1.00  0.00     0.031 A 
BRANCH  82  86
ATOM     86  O   UNL A   1      29.676  29.513  23.356  1.00  0.00    -0.507 OA
ATOM     87  H   UNL A   1      28.943  29.970  23.720  1.00  0.00     0.293 HD
ENDBRANCH  82  86
BRANCH  83  88
ATOM     88  N   UNL A   1      30.935  24.381  25.184  1.00  0.00    -0.249 N 
ATOM     89  C   UNL A   1      31.398  24.066  26.432  1.00  0.00     0.236 C 
ATOM     90  C   UNL A   1      31.086  23.334  24.306  1.00  0.00     0.256 C 
ATOM     91  O   UNL A   1      31.538  24.820  27.386  1.00  0.00    -0.274 OA
ATOM     92  C   UNL A   1      31.724  22.605  26.497  1.00  0.00     0.136 C 
ATOM     93  C   UNL A   1      31.476  22.080  25.091  1.00  0.00     0.179 C 
ATOM     94  O   UNL A   1      31.028  23.419  23.095  1.00  0.00    -0.272 OA
BRANCH  93  95
ATOM     95  N   UNL A   1      32.707  21.438  24.598  1.00  0.00    -0.370 N 
ATOM     96  H   UNL A   1      33.549  21.947  24.549  1.00  0.00     0.161 HD
BRANCH  95  97
ATOM     97  C   UNL A   1      32.665  20.096  24.199  1.00  0.00     0.077 A 
ATOM     98  C   UNL A   1      33.206  19.122  25.048  1.00  0.00     0.029 A 
ATOM     99  C   UNL A   1      32.272  19.687  22.914  1.00  0.00     0.138 A 
ATOM    100  C   UNL A   1      33.297  17.782  24.653  1.00  0.00     0.002 A 
ATOM    101  C   UNL A   1      32.380  18.356  22.500  1.00  0.00     0.048 A 
ATOM    102  C   UNL A   1      32.887  17.400  23.376  1.00  0.00     0.004 A 
BRANCH  99 103
ATOM    103  O   UNL A   1      31.788  20.622  22.043  1.00  0.00    -0.506 OA
ATOM    104  H   UNL A   1      32.378  21.205  21.605  1.00  0.00     0.293 HD
ENDBRANCH  99 103
ENDBRANCH  95  97
ENDBRANCH  93  95
ENDBRANCH  83  88
ENDBRANCH  78  80
ENDBRANCH  77  78
ENDBRANCH  76  77
ENDBRANCH  75  76
ENDBRANCH  74  75
ENDBRANCH   1  74
TORSDOF 22
ENDMDL
