MODEL 1
REMARK VINA RESULT:     -10.5      0.000      0.000
REMARK SMILES O=C(OCCOCCOCCOC(=O)c1cn2ccnc2s1)c1ccc(-c2c3nc(c(-c4c(F)c(F)c(F)c(F)c4F)c4ccc([nH]4)c(-c4c(F)c(F)c(F)c(F)c4F)c4nc(c(-c5c(F)c(F)c(F)c(F)c5F)c5ccc2[nH]5)C=C4)C=C3)cc1
REMARK SMILES IDX 7 1 6 2 5 3 4 4 3 5 2 6 1 7 23 8 24 9 85 10 25 11 84 12
REMARK SMILES IDX 26 13 27 14 28 15 78 16 29 17 83 18 77 19 79 20 30 21 82 22
REMARK SMILES IDX 76 23 75 24 31 26 63 27 43 28 62 29 44 30 47 31 61 32 80 33
REMARK SMILES IDX 45 34 46 35 60 37 81 38 48 39 32 40 33 41 41 42 34 43 35 44
REMARK SMILES IDX 39 45 42 46 36 47 37 48 40 49 38 50 64 51 65 52 73 53 66 54
REMARK SMILES IDX 67 55 71 56 74 57 68 58 69 59 72 60 70 61 49 62 50 63 58 64
REMARK SMILES IDX 51 65 52 66 56 67 59 68 53 69 54 70 57 71 55 72 8 73 9 74
REMARK SMILES IDX 10 75 11 76 12 77 13 78 14 79 15 80 16 81 22 82 17 83 21 84
REMARK SMILES IDX 18 85 20 86 19 87
REMARK H PARENT 79 25 47 36
REMARK Flexibility Score: inf
ROOT
ATOM      1  C   UNL A   1      37.368  21.851  25.004  1.00  0.00     0.188 C 
ENDROOT
BRANCH   1   2
ATOM      2  O   UNL A   1      37.007  20.461  25.043  1.00  0.00    -0.376 OA
BRANCH   2   3
ATOM      3  C   UNL A   1      38.128  19.580  24.918  1.00  0.00     0.202 C 
BRANCH   3   4
ATOM      4  C   UNL A   1      39.359  20.020  25.717  1.00  0.00     0.261 C 
BRANCH   4   5
ATOM      5  O   UNL A   1      40.381  19.011  25.725  1.00  0.00    -0.460 OA
BRANCH   5   6
ATOM      6  C   UNL A   1      41.711  19.155  25.952  1.00  0.00     0.338 C 
ATOM      7  O   UNL A   1      42.449  18.205  25.689  1.00  0.00    -0.246 OA
BRANCH   6   8
ATOM      8  C   UNL A   1      42.353  20.420  26.434  1.00  0.00     0.060 A 
ATOM      9  C   UNL A   1      42.423  20.848  27.761  1.00  0.00     0.016 A 
ATOM     10  C   UNL A   1      42.959  21.233  25.457  1.00  0.00     0.016 A 
ATOM     11  C   UNL A   1      42.918  22.109  28.088  1.00  0.00     0.010 A 
ATOM     12  C   UNL A   1      43.522  22.471  25.785  1.00  0.00     0.010 A 
ATOM     13  C   UNL A   1      43.442  22.942  27.098  1.00  0.00    -0.014 A 
BRANCH  13  14
ATOM     14  C   UNL A   1      43.763  24.344  27.451  1.00  0.00     0.031 A 
ATOM     15  C   UNL A   1      45.135  24.871  27.138  1.00  0.00     0.074 A 
ATOM     16  C   UNL A   1      42.797  25.162  27.905  1.00  0.00     0.049 A 
ATOM     17  N   UNL A   1      45.606  26.085  27.261  1.00  0.00    -0.248 NA
ATOM     18  C   UNL A   1      46.102  23.903  26.595  1.00  0.00     0.031 C 
ATOM     19  C   UNL A   1      41.417  24.761  28.175  1.00  0.00     0.029 A 
ATOM     20  N   UNL A   1      42.818  26.504  28.179  1.00  0.00    -0.354 N 
ATOM     21  C   UNL A   1      46.922  26.022  26.824  1.00  0.00     0.074 A 
ATOM     22  C   UNL A   1      47.184  24.652  26.446  1.00  0.00     0.031 C 
ATOM     23  C   UNL A   1      40.709  25.846  28.527  1.00  0.00     0.029 A 
ATOM     24  C   UNL A   1      41.596  27.007  28.553  1.00  0.00     0.049 A 
ATOM     25  H   UNL A   1      43.630  27.056  28.113  1.00  0.00     0.167 HD
ATOM     26  C   UNL A   1      47.831  27.022  26.740  1.00  0.00     0.037 A 
ATOM     27  C   UNL A   1      41.242  28.264  28.880  1.00  0.00     0.037 A 
ATOM     28  C   UNL A   1      47.565  28.382  27.118  1.00  0.00     0.049 A 
ATOM     29  C   UNL A   1      42.289  29.345  28.837  1.00  0.00     0.074 A 
ATOM     30  C   UNL A   1      48.423  29.465  27.122  1.00  0.00     0.029 A 
ATOM     31  N   UNL A   1      46.333  28.841  27.561  1.00  0.00    -0.354 N 
ATOM     32  N   UNL A   1      43.538  29.271  28.442  1.00  0.00    -0.248 NA
ATOM     33  C   UNL A   1      41.881  30.680  29.294  1.00  0.00     0.031 C 
ATOM     34  C   UNL A   1      47.718  30.576  27.600  1.00  0.00     0.029 A 
ATOM     35  C   UNL A   1      46.411  30.191  27.857  1.00  0.00     0.049 A 
ATOM     36  H   UNL A   1      45.523  28.289  27.652  1.00  0.00     0.167 HD
ATOM     37  C   UNL A   1      44.060  30.549  28.588  1.00  0.00     0.074 A 
ATOM     38  C   UNL A   1      42.986  31.383  29.088  1.00  0.00     0.031 C 
ATOM     39  C   UNL A   1      45.318  30.993  28.341  1.00  0.00     0.037 A 
BRANCH  26  40
ATOM     40  C   UNL A   1      49.203  26.650  26.266  1.00  0.00     0.064 A 
ATOM     41  C   UNL A   1      50.170  26.133  27.141  1.00  0.00     0.173 A 
ATOM     42  C   UNL A   1      49.566  26.846  24.925  1.00  0.00     0.173 A 
ATOM     43  F   UNL A   1      49.879  25.953  28.439  1.00  0.00    -0.203 F 
ATOM     44  C   UNL A   1      51.460  25.854  26.697  1.00  0.00     0.198 A 
ATOM     45  C   UNL A   1      50.850  26.546  24.480  1.00  0.00     0.198 A 
ATOM     46  F   UNL A   1      48.678  27.343  24.052  1.00  0.00    -0.203 F 
ATOM     47  F   UNL A   1      52.385  25.412  27.561  1.00  0.00    -0.200 F 
ATOM     48  C   UNL A   1      51.798  26.059  25.367  1.00  0.00     0.200 A 
ATOM     49  F   UNL A   1      51.175  26.745  23.195  1.00  0.00    -0.200 F 
ATOM     50  F   UNL A   1      53.044  25.802  24.944  1.00  0.00    -0.200 F 
ENDBRANCH  26  40
BRANCH  27  51
ATOM     51  C   UNL A   1      39.839  28.568  29.268  1.00  0.00     0.064 A 
ATOM     52  C   UNL A   1      39.392  28.372  30.582  1.00  0.00     0.173 A 
ATOM     53  C   UNL A   1      38.915  29.062  28.335  1.00  0.00     0.173 A 
ATOM     54  F   UNL A   1      40.231  27.887  31.508  1.00  0.00    -0.203 F 
ATOM     55  C   UNL A   1      38.074  28.645  30.944  1.00  0.00     0.198 A 
ATOM     56  C   UNL A   1      37.606  29.362  28.704  1.00  0.00     0.198 A 
ATOM     57  F   UNL A   1      39.290  29.275  27.064  1.00  0.00    -0.203 F 
ATOM     58  F   UNL A   1      37.664  28.415  32.198  1.00  0.00    -0.200 F 
ATOM     59  C   UNL A   1      37.183  29.145  30.005  1.00  0.00     0.200 A 
ATOM     60  F   UNL A   1      36.757  29.869  27.799  1.00  0.00    -0.200 F 
ATOM     61  F   UNL A   1      35.920  29.420  30.356  1.00  0.00    -0.200 F 
ENDBRANCH  27  51
BRANCH  39  62
ATOM     62  C   UNL A   1      45.585  32.446  28.588  1.00  0.00     0.064 A 
ATOM     63  C   UNL A   1      45.358  33.408  27.594  1.00  0.00     0.173 A 
ATOM     64  C   UNL A   1      46.028  32.882  29.845  1.00  0.00     0.173 A 
ATOM     65  F   UNL A   1      44.948  33.034  26.373  1.00  0.00    -0.203 F 
ATOM     66  C   UNL A   1      45.584  34.758  27.845  1.00  0.00     0.198 A 
ATOM     67  C   UNL A   1      46.232  34.235  30.098  1.00  0.00     0.198 A 
ATOM     68  F   UNL A   1      46.254  31.998  30.827  1.00  0.00    -0.203 F 
ATOM     69  F   UNL A   1      45.396  35.659  26.870  1.00  0.00    -0.200 F 
ATOM     70  C   UNL A   1      46.015  35.172  29.097  1.00  0.00     0.200 A 
ATOM     71  F   UNL A   1      46.641  34.634  31.310  1.00  0.00    -0.200 F 
ATOM     72  F   UNL A   1      46.228  36.472  29.337  1.00  0.00    -0.200 F 
ENDBRANCH  39  62
ENDBRANCH  13  14
ENDBRANCH   6   8
ENDBRANCH   5   6
ENDBRANCH   4   5
ENDBRANCH   3   4
ENDBRANCH   2   3
ENDBRANCH   1   2
BRANCH   1  73
ATOM     73  C   UNL A   1      36.613  22.591  23.896  1.00  0.00     0.188 C 
BRANCH  73  74
ATOM     74  O   UNL A   1      35.758  23.639  24.361  1.00  0.00    -0.376 OA
BRANCH  74  75
ATOM     75  C   UNL A   1      34.800  23.286  25.359  1.00  0.00     0.202 C 
BRANCH  75  76
ATOM     76  C   UNL A   1      33.653  22.404  24.863  1.00  0.00     0.261 C 
BRANCH  76  77
ATOM     77  O   UNL A   1      33.829  21.020  25.216  1.00  0.00    -0.459 OA
BRANCH  77  78
ATOM     78  C   UNL A   1      33.225  20.150  24.370  1.00  0.00     0.350 C 
ATOM     79  O   UNL A   1      32.544  20.447  23.400  1.00  0.00    -0.245 OA
BRANCH  78  80
ATOM     80  C   UNL A   1      33.384  18.754  24.801  1.00  0.00     0.132 A 
ATOM     81  C   UNL A   1      32.391  18.088  25.416  1.00  0.00     0.120 A 
ATOM     82  S   UNL A   1      34.759  17.746  24.369  1.00  0.00    -0.089 S 
ATOM     83  N   UNL A   1      32.693  16.756  25.529  1.00  0.00    -0.297 N 
ATOM     84  C   UNL A   1      33.896  16.378  25.010  1.00  0.00     0.194 A 
ATOM     85  C   UNL A   1      32.080  15.638  25.999  1.00  0.00     0.114 A 
ATOM     86  N   UNL A   1      34.105  15.094  25.073  1.00  0.00    -0.227 NA
ATOM     87  C   UNL A   1      32.962  14.615  25.690  1.00  0.00     0.133 A 
ENDBRANCH  78  80
ENDBRANCH  77  78
ENDBRANCH  76  77
ENDBRANCH  75  76
ENDBRANCH  74  75
ENDBRANCH  73  74
ENDBRANCH   1  73
TORSDOF 17
ENDMDL
MODEL 2
REMARK VINA RESULT:     -10.3      5.353     10.686
REMARK SMILES O=C(OCCOCCOCCOC(=O)c1cn2ccnc2s1)c1ccc(-c2c3nc(c(-c4c(F)c(F)c(F)c(F)c4F)c4ccc([nH]4)c(-c4c(F)c(F)c(F)c(F)c4F)c4nc(c(-c5c(F)c(F)c(F)c(F)c5F)c5ccc2[nH]5)C=C4)C=C3)cc1
REMARK SMILES IDX 7 1 6 2 5 3 4 4 3 5 2 6 1 7 23 8 24 9 85 10 25 11 84 12
REMARK SMILES IDX 26 13 27 14 28 15 78 16 29 17 83 18 77 19 79 20 30 21 82 22
REMARK SMILES IDX 76 23 75 24 31 26 63 27 43 28 62 29 44 30 47 31 61 32 80 33
REMARK SMILES IDX 45 34 46 35 60 37 81 38 48 39 32 40 33 41 41 42 34 43 35 44
REMARK SMILES IDX 39 45 42 46 36 47 37 48 40 49 38 50 64 51 65 52 73 53 66 54
REMARK SMILES IDX 67 55 71 56 74 57 68 58 69 59 72 60 70 61 49 62 50 63 58 64
REMARK SMILES IDX 51 65 52 66 56 67 59 68 53 69 54 70 57 71 55 72 8 73 9 74
REMARK SMILES IDX 10 75 11 76 12 77 13 78 14 79 15 80 16 81 22 82 17 83 21 84
REMARK SMILES IDX 18 85 20 86 19 87
REMARK H PARENT 79 25 47 36
REMARK Flexibility Score: inf
ROOT
ATOM      1  C   UNL A   1      31.121  28.341  24.855  1.00  0.00     0.188 C 
ENDROOT
BRANCH   1   2
ATOM      2  O   UNL A   1      31.088  29.761  25.066  1.00  0.00    -0.376 OA
BRANCH   2   3
ATOM      3  C   UNL A   1      32.240  30.260  25.755  1.00  0.00     0.202 C 
BRANCH   3   4
ATOM      4  C   UNL A   1      31.912  31.050  27.026  1.00  0.00     0.261 C 
BRANCH   4   5
ATOM      5  O   UNL A   1      32.421  32.392  26.967  1.00  0.00    -0.460 OA
BRANCH   5   6
ATOM      6  C   UNL A   1      33.384  32.966  27.732  1.00  0.00     0.338 C 
ATOM      7  O   UNL A   1      33.168  34.090  28.187  1.00  0.00    -0.246 OA
BRANCH   6   8
ATOM      8  C   UNL A   1      34.665  32.294  28.123  1.00  0.00     0.060 A 
ATOM      9  C   UNL A   1      34.823  30.935  28.401  1.00  0.00     0.016 A 
ATOM     10  C   UNL A   1      35.811  33.109  28.191  1.00  0.00     0.016 A 
ATOM     11  C   UNL A   1      36.028  30.435  28.893  1.00  0.00     0.010 A 
ATOM     12  C   UNL A   1      37.043  32.600  28.616  1.00  0.00     0.010 A 
ATOM     13  C   UNL A   1      37.137  31.270  29.034  1.00  0.00    -0.014 A 
BRANCH  13  14
ATOM     14  C   UNL A   1      38.325  30.754  29.749  1.00  0.00     0.031 A 
ATOM     15  C   UNL A   1      38.509  31.113  31.197  1.00  0.00     0.074 A 
ATOM     16  C   UNL A   1      39.138  29.865  29.151  1.00  0.00     0.049 A 
ATOM     17  N   UNL A   1      39.411  30.696  32.048  1.00  0.00    -0.248 NA
ATOM     18  C   UNL A   1      37.533  32.054  31.769  1.00  0.00     0.031 C 
ATOM     19  C   UNL A   1      39.002  29.402  27.771  1.00  0.00     0.029 A 
ATOM     20  N   UNL A   1      40.210  29.164  29.638  1.00  0.00    -0.354 N 
ATOM     21  C   UNL A   1      39.118  31.332  33.246  1.00  0.00     0.074 A 
ATOM     22  C   UNL A   1      37.966  32.174  33.014  1.00  0.00     0.031 C 
ATOM     23  C   UNL A   1      39.924  28.454  27.536  1.00  0.00     0.029 A 
ATOM     24  C   UNL A   1      40.743  28.279  28.734  1.00  0.00     0.049 A 
ATOM     25  H   UNL A   1      40.564  29.283  30.548  1.00  0.00     0.167 HD
ATOM     26  C   UNL A   1      39.751  31.219  34.437  1.00  0.00     0.037 A 
ATOM     27  C   UNL A   1      41.778  27.428  28.864  1.00  0.00     0.037 A 
ATOM     28  C   UNL A   1      40.897  30.382  34.661  1.00  0.00     0.049 A 
ATOM     29  C   UNL A   1      42.503  27.368  30.183  1.00  0.00     0.074 A 
ATOM     30  C   UNL A   1      41.648  30.228  35.811  1.00  0.00     0.029 A 
ATOM     31  N   UNL A   1      41.454  29.551  33.700  1.00  0.00    -0.354 N 
ATOM     32  N   UNL A   1      42.231  27.990  31.305  1.00  0.00    -0.248 NA
ATOM     33  C   UNL A   1      43.684  26.498  30.249  1.00  0.00     0.031 C 
ATOM     34  C   UNL A   1      42.682  29.325  35.536  1.00  0.00     0.029 A 
ATOM     35  C   UNL A   1      42.551  28.891  34.226  1.00  0.00     0.049 A 
ATOM     36  H   UNL A   1      41.119  29.446  32.780  1.00  0.00     0.167 HD
ATOM     37  C   UNL A   1      43.195  27.576  32.214  1.00  0.00     0.074 A 
ATOM     38  C   UNL A   1      44.046  26.632  31.518  1.00  0.00     0.031 C 
ATOM     39  C   UNL A   1      43.368  27.948  33.507  1.00  0.00     0.037 A 
BRANCH  26  40
ATOM     40  C   UNL A   1      39.235  32.067  35.560  1.00  0.00     0.064 A 
ATOM     41  C   UNL A   1      39.600  33.415  35.694  1.00  0.00     0.173 A 
ATOM     42  C   UNL A   1      38.391  31.513  36.534  1.00  0.00     0.173 A 
ATOM     43  F   UNL A   1      40.426  33.982  34.802  1.00  0.00    -0.203 F 
ATOM     44  C   UNL A   1      39.162  34.169  36.780  1.00  0.00     0.198 A 
ATOM     45  C   UNL A   1      37.939  32.275  37.607  1.00  0.00     0.198 A 
ATOM     46  F   UNL A   1      38.019  30.227  36.453  1.00  0.00    -0.203 F 
ATOM     47  F   UNL A   1      39.566  35.440  36.918  1.00  0.00    -0.200 F 
ATOM     48  C   UNL A   1      38.332  33.599  37.734  1.00  0.00     0.200 A 
ATOM     49  F   UNL A   1      37.137  31.725  38.528  1.00  0.00    -0.200 F 
ATOM     50  F   UNL A   1      37.921  34.324  38.785  1.00  0.00    -0.200 F 
ENDBRANCH  26  40
BRANCH  27  51
ATOM     51  C   UNL A   1      42.183  26.562  27.725  1.00  0.00     0.064 A 
ATOM     52  C   UNL A   1      43.119  27.003  26.779  1.00  0.00     0.173 A 
ATOM     53  C   UNL A   1      41.645  25.278  27.557  1.00  0.00     0.173 A 
ATOM     54  F   UNL A   1      43.651  28.230  26.885  1.00  0.00    -0.203 F 
ATOM     55  C   UNL A   1      43.490  26.198  25.703  1.00  0.00     0.198 A 
ATOM     56  C   UNL A   1      42.038  24.463  26.498  1.00  0.00     0.198 A 
ATOM     57  F   UNL A   1      40.750  24.803  28.436  1.00  0.00    -0.203 F 
ATOM     58  F   UNL A   1      44.360  26.658  24.794  1.00  0.00    -0.200 F 
ATOM     59  C   UNL A   1      42.953  24.926  25.567  1.00  0.00     0.200 A 
ATOM     60  F   UNL A   1      41.536  23.226  26.387  1.00  0.00    -0.200 F 
ATOM     61  F   UNL A   1      43.320  24.148  24.541  1.00  0.00    -0.200 F 
ENDBRANCH  27  51
BRANCH  39  62
ATOM     62  C   UNL A   1      44.506  27.316  34.248  1.00  0.00     0.064 A 
ATOM     63  C   UNL A   1      45.768  27.924  34.303  1.00  0.00     0.173 A 
ATOM     64  C   UNL A   1      44.317  26.115  34.949  1.00  0.00     0.173 A 
ATOM     65  F   UNL A   1      45.996  29.065  33.635  1.00  0.00    -0.203 F 
ATOM     66  C   UNL A   1      46.810  27.340  35.018  1.00  0.00     0.198 A 
ATOM     67  C   UNL A   1      45.355  25.547  35.680  1.00  0.00     0.198 A 
ATOM     68  F   UNL A   1      43.126  25.501  34.929  1.00  0.00    -0.203 F 
ATOM     69  F   UNL A   1      48.019  27.918  35.026  1.00  0.00    -0.200 F 
ATOM     70  C   UNL A   1      46.601  26.157  35.710  1.00  0.00     0.200 A 
ATOM     71  F   UNL A   1      45.151  24.408  36.355  1.00  0.00    -0.200 F 
ATOM     72  F   UNL A   1      47.605  25.599  36.401  1.00  0.00    -0.200 F 
ENDBRANCH  39  62
ENDBRANCH  13  14
ENDBRANCH   6   8
ENDBRANCH   5   6
ENDBRANCH   4   5
ENDBRANCH   3   4
ENDBRANCH   2   3
ENDBRANCH   1   2
BRANCH   1  73
ATOM     73  C   UNL A   1      30.689  27.981  23.431  1.00  0.00     0.188 C 
BRANCH  73  74
ATOM     74  O   UNL A   1      31.581  28.435  22.408  1.00  0.00    -0.376 OA
BRANCH  74  75
ATOM     75  C   UNL A   1      32.972  28.431  22.727  1.00  0.00     0.202 C 
BRANCH  75  76
ATOM     76  C   UNL A   1      33.729  27.181  22.276  1.00  0.00     0.261 C 
BRANCH  76  77
ATOM     77  O   UNL A   1      33.259  25.986  22.926  1.00  0.00    -0.459 OA
BRANCH  77  78
ATOM     78  C   UNL A   1      33.092  24.931  22.092  1.00  0.00     0.350 C 
ATOM     79  O   UNL A   1      32.996  24.984  20.875  1.00  0.00    -0.245 OA
BRANCH  78  80
ATOM     80  C   UNL A   1      32.927  23.666  22.823  1.00  0.00     0.132 A 
ATOM     81  C   UNL A   1      33.984  22.941  23.227  1.00  0.00     0.120 A 
ATOM     82  S   UNL A   1      31.385  23.088  23.444  1.00  0.00    -0.089 S 
ATOM     83  N   UNL A   1      33.591  21.928  24.062  1.00  0.00    -0.297 N 
ATOM     84  C   UNL A   1      32.254  21.859  24.316  1.00  0.00     0.194 A 
ATOM     85  C   UNL A   1      34.197  20.947  24.781  1.00  0.00     0.114 A 
ATOM     86  N   UNL A   1      31.938  20.928  25.173  1.00  0.00    -0.227 NA
ATOM     87  C   UNL A   1      33.159  20.350  25.478  1.00  0.00     0.133 A 
ENDBRANCH  78  80
ENDBRANCH  77  78
ENDBRANCH  76  77
ENDBRANCH  75  76
ENDBRANCH  74  75
ENDBRANCH  73  74
ENDBRANCH   1  73
TORSDOF 17
ENDMDL
MODEL 3
REMARK VINA RESULT:     -10.1      6.747     10.914
REMARK SMILES O=C(OCCOCCOCCOC(=O)c1cn2ccnc2s1)c1ccc(-c2c3nc(c(-c4c(F)c(F)c(F)c(F)c4F)c4ccc([nH]4)c(-c4c(F)c(F)c(F)c(F)c4F)c4nc(c(-c5c(F)c(F)c(F)c(F)c5F)c5ccc2[nH]5)C=C4)C=C3)cc1
REMARK SMILES IDX 7 1 6 2 5 3 4 4 3 5 2 6 1 7 23 8 24 9 85 10 25 11 84 12
REMARK SMILES IDX 26 13 27 14 28 15 78 16 29 17 83 18 77 19 79 20 30 21 82 22
REMARK SMILES IDX 76 23 75 24 31 26 63 27 43 28 62 29 44 30 47 31 61 32 80 33
REMARK SMILES IDX 45 34 46 35 60 37 81 38 48 39 32 40 33 41 41 42 34 43 35 44
REMARK SMILES IDX 39 45 42 46 36 47 37 48 40 49 38 50 64 51 65 52 73 53 66 54
REMARK SMILES IDX 67 55 71 56 74 57 68 58 69 59 72 60 70 61 49 62 50 63 58 64
REMARK SMILES IDX 51 65 52 66 56 67 59 68 53 69 54 70 57 71 55 72 8 73 9 74
REMARK SMILES IDX 10 75 11 76 12 77 13 78 14 79 15 80 16 81 22 82 17 83 21 84
REMARK SMILES IDX 18 85 20 86 19 87
REMARK H PARENT 79 25 47 36
REMARK Flexibility Score: inf
ROOT
ATOM      1  C   UNL A   1      31.877  29.759  25.474  1.00  0.00     0.188 C 
ENDROOT
BRANCH   1   2
ATOM      2  O   UNL A   1      31.524  30.439  26.689  1.00  0.00    -0.376 OA
BRANCH   2   3
ATOM      3  C   UNL A   1      31.534  31.865  26.565  1.00  0.00     0.202 C 
BRANCH   3   4
ATOM      4  C   UNL A   1      32.699  32.545  27.293  1.00  0.00     0.261 C 
BRANCH   4   5
ATOM      5  O   UNL A   1      32.396  33.908  27.629  1.00  0.00    -0.460 OA
BRANCH   5   6
ATOM      6  C   UNL A   1      33.031  34.725  28.507  1.00  0.00     0.338 C 
ATOM      7  O   UNL A   1      32.568  35.851  28.690  1.00  0.00    -0.246 OA
BRANCH   6   8
ATOM      8  C   UNL A   1      34.220  34.321  29.327  1.00  0.00     0.060 A 
ATOM      9  C   UNL A   1      35.540  34.262  28.879  1.00  0.00     0.016 A 
ATOM     10  C   UNL A   1      33.976  33.997  30.676  1.00  0.00     0.016 A 
ATOM     11  C   UNL A   1      36.552  33.738  29.682  1.00  0.00     0.010 A 
ATOM     12  C   UNL A   1      35.000  33.538  31.512  1.00  0.00     0.010 A 
ATOM     13  C   UNL A   1      36.282  33.343  30.993  1.00  0.00    -0.014 A 
BRANCH  13  14
ATOM     14  C   UNL A   1      37.327  32.605  31.738  1.00  0.00     0.031 A 
ATOM     15  C   UNL A   1      38.087  31.519  31.031  1.00  0.00     0.074 A 
ATOM     16  C   UNL A   1      37.681  33.002  32.973  1.00  0.00     0.049 A 
ATOM     17  N   UNL A   1      39.107  30.813  31.446  1.00  0.00    -0.248 NA
ATOM     18  C   UNL A   1      37.651  31.196  29.662  1.00  0.00     0.031 C 
ATOM     19  C   UNL A   1      37.050  34.091  33.716  1.00  0.00     0.029 A 
ATOM     20  N   UNL A   1      38.684  32.566  33.799  1.00  0.00    -0.354 N 
ATOM     21  C   UNL A   1      39.424  29.959  30.398  1.00  0.00     0.074 A 
ATOM     22  C   UNL A   1      38.482  30.220  29.333  1.00  0.00     0.031 C 
ATOM     23  C   UNL A   1      37.713  34.273  34.870  1.00  0.00     0.029 A 
ATOM     24  C   UNL A   1      38.783  33.283  34.966  1.00  0.00     0.049 A 
ATOM     25  H   UNL A   1      39.276  31.812  33.579  1.00  0.00     0.167 HD
ATOM     26  C   UNL A   1      40.416  29.041  30.330  1.00  0.00     0.037 A 
ATOM     27  C   UNL A   1      39.644  33.149  35.993  1.00  0.00     0.037 A 
ATOM     28  C   UNL A   1      41.348  28.785  31.393  1.00  0.00     0.049 A 
ATOM     29  C   UNL A   1      40.700  32.078  35.915  1.00  0.00     0.074 A 
ATOM     30  C   UNL A   1      42.360  27.846  31.452  1.00  0.00     0.029 A 
ATOM     31  N   UNL A   1      41.374  29.484  32.591  1.00  0.00    -0.354 N 
ATOM     32  N   UNL A   1      40.978  31.261  34.928  1.00  0.00    -0.248 NA
ATOM     33  C   UNL A   1      41.553  31.904  37.098  1.00  0.00     0.031 C 
ATOM     34  C   UNL A   1      42.981  27.956  32.702  1.00  0.00     0.029 A 
ATOM     35  C   UNL A   1      42.377  28.987  33.405  1.00  0.00     0.049 A 
ATOM     36  H   UNL A   1      40.769  30.223  32.828  1.00  0.00     0.167 HD
ATOM     37  C   UNL A   1      42.046  30.487  35.362  1.00  0.00     0.074 A 
ATOM     38  C   UNL A   1      42.379  30.948  36.695  1.00  0.00     0.031 C 
ATOM     39  C   UNL A   1      42.689  29.479  34.721  1.00  0.00     0.037 A 
BRANCH  26  40
ATOM     40  C   UNL A   1      40.495  28.223  29.077  1.00  0.00     0.064 A 
ATOM     41  C   UNL A   1      41.265  28.631  27.977  1.00  0.00     0.173 A 
ATOM     42  C   UNL A   1      39.763  27.032  28.963  1.00  0.00     0.173 A 
ATOM     43  F   UNL A   1      41.961  29.777  28.028  1.00  0.00    -0.203 F 
ATOM     44  C   UNL A   1      41.275  27.891  26.798  1.00  0.00     0.198 A 
ATOM     45  C   UNL A   1      39.791  26.283  27.789  1.00  0.00     0.198 A 
ATOM     46  F   UNL A   1      39.008  26.603  29.985  1.00  0.00    -0.203 F 
ATOM     47  F   UNL A   1      41.973  28.326  25.740  1.00  0.00    -0.200 F 
ATOM     48  C   UNL A   1      40.539  26.718  26.705  1.00  0.00     0.200 A 
ATOM     49  F   UNL A   1      39.082  25.151  27.701  1.00  0.00    -0.200 F 
ATOM     50  F   UNL A   1      40.541  26.013  25.565  1.00  0.00    -0.200 F 
ENDBRANCH  26  40
BRANCH  27  51
ATOM     51  C   UNL A   1      39.549  34.050  37.171  1.00  0.00     0.064 A 
ATOM     52  C   UNL A   1      38.810  33.684  38.305  1.00  0.00     0.173 A 
ATOM     53  C   UNL A   1      40.194  35.296  37.191  1.00  0.00     0.173 A 
ATOM     54  F   UNL A   1      38.160  32.511  38.330  1.00  0.00    -0.203 F 
ATOM     55  C   UNL A   1      38.709  34.533  39.406  1.00  0.00     0.198 A 
ATOM     56  C   UNL A   1      40.117  36.131  38.302  1.00  0.00     0.198 A 
ATOM     57  F   UNL A   1      40.920  35.695  36.136  1.00  0.00    -0.203 F 
ATOM     58  F   UNL A   1      37.967  34.174  40.462  1.00  0.00    -0.200 F 
ATOM     59  C   UNL A   1      39.368  35.754  39.405  1.00  0.00     0.200 A 
ATOM     60  F   UNL A   1      40.776  37.298  38.307  1.00  0.00    -0.200 F 
ATOM     61  F   UNL A   1      39.282  36.565  40.468  1.00  0.00    -0.200 F 
ENDBRANCH  27  51
BRANCH  39  62
ATOM     62  C   UNL A   1      43.826  28.829  35.449  1.00  0.00     0.064 A 
ATOM     63  C   UNL A   1      45.147  29.262  35.272  1.00  0.00     0.173 A 
ATOM     64  C   UNL A   1      43.583  27.795  36.365  1.00  0.00     0.173 A 
ATOM     65  F   UNL A   1      45.426  30.238  34.395  1.00  0.00    -0.203 F 
ATOM     66  C   UNL A   1      46.192  28.668  35.975  1.00  0.00     0.198 A 
ATOM     67  C   UNL A   1      44.628  27.220  37.081  1.00  0.00     0.198 A 
ATOM     68  F   UNL A   1      42.335  27.352  36.570  1.00  0.00    -0.203 F 
ATOM     69  F   UNL A   1      47.452  29.072  35.764  1.00  0.00    -0.200 F 
ATOM     70  C   UNL A   1      45.931  27.652  36.882  1.00  0.00     0.200 A 
ATOM     71  F   UNL A   1      44.375  26.243  37.964  1.00  0.00    -0.200 F 
ATOM     72  F   UNL A   1      46.938  27.085  37.560  1.00  0.00    -0.200 F 
ENDBRANCH  39  62
ENDBRANCH  13  14
ENDBRANCH   6   8
ENDBRANCH   5   6
ENDBRANCH   4   5
ENDBRANCH   3   4
ENDBRANCH   2   3
ENDBRANCH   1   2
BRANCH   1  73
ATOM     73  C   UNL A   1      33.229  29.052  25.604  1.00  0.00     0.188 C 
BRANCH  73  74
ATOM     74  O   UNL A   1      33.296  28.093  26.664  1.00  0.00    -0.376 OA
BRANCH  74  75
ATOM     75  C   UNL A   1      32.484  26.927  26.520  1.00  0.00     0.202 C 
BRANCH  75  76
ATOM     76  C   UNL A   1      33.179  25.740  25.852  1.00  0.00     0.261 C 
BRANCH  76  77
ATOM     77  O   UNL A   1      32.671  25.474  24.532  1.00  0.00    -0.459 OA
BRANCH  77  78
ATOM     78  C   UNL A   1      31.326  25.322  24.476  1.00  0.00     0.350 C 
ATOM     79  O   UNL A   1      30.685  24.400  24.960  1.00  0.00    -0.245 OA
BRANCH  78  80
ATOM     80  C   UNL A   1      30.683  26.358  23.655  1.00  0.00     0.132 A 
ATOM     81  C   UNL A   1      29.424  26.766  23.892  1.00  0.00     0.120 A 
ATOM     82  S   UNL A   1      31.533  27.325  22.456  1.00  0.00    -0.089 S 
ATOM     83  N   UNL A   1      29.121  27.874  23.145  1.00  0.00    -0.297 N 
ATOM     84  C   UNL A   1      30.121  28.333  22.340  1.00  0.00     0.194 A 
ATOM     85  C   UNL A   1      28.062  28.715  23.005  1.00  0.00     0.114 A 
ATOM     86  N   UNL A   1      29.811  29.430  21.707  1.00  0.00    -0.227 NA
ATOM     87  C   UNL A   1      28.516  29.683  22.125  1.00  0.00     0.133 A 
ENDBRANCH  78  80
ENDBRANCH  77  78
ENDBRANCH  76  77
ENDBRANCH  75  76
ENDBRANCH  74  75
ENDBRANCH  73  74
ENDBRANCH   1  73
TORSDOF 17
ENDMDL
