MODEL 1
REMARK VINA RESULT:     -11.5      0.000      0.000
REMARK SMILES Cc1cc(OC(F)(F)F)cc2c1O[C@H](C(F)(F)F)C(C(=O)OCCOCCOCCOC(=O)c1ccc(-c3c4nc(c(-c5c(F)c(F)c(F)c(F)c5F)c5ccc([nH]5)c(-c5c(F)c(F)c(F)c(F)c5F)c5nc(c(-c6c(F)c(F)c(F)c(F)c6F)c6ccc3[nH]6)C=C5)C=C4)cc1)=C2
REMARK SMILES IDX 26 1 25 2 24 3 23 4 22 5 20 6 21 7 19 8 1 9 2 10 3 11 12 12
REMARK SMILES IDX 4 13 11 14 13 15 10 16 97 17 14 18 5 19 6 20 7 21 8 22 9 23
REMARK SMILES IDX 15 24 16 25 17 26 18 27 27 28 28 29 29 30 30 31 31 32 32 33
REMARK SMILES IDX 33 34 34 35 35 36 96 37 36 38 95 39 37 40 38 41 39 42 89 43
REMARK SMILES IDX 40 44 94 45 88 46 90 47 41 48 93 49 87 50 86 51 42 53 74 54
REMARK SMILES IDX 54 55 73 56 55 57 58 58 72 59 91 60 56 61 57 62 71 64 92 65
REMARK SMILES IDX 59 66 43 67 44 68 52 69 45 70 46 71 50 72 53 73 47 74 48 75
REMARK SMILES IDX 51 76 49 77 75 78 76 79 84 80 77 81 78 82 82 83 85 84 79 85
REMARK SMILES IDX 80 86 83 87 81 88 60 89 61 90 69 91 62 92 63 93 67 94 70 95
REMARK SMILES IDX 64 96 65 97 68 98 66 99
REMARK H PARENT 90 52 58 63
REMARK Flexibility Score: inf
ROOT
ATOM      1  C   UNL A   1      34.702  20.730  25.481  1.00  0.00     0.188 C 
ENDROOT
BRANCH   1   2
ATOM      2  O   UNL A   1      33.681  20.328  24.601  1.00  0.00    -0.376 OA
BRANCH   2   3
ATOM      3  C   UNL A   1      32.532  21.129  24.389  1.00  0.00     0.202 C 
BRANCH   3   4
ATOM      4  C   UNL A   1      31.512  21.541  25.466  1.00  0.00     0.261 C 
BRANCH   4   5
ATOM      5  O   UNL A   1      30.801  22.765  25.265  1.00  0.00    -0.460 OA
BRANCH   5   6
ATOM      6  C   UNL A   1      30.852  23.644  26.296  1.00  0.00     0.338 C 
ATOM      7  O   UNL A   1      30.811  23.377  27.485  1.00  0.00    -0.246 OA
BRANCH   6   8
ATOM      8  C   UNL A   1      31.127  24.998  25.774  1.00  0.00     0.087 C 
ATOM      9  C   UNL A   1      33.375  29.303  24.162  1.00  0.00     0.048 C 
ATOM     10  C   UNL A   1      32.042  28.637  23.956  1.00  0.00    -0.005 A 
ATOM     11  C   UNL A   1      31.120  29.208  23.060  1.00  0.00     0.054 A 
ATOM     12  C   UNL A   1      31.696  27.467  24.649  1.00  0.00     0.131 A 
ATOM     13  C   UNL A   1      29.876  28.614  22.842  1.00  0.00     0.130 A 
ATOM     14  C   UNL A   1      30.470  26.845  24.404  1.00  0.00     0.021 A 
ATOM     15  O   UNL A   1      32.604  26.994  25.552  1.00  0.00    -0.475 OA
ATOM     16  C   UNL A   1      29.555  27.437  23.524  1.00  0.00     0.058 A 
ATOM     17  C   UNL A   1      30.183  25.553  25.003  1.00  0.00     0.027 C 
ATOM     18  C   UNL A   1      32.423  25.675  26.129  1.00  0.00     0.316 C 
BRANCH  13  19
ATOM     19  O   UNL A   1      28.901  29.064  21.998  1.00  0.00    -0.406 OA
BRANCH  19  20
ATOM     20  C   UNL A   1      28.024  30.071  22.480  1.00  0.00     0.573 C 
ATOM     21  F   UNL A   1      28.520  30.653  23.592  1.00  0.00    -0.132 F 
ATOM     22  F   UNL A   1      27.799  31.011  21.538  1.00  0.00    -0.132 F 
ATOM     23  F   UNL A   1      26.841  29.500  22.796  1.00  0.00    -0.132 F 
ENDBRANCH  19  20
ENDBRANCH  13  19
BRANCH  18  24
ATOM     24  C   UNL A   1      33.645  24.822  25.768  1.00  0.00     0.430 C 
ATOM     25  F   UNL A   1      33.842  23.834  26.674  1.00  0.00    -0.167 F 
ATOM     26  F   UNL A   1      33.498  24.220  24.564  1.00  0.00    -0.167 F 
ATOM     27  F   UNL A   1      34.777  25.559  25.715  1.00  0.00    -0.167 F 
ENDBRANCH  18  24
ENDBRANCH   6   8
ENDBRANCH   5   6
ENDBRANCH   4   5
ENDBRANCH   3   4
ENDBRANCH   2   3
ENDBRANCH   1   2
BRANCH   1  28
ATOM     28  C   UNL A   1      36.152  20.769  24.953  1.00  0.00     0.188 C 
BRANCH  28  29
ATOM     29  O   UNL A   1      36.958  19.610  25.001  1.00  0.00    -0.376 OA
BRANCH  29  30
ATOM     30  C   UNL A   1      38.352  19.733  24.754  1.00  0.00     0.202 C 
BRANCH  30  31
ATOM     31  C   UNL A   1      39.309  20.408  25.754  1.00  0.00     0.261 C 
BRANCH  31  32
ATOM     32  O   UNL A   1      40.163  19.533  26.507  1.00  0.00    -0.460 OA
BRANCH  32  33
ATOM     33  C   UNL A   1      41.485  19.578  26.193  1.00  0.00     0.338 C 
ATOM     34  O   UNL A   1      42.152  18.721  25.652  1.00  0.00    -0.246 OA
BRANCH  33  35
ATOM     35  C   UNL A   1      41.980  20.945  26.459  1.00  0.00     0.060 A 
ATOM     36  C   UNL A   1      42.194  21.351  27.784  1.00  0.00     0.016 A 
ATOM     37  C   UNL A   1      42.226  21.818  25.400  1.00  0.00     0.016 A 
ATOM     38  C   UNL A   1      42.697  22.624  28.051  1.00  0.00     0.010 A 
ATOM     39  C   UNL A   1      42.689  23.108  25.672  1.00  0.00     0.010 A 
ATOM     40  C   UNL A   1      42.921  23.517  26.997  1.00  0.00    -0.014 A 
BRANCH  40  41
ATOM     41  C   UNL A   1      43.240  24.932  27.299  1.00  0.00     0.031 A 
ATOM     42  C   UNL A   1      44.611  25.441  26.967  1.00  0.00     0.074 A 
ATOM     43  C   UNL A   1      42.319  25.754  27.834  1.00  0.00     0.049 A 
ATOM     44  N   UNL A   1      45.111  26.640  27.119  1.00  0.00    -0.248 NA
ATOM     45  C   UNL A   1      45.545  24.468  26.379  1.00  0.00     0.031 C 
ATOM     46  C   UNL A   1      40.947  25.382  28.166  1.00  0.00     0.029 A 
ATOM     47  N   UNL A   1      42.408  27.078  28.191  1.00  0.00    -0.354 N 
ATOM     48  C   UNL A   1      46.407  26.569  26.632  1.00  0.00     0.074 A 
ATOM     49  C   UNL A   1      46.636  25.202  26.220  1.00  0.00     0.031 C 
ATOM     50  C   UNL A   1      40.320  26.453  28.684  1.00  0.00     0.029 A 
ATOM     51  C   UNL A   1      41.253  27.579  28.740  1.00  0.00     0.049 A 
ATOM     52  H   UNL A   1      43.222  27.616  28.066  1.00  0.00     0.167 HD
ATOM     53  C   UNL A   1      47.318  27.562  26.521  1.00  0.00     0.037 A 
ATOM     54  C   UNL A   1      40.987  28.805  29.236  1.00  0.00     0.037 A 
ATOM     55  C   UNL A   1      47.094  28.916  26.950  1.00  0.00     0.049 A 
ATOM     56  C   UNL A   1      42.055  29.871  29.195  1.00  0.00     0.074 A 
ATOM     57  C   UNL A   1      47.956  29.995  26.874  1.00  0.00     0.029 A 
ATOM     58  N   UNL A   1      45.929  29.372  27.548  1.00  0.00    -0.354 N 
ATOM     59  N   UNL A   1      43.264  29.809  28.690  1.00  0.00    -0.248 NA
ATOM     60  C   UNL A   1      41.724  31.176  29.787  1.00  0.00     0.031 C 
ATOM     61  C   UNL A   1      47.338  31.088  27.482  1.00  0.00     0.029 A 
ATOM     62  C   UNL A   1      46.063  30.711  27.874  1.00  0.00     0.049 A 
ATOM     63  H   UNL A   1      45.127  28.827  27.715  1.00  0.00     0.167 HD
ATOM     64  C   UNL A   1      43.819  31.071  28.867  1.00  0.00     0.074 A 
ATOM     65  C   UNL A   1      42.818  31.880  29.527  1.00  0.00     0.031 C 
ATOM     66  C   UNL A   1      45.048  31.515  28.509  1.00  0.00     0.037 A 
BRANCH  53  67
ATOM     67  C   UNL A   1      48.647  27.227  25.914  1.00  0.00     0.064 A 
ATOM     68  C   UNL A   1      48.856  27.300  24.528  1.00  0.00     0.173 A 
ATOM     69  C   UNL A   1      49.743  26.903  26.728  1.00  0.00     0.173 A 
ATOM     70  F   UNL A   1      47.838  27.593  23.706  1.00  0.00    -0.203 F 
ATOM     71  C   UNL A   1      50.111  27.047  23.980  1.00  0.00     0.198 A 
ATOM     72  C   UNL A   1      51.002  26.682  26.179  1.00  0.00     0.198 A 
ATOM     73  F   UNL A   1      49.596  26.824  28.060  1.00  0.00    -0.203 F 
ATOM     74  F   UNL A   1      50.279  27.089  22.651  1.00  0.00    -0.200 F 
ATOM     75  C   UNL A   1      51.184  26.751  24.806  1.00  0.00     0.200 A 
ATOM     76  F   UNL A   1      52.042  26.411  26.980  1.00  0.00    -0.200 F 
ATOM     77  F   UNL A   1      52.396  26.530  24.279  1.00  0.00    -0.200 F 
ENDBRANCH  53  67
BRANCH  54  78
ATOM     78  C   UNL A   1      39.639  29.100  29.794  1.00  0.00     0.064 A 
ATOM     79  C   UNL A   1      39.365  28.908  31.155  1.00  0.00     0.173 A 
ATOM     80  C   UNL A   1      38.602  29.586  28.983  1.00  0.00     0.173 A 
ATOM     81  F   UNL A   1      40.315  28.420  31.966  1.00  0.00    -0.203 F 
ATOM     82  C   UNL A   1      38.105  29.182  31.682  1.00  0.00     0.198 A 
ATOM     83  C   UNL A   1      37.350  29.887  29.517  1.00  0.00     0.198 A 
ATOM     84  F   UNL A   1      38.809  29.784  27.673  1.00  0.00    -0.203 F 
ATOM     85  F   UNL A   1      37.859  28.952  32.979  1.00  0.00    -0.200 F 
ATOM     86  C   UNL A   1      37.100  29.679  30.865  1.00  0.00     0.200 A 
ATOM     87  F   UNL A   1      36.386  30.377  28.726  1.00  0.00    -0.200 F 
ATOM     88  F   UNL A   1      35.892  29.953  31.376  1.00  0.00    -0.200 F 
ENDBRANCH  54  78
BRANCH  66  89
ATOM     89  C   UNL A   1      45.397  32.952  28.775  1.00  0.00     0.064 A 
ATOM     90  C   UNL A   1      45.087  33.965  27.858  1.00  0.00     0.173 A 
ATOM     91  C   UNL A   1      45.911  33.332  30.026  1.00  0.00     0.173 A 
ATOM     92  F   UNL A   1      44.602  33.653  26.646  1.00  0.00    -0.203 F 
ATOM     93  C   UNL A   1      45.270  35.306  28.185  1.00  0.00     0.198 A 
ATOM     94  C   UNL A   1      46.066  34.675  30.360  1.00  0.00     0.198 A 
ATOM     95  F   UNL A   1      46.213  32.401  30.944  1.00  0.00    -0.203 F 
ATOM     96  F   UNL A   1      44.977  36.259  27.289  1.00  0.00    -0.200 F 
ATOM     97  C   UNL A   1      45.743  35.660  29.440  1.00  0.00     0.200 A 
ATOM     98  F   UNL A   1      46.500  35.014  31.581  1.00  0.00    -0.200 F 
ATOM     99  F   UNL A   1      45.883  36.953  29.766  1.00  0.00    -0.200 F 
ENDBRANCH  66  89
ENDBRANCH  40  41
ENDBRANCH  33  35
ENDBRANCH  32  33
ENDBRANCH  31  32
ENDBRANCH  30  31
ENDBRANCH  29  30
ENDBRANCH  28  29
ENDBRANCH   1  28
TORSDOF 20
ENDMDL
MODEL 2
REMARK VINA RESULT:     -11.2      4.465      8.729
REMARK SMILES Cc1cc(OC(F)(F)F)cc2c1O[C@H](C(F)(F)F)C(C(=O)OCCOCCOCCOC(=O)c1ccc(-c3c4nc(c(-c5c(F)c(F)c(F)c(F)c5F)c5ccc([nH]5)c(-c5c(F)c(F)c(F)c(F)c5F)c5nc(c(-c6c(F)c(F)c(F)c(F)c6F)c6ccc3[nH]6)C=C5)C=C4)cc1)=C2
REMARK SMILES IDX 26 1 25 2 24 3 23 4 22 5 20 6 21 7 19 8 1 9 2 10 3 11 12 12
REMARK SMILES IDX 4 13 11 14 13 15 10 16 97 17 14 18 5 19 6 20 7 21 8 22 9 23
REMARK SMILES IDX 15 24 16 25 17 26 18 27 27 28 28 29 29 30 30 31 31 32 32 33
REMARK SMILES IDX 33 34 34 35 35 36 96 37 36 38 95 39 37 40 38 41 39 42 89 43
REMARK SMILES IDX 40 44 94 45 88 46 90 47 41 48 93 49 87 50 86 51 42 53 74 54
REMARK SMILES IDX 54 55 73 56 55 57 58 58 72 59 91 60 56 61 57 62 71 64 92 65
REMARK SMILES IDX 59 66 43 67 44 68 52 69 45 70 46 71 50 72 53 73 47 74 48 75
REMARK SMILES IDX 51 76 49 77 75 78 76 79 84 80 77 81 78 82 82 83 85 84 79 85
REMARK SMILES IDX 80 86 83 87 81 88 60 89 61 90 69 91 62 92 63 93 67 94 70 95
REMARK SMILES IDX 64 96 65 97 68 98 66 99
REMARK H PARENT 90 52 58 63
REMARK Flexibility Score: inf
ROOT
ATOM      1  C   UNL A   1      29.493  28.594  22.755  1.00  0.00     0.188 C 
ENDROOT
BRANCH   1   2
ATOM      2  O   UNL A   1      28.594  27.775  23.461  1.00  0.00    -0.376 OA
BRANCH   2   3
ATOM      3  C   UNL A   1      28.921  26.438  23.795  1.00  0.00     0.202 C 
BRANCH   3   4
ATOM      4  C   UNL A   1      30.307  25.786  23.638  1.00  0.00     0.261 C 
BRANCH   4   5
ATOM      5  O   UNL A   1      30.397  24.374  23.841  1.00  0.00    -0.460 OA
BRANCH   5   6
ATOM      6  C   UNL A   1      30.868  23.989  25.053  1.00  0.00     0.338 C 
ATOM      7  O   UNL A   1      30.356  24.209  26.138  1.00  0.00    -0.246 OA
BRANCH   6   8
ATOM      8  C   UNL A   1      32.037  23.107  24.868  1.00  0.00     0.087 C 
ATOM      9  C   UNL A   1      36.764  21.157  24.653  1.00  0.00     0.048 C 
ATOM     10  C   UNL A   1      35.369  20.602  24.755  1.00  0.00    -0.005 A 
ATOM     11  C   UNL A   1      35.191  19.215  24.907  1.00  0.00     0.054 A 
ATOM     12  C   UNL A   1      34.245  21.438  24.688  1.00  0.00     0.131 A 
ATOM     13  C   UNL A   1      33.911  18.667  25.009  1.00  0.00     0.130 A 
ATOM     14  C   UNL A   1      32.964  20.901  24.831  1.00  0.00     0.021 A 
ATOM     15  O   UNL A   1      34.476  22.767  24.476  1.00  0.00    -0.475 OA
ATOM     16  C   UNL A   1      32.803  19.517  24.962  1.00  0.00     0.058 A 
ATOM     17  C   UNL A   1      31.815  21.787  24.920  1.00  0.00     0.027 C 
ATOM     18  C   UNL A   1      33.391  23.719  24.628  1.00  0.00     0.316 C 
BRANCH  13  19
ATOM     19  O   UNL A   1      33.607  17.346  25.165  1.00  0.00    -0.406 OA
BRANCH  19  20
ATOM     20  C   UNL A   1      33.924  16.465  24.097  1.00  0.00     0.573 C 
ATOM     21  F   UNL A   1      33.855  17.101  22.909  1.00  0.00    -0.132 F 
ATOM     22  F   UNL A   1      35.154  15.932  24.255  1.00  0.00    -0.132 F 
ATOM     23  F   UNL A   1      33.026  15.455  24.087  1.00  0.00    -0.132 F 
ENDBRANCH  19  20
ENDBRANCH  13  19
BRANCH  18  24
ATOM     24  C   UNL A   1      33.781  24.719  25.724  1.00  0.00     0.430 C 
ATOM     25  F   UNL A   1      33.367  24.299  26.944  1.00  0.00    -0.167 F 
ATOM     26  F   UNL A   1      35.123  24.878  25.802  1.00  0.00    -0.167 F 
ATOM     27  F   UNL A   1      33.242  25.940  25.508  1.00  0.00    -0.167 F 
ENDBRANCH  18  24
ENDBRANCH   6   8
ENDBRANCH   5   6
ENDBRANCH   4   5
ENDBRANCH   3   4
ENDBRANCH   2   3
ENDBRANCH   1   2
BRANCH   1  28
ATOM     28  C   UNL A   1      29.634  30.071  23.184  1.00  0.00     0.188 C 
BRANCH  28  29
ATOM     29  O   UNL A   1      30.305  30.403  24.380  1.00  0.00    -0.376 OA
BRANCH  29  30
ATOM     30  C   UNL A   1      31.287  29.508  24.886  1.00  0.00     0.202 C 
BRANCH  30  31
ATOM     31  C   UNL A   1      32.649  29.995  25.416  1.00  0.00     0.261 C 
BRANCH  31  32
ATOM     32  O   UNL A   1      32.737  30.223  26.831  1.00  0.00    -0.460 OA
BRANCH  32  33
ATOM     33  C   UNL A   1      33.354  31.375  27.209  1.00  0.00     0.338 C 
ATOM     34  O   UNL A   1      32.921  32.507  27.151  1.00  0.00    -0.246 OA
BRANCH  33  35
ATOM     35  C   UNL A   1      34.618  31.023  27.890  1.00  0.00     0.060 A 
ATOM     36  C   UNL A   1      34.808  29.712  28.348  1.00  0.00     0.016 A 
ATOM     37  C   UNL A   1      35.605  31.990  28.075  1.00  0.00     0.016 A 
ATOM     38  C   UNL A   1      36.009  29.353  28.959  1.00  0.00     0.010 A 
ATOM     39  C   UNL A   1      36.791  31.641  28.727  1.00  0.00     0.010 A 
ATOM     40  C   UNL A   1      36.995  30.324  29.175  1.00  0.00    -0.014 A 
BRANCH  40  41
ATOM     41  C   UNL A   1      38.168  29.993  30.017  1.00  0.00     0.031 A 
ATOM     42  C   UNL A   1      39.190  29.039  29.473  1.00  0.00     0.074 A 
ATOM     43  C   UNL A   1      38.333  30.550  31.229  1.00  0.00     0.049 A 
ATOM     44  N   UNL A   1      40.304  28.618  30.016  1.00  0.00    -0.248 NA
ATOM     45  C   UNL A   1      38.924  28.487  28.135  1.00  0.00     0.031 C 
ATOM     46  C   UNL A   1      37.426  31.514  31.846  1.00  0.00     0.029 A 
ATOM     47  N   UNL A   1      39.330  30.380  32.160  1.00  0.00    -0.354 N 
ATOM     48  C   UNL A   1      40.877  27.769  29.081  1.00  0.00     0.074 A 
ATOM     49  C   UNL A   1      39.971  27.696  27.956  1.00  0.00     0.031 C 
ATOM     50  C   UNL A   1      37.906  31.849  33.057  1.00  0.00     0.029 A 
ATOM     51  C   UNL A   1      39.141  31.106  33.310  1.00  0.00     0.049 A 
ATOM     52  H   UNL A   1      40.106  29.792  32.015  1.00  0.00     0.167 HD
ATOM     53  C   UNL A   1      42.063  27.124  29.149  1.00  0.00     0.037 A 
ATOM     54  C   UNL A   1      39.880  31.157  34.438  1.00  0.00     0.037 A 
ATOM     55  C   UNL A   1      42.952  27.183  30.277  1.00  0.00     0.049 A 
ATOM     56  C   UNL A   1      41.150  30.346  34.530  1.00  0.00     0.074 A 
ATOM     57  C   UNL A   1      44.179  26.566  30.437  1.00  0.00     0.029 A 
ATOM     58  N   UNL A   1      42.701  27.889  31.445  1.00  0.00    -0.354 N 
ATOM     59  N   UNL A   1      41.710  29.582  33.624  1.00  0.00    -0.248 NA
ATOM     60  C   UNL A   1      41.893  30.407  35.798  1.00  0.00     0.031 C 
ATOM     61  C   UNL A   1      44.643  26.848  31.723  1.00  0.00     0.029 A 
ATOM     62  C   UNL A   1      43.738  27.696  32.341  1.00  0.00     0.049 A 
ATOM     63  H   UNL A   1      41.905  28.444  31.610  1.00  0.00     0.167 HD
ATOM     64  C   UNL A   1      42.884  29.105  34.195  1.00  0.00     0.074 A 
ATOM     65  C   UNL A   1      42.959  29.664  35.527  1.00  0.00     0.031 C 
ATOM     66  C   UNL A   1      43.815  28.281  33.657  1.00  0.00     0.037 A 
BRANCH  53  67
ATOM     67  C   UNL A   1      42.475  26.291  27.972  1.00  0.00     0.064 A 
ATOM     68  C   UNL A   1      41.963  24.999  27.776  1.00  0.00     0.173 A 
ATOM     69  C   UNL A   1      43.331  26.815  26.991  1.00  0.00     0.173 A 
ATOM     70  F   UNL A   1      41.151  24.449  28.692  1.00  0.00    -0.203 F 
ATOM     71  C   UNL A   1      42.303  24.259  26.648  1.00  0.00     0.198 A 
ATOM     72  C   UNL A   1      43.643  26.084  25.850  1.00  0.00     0.198 A 
ATOM     73  F   UNL A   1      43.844  28.047  27.130  1.00  0.00    -0.203 F 
ATOM     74  F   UNL A   1      41.828  23.014  26.498  1.00  0.00    -0.200 F 
ATOM     75  C   UNL A   1      43.132  24.805  25.681  1.00  0.00     0.200 A 
ATOM     76  F   UNL A   1      44.432  26.620  24.908  1.00  0.00    -0.200 F 
ATOM     77  F   UNL A   1      43.441  24.100  24.584  1.00  0.00    -0.200 F 
ENDBRANCH  53  67
BRANCH  54  78
ATOM     78  C   UNL A   1      39.450  32.028  35.564  1.00  0.00     0.064 A 
ATOM     79  C   UNL A   1      39.929  33.341  35.684  1.00  0.00     0.173 A 
ATOM     80  C   UNL A   1      38.549  31.574  36.539  1.00  0.00     0.173 A 
ATOM     81  F   UNL A   1      40.813  33.813  34.792  1.00  0.00    -0.203 F 
ATOM     82  C   UNL A   1      39.530  34.161  36.736  1.00  0.00     0.198 A 
ATOM     83  C   UNL A   1      38.128  32.404  37.576  1.00  0.00     0.198 A 
ATOM     84  F   UNL A   1      38.063  30.325  36.476  1.00  0.00    -0.203 F 
ATOM     85  F   UNL A   1      40.033  35.398  36.847  1.00  0.00    -0.200 F 
ATOM     86  C   UNL A   1      38.623  33.696  37.678  1.00  0.00     0.200 A 
ATOM     87  F   UNL A   1      37.244  31.955  38.476  1.00  0.00    -0.200 F 
ATOM     88  F   UNL A   1      38.231  34.490  38.684  1.00  0.00    -0.200 F 
ENDBRANCH  54  78
BRANCH  66  89
ATOM     89  C   UNL A   1      45.032  27.945  34.472  1.00  0.00     0.064 A 
ATOM     90  C   UNL A   1      46.162  28.772  34.478  1.00  0.00     0.173 A 
ATOM     91  C   UNL A   1      45.003  26.864  35.368  1.00  0.00     0.173 A 
ATOM     92  F   UNL A   1      46.243  29.813  33.635  1.00  0.00    -0.203 F 
ATOM     93  C   UNL A   1      47.217  28.535  35.357  1.00  0.00     0.198 A 
ATOM     94  C   UNL A   1      46.045  26.647  36.265  1.00  0.00     0.198 A 
ATOM     95  F   UNL A   1      43.938  26.049  35.410  1.00  0.00    -0.203 F 
ATOM     96  F   UNL A   1      48.294  29.333  35.339  1.00  0.00    -0.200 F 
ATOM     97  C   UNL A   1      47.150  27.484  36.260  1.00  0.00     0.200 A 
ATOM     98  F   UNL A   1      45.967  25.646  37.152  1.00  0.00    -0.200 F 
ATOM     99  F   UNL A   1      48.149  27.282  37.130  1.00  0.00    -0.200 F 
ENDBRANCH  66  89
ENDBRANCH  40  41
ENDBRANCH  33  35
ENDBRANCH  32  33
ENDBRANCH  31  32
ENDBRANCH  30  31
ENDBRANCH  29  30
ENDBRANCH  28  29
ENDBRANCH   1  28
TORSDOF 20
ENDMDL
MODEL 3
REMARK VINA RESULT:     -11.0      4.258     10.373
REMARK SMILES Cc1cc(OC(F)(F)F)cc2c1O[C@H](C(F)(F)F)C(C(=O)OCCOCCOCCOC(=O)c1ccc(-c3c4nc(c(-c5c(F)c(F)c(F)c(F)c5F)c5ccc([nH]5)c(-c5c(F)c(F)c(F)c(F)c5F)c5nc(c(-c6c(F)c(F)c(F)c(F)c6F)c6ccc3[nH]6)C=C5)C=C4)cc1)=C2
REMARK SMILES IDX 26 1 25 2 24 3 23 4 22 5 20 6 21 7 19 8 1 9 2 10 3 11 12 12
REMARK SMILES IDX 4 13 11 14 13 15 10 16 97 17 14 18 5 19 6 20 7 21 8 22 9 23
REMARK SMILES IDX 15 24 16 25 17 26 18 27 27 28 28 29 29 30 30 31 31 32 32 33
REMARK SMILES IDX 33 34 34 35 35 36 96 37 36 38 95 39 37 40 38 41 39 42 89 43
REMARK SMILES IDX 40 44 94 45 88 46 90 47 41 48 93 49 87 50 86 51 42 53 74 54
REMARK SMILES IDX 54 55 73 56 55 57 58 58 72 59 91 60 56 61 57 62 71 64 92 65
REMARK SMILES IDX 59 66 43 67 44 68 52 69 45 70 46 71 50 72 53 73 47 74 48 75
REMARK SMILES IDX 51 76 49 77 75 78 76 79 84 80 77 81 78 82 82 83 85 84 79 85
REMARK SMILES IDX 80 86 83 87 81 88 60 89 61 90 69 91 62 92 63 93 67 94 70 95
REMARK SMILES IDX 64 96 65 97 68 98 66 99
REMARK H PARENT 90 52 58 63
REMARK Flexibility Score: inf
ROOT
ATOM      1  C   UNL A   1      30.222  28.039  22.999  1.00  0.00     0.188 C 
ENDROOT
BRANCH   1   2
ATOM      2  O   UNL A   1      29.409  27.135  23.705  1.00  0.00    -0.376 OA
BRANCH   2   3
ATOM      3  C   UNL A   1      29.664  25.742  23.685  1.00  0.00     0.202 C 
BRANCH   3   4
ATOM      4  C   UNL A   1      30.780  25.021  24.463  1.00  0.00     0.261 C 
BRANCH   4   5
ATOM      5  O   UNL A   1      30.621  23.620  24.695  1.00  0.00    -0.460 OA
BRANCH   5   6
ATOM      6  C   UNL A   1      31.230  23.141  25.808  1.00  0.00     0.338 C 
ATOM      7  O   UNL A   1      30.903  23.348  26.964  1.00  0.00    -0.246 OA
BRANCH   6   8
ATOM      8  C   UNL A   1      32.282  22.180  25.418  1.00  0.00     0.087 C 
ATOM      9  C   UNL A   1      36.714  19.704  24.781  1.00  0.00     0.048 C 
ATOM     10  C   UNL A   1      35.255  19.344  24.709  1.00  0.00    -0.005 A 
ATOM     11  C   UNL A   1      34.887  18.005  24.488  1.00  0.00     0.054 A 
ATOM     12  C   UNL A   1      34.256  20.320  24.844  1.00  0.00     0.131 A 
ATOM     13  C   UNL A   1      33.543  17.636  24.419  1.00  0.00     0.130 A 
ATOM     14  C   UNL A   1      32.909  19.951  24.819  1.00  0.00     0.021 A 
ATOM     15  O   UNL A   1      34.672  21.612  24.993  1.00  0.00    -0.475 OA
ATOM     16  C   UNL A   1      32.560  18.617  24.578  1.00  0.00     0.058 A 
ATOM     17  C   UNL A   1      31.884  20.937  25.117  1.00  0.00     0.027 C 
ATOM     18  C   UNL A   1      33.715  22.636  25.371  1.00  0.00     0.316 C 
BRANCH  13  19
ATOM     19  O   UNL A   1      33.059  16.376  24.216  1.00  0.00    -0.406 OA
BRANCH  19  20
ATOM     20  C   UNL A   1      33.151  15.452  25.290  1.00  0.00     0.573 C 
ATOM     21  F   UNL A   1      34.428  15.058  25.481  1.00  0.00    -0.132 F 
ATOM     22  F   UNL A   1      32.666  15.983  26.432  1.00  0.00    -0.132 F 
ATOM     23  F   UNL A   1      32.415  14.360  24.987  1.00  0.00    -0.132 F 
ENDBRANCH  19  20
ENDBRANCH  13  19
BRANCH  18  24
ATOM     24  C   UNL A   1      34.174  23.253  26.698  1.00  0.00     0.430 C 
ATOM     25  F   UNL A   1      33.715  22.544  27.757  1.00  0.00    -0.167 F 
ATOM     26  F   UNL A   1      35.524  23.274  26.801  1.00  0.00    -0.167 F 
ATOM     27  F   UNL A   1      33.738  24.526  26.840  1.00  0.00    -0.167 F 
ENDBRANCH  18  24
ENDBRANCH   6   8
ENDBRANCH   5   6
ENDBRANCH   4   5
ENDBRANCH   3   4
ENDBRANCH   2   3
ENDBRANCH   1   2
BRANCH   1  28
ATOM     28  C   UNL A   1      29.861  29.539  23.041  1.00  0.00     0.188 C 
BRANCH  28  29
ATOM     29  O   UNL A   1      30.380  30.368  24.059  1.00  0.00    -0.376 OA
BRANCH  29  30
ATOM     30  C   UNL A   1      31.054  29.766  25.156  1.00  0.00     0.202 C 
BRANCH  30  31
ATOM     31  C   UNL A   1      32.524  30.081  25.493  1.00  0.00     0.261 C 
BRANCH  31  32
ATOM     32  O   UNL A   1      32.847  30.190  26.888  1.00  0.00    -0.460 OA
BRANCH  32  33
ATOM     33  C   UNL A   1      33.443  31.351  27.270  1.00  0.00     0.338 C 
ATOM     34  O   UNL A   1      32.952  32.459  27.320  1.00  0.00    -0.246 OA
BRANCH  33  35
ATOM     35  C   UNL A   1      34.784  31.033  27.802  1.00  0.00     0.060 A 
ATOM     36  C   UNL A   1      35.113  29.698  28.078  1.00  0.00     0.016 A 
ATOM     37  C   UNL A   1      35.706  32.053  28.029  1.00  0.00     0.016 A 
ATOM     38  C   UNL A   1      36.387  29.376  28.545  1.00  0.00     0.010 A 
ATOM     39  C   UNL A   1      36.968  31.733  28.539  1.00  0.00     0.010 A 
ATOM     40  C   UNL A   1      37.311  30.396  28.803  1.00  0.00    -0.014 A 
BRANCH  40  41
ATOM     41  C   UNL A   1      38.574  30.071  29.505  1.00  0.00     0.031 A 
ATOM     42  C   UNL A   1      38.788  30.628  30.881  1.00  0.00     0.074 A 
ATOM     43  C   UNL A   1      39.500  29.276  28.940  1.00  0.00     0.049 A 
ATOM     44  N   UNL A   1      39.800  30.465  31.694  1.00  0.00    -0.248 NA
ATOM     45  C   UNL A   1      37.716  31.481  31.416  1.00  0.00     0.031 C 
ATOM     46  C   UNL A   1      39.386  28.651  27.625  1.00  0.00     0.029 A 
ATOM     47  N   UNL A   1      40.723  28.860  29.409  1.00  0.00    -0.354 N 
ATOM     48  C   UNL A   1      39.479  31.178  32.839  1.00  0.00     0.074 A 
ATOM     49  C   UNL A   1      38.202  31.814  32.603  1.00  0.00     0.031 C 
ATOM     50  C   UNL A   1      40.498  27.932  27.389  1.00  0.00     0.029 A 
ATOM     51  C   UNL A   1      41.410  28.065  28.526  1.00  0.00     0.049 A 
ATOM     52  H   UNL A   1      41.073  29.110  30.294  1.00  0.00     0.167 HD
ATOM     53  C   UNL A   1      40.180  31.278  33.991  1.00  0.00     0.037 A 
ATOM     54  C   UNL A   1      42.638  27.515  28.625  1.00  0.00     0.037 A 
ATOM     55  C   UNL A   1      41.459  30.661  34.215  1.00  0.00     0.049 A 
ATOM     56  C   UNL A   1      43.446  27.725  29.882  1.00  0.00     0.074 A 
ATOM     57  C   UNL A   1      42.244  30.701  35.352  1.00  0.00     0.029 A 
ATOM     58  N   UNL A   1      42.146  29.905  33.277  1.00  0.00    -0.354 N 
ATOM     59  N   UNL A   1      43.116  28.363  30.979  1.00  0.00    -0.248 NA
ATOM     60  C   UNL A   1      44.794  27.137  29.919  1.00  0.00     0.031 C 
ATOM     61  C   UNL A   1      43.434  30.022  35.082  1.00  0.00     0.029 A 
ATOM     62  C   UNL A   1      43.361  29.499  33.801  1.00  0.00     0.049 A 
ATOM     63  H   UNL A   1      41.818  29.688  32.374  1.00  0.00     0.167 HD
ATOM     64  C   UNL A   1      44.193  28.220  31.846  1.00  0.00     0.074 A 
ATOM     65  C   UNL A   1      45.190  27.436  31.150  1.00  0.00     0.031 C 
ATOM     66  C   UNL A   1      44.336  28.695  33.107  1.00  0.00     0.037 A 
BRANCH  53  67
ATOM     67  C   UNL A   1      39.584  32.086  35.104  1.00  0.00     0.064 A 
ATOM     68  C   UNL A   1      39.718  33.483  35.146  1.00  0.00     0.173 A 
ATOM     69  C   UNL A   1      38.810  31.470  36.099  1.00  0.00     0.173 A 
ATOM     70  F   UNL A   1      40.458  34.118  34.225  1.00  0.00    -0.203 F 
ATOM     71  C   UNL A   1      39.108  34.230  36.149  1.00  0.00     0.198 A 
ATOM     72  C   UNL A   1      38.177  32.223  37.083  1.00  0.00     0.198 A 
ATOM     73  F   UNL A   1      38.649  30.138  36.102  1.00  0.00    -0.203 F 
ATOM     74  F   UNL A   1      39.277  35.559  36.188  1.00  0.00    -0.200 F 
ATOM     75  C   UNL A   1      38.329  33.602  37.109  1.00  0.00     0.200 A 
ATOM     76  F   UNL A   1      37.411  31.616  38.000  1.00  0.00    -0.200 F 
ATOM     77  F   UNL A   1      37.725  34.324  38.062  1.00  0.00    -0.200 F 
ENDBRANCH  53  67
BRANCH  54  78
ATOM     78  C   UNL A   1      43.170  26.688  27.508  1.00  0.00     0.064 A 
ATOM     79  C   UNL A   1      44.031  27.241  26.549  1.00  0.00     0.173 A 
ATOM     80  C   UNL A   1      42.838  25.331  27.378  1.00  0.00     0.173 A 
ATOM     81  F   UNL A   1      44.357  28.540  26.613  1.00  0.00    -0.203 F 
ATOM     82  C   UNL A   1      44.531  26.472  25.501  1.00  0.00     0.198 A 
ATOM     83  C   UNL A   1      43.362  24.555  26.346  1.00  0.00     0.198 A 
ATOM     84  F   UNL A   1      42.015  24.753  28.265  1.00  0.00    -0.203 F 
ATOM     85  F   UNL A   1      45.321  27.036  24.576  1.00  0.00    -0.200 F 
ATOM     86  C   UNL A   1      44.204  25.127  25.404  1.00  0.00     0.200 A 
ATOM     87  F   UNL A   1      43.052  23.255  26.263  1.00  0.00    -0.200 F 
ATOM     88  F   UNL A   1      44.695  24.386  24.401  1.00  0.00    -0.200 F 
ENDBRANCH  54  78
BRANCH  66  89
ATOM     89  C   UNL A   1      45.593  28.363  33.860  1.00  0.00     0.064 A 
ATOM     90  C   UNL A   1      45.707  27.190  34.617  1.00  0.00     0.173 A 
ATOM     91  C   UNL A   1      46.742  29.155  33.697  1.00  0.00     0.173 A 
ATOM     92  F   UNL A   1      44.638  26.404  34.810  1.00  0.00    -0.203 F 
ATOM     93  C   UNL A   1      46.927  26.816  35.178  1.00  0.00     0.198 A 
ATOM     94  C   UNL A   1      47.965  28.764  34.234  1.00  0.00     0.198 A 
ATOM     95  F   UNL A   1      46.688  30.283  32.972  1.00  0.00    -0.203 F 
ATOM     96  F   UNL A   1      47.011  25.695  35.907  1.00  0.00    -0.200 F 
ATOM     97  C   UNL A   1      48.057  27.594  34.972  1.00  0.00     0.200 A 
ATOM     98  F   UNL A   1      49.060  29.505  34.014  1.00  0.00    -0.200 F 
ATOM     99  F   UNL A   1      49.237  27.212  35.480  1.00  0.00    -0.200 F 
ENDBRANCH  66  89
ENDBRANCH  40  41
ENDBRANCH  33  35
ENDBRANCH  32  33
ENDBRANCH  31  32
ENDBRANCH  30  31
ENDBRANCH  29  30
ENDBRANCH  28  29
ENDBRANCH   1  28
TORSDOF 20
ENDMDL
