MODEL 1
REMARK VINA RESULT:     -10.8      0.000      0.000
REMARK SMILES Cc1cc([C@H](C)NC(=O)N2CC[C@H](C(=O)OCCOCCOCCOC(=O)c3ccc(-c4c5nc(c(-c6c(F)c(F)c(F)c(F)c6F)c6ccc([nH]6)c(-c6c(F)c(F)c(F)c(F)c6F)c6nc(c(-c7c(F)c(F)c(F)c(F)c7F)c7ccc4[nH]7)C=C6)C=C5)cc3)[C@@H]2C)c(C)s1
REMARK SMILES IDX 20 1 19 2 18 3 17 4 16 5 14 6 15 7 13 8 10 9 11 10 91 11
REMARK SMILES IDX 12 12 92 13 8 14 7 15 9 17 5 18 6 19 4 20 1 21 2 22 3 23
REMARK SMILES IDX 95 24 93 25 94 26 21 27 22 28 23 29 24 30 25 31 26 32 27 33
REMARK SMILES IDX 28 34 29 35 90 36 30 37 89 38 31 39 32 40 33 41 83 42 34 43
REMARK SMILES IDX 88 44 82 45 84 46 35 47 87 48 81 49 80 50 36 52 68 53 48 54
REMARK SMILES IDX 67 55 49 56 52 57 66 58 85 59 50 60 51 61 65 63 86 64 53 65
REMARK SMILES IDX 37 66 38 67 46 68 39 69 40 70 44 71 47 72 41 73 42 74 45 75
REMARK SMILES IDX 43 76 69 77 70 78 78 79 71 80 72 81 76 82 79 83 73 84 74 85
REMARK SMILES IDX 77 86 75 87 54 88 55 89 63 90 56 91 57 92 61 93 64 94 58 95
REMARK SMILES IDX 59 96 62 97 60 98
REMARK H PARENT 7 16 84 51 52 62
REMARK Flexibility Score: inf
ROOT
ATOM      1  C   UNL A   1      41.021  21.445  27.068  1.00  0.00     0.188 C 
ENDROOT
BRANCH   1   2
ATOM      2  O   UNL A   1      40.232  22.006  26.028  1.00  0.00    -0.376 OA
BRANCH   2   3
ATOM      3  C   UNL A   1      38.943  21.415  25.797  1.00  0.00     0.202 C 
BRANCH   3   4
ATOM      4  C   UNL A   1      37.760  22.347  25.468  1.00  0.00     0.261 C 
BRANCH   4   5
ATOM      5  O   UNL A   1      36.826  21.739  24.549  1.00  0.00    -0.463 OA
BRANCH   5   6
ATOM      6  C   UNL A   1      36.122  22.572  23.732  1.00  0.00     0.311 C 
ATOM      7  O   UNL A   1      36.629  23.266  22.860  1.00  0.00    -0.252 OA
BRANCH   6   8
ATOM      8  C   UNL A   1      34.625  22.451  24.030  1.00  0.00     0.123 C 
ATOM      9  N   UNL A   1      33.305  22.816  25.992  1.00  0.00    -0.321 N 
ATOM     10  C   UNL A   1      33.980  21.547  26.163  1.00  0.00     0.122 C 
ATOM     11  C   UNL A   1      33.980  23.562  24.921  1.00  0.00     0.098 C 
ATOM     12  C   UNL A   1      34.315  21.134  24.743  1.00  0.00     0.039 C 
ATOM     13  C   UNL A   1      34.993  24.552  25.505  1.00  0.00     0.032 C 
BRANCH   9  14
ATOM     14  C   UNL A   1      32.510  23.296  26.997  1.00  0.00     0.318 C 
ATOM     15  N   UNL A   1      31.885  24.498  26.875  1.00  0.00    -0.331 N 
ATOM     16  H   UNL A   1      32.027  25.144  27.604  1.00  0.00     0.165 HD
ATOM     17  O   UNL A   1      32.344  22.666  28.041  1.00  0.00    -0.249 OA
BRANCH  15  18
ATOM     18  C   UNL A   1      31.025  24.928  25.778  1.00  0.00     0.112 C 
ATOM     19  C   UNL A   1      29.562  24.941  26.238  1.00  0.00     0.036 C 
BRANCH  18  20
ATOM     20  C   UNL A   1      31.432  26.315  25.269  1.00  0.00    -0.012 A 
ATOM     21  C   UNL A   1      31.812  30.109  25.640  1.00  0.00     0.056 C 
ATOM     22  C   UNL A   1      31.764  28.663  25.268  1.00  0.00     0.002 A 
ATOM     23  C   UNL A   1      31.473  27.547  26.035  1.00  0.00     0.021 A 
ATOM     24  S   UNL A   1      32.105  28.232  23.657  1.00  0.00    -0.146 S 
ATOM     25  C   UNL A   1      31.719  26.597  23.940  1.00  0.00     0.007 A 
ATOM     26  C   UNL A   1      31.742  25.660  22.788  1.00  0.00     0.057 C 
ENDBRANCH  18  20
ENDBRANCH  15  18
ENDBRANCH   9  14
ENDBRANCH   6   8
ENDBRANCH   5   6
ENDBRANCH   4   5
ENDBRANCH   3   4
ENDBRANCH   2   3
ENDBRANCH   1   2
BRANCH   1  27
ATOM     27  C   UNL A   1      42.027  20.395  26.616  1.00  0.00     0.188 C 
BRANCH  27  28
ATOM     28  O   UNL A   1      42.778  20.687  25.454  1.00  0.00    -0.376 OA
BRANCH  28  29
ATOM     29  C   UNL A   1      43.262  22.023  25.382  1.00  0.00     0.202 C 
BRANCH  29  30
ATOM     30  C   UNL A   1      44.768  22.206  25.639  1.00  0.00     0.261 C 
BRANCH  30  31
ATOM     31  O   UNL A   1      45.138  23.314  26.495  1.00  0.00    -0.460 OA
BRANCH  31  32
ATOM     32  C   UNL A   1      44.882  24.538  25.949  1.00  0.00     0.338 C 
ATOM     33  O   UNL A   1      45.286  24.942  24.868  1.00  0.00    -0.246 OA
BRANCH  32  34
ATOM     34  C   UNL A   1      44.081  25.424  26.831  1.00  0.00     0.060 A 
ATOM     35  C   UNL A   1      44.418  26.753  27.028  1.00  0.00     0.016 A 
ATOM     36  C   UNL A   1      43.065  24.867  27.622  1.00  0.00     0.016 A 
ATOM     37  C   UNL A   1      43.778  27.488  28.039  1.00  0.00     0.010 A 
ATOM     38  C   UNL A   1      42.405  25.630  28.609  1.00  0.00     0.010 A 
ATOM     39  C   UNL A   1      42.779  26.955  28.860  1.00  0.00    -0.014 A 
BRANCH  39  40
ATOM     40  C   UNL A   1      42.262  27.752  30.027  1.00  0.00     0.031 A 
ATOM     41  C   UNL A   1      40.988  28.552  29.891  1.00  0.00     0.074 A 
ATOM     42  C   UNL A   1      42.808  27.672  31.260  1.00  0.00     0.049 A 
ATOM     43  N   UNL A   1      40.406  29.367  30.740  1.00  0.00    -0.248 NA
ATOM     44  C   UNL A   1      40.243  28.371  28.641  1.00  0.00     0.031 C 
ATOM     45  C   UNL A   1      43.919  26.807  31.640  1.00  0.00     0.029 A 
ATOM     46  N   UNL A   1      42.475  28.315  32.436  1.00  0.00    -0.354 N 
ATOM     47  C   UNL A   1      39.244  29.809  30.116  1.00  0.00     0.074 A 
ATOM     48  C   UNL A   1      39.190  29.153  28.828  1.00  0.00     0.031 C 
ATOM     49  C   UNL A   1      44.154  26.943  32.956  1.00  0.00     0.029 A 
ATOM     50  C   UNL A   1      43.290  27.990  33.496  1.00  0.00     0.049 A 
ATOM     51  H   UNL A   1      41.724  28.948  32.508  1.00  0.00     0.167 HD
ATOM     52  C   UNL A   1      38.321  30.697  30.557  1.00  0.00     0.037 A 
ATOM     53  C   UNL A   1      43.382  28.512  34.738  1.00  0.00     0.037 A 
ATOM     54  C   UNL A   1      38.381  31.387  31.820  1.00  0.00     0.049 A 
ATOM     55  C   UNL A   1      42.477  29.653  35.134  1.00  0.00     0.074 A 
ATOM     56  C   UNL A   1      37.560  32.397  32.294  1.00  0.00     0.029 A 
ATOM     57  N   UNL A   1      39.324  31.146  32.805  1.00  0.00    -0.354 N 
ATOM     58  N   UNL A   1      41.456  30.167  34.492  1.00  0.00    -0.248 NA
ATOM     59  C   UNL A   1      42.762  30.317  36.418  1.00  0.00     0.031 C 
ATOM     60  C   UNL A   1      38.051  32.816  33.535  1.00  0.00     0.029 A 
ATOM     61  C   UNL A   1      39.132  32.016  33.867  1.00  0.00     0.049 A 
ATOM     62  H   UNL A   1      40.026  30.457  32.760  1.00  0.00     0.167 HD
ATOM     63  C   UNL A   1      40.971  31.192  35.296  1.00  0.00     0.074 A 
ATOM     64  C   UNL A   1      41.792  31.219  36.485  1.00  0.00     0.031 C 
ATOM     65  C   UNL A   1      39.941  32.041  35.058  1.00  0.00     0.037 A 
BRANCH  52  66
ATOM     66  C   UNL A   1      37.219  31.070  29.606  1.00  0.00     0.064 A 
ATOM     67  C   UNL A   1      37.189  32.298  28.931  1.00  0.00     0.173 A 
ATOM     68  C   UNL A   1      36.178  30.161  29.361  1.00  0.00     0.173 A 
ATOM     69  F   UNL A   1      38.148  33.211  29.146  1.00  0.00    -0.203 F 
ATOM     70  C   UNL A   1      36.143  32.610  28.064  1.00  0.00     0.198 A 
ATOM     71  C   UNL A   1      35.149  30.465  28.476  1.00  0.00     0.198 A 
ATOM     72  F   UNL A   1      36.162  28.970  29.981  1.00  0.00    -0.203 F 
ATOM     73  F   UNL A   1      36.107  33.808  27.464  1.00  0.00    -0.200 F 
ATOM     74  C   UNL A   1      35.128  31.693  27.833  1.00  0.00     0.200 A 
ATOM     75  F   UNL A   1      34.176  29.572  28.249  1.00  0.00    -0.200 F 
ATOM     76  F   UNL A   1      34.123  31.996  27.001  1.00  0.00    -0.200 F 
ENDBRANCH  52  66
BRANCH  53  77
ATOM     77  C   UNL A   1      44.447  28.049  35.677  1.00  0.00     0.064 A 
ATOM     78  C   UNL A   1      44.212  27.035  36.616  1.00  0.00     0.173 A 
ATOM     79  C   UNL A   1      45.709  28.667  35.699  1.00  0.00     0.173 A 
ATOM     80  F   UNL A   1      43.008  26.445  36.680  1.00  0.00    -0.203 F 
ATOM     81  C   UNL A   1      45.187  26.670  37.546  1.00  0.00     0.198 A 
ATOM     82  C   UNL A   1      46.696  28.273  36.600  1.00  0.00     0.198 A 
ATOM     83  F   UNL A   1      45.984  29.668  34.850  1.00  0.00    -0.203 F 
ATOM     84  F   UNL A   1      44.909  25.750  38.480  1.00  0.00    -0.200 F 
ATOM     85  C   UNL A   1      46.430  27.282  37.531  1.00  0.00     0.200 A 
ATOM     86  F   UNL A   1      47.896  28.868  36.577  1.00  0.00    -0.200 F 
ATOM     87  F   UNL A   1      47.364  26.936  38.426  1.00  0.00    -0.200 F 
ENDBRANCH  53  77
BRANCH  65  88
ATOM     88  C   UNL A   1      39.608  33.056  36.116  1.00  0.00     0.064 A 
ATOM     89  C   UNL A   1      38.705  32.775  37.153  1.00  0.00     0.173 A 
ATOM     90  C   UNL A   1      40.242  34.308  36.124  1.00  0.00     0.173 A 
ATOM     91  F   UNL A   1      38.062  31.598  37.188  1.00  0.00    -0.203 F 
ATOM     92  C   UNL A   1      38.432  33.717  38.142  1.00  0.00     0.198 A 
ATOM     93  C   UNL A   1      39.991  35.236  37.132  1.00  0.00     0.198 A 
ATOM     94  F   UNL A   1      41.120  34.628  35.162  1.00  0.00    -0.203 F 
ATOM     95  F   UNL A   1      37.533  33.442  39.098  1.00  0.00    -0.200 F 
ATOM     96  C   UNL A   1      39.082  34.942  38.136  1.00  0.00     0.200 A 
ATOM     97  F   UNL A   1      40.632  36.413  37.133  1.00  0.00    -0.200 F 
ATOM     98  F   UNL A   1      38.827  35.842  39.096  1.00  0.00    -0.200 F 
ENDBRANCH  65  88
ENDBRANCH  39  40
ENDBRANCH  32  34
ENDBRANCH  31  32
ENDBRANCH  30  31
ENDBRANCH  29  30
ENDBRANCH  28  29
ENDBRANCH  27  28
ENDBRANCH   1  27
TORSDOF 20
ENDMDL
MODEL 2
REMARK VINA RESULT:     -10.7      5.055      7.640
REMARK SMILES Cc1cc([C@H](C)NC(=O)N2CC[C@H](C(=O)OCCOCCOCCOC(=O)c3ccc(-c4c5nc(c(-c6c(F)c(F)c(F)c(F)c6F)c6ccc([nH]6)c(-c6c(F)c(F)c(F)c(F)c6F)c6nc(c(-c7c(F)c(F)c(F)c(F)c7F)c7ccc4[nH]7)C=C6)C=C5)cc3)[C@@H]2C)c(C)s1
REMARK SMILES IDX 20 1 19 2 18 3 17 4 16 5 14 6 15 7 13 8 10 9 11 10 91 11
REMARK SMILES IDX 12 12 92 13 8 14 7 15 9 17 5 18 6 19 4 20 1 21 2 22 3 23
REMARK SMILES IDX 95 24 93 25 94 26 21 27 22 28 23 29 24 30 25 31 26 32 27 33
REMARK SMILES IDX 28 34 29 35 90 36 30 37 89 38 31 39 32 40 33 41 83 42 34 43
REMARK SMILES IDX 88 44 82 45 84 46 35 47 87 48 81 49 80 50 36 52 68 53 48 54
REMARK SMILES IDX 67 55 49 56 52 57 66 58 85 59 50 60 51 61 65 63 86 64 53 65
REMARK SMILES IDX 37 66 38 67 46 68 39 69 40 70 44 71 47 72 41 73 42 74 45 75
REMARK SMILES IDX 43 76 69 77 70 78 78 79 71 80 72 81 76 82 79 83 73 84 74 85
REMARK SMILES IDX 77 86 75 87 54 88 55 89 63 90 56 91 57 92 61 93 64 94 58 95
REMARK SMILES IDX 59 96 62 97 60 98
REMARK H PARENT 7 16 84 51 52 62
REMARK Flexibility Score: inf
ROOT
ATOM      1  C   UNL A   1      39.701  20.842  25.633  1.00  0.00     0.188 C 
ENDROOT
BRANCH   1   2
ATOM      2  O   UNL A   1      38.933  21.796  26.351  1.00  0.00    -0.376 OA
BRANCH   2   3
ATOM      3  C   UNL A   1      37.914  22.497  25.618  1.00  0.00     0.202 C 
BRANCH   3   4
ATOM      4  C   UNL A   1      36.990  21.683  24.690  1.00  0.00     0.261 C 
BRANCH   4   5
ATOM      5  O   UNL A   1      36.185  20.732  25.421  1.00  0.00    -0.463 OA
BRANCH   5   6
ATOM      6  C   UNL A   1      34.912  20.524  24.982  1.00  0.00     0.311 C 
ATOM      7  O   UNL A   1      34.427  19.418  24.785  1.00  0.00    -0.252 OA
BRANCH   6   8
ATOM      8  C   UNL A   1      34.184  21.864  24.844  1.00  0.00     0.123 C 
ATOM      9  N   UNL A   1      32.327  22.852  25.984  1.00  0.00    -0.321 N 
ATOM     10  C   UNL A   1      31.791  21.864  25.072  1.00  0.00     0.122 C 
ATOM     11  C   UNL A   1      33.761  22.589  26.163  1.00  0.00     0.098 C 
ATOM     12  C   UNL A   1      32.892  21.704  24.042  1.00  0.00     0.039 C 
ATOM     13  C   UNL A   1      34.009  21.763  27.429  1.00  0.00     0.032 C 
BRANCH   9  14
ATOM     14  C   UNL A   1      31.477  23.543  26.804  1.00  0.00     0.318 C 
ATOM     15  N   UNL A   1      31.405  24.900  26.748  1.00  0.00    -0.331 N 
ATOM     16  H   UNL A   1      31.524  25.383  27.597  1.00  0.00     0.165 HD
ATOM     17  O   UNL A   1      30.762  22.964  27.623  1.00  0.00    -0.249 OA
BRANCH  15  18
ATOM     18  C   UNL A   1      31.170  25.713  25.560  1.00  0.00     0.112 C 
ATOM     19  C   UNL A   1      29.663  25.912  25.356  1.00  0.00     0.036 C 
BRANCH  18  20
ATOM     20  C   UNL A   1      31.873  27.070  25.672  1.00  0.00    -0.012 A 
ATOM     21  C   UNL A   1      32.108  30.702  26.869  1.00  0.00     0.056 C 
ATOM     22  C   UNL A   1      32.239  29.328  26.297  1.00  0.00     0.002 A 
ATOM     23  C   UNL A   1      31.474  28.192  26.503  1.00  0.00     0.021 A 
ATOM     24  S   UNL A   1      33.507  29.028  25.202  1.00  0.00    -0.146 S 
ATOM     25  C   UNL A   1      32.953  27.448  24.886  1.00  0.00     0.007 A 
ATOM     26  C   UNL A   1      33.661  26.649  23.853  1.00  0.00     0.057 C 
ENDBRANCH  18  20
ENDBRANCH  15  18
ENDBRANCH   9  14
ENDBRANCH   6   8
ENDBRANCH   5   6
ENDBRANCH   4   5
ENDBRANCH   3   4
ENDBRANCH   2   3
ENDBRANCH   1   2
BRANCH   1  27
ATOM     27  C   UNL A   1      40.800  20.163  26.440  1.00  0.00     0.188 C 
BRANCH  27  28
ATOM     28  O   UNL A   1      41.432  19.045  25.846  1.00  0.00    -0.376 OA
BRANCH  28  29
ATOM     29  C   UNL A   1      42.663  18.668  26.451  1.00  0.00     0.202 C 
BRANCH  29  30
ATOM     30  C   UNL A   1      43.708  18.041  25.512  1.00  0.00     0.261 C 
BRANCH  30  31
ATOM     31  O   UNL A   1      44.869  18.855  25.216  1.00  0.00    -0.460 OA
BRANCH  31  32
ATOM     32  C   UNL A   1      44.639  19.822  24.282  1.00  0.00     0.338 C 
ATOM     33  O   UNL A   1      44.534  19.646  23.077  1.00  0.00    -0.246 OA
BRANCH  32  34
ATOM     34  C   UNL A   1      44.577  21.192  24.850  1.00  0.00     0.060 A 
ATOM     35  C   UNL A   1      44.326  22.299  24.056  1.00  0.00     0.016 A 
ATOM     36  C   UNL A   1      44.956  21.399  26.185  1.00  0.00     0.016 A 
ATOM     37  C   UNL A   1      44.503  23.587  24.585  1.00  0.00     0.010 A 
ATOM     38  C   UNL A   1      45.094  22.700  26.713  1.00  0.00     0.010 A 
ATOM     39  C   UNL A   1      44.903  23.826  25.904  1.00  0.00    -0.014 A 
BRANCH  39  40
ATOM     40  C   UNL A   1      45.233  25.226  26.345  1.00  0.00     0.031 A 
ATOM     41  C   UNL A   1      44.164  26.097  26.961  1.00  0.00     0.074 A 
ATOM     42  C   UNL A   1      46.496  25.706  26.356  1.00  0.00     0.049 A 
ATOM     43  N   UNL A   1      44.209  27.353  27.341  1.00  0.00    -0.248 NA
ATOM     44  C   UNL A   1      42.878  25.445  27.230  1.00  0.00     0.031 C 
ATOM     45  C   UNL A   1      47.691  24.955  25.987  1.00  0.00     0.029 A 
ATOM     46  N   UNL A   1      46.986  26.943  26.724  1.00  0.00    -0.354 N 
ATOM     47  C   UNL A   1      42.955  27.642  27.868  1.00  0.00     0.074 A 
ATOM     48  C   UNL A   1      42.178  26.425  27.784  1.00  0.00     0.031 C 
ATOM     49  C   UNL A   1      48.773  25.727  26.178  1.00  0.00     0.029 A 
ATOM     50  C   UNL A   1      48.348  27.067  26.572  1.00  0.00     0.049 A 
ATOM     51  H   UNL A   1      46.414  27.669  27.062  1.00  0.00     0.167 HD
ATOM     52  C   UNL A   1      42.480  28.816  28.351  1.00  0.00     0.037 A 
ATOM     53  C   UNL A   1      49.158  28.143  26.672  1.00  0.00     0.037 A 
ATOM     54  C   UNL A   1      43.229  30.045  28.406  1.00  0.00     0.049 A 
ATOM     55  C   UNL A   1      48.568  29.491  27.007  1.00  0.00     0.074 A 
ATOM     56  C   UNL A   1      42.789  31.311  28.761  1.00  0.00     0.029 A 
ATOM     57  N   UNL A   1      44.570  30.166  28.086  1.00  0.00    -0.354 N 
ATOM     58  N   UNL A   1      47.348  29.795  27.380  1.00  0.00    -0.248 NA
ATOM     59  C   UNL A   1      49.460  30.658  26.898  1.00  0.00     0.031 C 
ATOM     60  C   UNL A   1      43.848  32.208  28.585  1.00  0.00     0.029 A 
ATOM     61  C   UNL A   1      44.966  31.491  28.193  1.00  0.00     0.049 A 
ATOM     62  H   UNL A   1      45.158  29.421  27.822  1.00  0.00     0.167 HD
ATOM     63  C   UNL A   1      47.334  31.173  27.565  1.00  0.00     0.074 A 
ATOM     64  C   UNL A   1      48.670  31.649  27.287  1.00  0.00     0.031 C 
ATOM     65  C   UNL A   1      46.298  31.969  27.925  1.00  0.00     0.037 A 
BRANCH  52  66
ATOM     66  C   UNL A   1      41.033  28.858  28.751  1.00  0.00     0.064 A 
ATOM     67  C   UNL A   1      40.002  29.089  27.830  1.00  0.00     0.173 A 
ATOM     68  C   UNL A   1      40.678  28.646  30.094  1.00  0.00     0.173 A 
ATOM     69  F   UNL A   1      40.288  29.319  26.540  1.00  0.00    -0.203 F 
ATOM     70  C   UNL A   1      38.671  29.129  28.244  1.00  0.00     0.198 A 
ATOM     71  C   UNL A   1      39.348  28.662  30.498  1.00  0.00     0.198 A 
ATOM     72  F   UNL A   1      41.629  28.418  31.014  1.00  0.00    -0.203 F 
ATOM     73  F   UNL A   1      37.704  29.399  27.357  1.00  0.00    -0.200 F 
ATOM     74  C   UNL A   1      38.346  28.912  29.574  1.00  0.00     0.200 A 
ATOM     75  F   UNL A   1      39.037  28.442  31.783  1.00  0.00    -0.200 F 
ATOM     76  F   UNL A   1      37.066  28.954  29.970  1.00  0.00    -0.200 F 
ENDBRANCH  52  66
BRANCH  53  77
ATOM     77  C   UNL A   1      50.610  28.031  26.340  1.00  0.00     0.064 A 
ATOM     78  C   UNL A   1      51.069  28.076  25.016  1.00  0.00     0.173 A 
ATOM     79  C   UNL A   1      51.565  27.803  27.345  1.00  0.00     0.173 A 
ATOM     80  F   UNL A   1      50.198  28.236  24.008  1.00  0.00    -0.203 F 
ATOM     81  C   UNL A   1      52.418  27.883  24.711  1.00  0.00     0.198 A 
ATOM     82  C   UNL A   1      52.917  27.653  27.043  1.00  0.00     0.198 A 
ATOM     83  F   UNL A   1      51.185  27.714  28.628  1.00  0.00    -0.203 F 
ATOM     84  F   UNL A   1      52.817  27.857  23.432  1.00  0.00    -0.200 F 
ATOM     85  C   UNL A   1      53.341  27.682  25.725  1.00  0.00     0.200 A 
ATOM     86  F   UNL A   1      53.803  27.461  28.029  1.00  0.00    -0.200 F 
ATOM     87  F   UNL A   1      54.634  27.492  25.432  1.00  0.00    -0.200 F 
ENDBRANCH  53  77
BRANCH  65  88
ATOM     88  C   UNL A   1      46.561  33.441  28.077  1.00  0.00     0.064 A 
ATOM     89  C   UNL A   1      47.010  33.991  29.288  1.00  0.00     0.173 A 
ATOM     90  C   UNL A   1      46.417  34.307  26.982  1.00  0.00     0.173 A 
ATOM     91  F   UNL A   1      47.154  33.212  30.371  1.00  0.00    -0.203 F 
ATOM     92  C   UNL A   1      47.279  35.353  29.402  1.00  0.00     0.198 A 
ATOM     93  C   UNL A   1      46.718  35.662  27.090  1.00  0.00     0.198 A 
ATOM     94  F   UNL A   1      46.000  33.835  25.797  1.00  0.00    -0.203 F 
ATOM     95  F   UNL A   1      47.664  35.863  30.581  1.00  0.00    -0.200 F 
ATOM     96  C   UNL A   1      47.142  36.185  28.302  1.00  0.00     0.200 A 
ATOM     97  F   UNL A   1      46.600  36.461  26.021  1.00  0.00    -0.200 F 
ATOM     98  F   UNL A   1      47.415  37.493  28.410  1.00  0.00    -0.200 F 
ENDBRANCH  65  88
ENDBRANCH  39  40
ENDBRANCH  32  34
ENDBRANCH  31  32
ENDBRANCH  30  31
ENDBRANCH  29  30
ENDBRANCH  28  29
ENDBRANCH  27  28
ENDBRANCH   1  27
TORSDOF 20
ENDMDL
MODEL 3
REMARK VINA RESULT:     -10.5      5.154      9.351
REMARK SMILES Cc1cc([C@H](C)NC(=O)N2CC[C@H](C(=O)OCCOCCOCCOC(=O)c3ccc(-c4c5nc(c(-c6c(F)c(F)c(F)c(F)c6F)c6ccc([nH]6)c(-c6c(F)c(F)c(F)c(F)c6F)c6nc(c(-c7c(F)c(F)c(F)c(F)c7F)c7ccc4[nH]7)C=C6)C=C5)cc3)[C@@H]2C)c(C)s1
REMARK SMILES IDX 20 1 19 2 18 3 17 4 16 5 14 6 15 7 13 8 10 9 11 10 91 11
REMARK SMILES IDX 12 12 92 13 8 14 7 15 9 17 5 18 6 19 4 20 1 21 2 22 3 23
REMARK SMILES IDX 95 24 93 25 94 26 21 27 22 28 23 29 24 30 25 31 26 32 27 33
REMARK SMILES IDX 28 34 29 35 90 36 30 37 89 38 31 39 32 40 33 41 83 42 34 43
REMARK SMILES IDX 88 44 82 45 84 46 35 47 87 48 81 49 80 50 36 52 68 53 48 54
REMARK SMILES IDX 67 55 49 56 52 57 66 58 85 59 50 60 51 61 65 63 86 64 53 65
REMARK SMILES IDX 37 66 38 67 46 68 39 69 40 70 44 71 47 72 41 73 42 74 45 75
REMARK SMILES IDX 43 76 69 77 70 78 78 79 71 80 72 81 76 82 79 83 73 84 74 85
REMARK SMILES IDX 77 86 75 87 54 88 55 89 63 90 56 91 57 92 61 93 64 94 58 95
REMARK SMILES IDX 59 96 62 97 60 98
REMARK H PARENT 7 16 84 51 52 62
REMARK Flexibility Score: inf
ROOT
ATOM      1  C   UNL A   1      40.016  21.496  26.627  1.00  0.00     0.188 C 
ENDROOT
BRANCH   1   2
ATOM      2  O   UNL A   1      39.069  21.047  25.668  1.00  0.00    -0.376 OA
BRANCH   2   3
ATOM      3  C   UNL A   1      38.131  22.017  25.175  1.00  0.00     0.202 C 
BRANCH   3   4
ATOM      4  C   UNL A   1      36.945  22.413  26.078  1.00  0.00     0.261 C 
BRANCH   4   5
ATOM      5  O   UNL A   1      35.676  22.277  25.401  1.00  0.00    -0.463 OA
BRANCH   5   6
ATOM      6  C   UNL A   1      35.041  21.076  25.502  1.00  0.00     0.311 C 
ATOM      7  O   UNL A   1      35.425  20.050  24.955  1.00  0.00    -0.252 OA
BRANCH   6   8
ATOM      8  C   UNL A   1      33.839  21.199  26.442  1.00  0.00     0.123 C 
ATOM      9  N   UNL A   1      31.878  22.571  26.433  1.00  0.00    -0.321 N 
ATOM     10  C   UNL A   1      32.979  23.403  26.872  1.00  0.00     0.122 C 
ATOM     11  C   UNL A   1      32.431  21.373  25.786  1.00  0.00     0.098 C 
ATOM     12  C   UNL A   1      33.997  22.400  27.376  1.00  0.00     0.039 C 
ATOM     13  C   UNL A   1      32.476  21.549  24.264  1.00  0.00     0.032 C 
BRANCH   9  14
ATOM     14  C   UNL A   1      30.634  23.120  26.291  1.00  0.00     0.318 C 
ATOM     15  N   UNL A   1      30.480  24.378  25.795  1.00  0.00    -0.331 N 
ATOM     16  H   UNL A   1      29.947  25.003  26.338  1.00  0.00     0.165 HD
ATOM     17  O   UNL A   1      29.618  22.503  26.615  1.00  0.00    -0.249 OA
BRANCH  15  18
ATOM     18  C   UNL A   1      31.022  24.895  24.544  1.00  0.00     0.112 C 
ATOM     19  C   UNL A   1      30.283  24.265  23.357  1.00  0.00     0.036 C 
BRANCH  18  20
ATOM     20  C   UNL A   1      30.912  26.422  24.485  1.00  0.00    -0.012 A 
ATOM     21  C   UNL A   1      29.640  29.695  22.950  1.00  0.00     0.056 C 
ATOM     22  C   UNL A   1      30.252  28.566  23.715  1.00  0.00     0.002 A 
ATOM     23  C   UNL A   1      30.036  27.201  23.628  1.00  0.00     0.021 A 
ATOM     24  S   UNL A   1      31.415  28.933  24.901  1.00  0.00    -0.146 S 
ATOM     25  C   UNL A   1      31.742  27.285  25.188  1.00  0.00     0.007 A 
ATOM     26  C   UNL A   1      32.828  26.940  26.141  1.00  0.00     0.057 C 
ENDBRANCH  18  20
ENDBRANCH  15  18
ENDBRANCH   9  14
ENDBRANCH   6   8
ENDBRANCH   5   6
ENDBRANCH   4   5
ENDBRANCH   3   4
ENDBRANCH   2   3
ENDBRANCH   1   2
BRANCH   1  27
ATOM     27  C   UNL A   1      41.457  21.538  26.135  1.00  0.00     0.188 C 
BRANCH  27  28
ATOM     28  O   UNL A   1      42.423  20.879  26.931  1.00  0.00    -0.376 OA
BRANCH  28  29
ATOM     29  C   UNL A   1      42.279  19.465  26.990  1.00  0.00     0.202 C 
BRANCH  29  30
ATOM     30  C   UNL A   1      42.647  18.699  25.708  1.00  0.00     0.261 C 
BRANCH  30  31
ATOM     31  O   UNL A   1      44.062  18.536  25.447  1.00  0.00    -0.460 OA
BRANCH  31  32
ATOM     32  C   UNL A   1      44.493  19.189  24.330  1.00  0.00     0.338 C 
ATOM     33  O   UNL A   1      44.569  18.716  23.204  1.00  0.00    -0.246 OA
BRANCH  32  34
ATOM     34  C   UNL A   1      44.946  20.578  24.593  1.00  0.00     0.060 A 
ATOM     35  C   UNL A   1      45.629  20.915  25.750  1.00  0.00     0.016 A 
ATOM     36  C   UNL A   1      44.524  21.610  23.741  1.00  0.00     0.016 A 
ATOM     37  C   UNL A   1      45.834  22.267  26.065  1.00  0.00     0.010 A 
ATOM     38  C   UNL A   1      44.770  22.964  24.054  1.00  0.00     0.010 A 
ATOM     39  C   UNL A   1      45.404  23.319  25.250  1.00  0.00    -0.014 A 
BRANCH  39  40
ATOM     40  C   UNL A   1      45.512  24.739  25.738  1.00  0.00     0.031 A 
ATOM     41  C   UNL A   1      46.807  25.499  25.571  1.00  0.00     0.074 A 
ATOM     42  C   UNL A   1      44.447  25.434  26.193  1.00  0.00     0.049 A 
ATOM     43  N   UNL A   1      47.143  26.699  25.984  1.00  0.00    -0.248 NA
ATOM     44  C   UNL A   1      47.852  24.830  24.789  1.00  0.00     0.031 C 
ATOM     45  C   UNL A   1      43.075  24.942  26.246  1.00  0.00     0.029 A 
ATOM     46  N   UNL A   1      44.353  26.725  26.672  1.00  0.00    -0.354 N 
ATOM     47  C   UNL A   1      48.441  26.913  25.532  1.00  0.00     0.074 A 
ATOM     48  C   UNL A   1      48.823  25.731  24.791  1.00  0.00     0.031 C 
ATOM     49  C   UNL A   1      42.273  25.922  26.694  1.00  0.00     0.029 A 
ATOM     50  C   UNL A   1      43.084  27.077  27.072  1.00  0.00     0.049 A 
ATOM     51  H   UNL A   1      45.122  27.337  26.723  1.00  0.00     0.167 HD
ATOM     52  C   UNL A   1      49.253  27.979  25.735  1.00  0.00     0.037 A 
ATOM     53  C   UNL A   1      42.629  28.168  27.724  1.00  0.00     0.037 A 
ATOM     54  C   UNL A   1      48.901  29.146  26.502  1.00  0.00     0.049 A 
ATOM     55  C   UNL A   1      43.599  29.252  28.128  1.00  0.00     0.074 A 
ATOM     56  C   UNL A   1      49.702  30.216  26.866  1.00  0.00     0.029 A 
ATOM     57  N   UNL A   1      47.645  29.391  27.033  1.00  0.00    -0.354 N 
ATOM     58  N   UNL A   1      44.864  29.395  27.815  1.00  0.00    -0.248 NA
ATOM     59  C   UNL A   1      43.086  30.311  29.014  1.00  0.00     0.031 C 
ATOM     60  C   UNL A   1      48.950  31.071  27.679  1.00  0.00     0.029 A 
ATOM     61  C   UNL A   1      47.660  30.573  27.759  1.00  0.00     0.049 A 
ATOM     62  H   UNL A   1      46.858  28.812  26.913  1.00  0.00     0.167 HD
ATOM     63  C   UNL A   1      45.287  30.560  28.444  1.00  0.00     0.074 A 
ATOM     64  C   UNL A   1      44.143  31.101  29.142  1.00  0.00     0.031 C 
ATOM     65  C   UNL A   1      46.521  31.121  28.448  1.00  0.00     0.037 A 
BRANCH  52  66
ATOM     66  C   UNL A   1      50.659  27.879  25.216  1.00  0.00     0.064 A 
ATOM     67  C   UNL A   1      50.983  28.096  23.870  1.00  0.00     0.173 A 
ATOM     68  C   UNL A   1      51.704  27.570  26.101  1.00  0.00     0.173 A 
ATOM     69  F   UNL A   1      50.019  28.372  22.979  1.00  0.00    -0.203 F 
ATOM     70  C   UNL A   1      52.300  27.984  23.425  1.00  0.00     0.198 A 
ATOM     71  C   UNL A   1      53.020  27.484  25.659  1.00  0.00     0.198 A 
ATOM     72  F   UNL A   1      51.446  27.356  27.401  1.00  0.00    -0.203 F 
ATOM     73  F   UNL A   1      52.583  28.148  22.126  1.00  0.00    -0.200 F 
ATOM     74  C   UNL A   1      53.316  27.683  24.320  1.00  0.00     0.200 A 
ATOM     75  F   UNL A   1      54.000  27.203  26.529  1.00  0.00    -0.200 F 
ATOM     76  F   UNL A   1      54.581  27.574  23.891  1.00  0.00    -0.200 F 
ENDBRANCH  52  66
BRANCH  53  77
ATOM     77  C   UNL A   1      41.199  28.255  28.149  1.00  0.00     0.064 A 
ATOM     78  C   UNL A   1      40.222  28.842  27.333  1.00  0.00     0.173 A 
ATOM     79  C   UNL A   1      40.796  27.813  29.420  1.00  0.00     0.173 A 
ATOM     80  F   UNL A   1      40.558  29.334  26.130  1.00  0.00    -0.203 F 
ATOM     81  C   UNL A   1      38.907  28.996  27.775  1.00  0.00     0.198 A 
ATOM     82  C   UNL A   1      39.474  27.929  29.844  1.00  0.00     0.198 A 
ATOM     83  F   UNL A   1      41.691  27.274  30.261  1.00  0.00    -0.203 F 
ATOM     84  F   UNL A   1      38.012  29.629  27.005  1.00  0.00    -0.200 F 
ATOM     85  C   UNL A   1      38.533  28.531  29.026  1.00  0.00     0.200 A 
ATOM     86  F   UNL A   1      39.119  27.473  31.053  1.00  0.00    -0.200 F 
ATOM     87  F   UNL A   1      37.272  28.683  29.453  1.00  0.00    -0.200 F 
ENDBRANCH  53  77
BRANCH  65  88
ATOM     88  C   UNL A   1      46.706  32.409  29.201  1.00  0.00     0.064 A 
ATOM     89  C   UNL A   1      47.138  32.431  30.536  1.00  0.00     0.173 A 
ATOM     90  C   UNL A   1      46.501  33.642  28.561  1.00  0.00     0.173 A 
ATOM     91  F   UNL A   1      47.339  31.283  31.200  1.00  0.00    -0.203 F 
ATOM     92  C   UNL A   1      47.334  33.635  31.207  1.00  0.00     0.198 A 
ATOM     93  C   UNL A   1      46.728  34.844  29.225  1.00  0.00     0.198 A 
ATOM     94  F   UNL A   1      46.095  33.681  27.283  1.00  0.00    -0.203 F 
ATOM     95  F   UNL A   1      47.705  33.630  32.496  1.00  0.00    -0.200 F 
ATOM     96  C   UNL A   1      47.138  34.840  30.549  1.00  0.00     0.200 A 
ATOM     97  F   UNL A   1      46.554  36.007  28.582  1.00  0.00    -0.200 F 
ATOM     98  F   UNL A   1      47.340  35.998  31.193  1.00  0.00    -0.200 F 
ENDBRANCH  65  88
ENDBRANCH  39  40
ENDBRANCH  32  34
ENDBRANCH  31  32
ENDBRANCH  30  31
ENDBRANCH  29  30
ENDBRANCH  28  29
ENDBRANCH  27  28
ENDBRANCH   1  27
TORSDOF 20
ENDMDL
