MODEL 1
REMARK VINA RESULT:     -10.3      0.000      0.000
REMARK SMILES C[C@@H](O)CN(C)C(=O)N[C@H]1C=C[C@@H](C(=O)OCCOCCOCCOC(=O)c2ccc(-c3c4nc(c(-c5c(F)c(F)c(F)c(F)c5F)c5ccc([nH]5)c(-c5c(F)c(F)c(F)c(F)c5F)c5nc(c(-c6c(F)c(F)c(F)c(F)c6F)c6ccc3[nH]6)C=C5)C=C4)cc2)C1
REMARK SMILES IDX 19 1 18 2 17 3 16 4 14 5 15 6 13 7 10 8 11 9 91 10 12 11
REMARK SMILES IDX 9 12 7 13 8 14 5 16 6 17 4 18 2 19 1 20 3 21 20 23 21 24
REMARK SMILES IDX 22 25 23 26 24 27 25 28 26 29 27 30 28 31 29 32 90 33 30 34
REMARK SMILES IDX 89 35 31 36 32 37 33 38 83 39 34 40 88 41 82 42 84 43 35 44
REMARK SMILES IDX 87 45 81 46 80 47 36 49 68 50 48 51 67 52 49 53 52 54 66 55
REMARK SMILES IDX 85 56 50 57 51 58 65 60 86 61 53 62 37 63 38 64 46 65 39 66
REMARK SMILES IDX 40 67 44 68 47 69 41 70 42 71 45 72 43 73 69 74 70 75 78 76
REMARK SMILES IDX 71 77 72 78 76 79 79 80 73 81 74 82 77 83 75 84 54 85 55 86
REMARK SMILES IDX 63 87 56 88 57 89 61 90 64 91 58 92 59 93 62 94 60 95
REMARK H PARENT 9 15 3 22 84 48 52 59
REMARK Flexibility Score: inf
ROOT
ATOM      1  O   UNL A   1      41.202  21.011  25.911  1.00  0.00    -0.376 OA
ENDROOT
BRANCH   1   2
ATOM      2  C   UNL A   1      39.797  20.797  25.803  1.00  0.00     0.202 C 
BRANCH   2   3
ATOM      3  C   UNL A   1      38.854  21.978  26.093  1.00  0.00     0.261 C 
BRANCH   3   4
ATOM      4  O   UNL A   1      37.471  21.711  25.794  1.00  0.00    -0.463 OA
BRANCH   4   5
ATOM      5  C   UNL A   1      36.846  22.499  24.881  1.00  0.00     0.312 C 
ATOM      6  O   UNL A   1      36.822  22.272  23.677  1.00  0.00    -0.252 OA
BRANCH   5   7
ATOM      7  C   UNL A   1      36.092  23.685  25.522  1.00  0.00     0.124 C 
ATOM      8  C   UNL A   1      33.818  24.568  25.122  1.00  0.00     0.107 C 
ATOM      9  C   UNL A   1      33.837  23.625  26.261  1.00  0.00    -0.006 C 
ATOM     10  C   UNL A   1      35.245  24.580  24.597  1.00  0.00     0.048 C 
ATOM     11  C   UNL A   1      35.077  23.191  26.519  1.00  0.00    -0.014 C 
BRANCH   8  12
ATOM     12  N   UNL A   1      32.818  24.346  24.099  1.00  0.00    -0.332 N 
ATOM     13  C   UNL A   1      31.651  24.893  23.722  1.00  0.00     0.317 C 
ATOM     14  O   UNL A   1      30.828  24.077  23.291  1.00  0.00    -0.249 OA
ATOM     15  H   UNL A   1      33.060  23.586  23.522  1.00  0.00     0.165 HD
BRANCH  13  16
ATOM     16  N   UNL A   1      31.394  26.231  23.724  1.00  0.00    -0.325 N 
ATOM     17  C   UNL A   1      31.039  27.044  24.864  1.00  0.00     0.148 C 
BRANCH  16  18
ATOM     18  C   UNL A   1      31.810  26.994  22.543  1.00  0.00     0.152 C 
BRANCH  18  19
ATOM     19  C   UNL A   1      32.473  28.333  22.930  1.00  0.00     0.130 C 
ATOM     20  C   UNL A   1      33.987  28.319  22.754  1.00  0.00     0.040 C 
BRANCH  19  21
ATOM     21  O   UNL A   1      31.922  29.380  22.129  1.00  0.00    -0.392 OA
ATOM     22  H   UNL A   1      30.954  29.351  22.179  1.00  0.00     0.211 HD
ENDBRANCH  19  21
ENDBRANCH  18  19
ENDBRANCH  16  18
ENDBRANCH  13  16
ENDBRANCH   8  12
ENDBRANCH   5   7
ENDBRANCH   4   5
ENDBRANCH   3   4
ENDBRANCH   2   3
ENDBRANCH   1   2
BRANCH   1  23
ATOM     23  C   UNL A   1      42.010  20.025  26.545  1.00  0.00     0.188 C 
BRANCH  23  24
ATOM     24  C   UNL A   1      43.148  19.362  25.755  1.00  0.00     0.188 C 
BRANCH  24  25
ATOM     25  O   UNL A   1      43.751  20.186  24.793  1.00  0.00    -0.376 OA
BRANCH  25  26
ATOM     26  C   UNL A   1      44.959  20.837  25.134  1.00  0.00     0.202 C 
BRANCH  26  27
ATOM     27  C   UNL A   1      44.926  22.025  26.114  1.00  0.00     0.261 C 
BRANCH  27  28
ATOM     28  O   UNL A   1      44.782  23.344  25.551  1.00  0.00    -0.460 OA
BRANCH  28  29
ATOM     29  C   UNL A   1      43.572  23.693  25.059  1.00  0.00     0.338 C 
ATOM     30  O   UNL A   1      42.959  23.146  24.153  1.00  0.00    -0.246 OA
BRANCH  29  31
ATOM     31  C   UNL A   1      42.985  24.703  25.975  1.00  0.00     0.060 A 
ATOM     32  C   UNL A   1      43.436  26.032  25.916  1.00  0.00     0.016 A 
ATOM     33  C   UNL A   1      41.975  24.347  26.870  1.00  0.00     0.016 A 
ATOM     34  C   UNL A   1      42.890  27.003  26.761  1.00  0.00     0.010 A 
ATOM     35  C   UNL A   1      41.452  25.313  27.736  1.00  0.00     0.010 A 
ATOM     36  C   UNL A   1      41.923  26.639  27.706  1.00  0.00    -0.014 A 
BRANCH  36  37
ATOM     37  C   UNL A   1      41.544  27.574  28.797  1.00  0.00     0.031 A 
ATOM     38  C   UNL A   1      42.326  27.515  30.081  1.00  0.00     0.074 A 
ATOM     39  C   UNL A   1      40.524  28.441  28.673  1.00  0.00     0.049 A 
ATOM     40  N   UNL A   1      42.111  28.122  31.221  1.00  0.00    -0.248 NA
ATOM     41  C   UNL A   1      43.512  26.643  30.078  1.00  0.00     0.031 C 
ATOM     42  C   UNL A   1      39.720  28.636  27.470  1.00  0.00     0.029 A 
ATOM     43  N   UNL A   1      39.978  29.308  29.590  1.00  0.00    -0.354 N 
ATOM     44  C   UNL A   1      43.123  27.695  32.070  1.00  0.00     0.074 A 
ATOM     45  C   UNL A   1      43.935  26.756  31.327  1.00  0.00     0.031 C 
ATOM     46  C   UNL A   1      38.763  29.545  27.731  1.00  0.00     0.029 A 
ATOM     47  C   UNL A   1      38.861  29.963  29.129  1.00  0.00     0.049 A 
ATOM     48  H   UNL A   1      40.351  29.447  30.490  1.00  0.00     0.167 HD
ATOM     49  C   UNL A   1      43.360  28.059  33.353  1.00  0.00     0.037 A 
ATOM     50  C   UNL A   1      37.998  30.772  29.776  1.00  0.00     0.037 A 
ATOM     51  C   UNL A   1      42.547  28.984  34.095  1.00  0.00     0.049 A 
ATOM     52  C   UNL A   1      38.227  31.090  31.236  1.00  0.00     0.074 A 
ATOM     53  C   UNL A   1      42.706  29.419  35.399  1.00  0.00     0.029 A 
ATOM     54  N   UNL A   1      41.412  29.610  33.601  1.00  0.00    -0.354 N 
ATOM     55  N   UNL A   1      39.194  30.697  32.030  1.00  0.00    -0.248 NA
ATOM     56  C   UNL A   1      37.241  31.965  31.889  1.00  0.00     0.031 C 
ATOM     57  C   UNL A   1      41.635  30.262  35.712  1.00  0.00     0.029 A 
ATOM     58  C   UNL A   1      40.846  30.408  34.583  1.00  0.00     0.049 A 
ATOM     59  H   UNL A   1      41.060  29.503  32.687  1.00  0.00     0.167 HD
ATOM     60  C   UNL A   1      38.953  31.304  33.258  1.00  0.00     0.074 A 
ATOM     61  C   UNL A   1      37.755  32.100  33.102  1.00  0.00     0.031 C 
ATOM     62  C   UNL A   1      39.663  31.211  34.410  1.00  0.00     0.037 A 
BRANCH  49  63
ATOM     63  C   UNL A   1      44.533  27.426  34.046  1.00  0.00     0.064 A 
ATOM     64  C   UNL A   1      44.430  26.179  34.682  1.00  0.00     0.173 A 
ATOM     65  C   UNL A   1      45.784  28.062  34.049  1.00  0.00     0.173 A 
ATOM     66  F   UNL A   1      43.254  25.535  34.720  1.00  0.00    -0.203 F 
ATOM     67  C   UNL A   1      45.529  25.607  35.319  1.00  0.00     0.198 A 
ATOM     68  C   UNL A   1      46.888  27.471  34.658  1.00  0.00     0.198 A 
ATOM     69  F   UNL A   1      45.938  29.254  33.454  1.00  0.00    -0.203 F 
ATOM     70  F   UNL A   1      45.394  24.441  35.965  1.00  0.00    -0.200 F 
ATOM     71  C   UNL A   1      46.757  26.249  35.299  1.00  0.00     0.200 A 
ATOM     72  F   UNL A   1      48.078  28.087  34.625  1.00  0.00    -0.200 F 
ATOM     73  F   UNL A   1      47.816  25.693  35.905  1.00  0.00    -0.200 F 
ENDBRANCH  49  63
BRANCH  50  74
ATOM     74  C   UNL A   1      36.811  31.323  29.065  1.00  0.00     0.064 A 
ATOM     75  C   UNL A   1      36.737  32.681  28.722  1.00  0.00     0.173 A 
ATOM     76  C   UNL A   1      35.708  30.513  28.753  1.00  0.00     0.173 A 
ATOM     77  F   UNL A   1      37.751  33.504  29.026  1.00  0.00    -0.203 F 
ATOM     78  C   UNL A   1      35.598  33.211  28.117  1.00  0.00     0.198 A 
ATOM     79  C   UNL A   1      34.585  31.038  28.117  1.00  0.00     0.198 A 
ATOM     80  F   UNL A   1      35.723  29.210  29.065  1.00  0.00    -0.203 F 
ATOM     81  F   UNL A   1      35.531  34.524  27.857  1.00  0.00    -0.200 F 
ATOM     82  C   UNL A   1      34.526  32.389  27.810  1.00  0.00     0.200 A 
ATOM     83  F   UNL A   1      33.554  30.237  27.813  1.00  0.00    -0.200 F 
ATOM     84  F   UNL A   1      33.431  32.899  27.231  1.00  0.00    -0.200 F 
ENDBRANCH  50  74
BRANCH  62  85
ATOM     85  C   UNL A   1      39.202  32.030  35.583  1.00  0.00     0.064 A 
ATOM     86  C   UNL A   1      38.384  31.495  36.590  1.00  0.00     0.173 A 
ATOM     87  C   UNL A   1      39.632  33.360  35.729  1.00  0.00     0.173 A 
ATOM     88  F   UNL A   1      37.935  30.234  36.495  1.00  0.00    -0.203 F 
ATOM     89  C   UNL A   1      37.994  32.265  37.683  1.00  0.00     0.198 A 
ATOM     90  C   UNL A   1      39.269  34.115  36.841  1.00  0.00     0.198 A 
ATOM     91  F   UNL A   1      40.423  33.920  34.802  1.00  0.00    -0.203 F 
ATOM     92  F   UNL A   1      37.173  31.747  38.607  1.00  0.00    -0.200 F 
ATOM     93  C   UNL A   1      38.444  33.571  37.813  1.00  0.00     0.200 A 
ATOM     94  F   UNL A   1      39.721  35.370  36.972  1.00  0.00    -0.200 F 
ATOM     95  F   UNL A   1      38.078  34.306  38.872  1.00  0.00    -0.200 F 
ENDBRANCH  62  85
ENDBRANCH  36  37
ENDBRANCH  29  31
ENDBRANCH  28  29
ENDBRANCH  27  28
ENDBRANCH  26  27
ENDBRANCH  25  26
ENDBRANCH  24  25
ENDBRANCH  23  24
ENDBRANCH   1  23
TORSDOF 22
ENDMDL
MODEL 2
REMARK VINA RESULT:     -10.3      1.591      2.806
REMARK SMILES C[C@@H](O)CN(C)C(=O)N[C@H]1C=C[C@@H](C(=O)OCCOCCOCCOC(=O)c2ccc(-c3c4nc(c(-c5c(F)c(F)c(F)c(F)c5F)c5ccc([nH]5)c(-c5c(F)c(F)c(F)c(F)c5F)c5nc(c(-c6c(F)c(F)c(F)c(F)c6F)c6ccc3[nH]6)C=C5)C=C4)cc2)C1
REMARK SMILES IDX 19 1 18 2 17 3 16 4 14 5 15 6 13 7 10 8 11 9 91 10 12 11
REMARK SMILES IDX 9 12 7 13 8 14 5 16 6 17 4 18 2 19 1 20 3 21 20 23 21 24
REMARK SMILES IDX 22 25 23 26 24 27 25 28 26 29 27 30 28 31 29 32 90 33 30 34
REMARK SMILES IDX 89 35 31 36 32 37 33 38 83 39 34 40 88 41 82 42 84 43 35 44
REMARK SMILES IDX 87 45 81 46 80 47 36 49 68 50 48 51 67 52 49 53 52 54 66 55
REMARK SMILES IDX 85 56 50 57 51 58 65 60 86 61 53 62 37 63 38 64 46 65 39 66
REMARK SMILES IDX 40 67 44 68 47 69 41 70 42 71 45 72 43 73 69 74 70 75 78 76
REMARK SMILES IDX 71 77 72 78 76 79 79 80 73 81 74 82 77 83 75 84 54 85 55 86
REMARK SMILES IDX 63 87 56 88 57 89 61 90 64 91 58 92 59 93 62 94 60 95
REMARK H PARENT 9 15 3 22 84 48 52 59
REMARK Flexibility Score: inf
ROOT
ATOM      1  O   UNL A   1      40.226  22.787  26.600  1.00  0.00    -0.376 OA
ENDROOT
BRANCH   1   2
ATOM      2  C   UNL A   1      39.206  23.594  27.184  1.00  0.00     0.202 C 
BRANCH   2   3
ATOM      3  C   UNL A   1      38.042  24.057  26.292  1.00  0.00     0.261 C 
BRANCH   3   4
ATOM      4  O   UNL A   1      36.819  23.325  26.498  1.00  0.00    -0.463 OA
BRANCH   4   5
ATOM      5  C   UNL A   1      36.247  22.713  25.427  1.00  0.00     0.312 C 
ATOM      6  O   UNL A   1      36.065  21.504  25.341  1.00  0.00    -0.252 OA
BRANCH   5   7
ATOM      7  C   UNL A   1      35.771  23.708  24.346  1.00  0.00     0.124 C 
ATOM      8  C   UNL A   1      33.752  23.710  22.920  1.00  0.00     0.107 C 
ATOM      9  C   UNL A   1      33.553  24.530  24.135  1.00  0.00    -0.006 C 
ATOM     10  C   UNL A   1      35.149  23.128  23.062  1.00  0.00     0.048 C 
ATOM     11  C   UNL A   1      34.664  24.581  24.880  1.00  0.00    -0.014 C 
BRANCH   8  12
ATOM     12  N   UNL A   1      32.734  22.726  22.616  1.00  0.00    -0.332 N 
ATOM     13  C   UNL A   1      32.423  21.475  22.992  1.00  0.00     0.317 C 
ATOM     14  O   UNL A   1      31.946  20.780  22.089  1.00  0.00    -0.249 OA
ATOM     15  H   UNL A   1      32.095  23.068  21.950  1.00  0.00     0.165 HD
BRANCH  13  16
ATOM     16  N   UNL A   1      32.535  21.008  24.268  1.00  0.00    -0.325 N 
ATOM     17  C   UNL A   1      31.745  21.404  25.409  1.00  0.00     0.148 C 
BRANCH  16  18
ATOM     18  C   UNL A   1      33.302  19.772  24.462  1.00  0.00     0.152 C 
BRANCH  18  19
ATOM     19  C   UNL A   1      32.456  18.675  25.143  1.00  0.00     0.130 C 
ATOM     20  C   UNL A   1      32.554  17.328  24.437  1.00  0.00     0.040 C 
BRANCH  19  21
ATOM     21  O   UNL A   1      32.886  18.523  26.497  1.00  0.00    -0.392 OA
ATOM     22  H   UNL A   1      32.116  18.543  27.086  1.00  0.00     0.211 HD
ENDBRANCH  19  21
ENDBRANCH  18  19
ENDBRANCH  16  18
ENDBRANCH  13  16
ENDBRANCH   8  12
ENDBRANCH   5   7
ENDBRANCH   4   5
ENDBRANCH   3   4
ENDBRANCH   2   3
ENDBRANCH   1   2
BRANCH   1  23
ATOM     23  C   UNL A   1      40.661  21.614  27.281  1.00  0.00     0.188 C 
BRANCH  23  24
ATOM     24  C   UNL A   1      40.839  20.308  26.493  1.00  0.00     0.188 C 
BRANCH  24  25
ATOM     25  O   UNL A   1      41.967  20.276  25.658  1.00  0.00    -0.376 OA
BRANCH  25  26
ATOM     26  C   UNL A   1      43.141  20.929  26.097  1.00  0.00     0.202 C 
BRANCH  26  27
ATOM     27  C   UNL A   1      43.952  21.777  25.099  1.00  0.00     0.261 C 
BRANCH  27  28
ATOM     28  O   UNL A   1      43.492  23.117  24.840  1.00  0.00    -0.460 OA
BRANCH  28  29
ATOM     29  C   UNL A   1      44.330  24.140  25.121  1.00  0.00     0.338 C 
ATOM     30  O   UNL A   1      45.389  24.398  24.565  1.00  0.00    -0.246 OA
BRANCH  29  31
ATOM     31  C   UNL A   1      43.629  25.058  26.053  1.00  0.00     0.060 A 
ATOM     32  C   UNL A   1      43.770  26.446  25.890  1.00  0.00     0.016 A 
ATOM     33  C   UNL A   1      42.813  24.552  27.066  1.00  0.00     0.016 A 
ATOM     34  C   UNL A   1      43.109  27.330  26.749  1.00  0.00     0.010 A 
ATOM     35  C   UNL A   1      42.178  25.437  27.944  1.00  0.00     0.010 A 
ATOM     36  C   UNL A   1      42.342  26.829  27.808  1.00  0.00    -0.014 A 
BRANCH  36  37
ATOM     37  C   UNL A   1      41.876  27.729  28.894  1.00  0.00     0.031 A 
ATOM     38  C   UNL A   1      42.630  27.715  30.196  1.00  0.00     0.074 A 
ATOM     39  C   UNL A   1      40.803  28.526  28.750  1.00  0.00     0.049 A 
ATOM     40  N   UNL A   1      42.348  28.298  31.333  1.00  0.00    -0.248 NA
ATOM     41  C   UNL A   1      43.872  26.924  30.216  1.00  0.00     0.031 C 
ATOM     42  C   UNL A   1      40.016  28.675  27.529  1.00  0.00     0.029 A 
ATOM     43  N   UNL A   1      40.179  29.348  29.658  1.00  0.00    -0.354 N 
ATOM     44  C   UNL A   1      43.367  27.935  32.204  1.00  0.00     0.074 A 
ATOM     45  C   UNL A   1      44.257  27.058  31.476  1.00  0.00     0.031 C 
ATOM     46  C   UNL A   1      38.994  29.515  27.772  1.00  0.00     0.029 A 
ATOM     47  C   UNL A   1      39.031  29.929  29.174  1.00  0.00     0.049 A 
ATOM     48  H   UNL A   1      40.521  29.506  30.567  1.00  0.00     0.167 HD
ATOM     49  C   UNL A   1      43.549  28.306  33.494  1.00  0.00     0.037 A 
ATOM     50  C   UNL A   1      38.101  30.675  29.804  1.00  0.00     0.037 A 
ATOM     51  C   UNL A   1      42.657  29.170  34.221  1.00  0.00     0.049 A 
ATOM     52  C   UNL A   1      38.274  30.998  31.270  1.00  0.00     0.074 A 
ATOM     53  C   UNL A   1      42.757  29.606  35.530  1.00  0.00     0.029 A 
ATOM     54  N   UNL A   1      41.495  29.721  33.703  1.00  0.00    -0.354 N 
ATOM     55  N   UNL A   1      39.246  30.667  32.085  1.00  0.00    -0.248 NA
ATOM     56  C   UNL A   1      37.216  31.800  31.904  1.00  0.00     0.031 C 
ATOM     57  C   UNL A   1      41.624  30.372  35.822  1.00  0.00     0.029 A 
ATOM     58  C   UNL A   1      40.854  30.472  34.675  1.00  0.00     0.049 A 
ATOM     59  H   UNL A   1      41.173  29.596  32.781  1.00  0.00     0.167 HD
ATOM     60  C   UNL A   1      38.937  31.247  33.310  1.00  0.00     0.074 A 
ATOM     61  C   UNL A   1      37.691  31.963  33.130  1.00  0.00     0.031 C 
ATOM     62  C   UNL A   1      39.623  31.195  34.478  1.00  0.00     0.037 A 
BRANCH  49  63
ATOM     63  C   UNL A   1      44.745  27.749  34.212  1.00  0.00     0.064 A 
ATOM     64  C   UNL A   1      45.975  28.425  34.232  1.00  0.00     0.173 A 
ATOM     65  C   UNL A   1      44.651  26.537  34.914  1.00  0.00     0.173 A 
ATOM     66  F   UNL A   1      46.121  29.580  33.565  1.00  0.00    -0.203 F 
ATOM     67  C   UNL A   1      47.073  27.894  34.904  1.00  0.00     0.198 A 
ATOM     68  C   UNL A   1      45.743  26.027  35.612  1.00  0.00     0.198 A 
ATOM     69  F   UNL A   1      43.499  25.852  34.929  1.00  0.00    -0.203 F 
ATOM     70  F   UNL A   1      48.251  28.531  34.865  1.00  0.00    -0.200 F 
ATOM     71  C   UNL A   1      46.954  26.701  35.599  1.00  0.00     0.200 A 
ATOM     72  F   UNL A   1      45.621  24.881  36.296  1.00  0.00    -0.200 F 
ATOM     73  F   UNL A   1      48.010  26.196  36.253  1.00  0.00    -0.200 F 
ENDBRANCH  49  63
BRANCH  50  74
ATOM     74  C   UNL A   1      36.896  31.149  29.067  1.00  0.00     0.064 A 
ATOM     75  C   UNL A   1      36.749  32.497  28.711  1.00  0.00     0.173 A 
ATOM     76  C   UNL A   1      35.848  30.274  28.744  1.00  0.00     0.173 A 
ATOM     77  F   UNL A   1      37.707  33.382  29.024  1.00  0.00    -0.203 F 
ATOM     78  C   UNL A   1      35.592  32.955  28.082  1.00  0.00     0.198 A 
ATOM     79  C   UNL A   1      34.707  30.726  28.085  1.00  0.00     0.198 A 
ATOM     80  F   UNL A   1      35.934  28.976  29.070  1.00  0.00    -0.203 F 
ATOM     81  F   UNL A   1      35.452  34.260  27.808  1.00  0.00    -0.200 F 
ATOM     82  C   UNL A   1      34.575  32.069  27.764  1.00  0.00     0.200 A 
ATOM     83  F   UNL A   1      33.731  29.863  27.770  1.00  0.00    -0.200 F 
ATOM     84  F   UNL A   1      33.463  32.509  27.161  1.00  0.00    -0.200 F 
ENDBRANCH  50  74
BRANCH  62  85
ATOM     85  C   UNL A   1      39.081  31.974  35.644  1.00  0.00     0.064 A 
ATOM     86  C   UNL A   1      38.286  31.376  36.634  1.00  0.00     0.173 A 
ATOM     87  C   UNL A   1      39.409  33.331  35.801  1.00  0.00     0.173 A 
ATOM     88  F   UNL A   1      37.933  30.086  36.528  1.00  0.00    -0.203 F 
ATOM     89  C   UNL A   1      37.820  32.112  37.721  1.00  0.00     0.198 A 
ATOM     90  C   UNL A   1      38.970  34.054  36.907  1.00  0.00     0.198 A 
ATOM     91  F   UNL A   1      40.174  33.951  34.891  1.00  0.00    -0.203 F 
ATOM     92  F   UNL A   1      37.022  31.531  38.628  1.00  0.00    -0.200 F 
ATOM     93  C   UNL A   1      38.170  33.447  37.862  1.00  0.00     0.200 A 
ATOM     94  F   UNL A   1      39.326  35.339  37.049  1.00  0.00    -0.200 F 
ATOM     95  F   UNL A   1      37.731  34.149  38.916  1.00  0.00    -0.200 F 
ENDBRANCH  62  85
ENDBRANCH  36  37
ENDBRANCH  29  31
ENDBRANCH  28  29
ENDBRANCH  27  28
ENDBRANCH  26  27
ENDBRANCH  25  26
ENDBRANCH  24  25
ENDBRANCH  23  24
ENDBRANCH   1  23
TORSDOF 22
ENDMDL
MODEL 3
REMARK VINA RESULT:      -9.8      4.167      9.606
REMARK SMILES C[C@@H](O)CN(C)C(=O)N[C@H]1C=C[C@@H](C(=O)OCCOCCOCCOC(=O)c2ccc(-c3c4nc(c(-c5c(F)c(F)c(F)c(F)c5F)c5ccc([nH]5)c(-c5c(F)c(F)c(F)c(F)c5F)c5nc(c(-c6c(F)c(F)c(F)c(F)c6F)c6ccc3[nH]6)C=C5)C=C4)cc2)C1
REMARK SMILES IDX 19 1 18 2 17 3 16 4 14 5 15 6 13 7 10 8 11 9 91 10 12 11
REMARK SMILES IDX 9 12 7 13 8 14 5 16 6 17 4 18 2 19 1 20 3 21 20 23 21 24
REMARK SMILES IDX 22 25 23 26 24 27 25 28 26 29 27 30 28 31 29 32 90 33 30 34
REMARK SMILES IDX 89 35 31 36 32 37 33 38 83 39 34 40 88 41 82 42 84 43 35 44
REMARK SMILES IDX 87 45 81 46 80 47 36 49 68 50 48 51 67 52 49 53 52 54 66 55
REMARK SMILES IDX 85 56 50 57 51 58 65 60 86 61 53 62 37 63 38 64 46 65 39 66
REMARK SMILES IDX 40 67 44 68 47 69 41 70 42 71 45 72 43 73 69 74 70 75 78 76
REMARK SMILES IDX 71 77 72 78 76 79 79 80 73 81 74 82 77 83 75 84 54 85 55 86
REMARK SMILES IDX 63 87 56 88 57 89 61 90 64 91 58 92 59 93 62 94 60 95
REMARK H PARENT 9 15 3 22 84 48 52 59
REMARK Flexibility Score: inf
ROOT
ATOM      1  O   UNL A   1      31.008  26.623  23.800  1.00  0.00    -0.376 OA
ENDROOT
BRANCH   1   2
ATOM      2  C   UNL A   1      32.250  25.926  23.734  1.00  0.00     0.202 C 
BRANCH   2   3
ATOM      3  C   UNL A   1      33.129  26.116  22.485  1.00  0.00     0.261 C 
BRANCH   3   4
ATOM      4  O   UNL A   1      33.618  24.885  21.921  1.00  0.00    -0.463 OA
BRANCH   4   5
ATOM      5  C   UNL A   1      33.901  23.858  22.765  1.00  0.00     0.312 C 
ATOM      6  O   UNL A   1      33.238  22.830  22.844  1.00  0.00    -0.252 OA
BRANCH   5   7
ATOM      7  C   UNL A   1      35.200  24.078  23.571  1.00  0.00     0.124 C 
ATOM      8  C   UNL A   1      35.921  23.182  25.759  1.00  0.00     0.107 C 
ATOM      9  C   UNL A   1      36.443  22.363  24.644  1.00  0.00    -0.006 C 
ATOM     10  C   UNL A   1      35.074  24.257  25.096  1.00  0.00     0.048 C 
ATOM     11  C   UNL A   1      36.105  22.879  23.455  1.00  0.00    -0.014 C 
BRANCH   8  12
ATOM     12  N   UNL A   1      35.247  22.482  26.831  1.00  0.00    -0.332 N 
ATOM     13  C   UNL A   1      34.006  22.044  27.101  1.00  0.00     0.317 C 
ATOM     14  O   UNL A   1      33.696  22.109  28.296  1.00  0.00    -0.249 OA
ATOM     15  H   UNL A   1      35.868  22.267  27.564  1.00  0.00     0.165 HD
BRANCH  13  16
ATOM     16  N   UNL A   1      33.168  21.496  26.177  1.00  0.00    -0.325 N 
ATOM     17  C   UNL A   1      31.981  22.099  25.617  1.00  0.00     0.148 C 
BRANCH  16  18
ATOM     18  C   UNL A   1      33.659  20.327  25.439  1.00  0.00     0.152 C 
BRANCH  18  19
ATOM     19  C   UNL A   1      32.580  19.231  25.322  1.00  0.00     0.130 C 
ATOM     20  C   UNL A   1      32.756  18.354  24.087  1.00  0.00     0.040 C 
BRANCH  19  21
ATOM     21  O   UNL A   1      32.621  18.404  26.487  1.00  0.00    -0.392 OA
ATOM     22  H   UNL A   1      33.354  18.683  27.056  1.00  0.00     0.211 HD
ENDBRANCH  19  21
ENDBRANCH  18  19
ENDBRANCH  16  18
ENDBRANCH  13  16
ENDBRANCH   8  12
ENDBRANCH   5   7
ENDBRANCH   4   5
ENDBRANCH   3   4
ENDBRANCH   2   3
ENDBRANCH   1   2
BRANCH   1  23
ATOM     23  C   UNL A   1      30.850  27.832  23.065  1.00  0.00     0.188 C 
BRANCH  23  24
ATOM     24  C   UNL A   1      30.697  29.160  23.822  1.00  0.00     0.188 C 
BRANCH  24  25
ATOM     25  O   UNL A   1      31.312  29.189  25.083  1.00  0.00    -0.376 OA
BRANCH  25  26
ATOM     26  C   UNL A   1      32.516  29.916  25.222  1.00  0.00     0.202 C 
BRANCH  26  27
ATOM     27  C   UNL A   1      33.598  29.406  26.193  1.00  0.00     0.261 C 
BRANCH  27  28
ATOM     28  O   UNL A   1      33.503  29.824  27.568  1.00  0.00    -0.460 OA
BRANCH  28  29
ATOM     29  C   UNL A   1      34.314  30.823  27.984  1.00  0.00     0.338 C 
ATOM     30  O   UNL A   1      33.985  31.964  28.278  1.00  0.00    -0.246 OA
BRANCH  29  31
ATOM     31  C   UNL A   1      35.646  30.235  28.273  1.00  0.00     0.060 A 
ATOM     32  C   UNL A   1      35.924  29.759  29.565  1.00  0.00     0.016 A 
ATOM     33  C   UNL A   1      36.607  30.128  27.267  1.00  0.00     0.016 A 
ATOM     34  C   UNL A   1      37.167  29.189  29.857  1.00  0.00     0.010 A 
ATOM     35  C   UNL A   1      37.862  29.587  27.568  1.00  0.00     0.010 A 
ATOM     36  C   UNL A   1      38.159  29.139  28.869  1.00  0.00    -0.014 A 
BRANCH  36  37
ATOM     37  C   UNL A   1      39.564  28.815  29.227  1.00  0.00     0.031 A 
ATOM     38  C   UNL A   1      40.352  29.837  29.999  1.00  0.00     0.074 A 
ATOM     39  C   UNL A   1      40.144  27.657  28.864  1.00  0.00     0.049 A 
ATOM     40  N   UNL A   1      41.622  29.854  30.312  1.00  0.00    -0.248 NA
ATOM     41  C   UNL A   1      39.598  31.008  30.478  1.00  0.00     0.031 C 
ATOM     42  C   UNL A   1      39.482  26.562  28.160  1.00  0.00     0.029 A 
ATOM     43  N   UNL A   1      41.439  27.224  29.023  1.00  0.00    -0.354 N 
ATOM     44  C   UNL A   1      41.821  31.038  31.010  1.00  0.00     0.074 A 
ATOM     45  C   UNL A   1      40.550  31.728  31.050  1.00  0.00     0.031 C 
ATOM     46  C   UNL A   1      40.384  25.592  27.921  1.00  0.00     0.029 A 
ATOM     47  C   UNL A   1      41.693  26.016  28.418  1.00  0.00     0.049 A 
ATOM     48  H   UNL A   1      42.120  27.729  29.523  1.00  0.00     0.167 HD
ATOM     49  C   UNL A   1      42.960  31.506  31.575  1.00  0.00     0.037 A 
ATOM     50  C   UNL A   1      42.855  25.353  28.251  1.00  0.00     0.037 A 
ATOM     51  C   UNL A   1      44.227  30.825  31.526  1.00  0.00     0.049 A 
ATOM     52  C   UNL A   1      44.132  25.940  28.806  1.00  0.00     0.074 A 
ATOM     53  C   UNL A   1      45.437  31.215  32.070  1.00  0.00     0.029 A 
ATOM     54  N   UNL A   1      44.447  29.615  30.886  1.00  0.00    -0.354 N 
ATOM     55  N   UNL A   1      44.314  27.050  29.479  1.00  0.00    -0.248 NA
ATOM     56  C   UNL A   1      45.369  25.177  28.577  1.00  0.00     0.031 C 
ATOM     57  C   UNL A   1      46.403  30.271  31.708  1.00  0.00     0.029 A 
ATOM     58  C   UNL A   1      45.781  29.257  30.999  1.00  0.00     0.049 A 
ATOM     59  H   UNL A   1      43.758  29.087  30.420  1.00  0.00     0.167 HD
ATOM     60  C   UNL A   1      45.670  27.100  29.783  1.00  0.00     0.074 A 
ATOM     61  C   UNL A   1      46.265  25.902  29.231  1.00  0.00     0.031 C 
ATOM     62  C   UNL A   1      46.359  28.051  30.460  1.00  0.00     0.037 A 
BRANCH  49  63
ATOM     63  C   UNL A   1      42.893  32.836  32.268  1.00  0.00     0.064 A 
ATOM     64  C   UNL A   1      43.103  34.040  31.578  1.00  0.00     0.173 A 
ATOM     65  C   UNL A   1      42.584  32.910  33.636  1.00  0.00     0.173 A 
ATOM     66  F   UNL A   1      43.415  34.025  30.273  1.00  0.00    -0.203 F 
ATOM     67  C   UNL A   1      43.036  35.265  32.237  1.00  0.00     0.198 A 
ATOM     68  C   UNL A   1      42.485  34.138  34.283  1.00  0.00     0.198 A 
ATOM     69  F   UNL A   1      42.372  31.790  34.342  1.00  0.00    -0.203 F 
ATOM     70  F   UNL A   1      43.293  36.398  31.569  1.00  0.00    -0.200 F 
ATOM     71  C   UNL A   1      42.719  35.313  33.586  1.00  0.00     0.200 A 
ATOM     72  F   UNL A   1      42.164  34.184  35.584  1.00  0.00    -0.200 F 
ATOM     73  F   UNL A   1      42.646  36.494  34.217  1.00  0.00    -0.200 F 
ENDBRANCH  49  63
BRANCH  50  74
ATOM     74  C   UNL A   1      42.883  24.068  27.498  1.00  0.00     0.064 A 
ATOM     75  C   UNL A   1      43.246  24.029  26.144  1.00  0.00     0.173 A 
ATOM     76  C   UNL A   1      42.506  22.860  28.104  1.00  0.00     0.173 A 
ATOM     77  F   UNL A   1      43.584  25.161  25.509  1.00  0.00    -0.203 F 
ATOM     78  C   UNL A   1      43.207  22.838  25.421  1.00  0.00     0.198 A 
ATOM     79  C   UNL A   1      42.501  21.664  27.389  1.00  0.00     0.198 A 
ATOM     80  F   UNL A   1      42.142  22.842  29.395  1.00  0.00    -0.203 F 
ATOM     81  F   UNL A   1      43.500  22.842  24.113  1.00  0.00    -0.200 F 
ATOM     82  C   UNL A   1      42.841  21.656  26.045  1.00  0.00     0.200 A 
ATOM     83  F   UNL A   1      42.156  20.522  27.999  1.00  0.00    -0.200 F 
ATOM     84  F   UNL A   1      42.802  20.512  25.349  1.00  0.00    -0.200 F 
ENDBRANCH  50  74
BRANCH  62  85
ATOM     85  C   UNL A   1      47.826  27.818  30.696  1.00  0.00     0.064 A 
ATOM     86  C   UNL A   1      48.808  28.315  29.826  1.00  0.00     0.173 A 
ATOM     87  C   UNL A   1      48.256  27.131  31.843  1.00  0.00     0.173 A 
ATOM     88  F   UNL A   1      48.452  28.968  28.709  1.00  0.00    -0.203 F 
ATOM     89  C   UNL A   1      50.162  28.112  30.081  1.00  0.00     0.198 A 
ATOM     90  C   UNL A   1      49.611  26.961  32.113  1.00  0.00     0.198 A 
ATOM     91  F   UNL A   1      47.361  26.643  32.715  1.00  0.00    -0.203 F 
ATOM     92  F   UNL A   1      51.080  28.553  29.210  1.00  0.00    -0.200 F 
ATOM     93  C   UNL A   1      50.563  27.443  31.229  1.00  0.00     0.200 A 
ATOM     94  F   UNL A   1      49.995  26.331  33.233  1.00  0.00    -0.200 F 
ATOM     95  F   UNL A   1      51.867  27.259  31.479  1.00  0.00    -0.200 F 
ENDBRANCH  62  85
ENDBRANCH  36  37
ENDBRANCH  29  31
ENDBRANCH  28  29
ENDBRANCH  27  28
ENDBRANCH  26  27
ENDBRANCH  25  26
ENDBRANCH  24  25
ENDBRANCH  23  24
ENDBRANCH   1  23
TORSDOF 22
ENDMDL
