MODEL 1
REMARK VINA RESULT:     -10.6      0.000      0.000
REMARK SMILES CN(Cc1ccccc1Br)C(=O)N[C@H]1C=C[C@H](C(=O)OCCOCCOCCOC(=O)c2ccc(-c3c4nc(c(-c5c(F)c(F)c(F)c(F)c5F)c5ccc([nH]5)c(-c5c(F)c(F)c(F)c(F)c5F)c5nc(c(-c6c(F)c(F)c(F)c(F)c6F)c6ccc3[nH]6)C=C5)C=C4)cc2)C1
REMARK SMILES IDX 24 1 23 2 22 3 21 4 20 5 18 6 19 7 17 8 14 9 15 10 95 11
REMARK SMILES IDX 16 12 13 13 11 14 12 15 2 17 1 18 3 19 4 20 5 21 9 22 6 23
REMARK SMILES IDX 8 24 10 25 7 26 25 27 26 28 27 29 28 30 29 31 30 32 31 33
REMARK SMILES IDX 32 34 33 35 94 36 34 37 93 38 35 39 36 40 37 41 87 42 38 43
REMARK SMILES IDX 92 44 86 45 88 46 39 47 91 48 85 49 84 50 40 52 72 53 52 54
REMARK SMILES IDX 71 55 53 56 56 57 70 58 89 59 54 60 55 61 69 63 90 64 57 65
REMARK SMILES IDX 41 66 42 67 50 68 43 69 44 70 48 71 51 72 45 73 46 74 49 75
REMARK SMILES IDX 47 76 73 77 74 78 82 79 75 80 76 81 80 82 83 83 77 84 78 85
REMARK SMILES IDX 81 86 79 87 58 88 59 89 67 90 60 91 61 92 65 93 68 94 62 95
REMARK SMILES IDX 63 96 66 97 64 98
REMARK H PARENT 13 16 88 51 56 62
REMARK Flexibility Score: inf
ROOT
ATOM      1  C   UNL A   1      34.319  32.762  28.950  1.00  0.00     0.188 C 
ENDROOT
BRANCH   1   2
ATOM      2  O   UNL A   1      33.992  32.186  27.690  1.00  0.00    -0.376 OA
BRANCH   2   3
ATOM      3  C   UNL A   1      32.686  32.407  27.172  1.00  0.00     0.202 C 
BRANCH   3   4
ATOM      4  C   UNL A   1      31.866  31.145  26.925  1.00  0.00     0.261 C 
BRANCH   4   5
ATOM      5  O   UNL A   1      32.382  30.003  27.633  1.00  0.00    -0.463 OA
BRANCH   5   6
ATOM      6  C   UNL A   1      32.066  28.787  27.111  1.00  0.00     0.312 C 
ATOM      7  O   UNL A   1      31.407  27.933  27.694  1.00  0.00    -0.252 OA
BRANCH   6   8
ATOM      8  C   UNL A   1      32.672  28.556  25.726  1.00  0.00     0.124 C 
ATOM      9  C   UNL A   1      32.725  26.318  24.657  1.00  0.00     0.107 C 
ATOM     10  C   UNL A   1      34.013  26.653  25.339  1.00  0.00    -0.006 C 
ATOM     11  C   UNL A   1      31.926  27.630  24.753  1.00  0.00     0.048 C 
ATOM     12  C   UNL A   1      33.996  27.870  25.888  1.00  0.00    -0.014 C 
BRANCH   9  13
ATOM     13  N   UNL A   1      33.046  25.953  23.297  1.00  0.00    -0.332 N 
ATOM     14  C   UNL A   1      32.885  24.862  22.530  1.00  0.00     0.317 C 
ATOM     15  O   UNL A   1      33.115  25.047  21.329  1.00  0.00    -0.249 OA
ATOM     16  H   UNL A   1      33.493  26.684  22.813  1.00  0.00     0.165 HD
BRANCH  14  17
ATOM     17  N   UNL A   1      32.509  23.644  23.013  1.00  0.00    -0.324 N 
ATOM     18  C   UNL A   1      31.073  23.391  23.107  1.00  0.00     0.149 C 
BRANCH  17  19
ATOM     19  C   UNL A   1      33.342  22.485  23.340  1.00  0.00     0.157 C 
BRANCH  19  20
ATOM     20  C   UNL A   1      34.601  22.776  24.137  1.00  0.00    -0.014 A 
ATOM     21  C   UNL A   1      35.843  22.939  23.495  1.00  0.00     0.007 A 
ATOM     22  C   UNL A   1      34.556  23.006  25.528  1.00  0.00     0.022 A 
ATOM     23  C   UNL A   1      36.989  23.315  24.202  1.00  0.00     0.000 A 
ATOM     24  C   UNL A   1      35.708  23.378  26.233  1.00  0.00     0.016 A 
ATOM     25  Br  UNL A   1      32.957  22.857  26.547  1.00  0.00    -0.050 Br
ATOM     26  C   UNL A   1      36.920  23.539  25.569  1.00  0.00     0.001 A 
ENDBRANCH  19  20
ENDBRANCH  17  19
ENDBRANCH  14  17
ENDBRANCH   9  13
ENDBRANCH   6   8
ENDBRANCH   5   6
ENDBRANCH   4   5
ENDBRANCH   3   4
ENDBRANCH   2   3
ENDBRANCH   1   2
BRANCH   1  27
ATOM     27  C   UNL A   1      34.864  34.201  28.969  1.00  0.00     0.188 C 
BRANCH  27  28
ATOM     28  O   UNL A   1      34.239  35.175  28.138  1.00  0.00    -0.376 OA
BRANCH  28  29
ATOM     29  C   UNL A   1      33.650  36.305  28.775  1.00  0.00     0.202 C 
BRANCH  29  30
ATOM     30  C   UNL A   1      32.660  35.947  29.877  1.00  0.00     0.261 C 
BRANCH  30  31
ATOM     31  O   UNL A   1      32.754  36.906  30.939  1.00  0.00    -0.460 OA
BRANCH  31  32
ATOM     32  C   UNL A   1      32.610  36.386  32.170  1.00  0.00     0.338 C 
ATOM     33  O   UNL A   1      31.807  36.725  33.032  1.00  0.00    -0.246 OA
BRANCH  32  34
ATOM     34  C   UNL A   1      33.640  35.358  32.378  1.00  0.00     0.060 A 
ATOM     35  C   UNL A   1      33.310  34.065  32.805  1.00  0.00     0.016 A 
ATOM     36  C   UNL A   1      34.972  35.738  32.226  1.00  0.00     0.016 A 
ATOM     37  C   UNL A   1      34.328  33.163  33.134  1.00  0.00     0.010 A 
ATOM     38  C   UNL A   1      35.983  34.830  32.527  1.00  0.00     0.010 A 
ATOM     39  C   UNL A   1      35.671  33.551  33.018  1.00  0.00    -0.014 A 
BRANCH  39  40
ATOM     40  C   UNL A   1      36.785  32.690  33.483  1.00  0.00     0.031 A 
ATOM     41  C   UNL A   1      37.427  32.984  34.811  1.00  0.00     0.074 A 
ATOM     42  C   UNL A   1      37.279  31.724  32.690  1.00  0.00     0.049 A 
ATOM     43  N   UNL A   1      38.561  32.554  35.303  1.00  0.00    -0.248 NA
ATOM     44  C   UNL A   1      36.693  33.900  35.699  1.00  0.00     0.031 C 
ATOM     45  C   UNL A   1      36.722  31.323  31.400  1.00  0.00     0.029 A 
ATOM     46  N   UNL A   1      38.391  30.933  32.839  1.00  0.00    -0.354 N 
ATOM     47  C   UNL A   1      38.692  33.168  36.542  1.00  0.00     0.074 A 
ATOM     48  C   UNL A   1      37.526  34.007  36.726  1.00  0.00     0.031 C 
ATOM     49  C   UNL A   1      37.512  30.380  30.859  1.00  0.00     0.029 A 
ATOM     50  C   UNL A   1      38.657  30.156  31.739  1.00  0.00     0.049 A 
ATOM     51  H   UNL A   1      38.944  30.924  33.654  1.00  0.00     0.167 HD
ATOM     52  C   UNL A   1      39.700  33.046  37.439  1.00  0.00     0.037 A 
ATOM     53  C   UNL A   1      39.729  29.392  31.452  1.00  0.00     0.037 A 
ATOM     54  C   UNL A   1      40.852  32.204  37.248  1.00  0.00     0.049 A 
ATOM     55  C   UNL A   1      40.862  29.314  32.441  1.00  0.00     0.074 A 
ATOM     56  C   UNL A   1      41.929  32.005  38.094  1.00  0.00     0.029 A 
ATOM     57  N   UNL A   1      41.074  31.418  36.126  1.00  0.00    -0.354 N 
ATOM     58  N   UNL A   1      40.993  29.910  33.601  1.00  0.00    -0.248 NA
ATOM     59  C   UNL A   1      42.002  28.462  32.074  1.00  0.00     0.031 C 
ATOM     60  C   UNL A   1      42.821  31.126  37.469  1.00  0.00     0.029 A 
ATOM     61  C   UNL A   1      42.277  30.742  36.254  1.00  0.00     0.049 A 
ATOM     62  H   UNL A   1      40.468  31.352  35.354  1.00  0.00     0.167 HD
ATOM     63  C   UNL A   1      42.213  29.489  34.113  1.00  0.00     0.074 A 
ATOM     64  C   UNL A   1      42.779  28.574  33.142  1.00  0.00     0.031 C 
ATOM     65  C   UNL A   1      42.815  29.829  35.279  1.00  0.00     0.037 A 
BRANCH  52  66
ATOM     66  C   UNL A   1      39.617  33.856  38.699  1.00  0.00     0.064 A 
ATOM     67  C   UNL A   1      40.224  35.116  38.807  1.00  0.00     0.173 A 
ATOM     68  C   UNL A   1      38.875  33.389  39.796  1.00  0.00     0.173 A 
ATOM     69  F   UNL A   1      40.956  35.601  37.793  1.00  0.00    -0.203 F 
ATOM     70  C   UNL A   1      40.104  35.871  39.971  1.00  0.00     0.198 A 
ATOM     71  C   UNL A   1      38.736  34.159  40.948  1.00  0.00     0.198 A 
ATOM     72  F   UNL A   1      38.272  32.192  39.743  1.00  0.00    -0.203 F 
ATOM     73  F   UNL A   1      40.721  37.058  40.064  1.00  0.00    -0.200 F 
ATOM     74  C   UNL A   1      39.353  35.397  41.037  1.00  0.00     0.200 A 
ATOM     75  F   UNL A   1      38.001  33.703  41.973  1.00  0.00    -0.200 F 
ATOM     76  F   UNL A   1      39.230  36.131  42.152  1.00  0.00    -0.200 F 
ENDBRANCH  52  66
BRANCH  53  77
ATOM     77  C   UNL A   1      39.798  28.665  30.158  1.00  0.00     0.064 A 
ATOM     78  C   UNL A   1      39.272  27.373  30.028  1.00  0.00     0.173 A 
ATOM     79  C   UNL A   1      40.400  29.241  29.029  1.00  0.00     0.173 A 
ATOM     80  F   UNL A   1      38.712  26.770  31.087  1.00  0.00    -0.203 F 
ATOM     81  C   UNL A   1      39.359  26.678  28.824  1.00  0.00     0.198 A 
ATOM     82  C   UNL A   1      40.460  28.556  27.816  1.00  0.00     0.198 A 
ATOM     83  F   UNL A   1      40.922  30.474  29.101  1.00  0.00    -0.203 F 
ATOM     84  F   UNL A   1      38.891  25.424  28.741  1.00  0.00    -0.200 F 
ATOM     85  C   UNL A   1      39.947  27.272  27.717  1.00  0.00     0.200 A 
ATOM     86  F   UNL A   1      41.019  29.139  26.747  1.00  0.00    -0.200 F 
ATOM     87  F   UNL A   1      40.027  26.604  26.558  1.00  0.00    -0.200 F 
ENDBRANCH  53  77
BRANCH  65  88
ATOM     88  C   UNL A   1      44.130  29.175  35.586  1.00  0.00     0.064 A 
ATOM     89  C   UNL A   1      44.201  27.954  36.273  1.00  0.00     0.173 A 
ATOM     90  C   UNL A   1      45.330  29.764  35.162  1.00  0.00     0.173 A 
ATOM     91  F   UNL A   1      43.081  27.360  36.711  1.00  0.00    -0.203 F 
ATOM     92  C   UNL A   1      45.430  27.361  36.549  1.00  0.00     0.198 A 
ATOM     93  C   UNL A   1      46.555  29.155  35.417  1.00  0.00     0.198 A 
ATOM     94  F   UNL A   1      45.314  30.928  34.496  1.00  0.00    -0.203 F 
ATOM     95  F   UNL A   1      45.478  26.219  37.249  1.00  0.00    -0.200 F 
ATOM     96  C   UNL A   1      46.604  27.959  36.117  1.00  0.00     0.200 A 
ATOM     97  F   UNL A   1      47.689  29.728  34.989  1.00  0.00    -0.200 F 
ATOM     98  F   UNL A   1      47.787  27.385  36.382  1.00  0.00    -0.200 F 
ENDBRANCH  65  88
ENDBRANCH  39  40
ENDBRANCH  32  34
ENDBRANCH  31  32
ENDBRANCH  30  31
ENDBRANCH  29  30
ENDBRANCH  28  29
ENDBRANCH  27  28
ENDBRANCH   1  27
TORSDOF 21
ENDMDL
MODEL 2
REMARK VINA RESULT:     -10.5      1.271      2.089
REMARK SMILES CN(Cc1ccccc1Br)C(=O)N[C@H]1C=C[C@H](C(=O)OCCOCCOCCOC(=O)c2ccc(-c3c4nc(c(-c5c(F)c(F)c(F)c(F)c5F)c5ccc([nH]5)c(-c5c(F)c(F)c(F)c(F)c5F)c5nc(c(-c6c(F)c(F)c(F)c(F)c6F)c6ccc3[nH]6)C=C5)C=C4)cc2)C1
REMARK SMILES IDX 24 1 23 2 22 3 21 4 20 5 18 6 19 7 17 8 14 9 15 10 95 11
REMARK SMILES IDX 16 12 13 13 11 14 12 15 2 17 1 18 3 19 4 20 5 21 9 22 6 23
REMARK SMILES IDX 8 24 10 25 7 26 25 27 26 28 27 29 28 30 29 31 30 32 31 33
REMARK SMILES IDX 32 34 33 35 94 36 34 37 93 38 35 39 36 40 37 41 87 42 38 43
REMARK SMILES IDX 92 44 86 45 88 46 39 47 91 48 85 49 84 50 40 52 72 53 52 54
REMARK SMILES IDX 71 55 53 56 56 57 70 58 89 59 54 60 55 61 69 63 90 64 57 65
REMARK SMILES IDX 41 66 42 67 50 68 43 69 44 70 48 71 51 72 45 73 46 74 49 75
REMARK SMILES IDX 47 76 73 77 74 78 82 79 75 80 76 81 80 82 83 83 77 84 78 85
REMARK SMILES IDX 81 86 79 87 58 88 59 89 67 90 60 91 61 92 65 93 68 94 62 95
REMARK SMILES IDX 63 96 66 97 64 98
REMARK H PARENT 13 16 88 51 56 62
REMARK Flexibility Score: inf
ROOT
ATOM      1  C   UNL A   1      34.418  32.690  29.005  1.00  0.00     0.188 C 
ENDROOT
BRANCH   1   2
ATOM      2  O   UNL A   1      34.434  32.117  27.703  1.00  0.00    -0.376 OA
BRANCH   2   3
ATOM      3  C   UNL A   1      33.271  31.430  27.259  1.00  0.00     0.202 C 
BRANCH   3   4
ATOM      4  C   UNL A   1      33.535  30.106  26.549  1.00  0.00     0.261 C 
BRANCH   4   5
ATOM      5  O   UNL A   1      32.649  29.889  25.435  1.00  0.00    -0.463 OA
BRANCH   5   6
ATOM      6  C   UNL A   1      32.539  28.603  25.004  1.00  0.00     0.312 C 
ATOM      7  O   UNL A   1      33.220  28.112  24.110  1.00  0.00    -0.252 OA
BRANCH   6   8
ATOM      8  C   UNL A   1      31.426  27.830  25.711  1.00  0.00     0.124 C 
ATOM      9  C   UNL A   1      31.168  25.373  25.486  1.00  0.00     0.107 C 
ATOM     10  C   UNL A   1      30.271  26.126  24.556  1.00  0.00    -0.006 C 
ATOM     11  C   UNL A   1      31.777  26.483  26.360  1.00  0.00     0.048 C 
ATOM     12  C   UNL A   1      30.387  27.449  24.697  1.00  0.00    -0.014 C 
BRANCH   9  13
ATOM     13  N   UNL A   1      30.335  24.460  26.234  1.00  0.00    -0.332 N 
ATOM     14  C   UNL A   1      30.519  23.296  26.877  1.00  0.00     0.317 C 
ATOM     15  O   UNL A   1      29.567  22.949  27.585  1.00  0.00    -0.249 OA
ATOM     16  H   UNL A   1      29.401  24.768  26.285  1.00  0.00     0.165 HD
BRANCH  14  17
ATOM     17  N   UNL A   1      31.649  22.540  26.769  1.00  0.00    -0.324 N 
ATOM     18  C   UNL A   1      32.577  22.583  27.896  1.00  0.00     0.149 C 
BRANCH  17  19
ATOM     19  C   UNL A   1      32.017  21.578  25.729  1.00  0.00     0.157 C 
BRANCH  19  20
ATOM     20  C   UNL A   1      32.730  22.150  24.516  1.00  0.00    -0.014 A 
ATOM     21  C   UNL A   1      32.003  22.722  23.453  1.00  0.00     0.007 A 
ATOM     22  C   UNL A   1      34.136  22.237  24.460  1.00  0.00     0.022 A 
ATOM     23  C   UNL A   1      32.646  23.350  22.383  1.00  0.00     0.000 A 
ATOM     24  C   UNL A   1      34.775  22.865  23.383  1.00  0.00     0.016 A 
ATOM     25  Br  UNL A   1      35.268  21.544  25.823  1.00  0.00    -0.050 Br
ATOM     26  C   UNL A   1      34.031  23.427  22.350  1.00  0.00     0.001 A 
ENDBRANCH  19  20
ENDBRANCH  17  19
ENDBRANCH  14  17
ENDBRANCH   9  13
ENDBRANCH   6   8
ENDBRANCH   5   6
ENDBRANCH   4   5
ENDBRANCH   3   4
ENDBRANCH   2   3
ENDBRANCH   1   2
BRANCH   1  27
ATOM     27  C   UNL A   1      34.763  34.183  29.146  1.00  0.00     0.188 C 
BRANCH  27  28
ATOM     28  O   UNL A   1      34.136  35.110  28.264  1.00  0.00    -0.376 OA
BRANCH  28  29
ATOM     29  C   UNL A   1      33.469  36.227  28.845  1.00  0.00     0.202 C 
BRANCH  29  30
ATOM     30  C   UNL A   1      32.557  35.864  30.011  1.00  0.00     0.261 C 
BRANCH  30  31
ATOM     31  O   UNL A   1      32.635  36.881  31.019  1.00  0.00    -0.460 OA
BRANCH  31  32
ATOM     32  C   UNL A   1      32.560  36.420  32.279  1.00  0.00     0.338 C 
ATOM     33  O   UNL A   1      31.807  36.800  33.167  1.00  0.00    -0.246 OA
BRANCH  32  34
ATOM     34  C   UNL A   1      33.601  35.400  32.477  1.00  0.00     0.060 A 
ATOM     35  C   UNL A   1      33.282  34.094  32.873  1.00  0.00     0.016 A 
ATOM     36  C   UNL A   1      34.930  35.799  32.347  1.00  0.00     0.016 A 
ATOM     37  C   UNL A   1      34.307  33.198  33.195  1.00  0.00     0.010 A 
ATOM     38  C   UNL A   1      35.948  34.897  32.640  1.00  0.00     0.010 A 
ATOM     39  C   UNL A   1      35.647  33.604  33.102  1.00  0.00    -0.014 A 
BRANCH  39  40
ATOM     40  C   UNL A   1      36.767  32.748  33.561  1.00  0.00     0.031 A 
ATOM     41  C   UNL A   1      37.411  33.042  34.887  1.00  0.00     0.074 A 
ATOM     42  C   UNL A   1      37.262  31.786  32.764  1.00  0.00     0.049 A 
ATOM     43  N   UNL A   1      38.549  32.616  35.375  1.00  0.00    -0.248 NA
ATOM     44  C   UNL A   1      36.676  33.952  35.780  1.00  0.00     0.031 C 
ATOM     45  C   UNL A   1      36.703  31.386  31.474  1.00  0.00     0.029 A 
ATOM     46  N   UNL A   1      38.379  31.000  32.907  1.00  0.00    -0.354 N 
ATOM     47  C   UNL A   1      38.681  33.228  36.614  1.00  0.00     0.074 A 
ATOM     48  C   UNL A   1      37.512  34.060  36.804  1.00  0.00     0.031 C 
ATOM     49  C   UNL A   1      37.495  30.447  30.929  1.00  0.00     0.029 A 
ATOM     50  C   UNL A   1      38.645  30.227  31.804  1.00  0.00     0.049 A 
ATOM     51  H   UNL A   1      38.934  30.991  33.721  1.00  0.00     0.167 HD
ATOM     52  C   UNL A   1      39.692  33.108  37.508  1.00  0.00     0.037 A 
ATOM     53  C   UNL A   1      39.719  29.468  31.512  1.00  0.00     0.037 A 
ATOM     54  C   UNL A   1      40.848  32.272  37.311  1.00  0.00     0.049 A 
ATOM     55  C   UNL A   1      40.856  29.394  32.497  1.00  0.00     0.074 A 
ATOM     56  C   UNL A   1      41.929  32.076  38.153  1.00  0.00     0.029 A 
ATOM     57  N   UNL A   1      41.070  31.490  36.187  1.00  0.00    -0.354 N 
ATOM     58  N   UNL A   1      40.988  29.987  33.658  1.00  0.00    -0.248 NA
ATOM     59  C   UNL A   1      41.999  28.548  32.124  1.00  0.00     0.031 C 
ATOM     60  C   UNL A   1      42.823  31.203  37.523  1.00  0.00     0.029 A 
ATOM     61  C   UNL A   1      42.276  30.819  36.309  1.00  0.00     0.049 A 
ATOM     62  H   UNL A   1      40.461  31.422  35.417  1.00  0.00     0.167 HD
ATOM     63  C   UNL A   1      42.212  29.571  34.165  1.00  0.00     0.074 A 
ATOM     64  C   UNL A   1      42.778  28.661  33.190  1.00  0.00     0.031 C 
ATOM     65  C   UNL A   1      42.816  29.911  35.330  1.00  0.00     0.037 A 
BRANCH  52  66
ATOM     66  C   UNL A   1      39.610  33.914  38.771  1.00  0.00     0.064 A 
ATOM     67  C   UNL A   1      40.209  35.178  38.879  1.00  0.00     0.173 A 
ATOM     68  C   UNL A   1      38.876  33.440  39.869  1.00  0.00     0.173 A 
ATOM     69  F   UNL A   1      40.934  35.670  37.862  1.00  0.00    -0.203 F 
ATOM     70  C   UNL A   1      40.090  35.930  40.045  1.00  0.00     0.198 A 
ATOM     71  C   UNL A   1      38.737  34.206  41.024  1.00  0.00     0.198 A 
ATOM     72  F   UNL A   1      38.279  32.240  39.816  1.00  0.00    -0.203 F 
ATOM     73  F   UNL A   1      40.699  37.120  40.138  1.00  0.00    -0.200 F 
ATOM     74  C   UNL A   1      39.347  35.448  41.113  1.00  0.00     0.200 A 
ATOM     75  F   UNL A   1      38.009  33.744  42.050  1.00  0.00    -0.200 F 
ATOM     76  F   UNL A   1      39.223  36.179  42.230  1.00  0.00    -0.200 F 
ENDBRANCH  52  66
BRANCH  53  77
ATOM     77  C   UNL A   1      39.788  28.745  30.216  1.00  0.00     0.064 A 
ATOM     78  C   UNL A   1      39.273  27.448  30.086  1.00  0.00     0.173 A 
ATOM     79  C   UNL A   1      40.378  29.329  29.085  1.00  0.00     0.173 A 
ATOM     80  F   UNL A   1      38.724  26.838  31.147  1.00  0.00    -0.203 F 
ATOM     81  C   UNL A   1      39.359  26.757  28.880  1.00  0.00     0.198 A 
ATOM     82  C   UNL A   1      40.437  28.647  27.870  1.00  0.00     0.198 A 
ATOM     83  F   UNL A   1      40.889  30.567  29.156  1.00  0.00    -0.203 F 
ATOM     84  F   UNL A   1      38.902  25.499  28.797  1.00  0.00    -0.200 F 
ATOM     85  C   UNL A   1      39.935  27.359  27.771  1.00  0.00     0.200 A 
ATOM     86  F   UNL A   1      40.985  29.238  26.800  1.00  0.00    -0.200 F 
ATOM     87  F   UNL A   1      40.015  26.694  26.610  1.00  0.00    -0.200 F 
ENDBRANCH  53  77
BRANCH  65  88
ATOM     88  C   UNL A   1      44.134  29.262  35.631  1.00  0.00     0.064 A 
ATOM     89  C   UNL A   1      45.348  29.849  35.244  1.00  0.00     0.173 A 
ATOM     90  C   UNL A   1      44.183  28.053  36.340  1.00  0.00     0.173 A 
ATOM     91  F   UNL A   1      45.351  30.997  34.550  1.00  0.00    -0.203 F 
ATOM     92  C   UNL A   1      46.563  29.233  35.532  1.00  0.00     0.198 A 
ATOM     93  C   UNL A   1      45.401  27.454  36.650  1.00  0.00     0.198 A 
ATOM     94  F   UNL A   1      43.050  27.456  36.738  1.00  0.00    -0.203 F 
ATOM     95  F   UNL A   1      47.709  29.786  35.111  1.00  0.00    -0.200 F 
ATOM     96  C   UNL A   1      46.588  28.040  36.239  1.00  0.00     0.200 A 
ATOM     97  F   UNL A   1      45.424  26.306  37.342  1.00  0.00    -0.200 F 
ATOM     98  F   UNL A   1      47.759  27.449  36.517  1.00  0.00    -0.200 F 
ENDBRANCH  65  88
ENDBRANCH  39  40
ENDBRANCH  32  34
ENDBRANCH  31  32
ENDBRANCH  30  31
ENDBRANCH  29  30
ENDBRANCH  28  29
ENDBRANCH  27  28
ENDBRANCH   1  27
TORSDOF 21
ENDMDL
MODEL 3
REMARK VINA RESULT:     -10.4      1.171      1.994
REMARK SMILES CN(Cc1ccccc1Br)C(=O)N[C@H]1C=C[C@H](C(=O)OCCOCCOCCOC(=O)c2ccc(-c3c4nc(c(-c5c(F)c(F)c(F)c(F)c5F)c5ccc([nH]5)c(-c5c(F)c(F)c(F)c(F)c5F)c5nc(c(-c6c(F)c(F)c(F)c(F)c6F)c6ccc3[nH]6)C=C5)C=C4)cc2)C1
REMARK SMILES IDX 24 1 23 2 22 3 21 4 20 5 18 6 19 7 17 8 14 9 15 10 95 11
REMARK SMILES IDX 16 12 13 13 11 14 12 15 2 17 1 18 3 19 4 20 5 21 9 22 6 23
REMARK SMILES IDX 8 24 10 25 7 26 25 27 26 28 27 29 28 30 29 31 30 32 31 33
REMARK SMILES IDX 32 34 33 35 94 36 34 37 93 38 35 39 36 40 37 41 87 42 38 43
REMARK SMILES IDX 92 44 86 45 88 46 39 47 91 48 85 49 84 50 40 52 72 53 52 54
REMARK SMILES IDX 71 55 53 56 56 57 70 58 89 59 54 60 55 61 69 63 90 64 57 65
REMARK SMILES IDX 41 66 42 67 50 68 43 69 44 70 48 71 51 72 45 73 46 74 49 75
REMARK SMILES IDX 47 76 73 77 74 78 82 79 75 80 76 81 80 82 83 83 77 84 78 85
REMARK SMILES IDX 81 86 79 87 58 88 59 89 67 90 60 91 61 92 65 93 68 94 62 95
REMARK SMILES IDX 63 96 66 97 64 98
REMARK H PARENT 13 16 88 51 56 62
REMARK Flexibility Score: inf
ROOT
ATOM      1  C   UNL A   1      35.686  32.228  28.100  1.00  0.00     0.188 C 
ENDROOT
BRANCH   1   2
ATOM      2  O   UNL A   1      34.733  31.231  28.453  1.00  0.00    -0.376 OA
BRANCH   2   3
ATOM      3  C   UNL A   1      33.735  30.892  27.499  1.00  0.00     0.202 C 
BRANCH   3   4
ATOM      4  C   UNL A   1      33.509  29.396  27.305  1.00  0.00     0.261 C 
BRANCH   4   5
ATOM      5  O   UNL A   1      32.456  29.112  26.365  1.00  0.00    -0.463 OA
BRANCH   5   6
ATOM      6  C   UNL A   1      31.770  27.956  26.572  1.00  0.00     0.312 C 
ATOM      7  O   UNL A   1      31.239  27.645  27.633  1.00  0.00    -0.252 OA
BRANCH   6   8
ATOM      8  C   UNL A   1      31.773  27.034  25.352  1.00  0.00     0.124 C 
ATOM      9  C   UNL A   1      33.865  26.096  24.403  1.00  0.00     0.107 C 
ATOM     10  C   UNL A   1      33.410  27.320  23.675  1.00  0.00    -0.006 C 
ATOM     11  C   UNL A   1      32.702  25.811  25.369  1.00  0.00     0.048 C 
ATOM     12  C   UNL A   1      32.268  27.808  24.165  1.00  0.00    -0.014 C 
BRANCH   9  13
ATOM     13  N   UNL A   1      34.046  25.057  23.417  1.00  0.00    -0.332 N 
ATOM     14  C   UNL A   1      34.535  23.806  23.415  1.00  0.00     0.317 C 
ATOM     15  O   UNL A   1      34.302  23.170  22.381  1.00  0.00    -0.249 OA
ATOM     16  H   UNL A   1      33.734  25.334  22.525  1.00  0.00     0.165 HD
BRANCH  14  17
ATOM     17  N   UNL A   1      35.236  23.264  24.452  1.00  0.00    -0.324 N 
ATOM     18  C   UNL A   1      36.618  23.709  24.611  1.00  0.00     0.149 C 
BRANCH  17  19
ATOM     19  C   UNL A   1      34.765  22.382  25.521  1.00  0.00     0.157 C 
BRANCH  19  20
ATOM     20  C   UNL A   1      34.280  21.011  25.086  1.00  0.00    -0.014 A 
ATOM     21  C   UNL A   1      35.185  19.948  24.898  1.00  0.00     0.007 A 
ATOM     22  C   UNL A   1      32.905  20.718  24.968  1.00  0.00     0.022 A 
ATOM     23  C   UNL A   1      34.745  18.655  24.605  1.00  0.00     0.000 A 
ATOM     24  C   UNL A   1      32.469  19.421  24.670  1.00  0.00     0.016 A 
ATOM     25  Br  UNL A   1      31.547  22.026  25.218  1.00  0.00    -0.050 Br
ATOM     26  C   UNL A   1      33.387  18.390  24.496  1.00  0.00     0.001 A 
ENDBRANCH  19  20
ENDBRANCH  17  19
ENDBRANCH  14  17
ENDBRANCH   9  13
ENDBRANCH   6   8
ENDBRANCH   5   6
ENDBRANCH   4   5
ENDBRANCH   3   4
ENDBRANCH   2   3
ENDBRANCH   1   2
BRANCH   1  27
ATOM     27  C   UNL A   1      35.597  33.596  28.799  1.00  0.00     0.188 C 
BRANCH  27  28
ATOM     28  O   UNL A   1      34.310  34.100  29.143  1.00  0.00    -0.376 OA
BRANCH  28  29
ATOM     29  C   UNL A   1      33.954  35.391  28.656  1.00  0.00     0.202 C 
BRANCH  29  30
ATOM     30  C   UNL A   1      32.936  36.119  29.523  1.00  0.00     0.261 C 
BRANCH  30  31
ATOM     31  O   UNL A   1      32.458  35.238  30.549  1.00  0.00    -0.460 OA
BRANCH  31  32
ATOM     32  C   UNL A   1      32.593  35.717  31.798  1.00  0.00     0.338 C 
ATOM     33  O   UNL A   1      31.932  36.600  32.332  1.00  0.00    -0.246 OA
BRANCH  32  34
ATOM     34  C   UNL A   1      33.740  35.060  32.441  1.00  0.00     0.060 A 
ATOM     35  C   UNL A   1      35.021  35.628  32.412  1.00  0.00     0.016 A 
ATOM     36  C   UNL A   1      33.533  33.802  33.004  1.00  0.00     0.016 A 
ATOM     37  C   UNL A   1      36.112  34.902  32.904  1.00  0.00     0.010 A 
ATOM     38  C   UNL A   1      34.615  33.094  33.518  1.00  0.00     0.010 A 
ATOM     39  C   UNL A   1      35.916  33.620  33.438  1.00  0.00    -0.014 A 
BRANCH  39  40
ATOM     40  C   UNL A   1      37.047  32.751  33.845  1.00  0.00     0.031 A 
ATOM     41  C   UNL A   1      37.749  33.030  35.145  1.00  0.00     0.074 A 
ATOM     42  C   UNL A   1      37.500  31.791  33.021  1.00  0.00     0.049 A 
ATOM     43  N   UNL A   1      38.902  32.592  35.581  1.00  0.00    -0.248 NA
ATOM     44  C   UNL A   1      37.060  33.941  36.074  1.00  0.00     0.031 C 
ATOM     45  C   UNL A   1      36.884  31.404  31.754  1.00  0.00     0.029 A 
ATOM     46  N   UNL A   1      38.614  30.994  33.113  1.00  0.00    -0.354 N 
ATOM     47  C   UNL A   1      39.092  33.194  36.818  1.00  0.00     0.074 A 
ATOM     48  C   UNL A   1      37.939  34.035  37.062  1.00  0.00     0.031 C 
ATOM     49  C   UNL A   1      37.644  30.462  31.169  1.00  0.00     0.029 A 
ATOM     50  C   UNL A   1      38.827  30.226  31.994  1.00  0.00     0.049 A 
ATOM     51  H   UNL A   1      39.203  30.975  33.902  1.00  0.00     0.167 HD
ATOM     52  C   UNL A   1      40.139  33.059  37.667  1.00  0.00     0.037 A 
ATOM     53  C   UNL A   1      39.881  29.461  31.652  1.00  0.00     0.037 A 
ATOM     54  C   UNL A   1      41.278  32.215  37.417  1.00  0.00     0.049 A 
ATOM     55  C   UNL A   1      41.058  29.370  32.588  1.00  0.00     0.074 A 
ATOM     56  C   UNL A   1      42.392  32.005  38.211  1.00  0.00     0.029 A 
ATOM     57  N   UNL A   1      41.446  31.439  36.279  1.00  0.00    -0.354 N 
ATOM     58  N   UNL A   1      41.244  29.955  33.746  1.00  0.00    -0.248 NA
ATOM     59  C   UNL A   1      42.177  28.517  32.162  1.00  0.00     0.031 C 
ATOM     60  C   UNL A   1      43.250  31.128  37.538  1.00  0.00     0.029 A 
ATOM     61  C   UNL A   1      42.650  30.757  36.346  1.00  0.00     0.049 A 
ATOM     62  H   UNL A   1      40.804  31.382  35.534  1.00  0.00     0.167 HD
ATOM     63  C   UNL A   1      42.484  29.524  34.199  1.00  0.00     0.074 A 
ATOM     64  C   UNL A   1      43.001  28.616  33.195  1.00  0.00     0.031 C 
ATOM     65  C   UNL A   1      43.140  29.851  35.339  1.00  0.00     0.037 A 
BRANCH  52  66
ATOM     66  C   UNL A   1      40.117  33.858  38.937  1.00  0.00     0.064 A 
ATOM     67  C   UNL A   1      40.747  35.107  39.034  1.00  0.00     0.173 A 
ATOM     68  C   UNL A   1      39.410  33.392  40.057  1.00  0.00     0.173 A 
ATOM     69  F   UNL A   1      41.448  35.591  37.997  1.00  0.00    -0.203 F 
ATOM     70  C   UNL A   1      40.683  35.853  40.209  1.00  0.00     0.198 A 
ATOM     71  C   UNL A   1      39.327  34.152  41.220  1.00  0.00     0.198 A 
ATOM     72  F   UNL A   1      38.786  32.205  40.016  1.00  0.00    -0.203 F 
ATOM     73  F   UNL A   1      41.322  37.029  40.289  1.00  0.00    -0.200 F 
ATOM     74  C   UNL A   1      39.966  35.379  41.297  1.00  0.00     0.200 A 
ATOM     75  F   UNL A   1      38.624  33.698  42.268  1.00  0.00    -0.200 F 
ATOM     76  F   UNL A   1      39.896  36.104  42.423  1.00  0.00    -0.200 F 
ENDBRANCH  52  66
BRANCH  53  77
ATOM     77  C   UNL A   1      39.889  28.746  30.350  1.00  0.00     0.064 A 
ATOM     78  C   UNL A   1      40.432  29.343  29.204  1.00  0.00     0.173 A 
ATOM     79  C   UNL A   1      39.345  27.459  30.220  1.00  0.00     0.173 A 
ATOM     80  F   UNL A   1      40.938  30.583  29.272  1.00  0.00    -0.203 F 
ATOM     81  C   UNL A   1      40.416  28.687  27.975  1.00  0.00     0.198 A 
ATOM     82  C   UNL A   1      39.357  26.792  28.996  1.00  0.00     0.198 A 
ATOM     83  F   UNL A   1      38.810  26.845  31.285  1.00  0.00    -0.203 F 
ATOM     84  F   UNL A   1      40.898  29.301  26.885  1.00  0.00    -0.200 F 
ATOM     85  C   UNL A   1      39.885  27.410  27.872  1.00  0.00     0.200 A 
ATOM     86  F   UNL A   1      38.853  25.554  28.905  1.00  0.00    -0.200 F 
ATOM     87  F   UNL A   1      39.874  26.779  26.690  1.00  0.00    -0.200 F 
ENDBRANCH  53  77
BRANCH  65  88
ATOM     88  C   UNL A   1      44.464  29.189  35.580  1.00  0.00     0.064 A 
ATOM     89  C   UNL A   1      44.561  27.962  36.253  1.00  0.00     0.173 A 
ATOM     90  C   UNL A   1      45.646  29.777  35.107  1.00  0.00     0.173 A 
ATOM     91  F   UNL A   1      43.460  27.369  36.737  1.00  0.00    -0.203 F 
ATOM     92  C   UNL A   1      45.799  27.362  36.467  1.00  0.00     0.198 A 
ATOM     93  C   UNL A   1      46.879  29.161  35.300  1.00  0.00     0.198 A 
ATOM     94  F   UNL A   1      45.605  30.947  34.452  1.00  0.00    -0.203 F 
ATOM     95  F   UNL A   1      45.874  26.214  37.155  1.00  0.00    -0.200 F 
ATOM     96  C   UNL A   1      46.955  27.959  35.987  1.00  0.00     0.200 A 
ATOM     97  F   UNL A   1      47.995  29.733  34.826  1.00  0.00    -0.200 F 
ATOM     98  F   UNL A   1      48.146  27.378  36.193  1.00  0.00    -0.200 F 
ENDBRANCH  65  88
ENDBRANCH  39  40
ENDBRANCH  32  34
ENDBRANCH  31  32
ENDBRANCH  30  31
ENDBRANCH  29  30
ENDBRANCH  28  29
ENDBRANCH  27  28
ENDBRANCH   1  27
TORSDOF 21
ENDMDL
