MODEL 1
REMARK VINA RESULT:      -9.5      0.000      0.000
REMARK SMILES C/C(C(=O)OCCOCCOCCOC(=O)c1ccc(-c2c3nc(c(-c4c(F)c(F)c(F)c(F)c4F)c4ccc([nH]4)c(-c4c(F)c(F)c(F)c(F)c4F)c4nc(c(-c5c(F)c(F)c(F)c(F)c5F)c5ccc2[nH]5)C=C4)C=C3)cc1)=C1/CCCSC1
REMARK SMILES IDX 10 1 9 2 8 3 7 4 6 5 5 6 3 7 4 8 2 9 1 10 80 11 81 12 85 13
REMARK SMILES IDX 82 14 84 15 83 16 11 17 12 18 13 19 14 20 15 21 16 22 17 23
REMARK SMILES IDX 18 24 79 25 19 26 78 27 20 28 21 29 22 30 72 31 23 32 77 33
REMARK SMILES IDX 71 34 73 35 24 36 76 37 70 38 69 39 25 41 57 42 37 43 56 44
REMARK SMILES IDX 38 45 41 46 55 47 74 48 39 49 40 50 54 52 75 53 42 54 26 55
REMARK SMILES IDX 27 56 35 57 28 58 29 59 33 60 36 61 30 62 31 63 34 64 32 65
REMARK SMILES IDX 58 66 59 67 67 68 60 69 61 70 65 71 68 72 62 73 63 74 66 75
REMARK SMILES IDX 64 76 43 77 44 78 52 79 45 80 46 81 50 82 53 83 47 84 48 85
REMARK SMILES IDX 51 86 49 87
REMARK H PARENT 73 40 41 51
REMARK Flexibility Score: inf
ROOT
ATOM      1  C   UNL A   1      43.689  18.567  25.372  1.00  0.00     0.188 C 
ENDROOT
BRANCH   1   2
ATOM      2  C   UNL A   1      44.771  19.143  24.436  1.00  0.00     0.188 C 
BRANCH   2   3
ATOM      3  O   UNL A   1      44.530  20.369  23.779  1.00  0.00    -0.376 OA
BRANCH   3   4
ATOM      4  C   UNL A   1      44.963  21.597  24.341  1.00  0.00     0.202 C 
BRANCH   4   5
ATOM      5  C   UNL A   1      45.536  21.766  25.759  1.00  0.00     0.261 C 
BRANCH   5   6
ATOM      6  O   UNL A   1      46.395  22.889  25.954  1.00  0.00    -0.460 OA
BRANCH   6   7
ATOM      7  C   UNL A   1      45.915  23.879  26.748  1.00  0.00     0.333 C 
ATOM      8  O   UNL A   1      45.736  23.824  27.954  1.00  0.00    -0.247 OA
BRANCH   7   9
ATOM      9  C   UNL A   1      45.702  25.108  25.929  1.00  0.00     0.034 C 
ATOM     10  C   UNL A   1      44.312  25.268  25.376  1.00  0.00     0.052 C 
ATOM     11  C   UNL A   1      46.713  25.992  25.727  1.00  0.00    -0.050 C 
ATOM     12  C   UNL A   1      48.141  25.795  26.217  1.00  0.00     0.033 C 
ATOM     13  C   UNL A   1      46.490  27.322  25.041  1.00  0.00     0.101 C 
ATOM     14  C   UNL A   1      49.199  25.956  25.119  1.00  0.00     0.015 C 
ATOM     15  S   UNL A   1      47.539  27.476  23.574  1.00  0.00    -0.158 SA
ATOM     16  C   UNL A   1      49.139  27.299  24.406  1.00  0.00     0.070 C 
ENDBRANCH   7   9
ENDBRANCH   6   7
ENDBRANCH   5   6
ENDBRANCH   4   5
ENDBRANCH   3   4
ENDBRANCH   2   3
ENDBRANCH   1   2
BRANCH   1  17
ATOM     17  O   UNL A   1      42.379  19.096  25.366  1.00  0.00    -0.376 OA
BRANCH  17  18
ATOM     18  C   UNL A   1      41.933  19.906  26.442  1.00  0.00     0.202 C 
BRANCH  18  19
ATOM     19  C   UNL A   1      41.437  21.355  26.280  1.00  0.00     0.261 C 
BRANCH  19  20
ATOM     20  O   UNL A   1      40.331  21.758  27.094  1.00  0.00    -0.460 OA
BRANCH  20  21
ATOM     21  C   UNL A   1      39.432  22.571  26.492  1.00  0.00     0.338 C 
ATOM     22  O   UNL A   1      38.500  22.247  25.765  1.00  0.00    -0.246 OA
BRANCH  21  23
ATOM     23  C   UNL A   1      39.622  23.948  26.976  1.00  0.00     0.060 A 
ATOM     24  C   UNL A   1      40.198  24.889  26.112  1.00  0.00     0.016 A 
ATOM     25  C   UNL A   1      39.271  24.306  28.279  1.00  0.00     0.016 A 
ATOM     26  C   UNL A   1      40.424  26.193  26.551  1.00  0.00     0.010 A 
ATOM     27  C   UNL A   1      39.522  25.608  28.725  1.00  0.00     0.010 A 
ATOM     28  C   UNL A   1      40.111  26.554  27.868  1.00  0.00    -0.014 A 
BRANCH  28  29
ATOM     29  C   UNL A   1      40.526  27.881  28.383  1.00  0.00     0.031 A 
ATOM     30  C   UNL A   1      41.984  28.138  28.632  1.00  0.00     0.074 A 
ATOM     31  C   UNL A   1      39.623  28.852  28.605  1.00  0.00     0.049 A 
ATOM     32  N   UNL A   1      42.567  29.199  29.126  1.00  0.00    -0.248 NA
ATOM     33  C   UNL A   1      42.906  27.048  28.279  1.00  0.00     0.031 C 
ATOM     34  C   UNL A   1      38.189  28.737  28.366  1.00  0.00     0.029 A 
ATOM     35  N   UNL A   1      39.785  30.128  29.087  1.00  0.00    -0.354 N 
ATOM     36  C   UNL A   1      43.922  28.904  29.153  1.00  0.00     0.074 A 
ATOM     37  C   UNL A   1      44.074  27.559  28.639  1.00  0.00     0.031 C 
ATOM     38  C   UNL A   1      37.597  29.899  28.693  1.00  0.00     0.029 A 
ATOM     39  C   UNL A   1      38.606  30.821  29.215  1.00  0.00     0.049 A 
ATOM     40  H   UNL A   1      40.662  30.510  29.318  1.00  0.00     0.167 HD
ATOM     41  C   UNL A   1      44.948  29.683  29.575  1.00  0.00     0.037 A 
ATOM     42  C   UNL A   1      38.367  32.045  29.727  1.00  0.00     0.037 A 
ATOM     43  C   UNL A   1      44.794  31.011  30.106  1.00  0.00     0.049 A 
ATOM     44  C   UNL A   1      39.518  32.858  30.268  1.00  0.00     0.074 A 
ATOM     45  C   UNL A   1      45.773  31.875  30.566  1.00  0.00     0.029 A 
ATOM     46  N   UNL A   1      43.581  31.665  30.263  1.00  0.00    -0.354 N 
ATOM     47  N   UNL A   1      40.800  32.578  30.282  1.00  0.00    -0.248 NA
ATOM     48  C   UNL A   1      39.187  34.155  30.878  1.00  0.00     0.031 C 
ATOM     49  C   UNL A   1      45.147  33.026  31.056  1.00  0.00     0.029 A 
ATOM     50  C   UNL A   1      43.784  32.909  30.840  1.00  0.00     0.049 A 
ATOM     51  H   UNL A   1      42.704  31.299  30.003  1.00  0.00     0.167 HD
ATOM     52  C   UNL A   1      41.425  33.668  30.876  1.00  0.00     0.074 A 
ATOM     53  C   UNL A   1      40.386  34.624  31.191  1.00  0.00     0.031 C 
ATOM     54  C   UNL A   1      42.742  33.858  31.140  1.00  0.00     0.037 A 
BRANCH  41  55
ATOM     55  C   UNL A   1      46.326  29.091  29.525  1.00  0.00     0.064 A 
ATOM     56  C   UNL A   1      46.847  28.337  30.586  1.00  0.00     0.173 A 
ATOM     57  C   UNL A   1      47.126  29.263  28.385  1.00  0.00     0.173 A 
ATOM     58  F   UNL A   1      46.127  28.157  31.704  1.00  0.00    -0.203 F 
ATOM     59  C   UNL A   1      48.130  27.800  30.520  1.00  0.00     0.198 A 
ATOM     60  C   UNL A   1      48.396  28.699  28.310  1.00  0.00     0.198 A 
ATOM     61  F   UNL A   1      46.674  29.972  27.340  1.00  0.00    -0.203 F 
ATOM     62  F   UNL A   1      48.628  27.126  31.566  1.00  0.00    -0.200 F 
ATOM     63  C   UNL A   1      48.900  27.975  29.380  1.00  0.00     0.200 A 
ATOM     64  F   UNL A   1      49.133  28.858  27.202  1.00  0.00    -0.200 F 
ATOM     65  F   UNL A   1      50.132  27.453  29.316  1.00  0.00    -0.200 F 
ENDBRANCH  41  55
BRANCH  42  66
ATOM     66  C   UNL A   1      36.979  32.576  29.793  1.00  0.00     0.064 A 
ATOM     67  C   UNL A   1      36.438  33.322  28.735  1.00  0.00     0.173 A 
ATOM     68  C   UNL A   1      36.179  32.389  30.930  1.00  0.00     0.173 A 
ATOM     69  F   UNL A   1      37.172  33.555  27.637  1.00  0.00    -0.203 F 
ATOM     70  C   UNL A   1      35.164  33.878  28.823  1.00  0.00     0.198 A 
ATOM     71  C   UNL A   1      34.891  32.917  31.003  1.00  0.00     0.198 A 
ATOM     72  F   UNL A   1      36.648  31.690  31.975  1.00  0.00    -0.203 F 
ATOM     73  F   UNL A   1      34.696  34.637  27.821  1.00  0.00    -0.200 F 
ATOM     74  C   UNL A   1      34.389  33.671  29.954  1.00  0.00     0.200 A 
ATOM     75  F   UNL A   1      34.143  32.704  32.094  1.00  0.00    -0.200 F 
ATOM     76  F   UNL A   1      33.164  34.207  30.038  1.00  0.00    -0.200 F 
ENDBRANCH  42  66
BRANCH  54  77
ATOM     77  C   UNL A   1      43.146  35.165  31.765  1.00  0.00     0.064 A 
ATOM     78  C   UNL A   1      43.587  36.251  30.993  1.00  0.00     0.173 A 
ATOM     79  C   UNL A   1      43.043  35.349  33.153  1.00  0.00     0.173 A 
ATOM     80  F   UNL A   1      43.717  36.125  29.664  1.00  0.00    -0.203 F 
ATOM     81  C   UNL A   1      43.937  37.460  31.590  1.00  0.00     0.198 A 
ATOM     82  C   UNL A   1      43.360  36.570  33.742  1.00  0.00     0.198 A 
ATOM     83  F   UNL A   1      42.619  34.347  33.938  1.00  0.00    -0.203 F 
ATOM     84  F   UNL A   1      44.403  38.467  30.838  1.00  0.00    -0.200 F 
ATOM     85  C   UNL A   1      43.814  37.621  32.962  1.00  0.00     0.200 A 
ATOM     86  F   UNL A   1      43.226  36.727  35.066  1.00  0.00    -0.200 F 
ATOM     87  F   UNL A   1      44.141  38.788  33.532  1.00  0.00    -0.200 F 
ENDBRANCH  54  77
ENDBRANCH  28  29
ENDBRANCH  21  23
ENDBRANCH  20  21
ENDBRANCH  19  20
ENDBRANCH  18  19
ENDBRANCH  17  18
ENDBRANCH   1  17
TORSDOF 17
ENDMDL
MODEL 2
REMARK VINA RESULT:      -9.2      4.501      6.981
REMARK SMILES C/C(C(=O)OCCOCCOCCOC(=O)c1ccc(-c2c3nc(c(-c4c(F)c(F)c(F)c(F)c4F)c4ccc([nH]4)c(-c4c(F)c(F)c(F)c(F)c4F)c4nc(c(-c5c(F)c(F)c(F)c(F)c5F)c5ccc2[nH]5)C=C4)C=C3)cc1)=C1/CCCSC1
REMARK SMILES IDX 10 1 9 2 8 3 7 4 6 5 5 6 3 7 4 8 2 9 1 10 80 11 81 12 85 13
REMARK SMILES IDX 82 14 84 15 83 16 11 17 12 18 13 19 14 20 15 21 16 22 17 23
REMARK SMILES IDX 18 24 79 25 19 26 78 27 20 28 21 29 22 30 72 31 23 32 77 33
REMARK SMILES IDX 71 34 73 35 24 36 76 37 70 38 69 39 25 41 57 42 37 43 56 44
REMARK SMILES IDX 38 45 41 46 55 47 74 48 39 49 40 50 54 52 75 53 42 54 26 55
REMARK SMILES IDX 27 56 35 57 28 58 29 59 33 60 36 61 30 62 31 63 34 64 32 65
REMARK SMILES IDX 58 66 59 67 67 68 60 69 61 70 65 71 68 72 62 73 63 74 66 75
REMARK SMILES IDX 64 76 43 77 44 78 52 79 45 80 46 81 50 82 53 83 47 84 48 85
REMARK SMILES IDX 51 86 49 87
REMARK H PARENT 73 40 41 51
REMARK Flexibility Score: inf
ROOT
ATOM      1  C   UNL A   1      40.135  21.166  26.482  1.00  0.00     0.188 C 
ENDROOT
BRANCH   1   2
ATOM      2  C   UNL A   1      38.773  21.182  25.759  1.00  0.00     0.188 C 
BRANCH   2   3
ATOM      3  O   UNL A   1      38.325  22.380  25.164  1.00  0.00    -0.376 OA
BRANCH   3   4
ATOM      4  C   UNL A   1      36.948  22.723  25.159  1.00  0.00     0.202 C 
BRANCH   4   5
ATOM      5  C   UNL A   1      36.086  22.894  23.896  1.00  0.00     0.261 C 
BRANCH   5   6
ATOM      6  O   UNL A   1      34.683  22.691  24.067  1.00  0.00    -0.460 OA
BRANCH   6   7
ATOM      7  C   UNL A   1      33.869  23.541  23.393  1.00  0.00     0.333 C 
ATOM      8  O   UNL A   1      34.030  23.960  22.258  1.00  0.00    -0.247 OA
BRANCH   7   9
ATOM      9  C   UNL A   1      32.672  23.844  24.231  1.00  0.00     0.034 C 
ATOM     10  C   UNL A   1      31.439  23.053  23.888  1.00  0.00     0.052 C 
ATOM     11  C   UNL A   1      32.736  24.771  25.223  1.00  0.00    -0.050 C 
ATOM     12  C   UNL A   1      33.955  25.631  25.522  1.00  0.00     0.033 C 
ATOM     13  C   UNL A   1      31.594  24.987  26.192  1.00  0.00     0.101 C 
ATOM     14  C   UNL A   1      33.652  27.133  25.586  1.00  0.00     0.015 C 
ATOM     15  S   UNL A   1      31.014  26.701  26.135  1.00  0.00    -0.158 SA
ATOM     16  C   UNL A   1      32.575  27.496  26.596  1.00  0.00     0.070 C 
ENDBRANCH   7   9
ENDBRANCH   6   7
ENDBRANCH   5   6
ENDBRANCH   4   5
ENDBRANCH   3   4
ENDBRANCH   2   3
ENDBRANCH   1   2
BRANCH   1  17
ATOM     17  O   UNL A   1      41.140  20.249  26.101  1.00  0.00    -0.376 OA
BRANCH  17  18
ATOM     18  C   UNL A   1      42.497  20.501  26.426  1.00  0.00     0.202 C 
BRANCH  18  19
ATOM     19  C   UNL A   1      43.370  21.555  25.721  1.00  0.00     0.261 C 
BRANCH  19  20
ATOM     20  O   UNL A   1      42.691  22.655  25.105  1.00  0.00    -0.460 OA
BRANCH  20  21
ATOM     21  C   UNL A   1      43.386  23.815  25.060  1.00  0.00     0.338 C 
ATOM     22  O   UNL A   1      44.258  24.133  24.258  1.00  0.00    -0.246 OA
BRANCH  21  23
ATOM     23  C   UNL A   1      42.821  24.759  26.037  1.00  0.00     0.060 A 
ATOM     24  C   UNL A   1      43.380  26.041  26.130  1.00  0.00     0.016 A 
ATOM     25  C   UNL A   1      41.775  24.379  26.880  1.00  0.00     0.016 A 
ATOM     26  C   UNL A   1      42.892  26.948  27.070  1.00  0.00     0.010 A 
ATOM     27  C   UNL A   1      41.305  25.282  27.839  1.00  0.00     0.010 A 
ATOM     28  C   UNL A   1      41.868  26.567  27.947  1.00  0.00    -0.014 A 
BRANCH  28  29
ATOM     29  C   UNL A   1      41.485  27.465  29.063  1.00  0.00     0.031 A 
ATOM     30  C   UNL A   1      42.278  27.417  30.337  1.00  0.00     0.074 A 
ATOM     31  C   UNL A   1      40.462  28.328  28.938  1.00  0.00     0.049 A 
ATOM     32  N   UNL A   1      42.093  28.071  31.454  1.00  0.00    -0.248 NA
ATOM     33  C   UNL A   1      43.431  26.505  30.351  1.00  0.00     0.031 C 
ATOM     34  C   UNL A   1      39.644  28.495  27.742  1.00  0.00     0.029 A 
ATOM     35  N   UNL A   1      39.937  29.225  29.836  1.00  0.00    -0.354 N 
ATOM     36  C   UNL A   1      43.099  27.644  32.309  1.00  0.00     0.074 A 
ATOM     37  C   UNL A   1      43.883  26.665  31.586  1.00  0.00     0.031 C 
ATOM     38  C   UNL A   1      38.722  29.445  27.973  1.00  0.00     0.029 A 
ATOM     39  C   UNL A   1      38.851  29.915  29.352  1.00  0.00     0.049 A 
ATOM     40  H   UNL A   1      40.302  29.362  30.739  1.00  0.00     0.167 HD
ATOM     41  C   UNL A   1      43.343  28.030  33.585  1.00  0.00     0.037 A 
ATOM     42  C   UNL A   1      38.038  30.797  29.966  1.00  0.00     0.037 A 
ATOM     43  C   UNL A   1      42.550  28.987  34.310  1.00  0.00     0.049 A 
ATOM     44  C   UNL A   1      38.282  31.146  31.414  1.00  0.00     0.074 A 
ATOM     45  C   UNL A   1      42.715  29.436  35.609  1.00  0.00     0.029 A 
ATOM     46  N   UNL A   1      41.432  29.633  33.805  1.00  0.00    -0.354 N 
ATOM     47  N   UNL A   1      39.241  30.747  32.215  1.00  0.00    -0.248 NA
ATOM     48  C   UNL A   1      37.320  32.060  32.049  1.00  0.00     0.031 C 
ATOM     49  C   UNL A   1      41.663  30.307  35.908  1.00  0.00     0.029 A 
ATOM     50  C   UNL A   1      40.880  30.454  34.775  1.00  0.00     0.049 A 
ATOM     51  H   UNL A   1      41.081  29.524  32.891  1.00  0.00     0.167 HD
ATOM     52  C   UNL A   1      39.012  31.377  33.433  1.00  0.00     0.074 A 
ATOM     53  C   UNL A   1      37.835  32.201  33.261  1.00  0.00     0.031 C 
ATOM     54  C   UNL A   1      39.713  31.279  34.590  1.00  0.00     0.037 A 
BRANCH  41  55
ATOM     55  C   UNL A   1      44.491  27.372  34.294  1.00  0.00     0.064 A 
ATOM     56  C   UNL A   1      44.338  26.162  34.985  1.00  0.00     0.173 A 
ATOM     57  C   UNL A   1      45.768  27.954  34.260  1.00  0.00     0.173 A 
ATOM     58  F   UNL A   1      43.134  25.573  35.060  1.00  0.00    -0.203 F 
ATOM     59  C   UNL A   1      45.416  25.570  35.639  1.00  0.00     0.198 A 
ATOM     60  C   UNL A   1      46.849  27.345  34.889  1.00  0.00     0.198 A 
ATOM     61  F   UNL A   1      45.968  29.110  33.610  1.00  0.00    -0.203 F 
ATOM     62  F   UNL A   1      45.237  24.440  36.336  1.00  0.00    -0.200 F 
ATOM     63  C   UNL A   1      46.671  26.158  35.585  1.00  0.00     0.200 A 
ATOM     64  F   UNL A   1      48.063  27.907  34.824  1.00  0.00    -0.200 F 
ATOM     65  F   UNL A   1      47.708  25.586  36.210  1.00  0.00    -0.200 F 
ENDBRANCH  41  55
BRANCH  42  66
ATOM     66  C   UNL A   1      36.888  31.395  29.235  1.00  0.00     0.064 A 
ATOM     67  C   UNL A   1      36.871  32.758  28.902  1.00  0.00     0.173 A 
ATOM     68  C   UNL A   1      35.762  30.630  28.893  1.00  0.00     0.173 A 
ATOM     69  F   UNL A   1      37.908  33.541  29.234  1.00  0.00    -0.203 F 
ATOM     70  C   UNL A   1      35.765  33.334  28.280  1.00  0.00     0.198 A 
ATOM     71  C   UNL A   1      34.672  31.200  28.239  1.00  0.00     0.198 A 
ATOM     72  F   UNL A   1      35.722  29.323  29.193  1.00  0.00    -0.203 F 
ATOM     73  F   UNL A   1      35.751  34.651  28.028  1.00  0.00    -0.200 F 
ATOM     74  C   UNL A   1      34.669  32.554  27.943  1.00  0.00     0.200 A 
ATOM     75  F   UNL A   1      33.621  30.438  27.906  1.00  0.00    -0.200 F 
ATOM     76  F   UNL A   1      33.607  33.109  27.345  1.00  0.00    -0.200 F 
ENDBRANCH  42  66
BRANCH  54  77
ATOM     77  C   UNL A   1      39.254  32.112  35.755  1.00  0.00     0.064 A 
ATOM     78  C   UNL A   1      39.705  33.426  35.949  1.00  0.00     0.173 A 
ATOM     79  C   UNL A   1      38.311  31.603  36.663  1.00  0.00     0.173 A 
ATOM     80  F   UNL A   1      40.616  33.957  35.120  1.00  0.00    -0.203 F 
ATOM     81  C   UNL A   1      39.251  34.189  37.024  1.00  0.00     0.198 A 
ATOM     82  C   UNL A   1      37.834  32.380  37.715  1.00  0.00     0.198 A 
ATOM     83  F   UNL A   1      37.840  30.355  36.520  1.00  0.00    -0.203 F 
ATOM     84  F   UNL A   1      39.733  35.424  37.218  1.00  0.00    -0.200 F 
ATOM     85  C   UNL A   1      38.310  33.668  37.900  1.00  0.00     0.200 A 
ATOM     86  F   UNL A   1      36.913  31.880  38.551  1.00  0.00    -0.200 F 
ATOM     87  F   UNL A   1      37.867  34.407  38.926  1.00  0.00    -0.200 F 
ENDBRANCH  54  77
ENDBRANCH  28  29
ENDBRANCH  21  23
ENDBRANCH  20  21
ENDBRANCH  19  20
ENDBRANCH  18  19
ENDBRANCH  17  18
ENDBRANCH   1  17
TORSDOF 17
ENDMDL
MODEL 3
REMARK VINA RESULT:      -9.2      0.678      2.106
REMARK SMILES C/C(C(=O)OCCOCCOCCOC(=O)c1ccc(-c2c3nc(c(-c4c(F)c(F)c(F)c(F)c4F)c4ccc([nH]4)c(-c4c(F)c(F)c(F)c(F)c4F)c4nc(c(-c5c(F)c(F)c(F)c(F)c5F)c5ccc2[nH]5)C=C4)C=C3)cc1)=C1/CCCSC1
REMARK SMILES IDX 10 1 9 2 8 3 7 4 6 5 5 6 3 7 4 8 2 9 1 10 80 11 81 12 85 13
REMARK SMILES IDX 82 14 84 15 83 16 11 17 12 18 13 19 14 20 15 21 16 22 17 23
REMARK SMILES IDX 18 24 79 25 19 26 78 27 20 28 21 29 22 30 72 31 23 32 77 33
REMARK SMILES IDX 71 34 73 35 24 36 76 37 70 38 69 39 25 41 57 42 37 43 56 44
REMARK SMILES IDX 38 45 41 46 55 47 74 48 39 49 40 50 54 52 75 53 42 54 26 55
REMARK SMILES IDX 27 56 35 57 28 58 29 59 33 60 36 61 30 62 31 63 34 64 32 65
REMARK SMILES IDX 58 66 59 67 67 68 60 69 61 70 65 71 68 72 62 73 63 74 66 75
REMARK SMILES IDX 64 76 43 77 44 78 52 79 45 80 46 81 50 82 53 83 47 84 48 85
REMARK SMILES IDX 51 86 49 87
REMARK H PARENT 73 40 41 51
REMARK Flexibility Score: inf
ROOT
ATOM      1  C   UNL A   1      43.383  18.496  25.785  1.00  0.00     0.188 C 
ENDROOT
BRANCH   1   2
ATOM      2  C   UNL A   1      44.429  18.920  24.733  1.00  0.00     0.188 C 
BRANCH   2   3
ATOM      3  O   UNL A   1      44.244  20.128  24.028  1.00  0.00    -0.376 OA
BRANCH   3   4
ATOM      4  C   UNL A   1      44.914  21.315  24.422  1.00  0.00     0.202 C 
BRANCH   4   5
ATOM      5  C   UNL A   1      45.437  21.604  25.840  1.00  0.00     0.261 C 
BRANCH   5   6
ATOM      6  O   UNL A   1      46.121  22.845  26.012  1.00  0.00    -0.460 OA
BRANCH   6   7
ATOM      7  C   UNL A   1      45.596  23.696  26.929  1.00  0.00     0.333 C 
ATOM      8  O   UNL A   1      45.477  23.493  28.127  1.00  0.00    -0.247 OA
BRANCH   7   9
ATOM      9  C   UNL A   1      45.245  24.984  26.262  1.00  0.00     0.034 C 
ATOM     10  C   UNL A   1      43.849  25.050  25.705  1.00  0.00     0.052 C 
ATOM     11  C   UNL A   1      46.147  25.997  26.189  1.00  0.00    -0.050 C 
ATOM     12  C   UNL A   1      47.586  25.907  26.679  1.00  0.00     0.033 C 
ATOM     13  C   UNL A   1      45.774  27.367  25.666  1.00  0.00     0.101 C 
ATOM     14  C   UNL A   1      48.623  26.323  25.629  1.00  0.00     0.015 C 
ATOM     15  S   UNL A   1      46.805  27.820  24.249  1.00  0.00    -0.158 SA
ATOM     16  C   UNL A   1      48.410  27.727  25.085  1.00  0.00     0.070 C 
ENDBRANCH   7   9
ENDBRANCH   6   7
ENDBRANCH   5   6
ENDBRANCH   4   5
ENDBRANCH   3   4
ENDBRANCH   2   3
ENDBRANCH   1   2
BRANCH   1  17
ATOM     17  O   UNL A   1      42.046  18.938  25.686  1.00  0.00    -0.376 OA
BRANCH  17  18
ATOM     18  C   UNL A   1      41.543  19.902  26.596  1.00  0.00     0.202 C 
BRANCH  18  19
ATOM     19  C   UNL A   1      41.052  21.302  26.184  1.00  0.00     0.261 C 
BRANCH  19  20
ATOM     20  O   UNL A   1      40.081  21.926  27.031  1.00  0.00    -0.460 OA
BRANCH  20  21
ATOM     21  C   UNL A   1      39.272  22.824  26.424  1.00  0.00     0.338 C 
ATOM     22  O   UNL A   1      38.367  22.596  25.629  1.00  0.00    -0.246 OA
BRANCH  21  23
ATOM     23  C   UNL A   1      39.514  24.159  26.993  1.00  0.00     0.060 A 
ATOM     24  C   UNL A   1      40.216  25.097  26.224  1.00  0.00     0.016 A 
ATOM     25  C   UNL A   1      39.089  24.478  28.284  1.00  0.00     0.016 A 
ATOM     26  C   UNL A   1      40.495  26.360  26.746  1.00  0.00     0.010 A 
ATOM     27  C   UNL A   1      39.391  25.736  28.815  1.00  0.00     0.010 A 
ATOM     28  C   UNL A   1      40.105  26.679  28.054  1.00  0.00    -0.014 A 
BRANCH  28  29
ATOM     29  C   UNL A   1      40.568  27.947  28.667  1.00  0.00     0.031 A 
ATOM     30  C   UNL A   1      42.022  28.104  29.001  1.00  0.00     0.074 A 
ATOM     31  C   UNL A   1      39.710  28.955  28.905  1.00  0.00     0.049 A 
ATOM     32  N   UNL A   1      42.638  29.099  29.585  1.00  0.00    -0.248 NA
ATOM     33  C   UNL A   1      42.899  26.984  28.627  1.00  0.00     0.031 C 
ATOM     34  C   UNL A   1      38.286  28.939  28.591  1.00  0.00     0.029 A 
ATOM     35  N   UNL A   1      39.918  30.190  29.470  1.00  0.00    -0.354 N 
ATOM     36  C   UNL A   1      43.972  28.723  29.659  1.00  0.00     0.074 A 
ATOM     37  C   UNL A   1      44.074  27.404  29.072  1.00  0.00     0.031 C 
ATOM     38  C   UNL A   1      37.744  30.112  28.959  1.00  0.00     0.029 A 
ATOM     39  C   UNL A   1      38.774  30.942  29.584  1.00  0.00     0.049 A 
ATOM     40  H   UNL A   1      40.802  30.506  29.765  1.00  0.00     0.167 HD
ATOM     41  C   UNL A   1      45.016  29.415  30.175  1.00  0.00     0.037 A 
ATOM     42  C   UNL A   1      38.579  32.146  30.156  1.00  0.00     0.037 A 
ATOM     43  C   UNL A   1      44.910  30.717  30.778  1.00  0.00     0.049 A 
ATOM     44  C   UNL A   1      39.744  32.858  30.800  1.00  0.00     0.074 A 
ATOM     45  C   UNL A   1      45.910  31.494  31.335  1.00  0.00     0.029 A 
ATOM     46  N   UNL A   1      43.729  31.431  30.916  1.00  0.00    -0.354 N 
ATOM     47  N   UNL A   1      41.006  32.503  30.858  1.00  0.00    -0.248 NA
ATOM     48  C   UNL A   1      39.455  34.135  31.470  1.00  0.00     0.031 C 
ATOM     49  C   UNL A   1      45.326  32.650  31.863  1.00  0.00     0.029 A 
ATOM     50  C   UNL A   1      43.971  32.625  31.576  1.00  0.00     0.049 A 
ATOM     51  H   UNL A   1      42.847  31.133  30.593  1.00  0.00     0.167 HD
ATOM     52  C   UNL A   1      41.660  33.519  31.546  1.00  0.00     0.074 A 
ATOM     53  C   UNL A   1      40.661  34.514  31.867  1.00  0.00     0.031 C 
ATOM     54  C   UNL A   1      42.970  33.616  31.883  1.00  0.00     0.037 A 
BRANCH  41  55
ATOM     55  C   UNL A   1      46.360  28.747  30.155  1.00  0.00     0.064 A 
ATOM     56  C   UNL A   1      47.270  28.947  29.107  1.00  0.00     0.173 A 
ATOM     57  C   UNL A   1      46.749  27.912  31.213  1.00  0.00     0.173 A 
ATOM     58  F   UNL A   1      46.940  29.725  28.064  1.00  0.00    -0.203 F 
ATOM     59  C   UNL A   1      48.511  28.314  29.106  1.00  0.00     0.198 A 
ATOM     60  C   UNL A   1      48.001  27.305  31.224  1.00  0.00     0.198 A 
ATOM     61  F   UNL A   1      45.916  27.690  32.242  1.00  0.00    -0.203 F 
ATOM     62  F   UNL A   1      49.345  28.479  28.070  1.00  0.00    -0.200 F 
ATOM     63  C   UNL A   1      48.877  27.500  30.167  1.00  0.00     0.200 A 
ATOM     64  F   UNL A   1      48.359  26.530  32.257  1.00  0.00    -0.200 F 
ATOM     65  F   UNL A   1      50.073  26.896  30.168  1.00  0.00    -0.200 F 
ENDBRANCH  41  55
BRANCH  42  66
ATOM     66  C   UNL A   1      37.220  32.753  30.188  1.00  0.00     0.064 A 
ATOM     67  C   UNL A   1      36.326  32.474  31.232  1.00  0.00     0.173 A 
ATOM     68  C   UNL A   1      36.769  33.587  29.153  1.00  0.00     0.173 A 
ATOM     69  F   UNL A   1      36.696  31.658  32.230  1.00  0.00    -0.203 F 
ATOM     70  C   UNL A   1      35.030  32.985  31.227  1.00  0.00     0.198 A 
ATOM     71  C   UNL A   1      35.484  34.126  29.167  1.00  0.00     0.198 A 
ATOM     72  F   UNL A   1      37.580  33.881  28.125  1.00  0.00    -0.203 F 
ATOM     73  F   UNL A   1      34.177  32.653  32.207  1.00  0.00    -0.200 F 
ATOM     74  C   UNL A   1      34.611  33.815  30.198  1.00  0.00     0.200 A 
ATOM     75  F   UNL A   1      35.090  34.936  28.176  1.00  0.00    -0.200 F 
ATOM     76  F   UNL A   1      33.365  34.306  30.194  1.00  0.00    -0.200 F 
ENDBRANCH  42  66
BRANCH  54  77
ATOM     77  C   UNL A   1      43.413  34.858  32.603  1.00  0.00     0.064 A 
ATOM     78  C   UNL A   1      43.433  34.936  34.005  1.00  0.00     0.173 A 
ATOM     79  C   UNL A   1      43.871  35.972  31.881  1.00  0.00     0.173 A 
ATOM     80  F   UNL A   1      42.994  33.906  34.744  1.00  0.00    -0.203 F 
ATOM     81  C   UNL A   1      43.867  36.090  34.653  1.00  0.00     0.198 A 
ATOM     82  C   UNL A   1      44.336  37.111  32.533  1.00  0.00     0.198 A 
ATOM     83  F   UNL A   1      43.881  35.950  30.540  1.00  0.00    -0.203 F 
ATOM     84  F   UNL A   1      43.831  36.159  35.991  1.00  0.00    -0.200 F 
ATOM     85  C   UNL A   1      44.327  37.172  33.918  1.00  0.00     0.200 A 
ATOM     86  F   UNL A   1      44.794  38.149  31.820  1.00  0.00    -0.200 F 
ATOM     87  F   UNL A   1      44.753  38.277  34.544  1.00  0.00    -0.200 F 
ENDBRANCH  54  77
ENDBRANCH  28  29
ENDBRANCH  21  23
ENDBRANCH  20  21
ENDBRANCH  19  20
ENDBRANCH  18  19
ENDBRANCH  17  18
ENDBRANCH   1  17
TORSDOF 17
ENDMDL
