MODEL 1
REMARK VINA RESULT:      -8.2      0.000      0.000
REMARK SMILES CCCCCCNC(=O)Oc1cccc(-c2ccc([C@@H](C)C(=O)OCCOCCOCCOC(=O)c3ccc(-c4c5nc(c(-c6c(F)c(F)c(F)c(F)c6F)c6ccc([nH]6)c(-c6c(F)c(F)c(F)c(F)c6F)c6nc(c(-c7c(F)c(F)c(F)c(F)c7F)c7ccc4[nH]7)C=C6)C=C5)cc3)cc2O)c1
REMARK SMILES IDX 25 1 24 2 22 3 23 4 20 5 21 6 19 7 16 8 17 9 100 10 18 11
REMARK SMILES IDX 99 12 15 13 11 14 12 15 102 16 13 17 14 18 10 19 8 20 7 21
REMARK SMILES IDX 9 23 6 24 5 25 4 26 3 27 2 28 1 29 101 30 26 32 27 33 28 34
REMARK SMILES IDX 29 35 30 36 31 37 32 38 33 39 34 40 35 41 36 42 37 43 98 44
REMARK SMILES IDX 38 45 97 46 39 47 40 48 41 49 91 50 42 51 96 52 90 53 92 54
REMARK SMILES IDX 43 55 95 56 89 57 88 58 44 60 76 61 56 62 75 63 57 64 60 65
REMARK SMILES IDX 74 66 93 67 58 68 59 69 73 71 94 72 61 73 45 74 46 75 54 76
REMARK SMILES IDX 47 77 48 78 52 79 55 80 49 81 50 82 53 83 51 84 77 85 78 86
REMARK SMILES IDX 86 87 79 88 80 89 84 90 87 91 81 92 82 93 85 94 83 95 62 96
REMARK SMILES IDX 63 97 71 98 64 99 65 100 69 101 72 102 66 103 67 104 70 105
REMARK SMILES IDX 68 106
REMARK H PARENT 7 22 101 31 92 59 60 70
REMARK Flexibility Score: inf
ROOT
ATOM      1  C   UNL A   1      35.831  31.529  32.252  1.00  0.00     0.261 C 
ENDROOT
BRANCH   1   2
ATOM      2  O   UNL A   1      37.149  31.814  32.770  1.00  0.00    -0.463 OA
BRANCH   2   3
ATOM      3  C   UNL A   1      37.211  32.685  33.808  1.00  0.00     0.313 C 
ATOM      4  O   UNL A   1      36.893  32.388  34.960  1.00  0.00    -0.252 OA
BRANCH   3   5
ATOM      5  C   UNL A   1      37.699  34.095  33.481  1.00  0.00     0.126 C 
ATOM      6  C   UNL A   1      36.492  34.962  33.128  1.00  0.00     0.025 C 
BRANCH   5   7
ATOM      7  C   UNL A   1      38.837  34.336  32.490  1.00  0.00    -0.030 A 
ATOM      8  C   UNL A   1      40.903  34.644  30.510  1.00  0.00     0.024 A 
ATOM      9  C   UNL A   1      41.189  34.601  31.889  1.00  0.00     0.013 A 
ATOM     10  C   UNL A   1      39.549  34.545  30.151  1.00  0.00     0.123 A 
ATOM     11  C   UNL A   1      40.183  34.436  32.862  1.00  0.00     0.005 A 
ATOM     12  C   UNL A   1      38.542  34.397  31.116  1.00  0.00     0.051 A 
BRANCH   8  13
ATOM     13  C   UNL A   1      42.003  34.700  29.516  1.00  0.00    -0.011 A 
ATOM     14  C   UNL A   1      43.587  33.656  27.991  1.00  0.00     0.133 A 
ATOM     15  C   UNL A   1      44.236  34.871  27.782  1.00  0.00     0.047 A 
ATOM     16  C   UNL A   1      42.474  33.559  28.837  1.00  0.00     0.056 A 
ATOM     17  C   UNL A   1      43.762  36.012  28.418  1.00  0.00     0.004 A 
ATOM     18  C   UNL A   1      42.663  35.924  29.281  1.00  0.00     0.009 A 
BRANCH  14  19
ATOM     19  O   UNL A   1      44.212  32.519  27.444  1.00  0.00    -0.410 OA
BRANCH  19  20
ATOM     20  C   UNL A   1      44.550  32.525  26.099  1.00  0.00     0.412 C 
ATOM     21  N   UNL A   1      45.756  31.920  25.845  1.00  0.00    -0.321 N 
ATOM     22  H   UNL A   1      46.009  31.831  24.898  1.00  0.00     0.167 HD
ATOM     23  O   UNL A   1      43.890  33.021  25.197  1.00  0.00    -0.224 OA
BRANCH  21  24
ATOM     24  C   UNL A   1      46.699  31.397  26.815  1.00  0.00     0.119 C 
BRANCH  24  25
ATOM     25  C   UNL A   1      46.237  30.079  27.437  1.00  0.00     0.021 C 
BRANCH  25  26
ATOM     26  C   UNL A   1      45.589  29.089  26.459  1.00  0.00     0.002 C 
BRANCH  26  27
ATOM     27  C   UNL A   1      44.364  28.334  26.988  1.00  0.00    -0.000 C 
BRANCH  27  28
ATOM     28  C   UNL A   1      43.075  29.153  27.096  1.00  0.00    -0.003 C 
ATOM     29  C   UNL A   1      42.133  28.956  25.919  1.00  0.00     0.004 C 
ENDBRANCH  27  28
ENDBRANCH  26  27
ENDBRANCH  25  26
ENDBRANCH  24  25
ENDBRANCH  21  24
ENDBRANCH  19  20
ENDBRANCH  14  19
ENDBRANCH   8  13
BRANCH  10  30
ATOM     30  O   UNL A   1      39.115  34.539  28.851  1.00  0.00    -0.507 OA
ATOM     31  H   UNL A   1      38.203  34.432  28.663  1.00  0.00     0.293 HD
ENDBRANCH  10  30
ENDBRANCH   5   7
ENDBRANCH   3   5
ENDBRANCH   2   3
ENDBRANCH   1   2
BRANCH   1  32
ATOM     32  C   UNL A   1      35.466  32.280  30.965  1.00  0.00     0.202 C 
BRANCH  32  33
ATOM     33  O   UNL A   1      34.260  33.029  30.969  1.00  0.00    -0.376 OA
BRANCH  33  34
ATOM     34  C   UNL A   1      34.210  34.283  30.296  1.00  0.00     0.188 C 
BRANCH  34  35
ATOM     35  C   UNL A   1      33.383  34.435  29.011  1.00  0.00     0.188 C 
BRANCH  35  36
ATOM     36  O   UNL A   1      33.738  33.533  27.981  1.00  0.00    -0.376 OA
BRANCH  36  37
ATOM     37  C   UNL A   1      32.662  32.795  27.426  1.00  0.00     0.202 C 
BRANCH  37  38
ATOM     38  C   UNL A   1      33.017  31.310  27.325  1.00  0.00     0.261 C 
BRANCH  38  39
ATOM     39  O   UNL A   1      34.402  31.013  27.602  1.00  0.00    -0.460 OA
BRANCH  39  40
ATOM     40  C   UNL A   1      34.712  29.705  27.746  1.00  0.00     0.338 C 
ATOM     41  O   UNL A   1      34.057  28.750  27.373  1.00  0.00    -0.246 OA
BRANCH  40  42
ATOM     42  C   UNL A   1      36.093  29.599  28.265  1.00  0.00     0.060 A 
ATOM     43  C   UNL A   1      37.154  29.944  27.416  1.00  0.00     0.016 A 
ATOM     44  C   UNL A   1      36.345  29.132  29.556  1.00  0.00     0.016 A 
ATOM     45  C   UNL A   1      38.472  29.767  27.840  1.00  0.00     0.010 A 
ATOM     46  C   UNL A   1      37.667  28.940  29.973  1.00  0.00     0.010 A 
ATOM     47  C   UNL A   1      38.736  29.215  29.101  1.00  0.00    -0.014 A 
BRANCH  47  48
ATOM     48  C   UNL A   1      40.105  28.730  29.415  1.00  0.00     0.031 A 
ATOM     49  C   UNL A   1      40.980  29.585  30.294  1.00  0.00     0.074 A 
ATOM     50  C   UNL A   1      40.560  27.549  28.958  1.00  0.00     0.049 A 
ATOM     51  N   UNL A   1      42.210  29.382  30.695  1.00  0.00    -0.248 NA
ATOM     52  C   UNL A   1      40.390  30.841  30.785  1.00  0.00     0.031 C 
ATOM     53  C   UNL A   1      39.811  26.618  28.119  1.00  0.00     0.029 A 
ATOM     54  N   UNL A   1      41.779  26.937  29.136  1.00  0.00    -0.354 N 
ATOM     55  C   UNL A   1      42.540  30.486  31.471  1.00  0.00     0.074 A 
ATOM     56  C   UNL A   1      41.394  31.369  31.468  1.00  0.00     0.031 C 
ATOM     57  C   UNL A   1      40.591  25.559  27.839  1.00  0.00     0.029 A 
ATOM     58  C   UNL A   1      41.903  25.748  28.459  1.00  0.00     0.049 A 
ATOM     59  H   UNL A   1      42.495  27.317  29.695  1.00  0.00     0.167 HD
ATOM     60  C   UNL A   1      43.693  30.738  32.134  1.00  0.00     0.037 A 
ATOM     61  C   UNL A   1      42.962  24.922  28.338  1.00  0.00     0.037 A 
ATOM     62  C   UNL A   1      44.827  29.855  32.161  1.00  0.00     0.049 A 
ATOM     63  C   UNL A   1      44.249  25.252  29.058  1.00  0.00     0.074 A 
ATOM     64  C   UNL A   1      46.015  30.000  32.856  1.00  0.00     0.029 A 
ATOM     65  N   UNL A   1      44.917  28.666  31.455  1.00  0.00    -0.354 N 
ATOM     66  N   UNL A   1      44.528  26.264  29.844  1.00  0.00    -0.248 NA
ATOM     67  C   UNL A   1      45.369  24.314  28.878  1.00  0.00     0.031 C 
ATOM     68  C   UNL A   1      46.849  28.929  32.523  1.00  0.00     0.029 A 
ATOM     69  C   UNL A   1      46.158  28.085  31.670  1.00  0.00     0.049 A 
ATOM     70  H   UNL A   1      44.207  28.289  30.886  1.00  0.00     0.167 HD
ATOM     71  C   UNL A   1      45.835  26.068  30.272  1.00  0.00     0.074 A 
ATOM     72  C   UNL A   1      46.291  24.831  29.678  1.00  0.00     0.031 C 
ATOM     73  C   UNL A   1      46.594  26.846  31.084  1.00  0.00     0.037 A 
BRANCH  60  74
ATOM     74  C   UNL A   1      43.805  32.036  32.878  1.00  0.00     0.064 A 
ATOM     75  C   UNL A   1      43.399  32.160  34.214  1.00  0.00     0.173 A 
ATOM     76  C   UNL A   1      44.400  33.148  32.264  1.00  0.00     0.173 A 
ATOM     77  F   UNL A   1      42.812  31.131  34.841  1.00  0.00    -0.203 F 
ATOM     78  C   UNL A   1      43.577  33.356  34.906  1.00  0.00     0.198 A 
ATOM     79  C   UNL A   1      44.603  34.333  32.967  1.00  0.00     0.198 A 
ATOM     80  F   UNL A   1      44.808  33.079  30.987  1.00  0.00    -0.203 F 
ATOM     81  F   UNL A   1      43.156  33.463  36.174  1.00  0.00    -0.200 F 
ATOM     82  C   UNL A   1      44.189  34.436  34.286  1.00  0.00     0.200 A 
ATOM     83  F   UNL A   1      45.205  35.370  32.370  1.00  0.00    -0.200 F 
ATOM     84  F   UNL A   1      44.378  35.578  34.961  1.00  0.00    -0.200 F 
ENDBRANCH  60  74
BRANCH  61  85
ATOM     85  C   UNL A   1      42.878  23.708  27.480  1.00  0.00     0.064 A 
ATOM     86  C   UNL A   1      42.422  22.485  27.991  1.00  0.00     0.173 A 
ATOM     87  C   UNL A   1      43.324  23.732  26.150  1.00  0.00     0.173 A 
ATOM     88  F   UNL A   1      42.014  22.401  29.266  1.00  0.00    -0.203 F 
ATOM     89  C   UNL A   1      42.450  21.325  27.217  1.00  0.00     0.198 A 
ATOM     90  C   UNL A   1      43.320  22.580  25.367  1.00  0.00     0.198 A 
ATOM     91  F   UNL A   1      43.779  24.874  25.614  1.00  0.00    -0.203 F 
ATOM     92  F   UNL A   1      42.079  20.155  27.754  1.00  0.00    -0.200 F 
ATOM     93  C   UNL A   1      42.896  21.374  25.905  1.00  0.00     0.200 A 
ATOM     94  F   UNL A   1      43.747  22.633  24.098  1.00  0.00    -0.200 F 
ATOM     95  F   UNL A   1      42.936  20.256  25.166  1.00  0.00    -0.200 F 
ENDBRANCH  61  85
BRANCH  73  96
ATOM     96  C   UNL A   1      47.979  26.366  31.414  1.00  0.00     0.064 A 
ATOM     97  C   UNL A   1      48.233  25.549  32.526  1.00  0.00     0.173 A 
ATOM     98  C   UNL A   1      49.060  26.688  30.578  1.00  0.00     0.173 A 
ATOM     99  F   UNL A   1      47.236  25.221  33.362  1.00  0.00    -0.203 F 
ATOM    100  C   UNL A   1      49.521  25.099  32.806  1.00  0.00     0.198 A 
ATOM    101  C   UNL A   1      50.341  26.208  30.842  1.00  0.00     0.198 A 
ATOM    102  F   UNL A   1      48.872  27.456  29.494  1.00  0.00    -0.203 F 
ATOM    103  F   UNL A   1      49.747  24.362  33.902  1.00  0.00    -0.200 F 
ATOM    104  C   UNL A   1      50.571  25.422  31.961  1.00  0.00     0.200 A 
ATOM    105  F   UNL A   1      51.350  26.507  30.013  1.00  0.00    -0.200 F 
ATOM    106  F   UNL A   1      51.808  24.980  32.226  1.00  0.00    -0.200 F 
ENDBRANCH  73  96
ENDBRANCH  47  48
ENDBRANCH  40  42
ENDBRANCH  39  40
ENDBRANCH  38  39
ENDBRANCH  37  38
ENDBRANCH  36  37
ENDBRANCH  35  36
ENDBRANCH  34  35
ENDBRANCH  33  34
ENDBRANCH  32  33
ENDBRANCH   1  32
TORSDOF 27
ENDMDL
MODEL 2
REMARK VINA RESULT:      -7.2      1.389      2.193
REMARK SMILES CCCCCCNC(=O)Oc1cccc(-c2ccc([C@@H](C)C(=O)OCCOCCOCCOC(=O)c3ccc(-c4c5nc(c(-c6c(F)c(F)c(F)c(F)c6F)c6ccc([nH]6)c(-c6c(F)c(F)c(F)c(F)c6F)c6nc(c(-c7c(F)c(F)c(F)c(F)c7F)c7ccc4[nH]7)C=C6)C=C5)cc3)cc2O)c1
REMARK SMILES IDX 25 1 24 2 22 3 23 4 20 5 21 6 19 7 16 8 17 9 100 10 18 11
REMARK SMILES IDX 99 12 15 13 11 14 12 15 102 16 13 17 14 18 10 19 8 20 7 21
REMARK SMILES IDX 9 23 6 24 5 25 4 26 3 27 2 28 1 29 101 30 26 32 27 33 28 34
REMARK SMILES IDX 29 35 30 36 31 37 32 38 33 39 34 40 35 41 36 42 37 43 98 44
REMARK SMILES IDX 38 45 97 46 39 47 40 48 41 49 91 50 42 51 96 52 90 53 92 54
REMARK SMILES IDX 43 55 95 56 89 57 88 58 44 60 76 61 56 62 75 63 57 64 60 65
REMARK SMILES IDX 74 66 93 67 58 68 59 69 73 71 94 72 61 73 45 74 46 75 54 76
REMARK SMILES IDX 47 77 48 78 52 79 55 80 49 81 50 82 53 83 51 84 77 85 78 86
REMARK SMILES IDX 86 87 79 88 80 89 84 90 87 91 81 92 82 93 85 94 83 95 62 96
REMARK SMILES IDX 63 97 71 98 64 99 65 100 69 101 72 102 66 103 67 104 70 105
REMARK SMILES IDX 68 106
REMARK H PARENT 7 22 101 31 92 59 60 70
REMARK Flexibility Score: inf
ROOT
ATOM      1  C   UNL A   1      35.475  31.561  31.931  1.00  0.00     0.261 C 
ENDROOT
BRANCH   1   2
ATOM      2  O   UNL A   1      36.425  32.042  32.906  1.00  0.00    -0.463 OA
BRANCH   2   3
ATOM      3  C   UNL A   1      36.048  33.125  33.630  1.00  0.00     0.313 C 
ATOM      4  O   UNL A   1      35.144  33.098  34.465  1.00  0.00    -0.252 OA
BRANCH   3   5
ATOM      5  C   UNL A   1      36.807  34.422  33.355  1.00  0.00     0.126 C 
ATOM      6  C   UNL A   1      35.813  35.479  32.875  1.00  0.00     0.025 C 
BRANCH   5   7
ATOM      7  C   UNL A   1      38.065  34.441  32.489  1.00  0.00    -0.030 A 
ATOM      8  C   UNL A   1      40.349  34.344  30.739  1.00  0.00     0.024 A 
ATOM      9  C   UNL A   1      40.479  34.300  32.142  1.00  0.00     0.013 A 
ATOM     10  C   UNL A   1      39.042  34.454  30.238  1.00  0.00     0.123 A 
ATOM     11  C   UNL A   1      39.364  34.334  33.003  1.00  0.00     0.005 A 
ATOM     12  C   UNL A   1      37.929  34.503  31.090  1.00  0.00     0.051 A 
BRANCH   8  13
ATOM     13  C   UNL A   1      41.540  34.187  29.870  1.00  0.00    -0.011 A 
ATOM     14  C   UNL A   1      43.382  32.889  28.947  1.00  0.00     0.133 A 
ATOM     15  C   UNL A   1      43.923  34.024  28.346  1.00  0.00     0.047 A 
ATOM     16  C   UNL A   1      42.198  32.953  29.694  1.00  0.00     0.056 A 
ATOM     17  C   UNL A   1      43.267  35.242  28.481  1.00  0.00     0.004 A 
ATOM     18  C   UNL A   1      42.094  35.321  29.241  1.00  0.00     0.009 A 
BRANCH  14  19
ATOM     19  O   UNL A   1      44.176  31.727  28.902  1.00  0.00    -0.410 OA
BRANCH  19  20
ATOM     20  C   UNL A   1      43.736  30.646  28.155  1.00  0.00     0.412 C 
ATOM     21  N   UNL A   1      44.506  30.411  27.043  1.00  0.00    -0.321 N 
ATOM     22  H   UNL A   1      44.282  29.609  26.518  1.00  0.00     0.167 HD
ATOM     23  O   UNL A   1      42.758  29.954  28.403  1.00  0.00    -0.224 OA
BRANCH  21  24
ATOM     24  C   UNL A   1      45.614  31.210  26.557  1.00  0.00     0.119 C 
BRANCH  24  25
ATOM     25  C   UNL A   1      46.927  30.427  26.501  1.00  0.00     0.021 C 
BRANCH  25  26
ATOM     26  C   UNL A   1      47.417  29.879  27.847  1.00  0.00     0.002 C 
BRANCH  26  27
ATOM     27  C   UNL A   1      48.732  30.469  28.369  1.00  0.00    -0.000 C 
BRANCH  27  28
ATOM     28  C   UNL A   1      48.983  30.304  29.871  1.00  0.00    -0.003 C 
ATOM     29  C   UNL A   1      49.044  31.625  30.622  1.00  0.00     0.004 C 
ENDBRANCH  27  28
ENDBRANCH  26  27
ENDBRANCH  25  26
ENDBRANCH  24  25
ENDBRANCH  21  24
ENDBRANCH  19  20
ENDBRANCH  14  19
ENDBRANCH   8  13
BRANCH  10  30
ATOM     30  O   UNL A   1      38.751  34.475  28.899  1.00  0.00    -0.507 OA
ATOM     31  H   UNL A   1      38.171  33.835  28.536  1.00  0.00     0.293 HD
ENDBRANCH  10  30
ENDBRANCH   5   7
ENDBRANCH   3   5
ENDBRANCH   2   3
ENDBRANCH   1   2
BRANCH   1  32
ATOM     32  C   UNL A   1      35.286  32.471  30.710  1.00  0.00     0.202 C 
BRANCH  32  33
ATOM     33  O   UNL A   1      34.055  33.170  30.602  1.00  0.00    -0.376 OA
BRANCH  33  34
ATOM     34  C   UNL A   1      34.019  34.431  29.942  1.00  0.00     0.188 C 
BRANCH  34  35
ATOM     35  C   UNL A   1      33.090  34.643  28.738  1.00  0.00     0.188 C 
BRANCH  35  36
ATOM     36  O   UNL A   1      33.331  33.764  27.656  1.00  0.00    -0.376 OA
BRANCH  36  37
ATOM     37  C   UNL A   1      32.241  32.932  27.298  1.00  0.00     0.202 C 
BRANCH  37  38
ATOM     38  C   UNL A   1      32.685  31.471  27.192  1.00  0.00     0.261 C 
BRANCH  38  39
ATOM     39  O   UNL A   1      34.077  31.253  27.501  1.00  0.00    -0.460 OA
BRANCH  39  40
ATOM     40  C   UNL A   1      34.560  30.019  27.228  1.00  0.00     0.338 C 
ATOM     41  O   UNL A   1      34.128  29.226  26.414  1.00  0.00    -0.246 OA
BRANCH  40  42
ATOM     42  C   UNL A   1      35.841  29.842  27.946  1.00  0.00     0.060 A 
ATOM     43  C   UNL A   1      37.030  30.167  27.279  1.00  0.00     0.016 A 
ATOM     44  C   UNL A   1      35.876  29.329  29.244  1.00  0.00     0.016 A 
ATOM     45  C   UNL A   1      38.261  29.924  27.891  1.00  0.00     0.010 A 
ATOM     46  C   UNL A   1      37.112  29.071  29.848  1.00  0.00     0.010 A 
ATOM     47  C   UNL A   1      38.310  29.327  29.157  1.00  0.00    -0.014 A 
BRANCH  47  48
ATOM     48  C   UNL A   1      39.597  28.777  29.658  1.00  0.00     0.031 A 
ATOM     49  C   UNL A   1      40.246  29.446  30.840  1.00  0.00     0.074 A 
ATOM     50  C   UNL A   1      40.169  27.694  29.101  1.00  0.00     0.049 A 
ATOM     51  N   UNL A   1      41.370  29.160  31.447  1.00  0.00    -0.248 NA
ATOM     52  C   UNL A   1      39.532  30.598  31.417  1.00  0.00     0.031 C 
ATOM     53  C   UNL A   1      39.637  26.941  27.968  1.00  0.00     0.029 A 
ATOM     54  N   UNL A   1      41.341  27.047  29.415  1.00  0.00    -0.354 N 
ATOM     55  C   UNL A   1      41.502  30.099  32.461  1.00  0.00     0.074 A 
ATOM     56  C   UNL A   1      40.358  30.980  32.379  1.00  0.00     0.031 C 
ATOM     57  C   UNL A   1      40.487  25.943  27.671  1.00  0.00     0.029 A 
ATOM     58  C   UNL A   1      41.636  26.000  28.575  1.00  0.00     0.049 A 
ATOM     59  H   UNL A   1      41.915  27.309  30.171  1.00  0.00     0.167 HD
ATOM     60  C   UNL A   1      42.484  30.213  33.386  1.00  0.00     0.037 A 
ATOM     61  C   UNL A   1      42.719  25.198  28.531  1.00  0.00     0.037 A 
ATOM     62  C   UNL A   1      43.612  29.327  33.489  1.00  0.00     0.049 A 
ATOM     63  C   UNL A   1      43.819  25.376  29.552  1.00  0.00     0.074 A 
ATOM     64  C   UNL A   1      44.625  29.329  34.431  1.00  0.00     0.029 A 
ATOM     65  N   UNL A   1      43.880  28.286  32.614  1.00  0.00    -0.354 N 
ATOM     66  N   UNL A   1      43.901  26.224  30.549  1.00  0.00    -0.248 NA
ATOM     67  C   UNL A   1      44.978  24.475  29.444  1.00  0.00     0.031 C 
ATOM     68  C   UNL A   1      45.540  28.329  34.093  1.00  0.00     0.029 A 
ATOM     69  C   UNL A   1      45.064  27.663  32.974  1.00  0.00     0.049 A 
ATOM     70  H   UNL A   1      43.314  28.028  31.851  1.00  0.00     0.167 HD
ATOM     71  C   UNL A   1      45.095  25.939  31.199  1.00  0.00     0.074 A 
ATOM     72  C   UNL A   1      45.698  24.827  30.499  1.00  0.00     0.031 C 
ATOM     73  C   UNL A   1      45.646  26.546  32.278  1.00  0.00     0.037 A 
BRANCH  60  74
ATOM     74  C   UNL A   1      42.404  31.352  34.360  1.00  0.00     0.064 A 
ATOM     75  C   UNL A   1      41.847  31.195  35.636  1.00  0.00     0.173 A 
ATOM     76  C   UNL A   1      42.965  32.596  34.033  1.00  0.00     0.173 A 
ATOM     77  F   UNL A   1      41.285  30.030  35.991  1.00  0.00    -0.203 F 
ATOM     78  C   UNL A   1      41.845  32.247  36.549  1.00  0.00     0.198 A 
ATOM     79  C   UNL A   1      42.987  33.636  34.958  1.00  0.00     0.198 A 
ATOM     80  F   UNL A   1      43.513  32.795  32.824  1.00  0.00    -0.203 F 
ATOM     81  F   UNL A   1      41.282  32.086  37.754  1.00  0.00    -0.200 F 
ATOM     82  C   UNL A   1      42.425  33.462  36.213  1.00  0.00     0.200 A 
ATOM     83  F   UNL A   1      43.560  34.804  34.636  1.00  0.00    -0.200 F 
ATOM     84  F   UNL A   1      42.442  34.465  37.101  1.00  0.00    -0.200 F 
ENDBRANCH  60  74
BRANCH  61  85
ATOM     85  C   UNL A   1      42.849  24.163  27.469  1.00  0.00     0.064 A 
ATOM     86  C   UNL A   1      42.336  22.870  27.645  1.00  0.00     0.173 A 
ATOM     87  C   UNL A   1      43.555  24.427  26.286  1.00  0.00     0.173 A 
ATOM     88  F   UNL A   1      41.681  22.556  28.772  1.00  0.00    -0.203 F 
ATOM     89  C   UNL A   1      42.558  21.872  26.697  1.00  0.00     0.198 A 
ATOM     90  C   UNL A   1      43.746  23.438  25.323  1.00  0.00     0.198 A 
ATOM     91  F   UNL A   1      44.074  25.645  26.070  1.00  0.00    -0.203 F 
ATOM     92  F   UNL A   1      42.121  20.626  26.925  1.00  0.00    -0.200 F 
ATOM     93  C   UNL A   1      43.259  22.158  25.535  1.00  0.00     0.200 A 
ATOM     94  F   UNL A   1      44.419  23.721  24.200  1.00  0.00    -0.200 F 
ATOM     95  F   UNL A   1      43.483  21.194  24.630  1.00  0.00    -0.200 F 
ENDBRANCH  61  85
BRANCH  73  96
ATOM     96  C   UNL A   1      46.946  25.999  32.798  1.00  0.00     0.064 A 
ATOM     97  C   UNL A   1      48.182  26.537  32.410  1.00  0.00     0.173 A 
ATOM     98  C   UNL A   1      46.952  24.953  33.734  1.00  0.00     0.173 A 
ATOM     99  F   UNL A   1      48.232  27.531  31.510  1.00  0.00    -0.203 F 
ATOM    100  C   UNL A   1      49.376  26.028  32.916  1.00  0.00     0.198 A 
ATOM    101  C   UNL A   1      48.146  24.469  34.264  1.00  0.00     0.198 A 
ATOM    102  F   UNL A   1      45.798  24.409  34.150  1.00  0.00    -0.203 F 
ATOM    103  F   UNL A   1      50.546  26.525  32.492  1.00  0.00    -0.200 F 
ATOM    104  C   UNL A   1      49.357  25.002  33.847  1.00  0.00     0.200 A 
ATOM    105  F   UNL A   1      48.124  23.489  35.178  1.00  0.00    -0.200 F 
ATOM    106  F   UNL A   1      50.506  24.520  34.341  1.00  0.00    -0.200 F 
ENDBRANCH  73  96
ENDBRANCH  47  48
ENDBRANCH  40  42
ENDBRANCH  39  40
ENDBRANCH  38  39
ENDBRANCH  37  38
ENDBRANCH  36  37
ENDBRANCH  35  36
ENDBRANCH  34  35
ENDBRANCH  33  34
ENDBRANCH  32  33
ENDBRANCH   1  32
TORSDOF 27
ENDMDL
MODEL 3
REMARK VINA RESULT:      -7.1      3.715     10.184
REMARK SMILES CCCCCCNC(=O)Oc1cccc(-c2ccc([C@@H](C)C(=O)OCCOCCOCCOC(=O)c3ccc(-c4c5nc(c(-c6c(F)c(F)c(F)c(F)c6F)c6ccc([nH]6)c(-c6c(F)c(F)c(F)c(F)c6F)c6nc(c(-c7c(F)c(F)c(F)c(F)c7F)c7ccc4[nH]7)C=C6)C=C5)cc3)cc2O)c1
REMARK SMILES IDX 25 1 24 2 22 3 23 4 20 5 21 6 19 7 16 8 17 9 100 10 18 11
REMARK SMILES IDX 99 12 15 13 11 14 12 15 102 16 13 17 14 18 10 19 8 20 7 21
REMARK SMILES IDX 9 23 6 24 5 25 4 26 3 27 2 28 1 29 101 30 26 32 27 33 28 34
REMARK SMILES IDX 29 35 30 36 31 37 32 38 33 39 34 40 35 41 36 42 37 43 98 44
REMARK SMILES IDX 38 45 97 46 39 47 40 48 41 49 91 50 42 51 96 52 90 53 92 54
REMARK SMILES IDX 43 55 95 56 89 57 88 58 44 60 76 61 56 62 75 63 57 64 60 65
REMARK SMILES IDX 74 66 93 67 58 68 59 69 73 71 94 72 61 73 45 74 46 75 54 76
REMARK SMILES IDX 47 77 48 78 52 79 55 80 49 81 50 82 53 83 51 84 77 85 78 86
REMARK SMILES IDX 86 87 79 88 80 89 84 90 87 91 81 92 82 93 85 94 83 95 62 96
REMARK SMILES IDX 63 97 71 98 64 99 65 100 69 101 72 102 66 103 67 104 70 105
REMARK SMILES IDX 68 106
REMARK H PARENT 7 22 101 31 92 59 60 70
REMARK Flexibility Score: inf
ROOT
ATOM      1  C   UNL A   1      42.396  21.995  25.825  1.00  0.00     0.261 C 
ENDROOT
BRANCH   1   2
ATOM      2  O   UNL A   1      42.067  22.693  27.046  1.00  0.00    -0.463 OA
BRANCH   2   3
ATOM      3  C   UNL A   1      41.213  23.740  26.929  1.00  0.00     0.313 C 
ATOM      4  O   UNL A   1      40.102  23.650  26.407  1.00  0.00    -0.252 OA
BRANCH   3   5
ATOM      5  C   UNL A   1      41.702  25.078  27.479  1.00  0.00     0.126 C 
ATOM      6  C   UNL A   1      43.019  24.851  28.221  1.00  0.00     0.025 C 
BRANCH   5   7
ATOM      7  C   UNL A   1      40.784  25.990  28.291  1.00  0.00    -0.030 A 
ATOM      8  C   UNL A   1      39.210  27.747  29.940  1.00  0.00     0.024 A 
ATOM      9  C   UNL A   1      38.734  26.488  29.521  1.00  0.00     0.013 A 
ATOM     10  C   UNL A   1      40.491  28.108  29.495  1.00  0.00     0.123 A 
ATOM     11  C   UNL A   1      39.506  25.619  28.726  1.00  0.00     0.005 A 
ATOM     12  C   UNL A   1      41.259  27.254  28.690  1.00  0.00     0.051 A 
BRANCH   8  13
ATOM     13  C   UNL A   1      38.411  28.579  30.873  1.00  0.00    -0.011 A 
ATOM     14  C   UNL A   1      36.699  30.241  31.356  1.00  0.00     0.133 A 
ATOM     15  C   UNL A   1      37.070  30.280  32.699  1.00  0.00     0.047 A 
ATOM     16  C   UNL A   1      37.346  29.396  30.444  1.00  0.00     0.056 A 
ATOM     17  C   UNL A   1      38.095  29.454  33.144  1.00  0.00     0.004 A 
ATOM     18  C   UNL A   1      38.762  28.620  32.239  1.00  0.00     0.009 A 
BRANCH  14  19
ATOM     19  O   UNL A   1      35.766  31.211  30.943  1.00  0.00    -0.410 OA
BRANCH  19  20
ATOM     20  C   UNL A   1      36.209  32.503  30.701  1.00  0.00     0.412 C 
ATOM     21  N   UNL A   1      36.231  32.822  29.366  1.00  0.00    -0.321 N 
ATOM     22  H   UNL A   1      36.466  33.752  29.144  1.00  0.00     0.167 HD
ATOM     23  O   UNL A   1      36.573  33.305  31.549  1.00  0.00    -0.224 OA
BRANCH  21  24
ATOM     24  C   UNL A   1      35.946  31.945  28.247  1.00  0.00     0.119 C 
BRANCH  24  25
ATOM     25  C   UNL A   1      34.492  32.035  27.782  1.00  0.00     0.021 C 
BRANCH  25  26
ATOM     26  C   UNL A   1      33.789  30.687  27.575  1.00  0.00     0.002 C 
BRANCH  26  27
ATOM     27  C   UNL A   1      32.395  30.751  26.940  1.00  0.00    -0.000 C 
BRANCH  27  28
ATOM     28  C   UNL A   1      31.829  29.417  26.447  1.00  0.00    -0.003 C 
ATOM     29  C   UNL A   1      31.653  28.388  27.553  1.00  0.00     0.004 C 
ENDBRANCH  27  28
ENDBRANCH  26  27
ENDBRANCH  25  26
ENDBRANCH  24  25
ENDBRANCH  21  24
ENDBRANCH  19  20
ENDBRANCH  14  19
ENDBRANCH   8  13
BRANCH  10  30
ATOM     30  O   UNL A   1      41.104  29.284  29.844  1.00  0.00    -0.507 OA
ATOM     31  H   UNL A   1      40.967  30.054  29.328  1.00  0.00     0.293 HD
ENDBRANCH  10  30
ENDBRANCH   5   7
ENDBRANCH   3   5
ENDBRANCH   2   3
ENDBRANCH   1   2
BRANCH   1  32
ATOM     32  C   UNL A   1      43.841  21.489  25.739  1.00  0.00     0.202 C 
BRANCH  32  33
ATOM     33  O   UNL A   1      44.819  22.181  26.502  1.00  0.00    -0.376 OA
BRANCH  33  34
ATOM     34  C   UNL A   1      45.950  22.747  25.847  1.00  0.00     0.188 C 
BRANCH  34  35
ATOM     35  C   UNL A   1      45.923  22.983  24.330  1.00  0.00     0.188 C 
BRANCH  35  36
ATOM     36  O   UNL A   1      46.866  23.934  23.873  1.00  0.00    -0.376 OA
BRANCH  36  37
ATOM     37  C   UNL A   1      47.622  24.572  24.888  1.00  0.00     0.202 C 
BRANCH  37  38
ATOM     38  C   UNL A   1      47.899  26.032  24.521  1.00  0.00     0.261 C 
BRANCH  38  39
ATOM     39  O   UNL A   1      46.789  26.704  23.892  1.00  0.00    -0.460 OA
BRANCH  39  40
ATOM     40  C   UNL A   1      46.726  28.044  24.071  1.00  0.00     0.338 C 
ATOM     41  O   UNL A   1      46.861  28.904  23.222  1.00  0.00    -0.246 OA
BRANCH  40  42
ATOM     42  C   UNL A   1      46.266  28.318  25.449  1.00  0.00     0.060 A 
ATOM     43  C   UNL A   1      44.930  28.045  25.774  1.00  0.00     0.016 A 
ATOM     44  C   UNL A   1      47.125  28.870  26.401  1.00  0.00     0.016 A 
ATOM     45  C   UNL A   1      44.436  28.379  27.036  1.00  0.00     0.010 A 
ATOM     46  C   UNL A   1      46.624  29.218  27.661  1.00  0.00     0.010 A 
ATOM     47  C   UNL A   1      45.267  29.015  27.969  1.00  0.00    -0.014 A 
BRANCH  47  48
ATOM     48  C   UNL A   1      44.666  29.655  29.168  1.00  0.00     0.031 A 
ATOM     49  C   UNL A   1      44.385  31.134  29.122  1.00  0.00     0.074 A 
ATOM     50  C   UNL A   1      44.349  28.945  30.266  1.00  0.00     0.049 A 
ATOM     51  N   UNL A   1      43.879  31.916  30.041  1.00  0.00    -0.248 NA
ATOM     52  C   UNL A   1      44.723  31.827  27.867  1.00  0.00     0.031 C 
ATOM     53  C   UNL A   1      44.548  27.508  30.433  1.00  0.00     0.029 A 
ATOM     54  N   UNL A   1      43.796  29.350  31.457  1.00  0.00    -0.354 N 
ATOM     55  C   UNL A   1      43.852  33.187  29.483  1.00  0.00     0.074 A 
ATOM     56  C   UNL A   1      44.411  33.082  28.154  1.00  0.00     0.031 C 
ATOM     57  C   UNL A   1      44.139  27.152  31.664  1.00  0.00     0.029 A 
ATOM     58  C   UNL A   1      43.672  28.339  32.380  1.00  0.00     0.049 A 
ATOM     59  H   UNL A   1      43.516  30.277  31.634  1.00  0.00     0.167 HD
ATOM     60  C   UNL A   1      43.393  34.338  30.026  1.00  0.00     0.037 A 
ATOM     61  C   UNL A   1      43.250  28.377  33.661  1.00  0.00     0.037 A 
ATOM     62  C   UNL A   1      42.813  34.446  31.338  1.00  0.00     0.049 A 
ATOM     63  C   UNL A   1      42.782  29.686  34.252  1.00  0.00     0.074 A 
ATOM     64  C   UNL A   1      42.266  35.561  31.948  1.00  0.00     0.029 A 
ATOM     65  N   UNL A   1      42.715  33.403  32.245  1.00  0.00    -0.354 N 
ATOM     66  N   UNL A   1      42.696  30.869  33.693  1.00  0.00    -0.248 NA
ATOM     67  C   UNL A   1      42.342  29.661  35.657  1.00  0.00     0.031 C 
ATOM     68  C   UNL A   1      41.891  35.208  33.247  1.00  0.00     0.029 A 
ATOM     69  C   UNL A   1      42.148  33.858  33.425  1.00  0.00     0.049 A 
ATOM     70  H   UNL A   1      43.004  32.477  32.076  1.00  0.00     0.167 HD
ATOM     71  C   UNL A   1      42.168  31.714  34.661  1.00  0.00     0.074 A 
ATOM     72  C   UNL A   1      41.933  30.908  35.838  1.00  0.00     0.031 C 
ATOM     73  C   UNL A   1      41.905  33.042  34.584  1.00  0.00     0.037 A 
BRANCH  60  74
ATOM     74  C   UNL A   1      43.512  35.594  29.214  1.00  0.00     0.064 A 
ATOM     75  C   UNL A   1      44.683  36.364  29.210  1.00  0.00     0.173 A 
ATOM     76  C   UNL A   1      42.462  35.986  28.369  1.00  0.00     0.173 A 
ATOM     77  F   UNL A   1      45.708  36.039  30.011  1.00  0.00    -0.203 F 
ATOM     78  C   UNL A   1      44.797  37.488  28.395  1.00  0.00     0.198 A 
ATOM     79  C   UNL A   1      42.590  37.094  27.535  1.00  0.00     0.198 A 
ATOM     80  F   UNL A   1      41.321  35.280  28.334  1.00  0.00    -0.203 F 
ATOM     81  F   UNL A   1      45.914  38.227  28.428  1.00  0.00    -0.200 F 
ATOM     82  C   UNL A   1      43.755  37.844  27.551  1.00  0.00     0.200 A 
ATOM     83  F   UNL A   1      41.588  37.429  26.710  1.00  0.00    -0.200 F 
ATOM     84  F   UNL A   1      43.875  38.914  26.752  1.00  0.00    -0.200 F 
ENDBRANCH  60  74
BRANCH  61  85
ATOM     85  C   UNL A   1      43.271  27.146  34.498  1.00  0.00     0.064 A 
ATOM     86  C   UNL A   1      42.105  26.405  34.733  1.00  0.00     0.173 A 
ATOM     87  C   UNL A   1      44.446  26.731  35.141  1.00  0.00     0.173 A 
ATOM     88  F   UNL A   1      40.947  26.778  34.168  1.00  0.00    -0.203 F 
ATOM     89  C   UNL A   1      42.105  25.318  35.608  1.00  0.00     0.198 A 
ATOM     90  C   UNL A   1      44.454  25.624  35.988  1.00  0.00     0.198 A 
ATOM     91  F   UNL A   1      45.589  27.409  34.958  1.00  0.00    -0.203 F 
ATOM     92  F   UNL A   1      40.960  24.674  35.872  1.00  0.00    -0.200 F 
ATOM     93  C   UNL A   1      43.280  24.927  36.232  1.00  0.00     0.200 A 
ATOM     94  F   UNL A   1      45.592  25.246  36.584  1.00  0.00    -0.200 F 
ATOM     95  F   UNL A   1      43.277  23.891  37.083  1.00  0.00    -0.200 F 
ENDBRANCH  61  85
BRANCH  73  96
ATOM     96  C   UNL A   1      41.293  33.702  35.788  1.00  0.00     0.064 A 
ATOM     97  C   UNL A   1      42.067  34.432  36.703  1.00  0.00     0.173 A 
ATOM     98  C   UNL A   1      39.907  33.643  36.003  1.00  0.00     0.173 A 
ATOM     99  F   UNL A   1      43.398  34.510  36.549  1.00  0.00    -0.203 F 
ATOM    100  C   UNL A   1      41.480  35.053  37.804  1.00  0.00     0.198 A 
ATOM    101  C   UNL A   1      39.320  34.293  37.086  1.00  0.00     0.198 A 
ATOM    102  F   UNL A   1      39.118  32.969  35.153  1.00  0.00    -0.203 F 
ATOM    103  F   UNL A   1      42.246  35.702  38.691  1.00  0.00    -0.200 F 
ATOM    104  C   UNL A   1      40.108  34.989  37.989  1.00  0.00     0.200 A 
ATOM    105  F   UNL A   1      37.991  34.246  37.253  1.00  0.00    -0.200 F 
ATOM    106  F   UNL A   1      39.544  35.595  39.044  1.00  0.00    -0.200 F 
ENDBRANCH  73  96
ENDBRANCH  47  48
ENDBRANCH  40  42
ENDBRANCH  39  40
ENDBRANCH  38  39
ENDBRANCH  37  38
ENDBRANCH  36  37
ENDBRANCH  35  36
ENDBRANCH  34  35
ENDBRANCH  33  34
ENDBRANCH  32  33
ENDBRANCH   1  32
TORSDOF 27
ENDMDL
