MODEL 1
REMARK VINA RESULT:     -11.3      0.000      0.000
REMARK SMILES O=C(OCCOCCOCCOC(=O)c1c[nH]c(=O)c(-c2cccc([N+](=O)[O-])c2)c1)c1ccc(-c2c3nc(c(-c4c(F)c(F)c(F)c(F)c4F)c4ccc([nH]4)c(-c4c(F)c(F)c(F)c(F)c4F)c4nc(c(-c5c(F)c(F)c(F)c(F)c5F)c5ccc2[nH]5)C=C4)C=C3)cc1
REMARK SMILES IDX 7 1 6 2 5 3 4 4 3 5 2 6 1 7 31 8 32 9 93 10 33 11 92 12
REMARK SMILES IDX 34 13 35 14 36 15 86 16 37 17 91 18 85 19 87 20 38 21 90 22
REMARK SMILES IDX 84 23 83 24 39 26 71 27 51 28 70 29 52 30 55 31 69 32 88 33
REMARK SMILES IDX 53 34 54 35 68 37 89 38 56 39 40 40 41 41 49 42 42 43 43 44
REMARK SMILES IDX 47 45 50 46 44 47 45 48 48 49 46 50 72 51 73 52 81 53 74 54
REMARK SMILES IDX 75 55 79 56 82 57 76 58 77 59 80 60 78 61 57 62 58 63 66 64
REMARK SMILES IDX 59 65 60 66 64 67 67 68 61 69 62 70 65 71 63 72 8 73 9 74
REMARK SMILES IDX 10 75 11 76 12 77 13 78 14 79 15 80 16 81 30 82 17 83 20 84
REMARK SMILES IDX 18 85 19 87 21 88 22 89 29 90 23 91 25 92 24 93 26 94 27 95
REMARK SMILES IDX 28 96
REMARK H PARENT 87 25 55 36 17 86
REMARK Flexibility Score: inf
ROOT
ATOM      1  C   UNL A   1      41.741  21.712  26.264  1.00  0.00     0.188 C 
ENDROOT
BRANCH   1   2
ATOM      2  O   UNL A   1      42.268  20.552  26.915  1.00  0.00    -0.376 OA
BRANCH   2   3
ATOM      3  C   UNL A   1      41.939  19.314  26.274  1.00  0.00     0.202 C 
BRANCH   3   4
ATOM      4  C   UNL A   1      43.119  18.475  25.750  1.00  0.00     0.261 C 
BRANCH   4   5
ATOM      5  O   UNL A   1      43.615  18.876  24.462  1.00  0.00    -0.460 OA
BRANCH   5   6
ATOM      6  C   UNL A   1      44.737  19.566  24.152  1.00  0.00     0.338 C 
ATOM      7  O   UNL A   1      45.622  19.000  23.511  1.00  0.00    -0.246 OA
BRANCH   6   8
ATOM      8  C   UNL A   1      44.977  20.981  24.553  1.00  0.00     0.060 A 
ATOM      9  C   UNL A   1      44.602  22.095  23.806  1.00  0.00     0.016 A 
ATOM     10  C   UNL A   1      45.502  21.198  25.839  1.00  0.00     0.016 A 
ATOM     11  C   UNL A   1      44.792  23.389  24.276  1.00  0.00     0.010 A 
ATOM     12  C   UNL A   1      45.653  22.494  26.342  1.00  0.00     0.010 A 
ATOM     13  C   UNL A   1      45.305  23.595  25.552  1.00  0.00    -0.014 A 
BRANCH  13  14
ATOM     14  C   UNL A   1      45.475  24.981  26.023  1.00  0.00     0.031 A 
ATOM     15  C   UNL A   1      46.799  25.638  25.860  1.00  0.00     0.074 A 
ATOM     16  C   UNL A   1      44.422  25.647  26.531  1.00  0.00     0.049 A 
ATOM     17  N   UNL A   1      47.140  26.860  26.156  1.00  0.00    -0.248 NA
ATOM     18  C   UNL A   1      47.877  24.826  25.273  1.00  0.00     0.031 C 
ATOM     19  C   UNL A   1      43.080  25.085  26.634  1.00  0.00     0.029 A 
ATOM     20  N   UNL A   1      44.291  26.915  27.045  1.00  0.00    -0.354 N 
ATOM     21  C   UNL A   1      48.483  26.953  25.844  1.00  0.00     0.074 A 
ATOM     22  C   UNL A   1      48.891  25.677  25.296  1.00  0.00     0.031 C 
ATOM     23  C   UNL A   1      42.282  25.999  27.197  1.00  0.00     0.029 A 
ATOM     24  C   UNL A   1      43.021  27.203  27.494  1.00  0.00     0.049 A 
ATOM     25  H   UNL A   1      45.037  27.556  27.088  1.00  0.00     0.167 HD
ATOM     26  C   UNL A   1      49.297  28.011  26.046  1.00  0.00     0.037 A 
ATOM     27  C   UNL A   1      42.497  28.308  28.066  1.00  0.00     0.037 A 
ATOM     28  C   UNL A   1      48.854  29.265  26.591  1.00  0.00     0.049 A 
ATOM     29  C   UNL A   1      43.436  29.469  28.214  1.00  0.00     0.074 A 
ATOM     30  C   UNL A   1      49.602  30.391  26.873  1.00  0.00     0.029 A 
ATOM     31  N   UNL A   1      47.541  29.551  26.951  1.00  0.00    -0.354 N 
ATOM     32  N   UNL A   1      44.668  29.587  27.779  1.00  0.00    -0.248 NA
ATOM     33  C   UNL A   1      42.921  30.656  28.905  1.00  0.00     0.031 C 
ATOM     34  C   UNL A   1      48.760  31.331  27.474  1.00  0.00     0.029 A 
ATOM     35  C   UNL A   1      47.475  30.814  27.515  1.00  0.00     0.049 A 
ATOM     36  H   UNL A   1      46.775  28.947  26.824  1.00  0.00     0.167 HD
ATOM     37  C   UNL A   1      45.061  30.865  28.122  1.00  0.00     0.074 A 
ATOM     38  C   UNL A   1      43.903  31.517  28.699  1.00  0.00     0.031 C 
ATOM     39  C   UNL A   1      46.286  31.434  28.040  1.00  0.00     0.037 A 
BRANCH  26  40
ATOM     40  C   UNL A   1      50.756  27.795  25.807  1.00  0.00     0.064 A 
ATOM     41  C   UNL A   1      51.347  27.940  24.546  1.00  0.00     0.173 A 
ATOM     42  C   UNL A   1      51.571  27.405  26.881  1.00  0.00     0.173 A 
ATOM     43  F   UNL A   1      50.601  28.269  23.482  1.00  0.00    -0.203 F 
ATOM     44  C   UNL A   1      52.706  27.691  24.367  1.00  0.00     0.198 A 
ATOM     45  C   UNL A   1      52.930  27.183  26.704  1.00  0.00     0.198 A 
ATOM     46  F   UNL A   1      51.042  27.229  28.102  1.00  0.00    -0.203 F 
ATOM     47  F   UNL A   1      53.247  27.785  23.144  1.00  0.00    -0.200 F 
ATOM     48  C   UNL A   1      53.497  27.321  25.446  1.00  0.00     0.200 A 
ATOM     49  F   UNL A   1      53.689  26.820  27.748  1.00  0.00    -0.200 F 
ATOM     50  F   UNL A   1      54.803  27.081  25.271  1.00  0.00    -0.200 F 
ENDBRANCH  26  40
BRANCH  27  51
ATOM     51  C   UNL A   1      41.056  28.415  28.487  1.00  0.00     0.064 A 
ATOM     52  C   UNL A   1      40.077  28.931  27.621  1.00  0.00     0.173 A 
ATOM     53  C   UNL A   1      40.613  28.045  29.768  1.00  0.00     0.173 A 
ATOM     54  F   UNL A   1      40.417  29.330  26.387  1.00  0.00    -0.203 F 
ATOM     55  C   UNL A   1      38.740  29.062  27.999  1.00  0.00     0.198 A 
ATOM     56  C   UNL A   1      39.264  28.125  30.132  1.00  0.00     0.198 A 
ATOM     57  F   UNL A   1      41.495  27.603  30.677  1.00  0.00    -0.203 F 
ATOM     58  F   UNL A   1      37.855  29.593  27.144  1.00  0.00    -0.200 F 
ATOM     59  C   UNL A   1      38.327  28.634  29.247  1.00  0.00     0.200 A 
ATOM     60  F   UNL A   1      38.868  27.722  31.348  1.00  0.00    -0.200 F 
ATOM     61  F   UNL A   1      37.036  28.723  29.594  1.00  0.00    -0.200 F 
ENDBRANCH  27  51
BRANCH  39  62
ATOM     62  C   UNL A   1      46.409  32.808  28.619  1.00  0.00     0.064 A 
ATOM     63  C   UNL A   1      46.720  32.991  29.976  1.00  0.00     0.173 A 
ATOM     64  C   UNL A   1      46.230  33.943  27.820  1.00  0.00     0.173 A 
ATOM     65  F   UNL A   1      46.881  31.931  30.783  1.00  0.00    -0.203 F 
ATOM     66  C   UNL A   1      46.804  34.265  30.521  1.00  0.00     0.198 A 
ATOM     67  C   UNL A   1      46.361  35.218  28.360  1.00  0.00     0.198 A 
ATOM     68  F   UNL A   1      45.938  33.817  26.516  1.00  0.00    -0.203 F 
ATOM     69  F   UNL A   1      47.027  34.414  31.834  1.00  0.00    -0.200 F 
ATOM     70  C   UNL A   1      46.636  35.377  29.711  1.00  0.00     0.200 A 
ATOM     71  F   UNL A   1      46.219  36.293  27.574  1.00  0.00    -0.200 F 
ATOM     72  F   UNL A   1      46.731  36.606  30.236  1.00  0.00    -0.200 F 
ENDBRANCH  39  62
ENDBRANCH  13  14
ENDBRANCH   6   8
ENDBRANCH   5   6
ENDBRANCH   4   5
ENDBRANCH   3   4
ENDBRANCH   2   3
ENDBRANCH   1   2
BRANCH   1  73
ATOM     73  C   UNL A   1      40.690  22.440  27.097  1.00  0.00     0.188 C 
BRANCH  73  74
ATOM     74  O   UNL A   1      39.351  22.432  26.613  1.00  0.00    -0.376 OA
BRANCH  74  75
ATOM     75  C   UNL A   1      38.961  21.372  25.752  1.00  0.00     0.202 C 
BRANCH  75  76
ATOM     76  C   UNL A   1      37.645  21.513  24.976  1.00  0.00     0.261 C 
BRANCH  76  77
ATOM     77  O   UNL A   1      36.553  22.099  25.692  1.00  0.00    -0.460 OA
BRANCH  77  78
ATOM     78  C   UNL A   1      35.420  21.356  25.630  1.00  0.00     0.339 C 
ATOM     79  O   UNL A   1      35.245  20.330  25.001  1.00  0.00    -0.246 OA
BRANCH  78  80
ATOM     80  C   UNL A   1      34.305  22.076  26.264  1.00  0.00     0.077 A 
ATOM     81  C   UNL A   1      33.552  21.581  27.256  1.00  0.00     0.101 A 
ATOM     82  C   UNL A   1      34.006  23.371  25.720  1.00  0.00     0.031 A 
ATOM     83  N   UNL A   1      32.400  22.245  27.628  1.00  0.00    -0.328 N 
ATOM     84  C   UNL A   1      32.907  24.050  26.070  1.00  0.00     0.048 A 
ATOM     85  C   UNL A   1      31.939  23.393  27.005  1.00  0.00     0.255 A 
ATOM     86  H   UNL A   1      31.876  21.882  28.380  1.00  0.00     0.169 HD
ATOM     87  O   UNL A   1      30.841  23.875  27.250  1.00  0.00    -0.269 OA
BRANCH  84  88
ATOM     88  C   UNL A   1      32.892  25.446  25.623  1.00  0.00    -0.006 A 
ATOM     89  C   UNL A   1      32.100  26.396  26.276  1.00  0.00     0.009 A 
ATOM     90  C   UNL A   1      33.407  25.740  24.349  1.00  0.00     0.094 A 
ATOM     91  C   UNL A   1      31.805  27.614  25.654  1.00  0.00     0.008 A 
ATOM     92  C   UNL A   1      33.112  26.962  23.734  1.00  0.00     0.270 A 
ATOM     93  C   UNL A   1      32.307  27.901  24.382  1.00  0.00     0.085 A 
BRANCH  92  94
ATOM     94  N   UNL A   1      33.639  27.238  22.391  1.00  0.00     0.062 N 
ATOM     95  O   UNL A   1      33.653  26.305  21.576  1.00  0.00    -0.258 OA
ATOM     96  O   UNL A   1      34.027  28.390  22.156  1.00  0.00    -0.258 OA
ENDBRANCH  92  94
ENDBRANCH  84  88
ENDBRANCH  78  80
ENDBRANCH  77  78
ENDBRANCH  76  77
ENDBRANCH  75  76
ENDBRANCH  74  75
ENDBRANCH  73  74
ENDBRANCH   1  73
TORSDOF 19
ENDMDL
MODEL 2
REMARK VINA RESULT:     -11.0      5.283     10.727
REMARK SMILES O=C(OCCOCCOCCOC(=O)c1c[nH]c(=O)c(-c2cccc([N+](=O)[O-])c2)c1)c1ccc(-c2c3nc(c(-c4c(F)c(F)c(F)c(F)c4F)c4ccc([nH]4)c(-c4c(F)c(F)c(F)c(F)c4F)c4nc(c(-c5c(F)c(F)c(F)c(F)c5F)c5ccc2[nH]5)C=C4)C=C3)cc1
REMARK SMILES IDX 7 1 6 2 5 3 4 4 3 5 2 6 1 7 31 8 32 9 93 10 33 11 92 12
REMARK SMILES IDX 34 13 35 14 36 15 86 16 37 17 91 18 85 19 87 20 38 21 90 22
REMARK SMILES IDX 84 23 83 24 39 26 71 27 51 28 70 29 52 30 55 31 69 32 88 33
REMARK SMILES IDX 53 34 54 35 68 37 89 38 56 39 40 40 41 41 49 42 42 43 43 44
REMARK SMILES IDX 47 45 50 46 44 47 45 48 48 49 46 50 72 51 73 52 81 53 74 54
REMARK SMILES IDX 75 55 79 56 82 57 76 58 77 59 80 60 78 61 57 62 58 63 66 64
REMARK SMILES IDX 59 65 60 66 64 67 67 68 61 69 62 70 65 71 63 72 8 73 9 74
REMARK SMILES IDX 10 75 11 76 12 77 13 78 14 79 15 80 16 81 30 82 17 83 20 84
REMARK SMILES IDX 18 85 19 87 21 88 22 89 29 90 23 91 25 92 24 93 26 94 27 95
REMARK SMILES IDX 28 96
REMARK H PARENT 87 25 55 36 17 86
REMARK Flexibility Score: inf
ROOT
ATOM      1  C   UNL A   1      32.330  26.925  26.243  1.00  0.00     0.188 C 
ENDROOT
BRANCH   1   2
ATOM      2  O   UNL A   1      32.585  27.929  27.230  1.00  0.00    -0.376 OA
BRANCH   2   3
ATOM      3  C   UNL A   1      31.630  28.997  27.247  1.00  0.00     0.202 C 
BRANCH   3   4
ATOM      4  C   UNL A   1      31.844  30.127  26.223  1.00  0.00     0.261 C 
BRANCH   4   5
ATOM      5  O   UNL A   1      33.161  30.702  26.230  1.00  0.00    -0.460 OA
BRANCH   5   6
ATOM      6  C   UNL A   1      33.763  31.456  27.180  1.00  0.00     0.338 C 
ATOM      7  O   UNL A   1      33.244  32.522  27.506  1.00  0.00    -0.246 OA
BRANCH   6   8
ATOM      8  C   UNL A   1      35.037  31.077  27.854  1.00  0.00     0.060 A 
ATOM      9  C   UNL A   1      36.085  31.954  28.125  1.00  0.00     0.016 A 
ATOM     10  C   UNL A   1      35.124  29.771  28.365  1.00  0.00     0.016 A 
ATOM     11  C   UNL A   1      37.216  31.549  28.824  1.00  0.00     0.010 A 
ATOM     12  C   UNL A   1      36.234  29.366  29.112  1.00  0.00     0.010 A 
ATOM     13  C   UNL A   1      37.290  30.257  29.333  1.00  0.00    -0.014 A 
BRANCH  13  14
ATOM     14  C   UNL A   1      38.497  29.869  30.084  1.00  0.00     0.031 A 
ATOM     15  C   UNL A   1      38.650  30.336  31.488  1.00  0.00     0.074 A 
ATOM     16  C   UNL A   1      39.405  29.056  29.515  1.00  0.00     0.049 A 
ATOM     17  N   UNL A   1      39.603  30.064  32.334  1.00  0.00    -0.248 NA
ATOM     18  C   UNL A   1      37.588  31.205  32.019  1.00  0.00     0.031 C 
ATOM     19  C   UNL A   1      39.266  28.496  28.175  1.00  0.00     0.029 A 
ATOM     20  N   UNL A   1      40.602  28.549  29.964  1.00  0.00    -0.354 N 
ATOM     21  C   UNL A   1      39.290  30.769  33.481  1.00  0.00     0.074 A 
ATOM     22  C   UNL A   1      38.036  31.451  33.242  1.00  0.00     0.031 C 
ATOM     23  C   UNL A   1      40.346  27.750  27.915  1.00  0.00     0.029 A 
ATOM     24  C   UNL A   1      41.251  27.759  29.040  1.00  0.00     0.049 A 
ATOM     25  H   UNL A   1      40.960  28.734  30.861  1.00  0.00     0.167 HD
ATOM     26  C   UNL A   1      40.023  30.858  34.610  1.00  0.00     0.037 A 
ATOM     27  C   UNL A   1      42.429  27.102  29.087  1.00  0.00     0.037 A 
ATOM     28  C   UNL A   1      41.265  30.163  34.811  1.00  0.00     0.049 A 
ATOM     29  C   UNL A   1      43.172  27.195  30.387  1.00  0.00     0.074 A 
ATOM     30  C   UNL A   1      42.109  30.212  35.903  1.00  0.00     0.029 A 
ATOM     31  N   UNL A   1      41.848  29.300  33.888  1.00  0.00    -0.354 N 
ATOM     32  N   UNL A   1      42.788  27.748  31.512  1.00  0.00    -0.248 NA
ATOM     33  C   UNL A   1      44.493  26.560  30.443  1.00  0.00     0.031 C 
ATOM     34  C   UNL A   1      43.239  29.441  35.612  1.00  0.00     0.029 A 
ATOM     35  C   UNL A   1      43.074  28.865  34.362  1.00  0.00     0.049 A 
ATOM     36  H   UNL A   1      41.448  29.038  33.028  1.00  0.00     0.167 HD
ATOM     37  C   UNL A   1      43.808  27.505  32.410  1.00  0.00     0.074 A 
ATOM     38  C   UNL A   1      44.770  26.662  31.732  1.00  0.00     0.031 C 
ATOM     39  C   UNL A   1      43.979  27.993  33.662  1.00  0.00     0.037 A 
BRANCH  26  40
ATOM     40  C   UNL A   1      39.565  31.844  35.635  1.00  0.00     0.064 A 
ATOM     41  C   UNL A   1      40.084  33.141  35.723  1.00  0.00     0.173 A 
ATOM     42  C   UNL A   1      38.593  31.453  36.569  1.00  0.00     0.173 A 
ATOM     43  F   UNL A   1      41.046  33.545  34.880  1.00  0.00    -0.203 F 
ATOM     44  C   UNL A   1      39.651  34.012  36.720  1.00  0.00     0.198 A 
ATOM     45  C   UNL A   1      38.145  32.333  37.545  1.00  0.00     0.198 A 
ATOM     46  F   UNL A   1      38.086  30.211  36.538  1.00  0.00    -0.203 F 
ATOM     47  F   UNL A   1      40.193  35.233  36.822  1.00  0.00    -0.200 F 
ATOM     48  C   UNL A   1      38.677  33.611  37.624  1.00  0.00     0.200 A 
ATOM     49  F   UNL A   1      37.208  31.939  38.420  1.00  0.00    -0.200 F 
ATOM     50  F   UNL A   1      38.262  34.450  38.583  1.00  0.00    -0.200 F 
ENDBRANCH  26  40
BRANCH  27  51
ATOM     51  C   UNL A   1      42.961  26.279  27.944  1.00  0.00     0.064 A 
ATOM     52  C   UNL A   1      43.758  26.853  26.939  1.00  0.00     0.173 A 
ATOM     53  C   UNL A   1      42.666  24.914  27.793  1.00  0.00     0.173 A 
ATOM     54  F   UNL A   1      44.069  28.156  26.993  1.00  0.00    -0.203 F 
ATOM     55  C   UNL A   1      44.241  26.115  25.857  1.00  0.00     0.198 A 
ATOM     56  C   UNL A   1      43.194  24.159  26.739  1.00  0.00     0.198 A 
ATOM     57  F   UNL A   1      41.858  24.304  28.673  1.00  0.00    -0.203 F 
ATOM     58  F   UNL A   1      44.970  26.722  24.910  1.00  0.00    -0.200 F 
ATOM     59  C   UNL A   1      43.981  24.761  25.770  1.00  0.00     0.200 A 
ATOM     60  F   UNL A   1      42.928  22.848  26.649  1.00  0.00    -0.200 F 
ATOM     61  F   UNL A   1      44.479  24.045  24.753  1.00  0.00    -0.200 F 
ENDBRANCH  27  51
BRANCH  39  62
ATOM     62  C   UNL A   1      45.267  27.634  34.332  1.00  0.00     0.064 A 
ATOM     63  C   UNL A   1      45.351  26.508  35.169  1.00  0.00     0.173 A 
ATOM     64  C   UNL A   1      46.421  28.400  34.132  1.00  0.00     0.173 A 
ATOM     65  F   UNL A   1      44.265  25.756  35.405  1.00  0.00    -0.203 F 
ATOM     66  C   UNL A   1      46.538  26.191  35.817  1.00  0.00     0.198 A 
ATOM     67  C   UNL A   1      47.619  28.050  34.745  1.00  0.00     0.198 A 
ATOM     68  F   UNL A   1      46.389  29.479  33.335  1.00  0.00    -0.203 F 
ATOM     69  F   UNL A   1      46.575  25.158  36.669  1.00  0.00    -0.200 F 
ATOM     70  C   UNL A   1      47.673  26.955  35.595  1.00  0.00     0.200 A 
ATOM     71  F   UNL A   1      48.722  28.776  34.517  1.00  0.00    -0.200 F 
ATOM     72  F   UNL A   1      48.820  26.638  36.210  1.00  0.00    -0.200 F 
ENDBRANCH  39  62
ENDBRANCH  13  14
ENDBRANCH   6   8
ENDBRANCH   5   6
ENDBRANCH   4   5
ENDBRANCH   3   4
ENDBRANCH   2   3
ENDBRANCH   1   2
BRANCH   1  73
ATOM     73  C   UNL A   1      33.563  26.570  25.417  1.00  0.00     0.188 C 
BRANCH  73  74
ATOM     74  O   UNL A   1      34.092  27.579  24.564  1.00  0.00    -0.376 OA
BRANCH  74  75
ATOM     75  C   UNL A   1      33.236  28.127  23.570  1.00  0.00     0.202 C 
BRANCH  75  76
ATOM     76  C   UNL A   1      33.367  27.609  22.133  1.00  0.00     0.261 C 
BRANCH  76  77
ATOM     77  O   UNL A   1      33.967  26.319  21.982  1.00  0.00    -0.460 OA
BRANCH  77  78
ATOM     78  C   UNL A   1      33.141  25.417  21.395  1.00  0.00     0.339 C 
ATOM     79  O   UNL A   1      32.875  25.321  20.213  1.00  0.00    -0.246 OA
BRANCH  78  80
ATOM     80  C   UNL A   1      32.398  24.666  22.420  1.00  0.00     0.077 A 
ATOM     81  C   UNL A   1      31.114  24.885  22.735  1.00  0.00     0.101 A 
ATOM     82  C   UNL A   1      33.152  23.679  23.142  1.00  0.00     0.031 A 
ATOM     83  N   UNL A   1      30.579  24.280  23.855  1.00  0.00    -0.328 N 
ATOM     84  C   UNL A   1      32.659  23.062  24.223  1.00  0.00     0.048 A 
ATOM     85  C   UNL A   1      31.308  23.476  24.717  1.00  0.00     0.255 A 
ATOM     86  H   UNL A   1      29.625  24.428  24.052  1.00  0.00     0.169 HD
ATOM     87  O   UNL A   1      30.853  23.079  25.782  1.00  0.00    -0.269 OA
BRANCH  84  88
ATOM     88  C   UNL A   1      33.449  21.913  24.674  1.00  0.00    -0.006 A 
ATOM     89  C   UNL A   1      34.819  22.044  24.924  1.00  0.00     0.009 A 
ATOM     90  C   UNL A   1      32.899  20.629  24.525  1.00  0.00     0.094 A 
ATOM     91  C   UNL A   1      35.632  20.908  25.001  1.00  0.00     0.008 A 
ATOM     92  C   UNL A   1      33.716  19.496  24.607  1.00  0.00     0.270 A 
ATOM     93  C   UNL A   1      35.086  19.632  24.841  1.00  0.00     0.085 A 
BRANCH  92  94
ATOM     94  N   UNL A   1      33.124  18.165  24.423  1.00  0.00     0.062 N 
ATOM     95  O   UNL A   1      31.958  17.997  24.806  1.00  0.00    -0.258 OA
ATOM     96  O   UNL A   1      33.826  17.297  23.887  1.00  0.00    -0.258 OA
ENDBRANCH  92  94
ENDBRANCH  84  88
ENDBRANCH  78  80
ENDBRANCH  77  78
ENDBRANCH  76  77
ENDBRANCH  75  76
ENDBRANCH  74  75
ENDBRANCH  73  74
ENDBRANCH   1  73
TORSDOF 19
ENDMDL
MODEL 3
REMARK VINA RESULT:     -10.9      4.302      9.351
REMARK SMILES O=C(OCCOCCOCCOC(=O)c1c[nH]c(=O)c(-c2cccc([N+](=O)[O-])c2)c1)c1ccc(-c2c3nc(c(-c4c(F)c(F)c(F)c(F)c4F)c4ccc([nH]4)c(-c4c(F)c(F)c(F)c(F)c4F)c4nc(c(-c5c(F)c(F)c(F)c(F)c5F)c5ccc2[nH]5)C=C4)C=C3)cc1
REMARK SMILES IDX 7 1 6 2 5 3 4 4 3 5 2 6 1 7 31 8 32 9 93 10 33 11 92 12
REMARK SMILES IDX 34 13 35 14 36 15 86 16 37 17 91 18 85 19 87 20 38 21 90 22
REMARK SMILES IDX 84 23 83 24 39 26 71 27 51 28 70 29 52 30 55 31 69 32 88 33
REMARK SMILES IDX 53 34 54 35 68 37 89 38 56 39 40 40 41 41 49 42 42 43 43 44
REMARK SMILES IDX 47 45 50 46 44 47 45 48 48 49 46 50 72 51 73 52 81 53 74 54
REMARK SMILES IDX 75 55 79 56 82 57 76 58 77 59 80 60 78 61 57 62 58 63 66 64
REMARK SMILES IDX 59 65 60 66 64 67 67 68 61 69 62 70 65 71 63 72 8 73 9 74
REMARK SMILES IDX 10 75 11 76 12 77 13 78 14 79 15 80 16 81 30 82 17 83 20 84
REMARK SMILES IDX 18 85 19 87 21 88 22 89 29 90 23 91 25 92 24 93 26 94 27 95
REMARK SMILES IDX 28 96
REMARK H PARENT 87 25 55 36 17 86
REMARK Flexibility Score: inf
ROOT
ATOM      1  C   UNL A   1      31.887  26.713  26.149  1.00  0.00     0.188 C 
ENDROOT
BRANCH   1   2
ATOM      2  O   UNL A   1      31.646  27.137  27.493  1.00  0.00    -0.376 OA
BRANCH   2   3
ATOM      3  C   UNL A   1      31.400  28.541  27.635  1.00  0.00     0.202 C 
BRANCH   3   4
ATOM      4  C   UNL A   1      32.369  29.486  26.901  1.00  0.00     0.261 C 
BRANCH   4   5
ATOM      5  O   UNL A   1      33.744  29.366  27.302  1.00  0.00    -0.460 OA
BRANCH   5   6
ATOM      6  C   UNL A   1      34.536  30.266  27.929  1.00  0.00     0.338 C 
ATOM      7  O   UNL A   1      34.091  31.390  28.156  1.00  0.00    -0.246 OA
BRANCH   6   8
ATOM      8  C   UNL A   1      35.936  29.982  28.356  1.00  0.00     0.060 A 
ATOM      9  C   UNL A   1      36.299  29.444  29.589  1.00  0.00     0.016 A 
ATOM     10  C   UNL A   1      36.943  30.150  27.390  1.00  0.00     0.016 A 
ATOM     11  C   UNL A   1      37.619  29.137  29.893  1.00  0.00     0.010 A 
ATOM     12  C   UNL A   1      38.268  29.798  27.667  1.00  0.00     0.010 A 
ATOM     13  C   UNL A   1      38.609  29.299  28.929  1.00  0.00    -0.014 A 
BRANCH  13  14
ATOM     14  C   UNL A   1      39.994  28.945  29.283  1.00  0.00     0.031 A 
ATOM     15  C   UNL A   1      40.756  29.842  30.192  1.00  0.00     0.074 A 
ATOM     16  C   UNL A   1      40.525  27.793  28.832  1.00  0.00     0.049 A 
ATOM     17  N   UNL A   1      41.959  29.685  30.666  1.00  0.00    -0.248 NA
ATOM     18  C   UNL A   1      40.074  31.065  30.644  1.00  0.00     0.031 C 
ATOM     19  C   UNL A   1      39.797  26.832  28.011  1.00  0.00     0.029 A 
ATOM     20  N   UNL A   1      41.765  27.223  28.989  1.00  0.00    -0.354 N 
ATOM     21  C   UNL A   1      42.205  30.811  31.428  1.00  0.00     0.074 A 
ATOM     22  C   UNL A   1      41.011  31.629  31.391  1.00  0.00     0.031 C 
ATOM     23  C   UNL A   1      40.617  25.814  27.725  1.00  0.00     0.029 A 
ATOM     24  C   UNL A   1      41.913  26.023  28.328  1.00  0.00     0.049 A 
ATOM     25  H   UNL A   1      42.481  27.635  29.525  1.00  0.00     0.167 HD
ATOM     26  C   UNL A   1      43.352  31.134  32.062  1.00  0.00     0.037 A 
ATOM     27  C   UNL A   1      42.958  25.175  28.223  1.00  0.00     0.037 A 
ATOM     28  C   UNL A   1      44.517  30.293  32.079  1.00  0.00     0.049 A 
ATOM     29  C   UNL A   1      44.186  25.561  28.993  1.00  0.00     0.074 A 
ATOM     30  C   UNL A   1      45.746  30.540  32.658  1.00  0.00     0.029 A 
ATOM     31  N   UNL A   1      44.600  29.044  31.472  1.00  0.00    -0.354 N 
ATOM     32  N   UNL A   1      44.349  26.560  29.827  1.00  0.00    -0.248 NA
ATOM     33  C   UNL A   1      45.365  24.704  28.835  1.00  0.00     0.031 C 
ATOM     34  C   UNL A   1      46.597  29.478  32.340  1.00  0.00     0.029 A 
ATOM     35  C   UNL A   1      45.883  28.541  31.610  1.00  0.00     0.049 A 
ATOM     36  H   UNL A   1      43.859  28.586  31.015  1.00  0.00     0.167 HD
ATOM     37  C   UNL A   1      45.637  26.433  30.309  1.00  0.00     0.074 A 
ATOM     38  C   UNL A   1      46.169  25.202  29.760  1.00  0.00     0.031 C 
ATOM     39  C   UNL A   1      46.352  27.289  31.075  1.00  0.00     0.037 A 
BRANCH  26  40
ATOM     40  C   UNL A   1      43.432  32.503  32.655  1.00  0.00     0.064 A 
ATOM     41  C   UNL A   1      43.774  33.635  31.905  1.00  0.00     0.173 A 
ATOM     42  C   UNL A   1      43.179  32.667  34.026  1.00  0.00     0.173 A 
ATOM     43  F   UNL A   1      44.067  33.521  30.601  1.00  0.00    -0.203 F 
ATOM     44  C   UNL A   1      43.872  34.885  32.512  1.00  0.00     0.198 A 
ATOM     45  C   UNL A   1      43.252  33.919  34.622  1.00  0.00     0.198 A 
ATOM     46  F   UNL A   1      42.872  31.606  34.788  1.00  0.00    -0.203 F 
ATOM     47  F   UNL A   1      44.250  35.949  31.791  1.00  0.00    -0.200 F 
ATOM     48  C   UNL A   1      43.603  35.027  33.867  1.00  0.00     0.200 A 
ATOM     49  F   UNL A   1      42.997  34.051  35.932  1.00  0.00    -0.200 F 
ATOM     50  F   UNL A   1      43.698  36.231  34.448  1.00  0.00    -0.200 F 
ENDBRANCH  26  40
BRANCH  27  51
ATOM     51  C   UNL A   1      42.904  23.893  27.435  1.00  0.00     0.064 A 
ATOM     52  C   UNL A   1      42.480  22.690  28.025  1.00  0.00     0.173 A 
ATOM     53  C   UNL A   1      43.305  23.813  26.092  1.00  0.00     0.173 A 
ATOM     54  F   UNL A   1      42.101  22.671  29.311  1.00  0.00    -0.203 F 
ATOM     55  C   UNL A   1      42.446  21.486  27.321  1.00  0.00     0.198 A 
ATOM     56  C   UNL A   1      43.220  22.618  25.368  1.00  0.00     0.198 A 
ATOM     57  F   UNL A   1      43.784  24.903  25.472  1.00  0.00    -0.203 F 
ATOM     58  F   UNL A   1      42.064  20.361  27.944  1.00  0.00    -0.200 F 
ATOM     59  C   UNL A   1      42.791  21.454  25.984  1.00  0.00     0.200 A 
ATOM     60  F   UNL A   1      43.570  22.587  24.074  1.00  0.00    -0.200 F 
ATOM     61  F   UNL A   1      42.719  20.305  25.299  1.00  0.00    -0.200 F 
ENDBRANCH  27  51
BRANCH  39  62
ATOM     62  C   UNL A   1      47.778  26.912  31.321  1.00  0.00     0.064 A 
ATOM     63  C   UNL A   1      48.802  27.394  30.488  1.00  0.00     0.173 A 
ATOM     64  C   UNL A   1      48.130  26.083  32.392  1.00  0.00     0.173 A 
ATOM     65  F   UNL A   1      48.509  28.177  29.438  1.00  0.00    -0.203 F 
ATOM     66  C   UNL A   1      50.123  27.021  30.696  1.00  0.00     0.198 A 
ATOM     67  C   UNL A   1      49.459  25.749  32.624  1.00  0.00     0.198 A 
ATOM     68  F   UNL A   1      47.186  25.604  33.218  1.00  0.00    -0.203 F 
ATOM     69  F   UNL A   1      51.072  27.431  29.844  1.00  0.00    -0.200 F 
ATOM     70  C   UNL A   1      50.452  26.208  31.769  1.00  0.00     0.200 A 
ATOM     71  F   UNL A   1      49.781  24.981  33.673  1.00  0.00    -0.200 F 
ATOM     72  F   UNL A   1      51.729  25.861  31.976  1.00  0.00    -0.200 F 
ENDBRANCH  39  62
ENDBRANCH  13  14
ENDBRANCH   6   8
ENDBRANCH   5   6
ENDBRANCH   4   5
ENDBRANCH   3   4
ENDBRANCH   2   3
ENDBRANCH   1   2
BRANCH   1  73
ATOM     73  C   UNL A   1      33.251  26.054  25.964  1.00  0.00     0.188 C 
BRANCH  73  74
ATOM     74  O   UNL A   1      34.023  26.453  24.836  1.00  0.00    -0.376 OA
BRANCH  74  75
ATOM     75  C   UNL A   1      33.476  27.436  23.969  1.00  0.00     0.202 C 
BRANCH  75  76
ATOM     76  C   UNL A   1      33.620  27.231  22.456  1.00  0.00     0.261 C 
BRANCH  76  77
ATOM     77  O   UNL A   1      33.893  25.894  22.026  1.00  0.00    -0.460 OA
BRANCH  77  78
ATOM     78  C   UNL A   1      32.808  25.277  21.496  1.00  0.00     0.339 C 
ATOM     79  O   UNL A   1      32.344  25.429  20.382  1.00  0.00    -0.246 OA
BRANCH  78  80
ATOM     80  C   UNL A   1      32.090  24.527  22.539  1.00  0.00     0.077 A 
ATOM     81  C   UNL A   1      30.841  24.798  22.941  1.00  0.00     0.101 A 
ATOM     82  C   UNL A   1      32.833  23.477  23.178  1.00  0.00     0.031 A 
ATOM     83  N   UNL A   1      30.344  24.179  24.071  1.00  0.00    -0.328 N 
ATOM     84  C   UNL A   1      32.375  22.846  24.266  1.00  0.00     0.048 A 
ATOM     85  C   UNL A   1      31.080  23.309  24.858  1.00  0.00     0.255 A 
ATOM     86  H   UNL A   1      29.413  24.368  24.332  1.00  0.00     0.169 HD
ATOM     87  O   UNL A   1      30.671  22.896  25.935  1.00  0.00    -0.269 OA
BRANCH  84  88
ATOM     88  C   UNL A   1      33.130  21.643  24.628  1.00  0.00    -0.006 A 
ATOM     89  C   UNL A   1      34.499  21.716  24.902  1.00  0.00     0.009 A 
ATOM     90  C   UNL A   1      32.548  20.391  24.368  1.00  0.00     0.094 A 
ATOM     91  C   UNL A   1      35.282  20.557  24.892  1.00  0.00     0.008 A 
ATOM     92  C   UNL A   1      33.335  19.234  24.363  1.00  0.00     0.270 A 
ATOM     93  C   UNL A   1      34.705  19.313  24.621  1.00  0.00     0.085 A 
BRANCH  92  94
ATOM     94  N   UNL A   1      32.712  17.939  24.063  1.00  0.00     0.062 N 
ATOM     95  O   UNL A   1      31.840  17.527  24.841  1.00  0.00    -0.258 OA
ATOM     96  O   UNL A   1      33.091  17.345  23.045  1.00  0.00    -0.258 OA
ENDBRANCH  92  94
ENDBRANCH  84  88
ENDBRANCH  78  80
ENDBRANCH  77  78
ENDBRANCH  76  77
ENDBRANCH  75  76
ENDBRANCH  74  75
ENDBRANCH  73  74
ENDBRANCH   1  73
TORSDOF 19
ENDMDL
