MODEL 1
REMARK VINA RESULT:     -10.0      0.000      0.000
REMARK SMILES COCCCC(=O)N[C@H]1CC[C@@H](C(=O)OCCOCCOCCOC(=O)c2ccc(-c3c4nc(c(-c5c(F)c(F)c(F)c(F)c5F)c5ccc([nH]5)c(-c5c(F)c(F)c(F)c(F)c5F)c5nc(c(-c6c(F)c(F)c(F)c(F)c6F)c6ccc3[nH]6)C=C5)C=C4)cc2)CC1
REMARK SMILES IDX 18 1 17 2 16 3 15 4 13 5 14 6 12 7 9 8 10 9 91 10 11 11
REMARK SMILES IDX 90 12 8 13 6 14 7 15 5 17 4 18 3 19 2 20 1 21 19 22 20 23
REMARK SMILES IDX 21 24 22 25 23 26 24 27 25 28 26 29 27 30 28 31 89 32 29 33
REMARK SMILES IDX 88 34 30 35 31 36 32 37 82 38 33 39 87 40 81 41 83 42 34 43
REMARK SMILES IDX 86 44 80 45 79 46 35 48 67 49 47 50 66 51 48 52 51 53 65 54
REMARK SMILES IDX 84 55 49 56 50 57 64 59 85 60 52 61 36 62 37 63 45 64 38 65
REMARK SMILES IDX 39 66 43 67 46 68 40 69 41 70 44 71 42 72 68 73 69 74 77 75
REMARK SMILES IDX 70 76 71 77 75 78 78 79 72 80 73 81 76 82 74 83 53 84 54 85
REMARK SMILES IDX 62 86 55 87 56 88 60 89 63 90 57 91 58 92 61 93 59 94
REMARK H PARENT 8 16 83 47 51 58
REMARK Flexibility Score: inf
ROOT
ATOM      1  O   UNL A   1      33.389  28.879  24.866  1.00  0.00    -0.376 OA
ENDROOT
BRANCH   1   2
ATOM      2  C   UNL A   1      32.029  29.195  24.577  1.00  0.00     0.202 C 
BRANCH   2   3
ATOM      3  C   UNL A   1      31.020  28.041  24.634  1.00  0.00     0.261 C 
BRANCH   3   4
ATOM      4  O   UNL A   1      31.613  26.730  24.647  1.00  0.00    -0.463 OA
BRANCH   4   5
ATOM      5  C   UNL A   1      31.297  25.941  25.705  1.00  0.00     0.309 C 
ATOM      6  O   UNL A   1      31.622  26.162  26.867  1.00  0.00    -0.252 OA
BRANCH   5   7
ATOM      7  C   UNL A   1      30.524  24.690  25.317  1.00  0.00     0.099 C 
ATOM      8  C   UNL A   1      32.322  22.380  24.909  1.00  0.00     0.082 C 
ATOM      9  C   UNL A   1      32.131  23.017  26.287  1.00  0.00     0.026 C 
ATOM     10  C   UNL A   1      32.123  23.378  23.772  1.00  0.00     0.026 C 
ATOM     11  C   UNL A   1      30.754  23.656  26.415  1.00  0.00     0.017 C 
ATOM     12  C   UNL A   1      30.781  24.100  23.921  1.00  0.00     0.017 C 
BRANCH   8  13
ATOM     13  N   UNL A   1      33.601  21.710  24.867  1.00  0.00    -0.353 N 
ATOM     14  C   UNL A   1      33.854  20.393  24.639  1.00  0.00     0.220 C 
ATOM     15  O   UNL A   1      34.963  19.954  24.949  1.00  0.00    -0.275 OA
ATOM     16  H   UNL A   1      34.390  22.279  25.023  1.00  0.00     0.163 HD
BRANCH  14  17
ATOM     17  C   UNL A   1      32.848  19.520  23.903  1.00  0.00     0.102 C 
BRANCH  17  18
ATOM     18  C   UNL A   1      32.693  18.046  24.286  1.00  0.00     0.038 C 
BRANCH  18  19
ATOM     19  C   UNL A   1      33.275  16.904  23.438  1.00  0.00     0.160 C 
BRANCH  19  20
ATOM     20  O   UNL A   1      34.170  15.922  23.945  1.00  0.00    -0.385 OA
ATOM     21  C   UNL A   1      34.800  16.095  25.194  1.00  0.00     0.194 C 
ENDBRANCH  19  20
ENDBRANCH  18  19
ENDBRANCH  17  18
ENDBRANCH  14  17
ENDBRANCH   8  13
ENDBRANCH   5   7
ENDBRANCH   4   5
ENDBRANCH   3   4
ENDBRANCH   2   3
ENDBRANCH   1   2
BRANCH   1  22
ATOM     22  C   UNL A   1      33.802  28.953  26.223  1.00  0.00     0.188 C 
BRANCH  22  23
ATOM     23  C   UNL A   1      32.876  29.691  27.189  1.00  0.00     0.188 C 
BRANCH  23  24
ATOM     24  O   UNL A   1      33.179  31.056  27.429  1.00  0.00    -0.376 OA
BRANCH  24  25
ATOM     25  C   UNL A   1      32.112  31.980  27.177  1.00  0.00     0.202 C 
BRANCH  25  26
ATOM     26  C   UNL A   1      32.494  33.476  27.252  1.00  0.00     0.261 C 
BRANCH  26  27
ATOM     27  O   UNL A   1      32.447  34.057  28.577  1.00  0.00    -0.460 OA
BRANCH  27  28
ATOM     28  C   UNL A   1      33.486  34.842  28.943  1.00  0.00     0.338 C 
ATOM     29  O   UNL A   1      33.432  36.032  29.209  1.00  0.00    -0.246 OA
BRANCH  28  30
ATOM     30  C   UNL A   1      34.668  33.984  29.242  1.00  0.00     0.060 A 
ATOM     31  C   UNL A   1      34.466  32.859  30.052  1.00  0.00     0.016 A 
ATOM     32  C   UNL A   1      35.936  34.221  28.697  1.00  0.00     0.016 A 
ATOM     33  C   UNL A   1      35.532  32.014  30.375  1.00  0.00     0.010 A 
ATOM     34  C   UNL A   1      37.007  33.376  29.024  1.00  0.00     0.010 A 
ATOM     35  C   UNL A   1      36.822  32.292  29.903  1.00  0.00    -0.014 A 
BRANCH  35  36
ATOM     36  C   UNL A   1      37.985  31.586  30.509  1.00  0.00     0.031 A 
ATOM     37  C   UNL A   1      38.349  31.905  31.937  1.00  0.00     0.074 A 
ATOM     38  C   UNL A   1      38.676  30.636  29.850  1.00  0.00     0.049 A 
ATOM     39  N   UNL A   1      39.286  31.396  32.695  1.00  0.00    -0.248 NA
ATOM     40  C   UNL A   1      37.538  32.940  32.598  1.00  0.00     0.031 C 
ATOM     41  C   UNL A   1      38.427  30.204  28.478  1.00  0.00     0.029 A 
ATOM     42  N   UNL A   1      39.735  29.862  30.261  1.00  0.00    -0.354 N 
ATOM     43  C   UNL A   1      39.169  32.039  33.922  1.00  0.00     0.074 A 
ATOM     44  C   UNL A   1      38.104  33.009  33.791  1.00  0.00     0.031 C 
ATOM     45  C   UNL A   1      39.314  29.243  28.157  1.00  0.00     0.029 A 
ATOM     46  C   UNL A   1      40.205  29.006  29.293  1.00  0.00     0.049 A 
ATOM     47  H   UNL A   1      40.122  29.915  31.164  1.00  0.00     0.167 HD
ATOM     48  C   UNL A   1      39.868  31.830  35.063  1.00  0.00     0.037 A 
ATOM     49  C   UNL A   1      41.239  28.140  29.319  1.00  0.00     0.037 A 
ATOM     50  C   UNL A   1      40.939  30.880  35.205  1.00  0.00     0.049 A 
ATOM     51  C   UNL A   1      42.051  27.975  30.583  1.00  0.00     0.074 A 
ATOM     52  C   UNL A   1      41.703  30.602  36.326  1.00  0.00     0.029 A 
ATOM     53  N   UNL A   1      41.405  30.058  34.191  1.00  0.00    -0.354 N 
ATOM     54  N   UNL A   1      41.908  28.562  31.746  1.00  0.00    -0.248 NA
ATOM     55  C   UNL A   1      43.165  27.014  30.534  1.00  0.00     0.031 C 
ATOM     56  C   UNL A   1      42.664  29.647  35.976  1.00  0.00     0.029 A 
ATOM     57  C   UNL A   1      42.460  29.288  34.655  1.00  0.00     0.049 A 
ATOM     58  H   UNL A   1      41.040  30.025  33.277  1.00  0.00     0.167 HD
ATOM     59  C   UNL A   1      42.891  28.024  32.571  1.00  0.00     0.074 A 
ATOM     60  C   UNL A   1      43.610  27.048  31.782  1.00  0.00     0.031 C 
ATOM     61  C   UNL A   1      43.172  28.315  33.866  1.00  0.00     0.037 A 
BRANCH  48  62
ATOM     62  C   UNL A   1      39.500  32.666  36.255  1.00  0.00     0.064 A 
ATOM     63  C   UNL A   1      38.507  32.257  37.158  1.00  0.00     0.173 A 
ATOM     64  C   UNL A   1      40.164  33.875  36.511  1.00  0.00     0.173 A 
ATOM     65  F   UNL A   1      37.830  31.117  36.948  1.00  0.00    -0.203 F 
ATOM     66  C   UNL A   1      38.175  33.042  38.259  1.00  0.00     0.198 A 
ATOM     67  C   UNL A   1      39.850  34.641  37.629  1.00  0.00     0.198 A 
ATOM     68  F   UNL A   1      41.122  34.309  35.678  1.00  0.00    -0.203 F 
ATOM     69  F   UNL A   1      37.189  32.656  39.080  1.00  0.00    -0.200 F 
ATOM     70  C   UNL A   1      38.852  34.228  38.498  1.00  0.00     0.200 A 
ATOM     71  F   UNL A   1      40.513  35.782  37.864  1.00  0.00    -0.200 F 
ATOM     72  F   UNL A   1      38.535  34.979  39.562  1.00  0.00    -0.200 F 
ENDBRANCH  48  62
BRANCH  49  73
ATOM     73  C   UNL A   1      41.586  27.355  28.103  1.00  0.00     0.064 A 
ATOM     74  C   UNL A   1      42.464  27.861  27.134  1.00  0.00     0.173 A 
ATOM     75  C   UNL A   1      41.006  26.100  27.864  1.00  0.00     0.173 A 
ATOM     76  F   UNL A   1      43.018  29.071  27.299  1.00  0.00    -0.203 F 
ATOM     77  C   UNL A   1      42.730  27.153  25.962  1.00  0.00     0.198 A 
ATOM     78  C   UNL A   1      41.296  25.380  26.707  1.00  0.00     0.198 A 
ATOM     79  F   UNL A   1      40.151  25.575  28.753  1.00  0.00    -0.203 F 
ATOM     80  F   UNL A   1      43.525  27.687  25.026  1.00  0.00    -0.200 F 
ATOM     81  C   UNL A   1      42.150  25.911  25.752  1.00  0.00     0.200 A 
ATOM     82  F   UNL A   1      40.737  24.178  26.510  1.00  0.00    -0.200 F 
ATOM     83  F   UNL A   1      42.403  25.233  24.625  1.00  0.00    -0.200 F 
ENDBRANCH  49  73
BRANCH  61  84
ATOM     84  C   UNL A   1      44.285  27.548  34.525  1.00  0.00     0.064 A 
ATOM     85  C   UNL A   1      44.066  26.305  35.138  1.00  0.00     0.173 A 
ATOM     86  C   UNL A   1      45.596  28.052  34.520  1.00  0.00     0.173 A 
ATOM     87  F   UNL A   1      42.832  25.782  35.180  1.00  0.00    -0.203 F 
ATOM     88  C   UNL A   1      45.108  25.614  35.752  1.00  0.00     0.198 A 
ATOM     89  C   UNL A   1      46.641  27.342  35.107  1.00  0.00     0.198 A 
ATOM     90  F   UNL A   1      45.866  29.230  33.939  1.00  0.00    -0.203 F 
ATOM     91  F   UNL A   1      44.863  24.456  36.381  1.00  0.00    -0.200 F 
ATOM     92  C   UNL A   1      46.395  26.130  35.731  1.00  0.00     0.200 A 
ATOM     93  F   UNL A   1      47.887  27.836  35.071  1.00  0.00    -0.200 F 
ATOM     94  F   UNL A   1      47.396  25.463  36.322  1.00  0.00    -0.200 F 
ENDBRANCH  61  84
ENDBRANCH  35  36
ENDBRANCH  28  30
ENDBRANCH  27  28
ENDBRANCH  26  27
ENDBRANCH  25  26
ENDBRANCH  24  25
ENDBRANCH  23  24
ENDBRANCH  22  23
ENDBRANCH   1  22
TORSDOF 22
ENDMDL
MODEL 2
REMARK VINA RESULT:      -9.9      3.149      9.061
REMARK SMILES COCCCC(=O)N[C@H]1CC[C@@H](C(=O)OCCOCCOCCOC(=O)c2ccc(-c3c4nc(c(-c5c(F)c(F)c(F)c(F)c5F)c5ccc([nH]5)c(-c5c(F)c(F)c(F)c(F)c5F)c5nc(c(-c6c(F)c(F)c(F)c(F)c6F)c6ccc3[nH]6)C=C5)C=C4)cc2)CC1
REMARK SMILES IDX 18 1 17 2 16 3 15 4 13 5 14 6 12 7 9 8 10 9 91 10 11 11
REMARK SMILES IDX 90 12 8 13 6 14 7 15 5 17 4 18 3 19 2 20 1 21 19 22 20 23
REMARK SMILES IDX 21 24 22 25 23 26 24 27 25 28 26 29 27 30 28 31 89 32 29 33
REMARK SMILES IDX 88 34 30 35 31 36 32 37 82 38 33 39 87 40 81 41 83 42 34 43
REMARK SMILES IDX 86 44 80 45 79 46 35 48 67 49 47 50 66 51 48 52 51 53 65 54
REMARK SMILES IDX 84 55 49 56 50 57 64 59 85 60 52 61 36 62 37 63 45 64 38 65
REMARK SMILES IDX 39 66 43 67 46 68 40 69 41 70 44 71 42 72 68 73 69 74 77 75
REMARK SMILES IDX 70 76 71 77 75 78 78 79 72 80 73 81 76 82 74 83 53 84 54 85
REMARK SMILES IDX 62 86 55 87 56 88 60 89 63 90 57 91 58 92 61 93 59 94
REMARK H PARENT 8 16 83 47 51 58
REMARK Flexibility Score: inf
ROOT
ATOM      1  O   UNL A   1      39.117  22.152  25.908  1.00  0.00    -0.376 OA
ENDROOT
BRANCH   1   2
ATOM      2  C   UNL A   1      38.150  21.204  25.461  1.00  0.00     0.202 C 
BRANCH   2   3
ATOM      3  C   UNL A   1      36.761  21.745  25.097  1.00  0.00     0.261 C 
BRANCH   3   4
ATOM      4  O   UNL A   1      35.706  21.315  25.975  1.00  0.00    -0.463 OA
BRANCH   4   5
ATOM      5  C   UNL A   1      34.634  20.732  25.380  1.00  0.00     0.309 C 
ATOM      6  O   UNL A   1      34.685  19.738  24.663  1.00  0.00    -0.252 OA
BRANCH   5   7
ATOM      7  C   UNL A   1      33.326  21.463  25.640  1.00  0.00     0.099 C 
ATOM      8  C   UNL A   1      33.177  24.000  24.131  1.00  0.00     0.082 C 
ATOM      9  C   UNL A   1      33.183  22.642  23.424  1.00  0.00     0.026 C 
ATOM     10  C   UNL A   1      33.923  23.968  25.461  1.00  0.00     0.026 C 
ATOM     11  C   UNL A   1      32.586  21.555  24.309  1.00  0.00     0.017 C 
ATOM     12  C   UNL A   1      33.402  22.829  26.341  1.00  0.00     0.017 C 
BRANCH   8  13
ATOM     13  N   UNL A   1      33.665  25.012  23.223  1.00  0.00    -0.353 N 
ATOM     14  C   UNL A   1      32.984  25.655  22.236  1.00  0.00     0.220 C 
ATOM     15  O   UNL A   1      33.637  26.246  21.373  1.00  0.00    -0.275 OA
ATOM     16  H   UNL A   1      34.610  25.268  23.331  1.00  0.00     0.163 HD
BRANCH  14  17
ATOM     17  C   UNL A   1      31.467  25.755  22.270  1.00  0.00     0.102 C 
BRANCH  17  18
ATOM     18  C   UNL A   1      30.794  26.909  23.018  1.00  0.00     0.038 C 
BRANCH  18  19
ATOM     19  C   UNL A   1      30.448  28.245  22.343  1.00  0.00     0.160 C 
BRANCH  19  20
ATOM     20  O   UNL A   1      29.199  28.907  22.497  1.00  0.00    -0.385 OA
ATOM     21  C   UNL A   1      28.990  30.189  21.951  1.00  0.00     0.194 C 
ENDBRANCH  19  20
ENDBRANCH  18  19
ENDBRANCH  17  18
ENDBRANCH  14  17
ENDBRANCH   8  13
ENDBRANCH   5   7
ENDBRANCH   4   5
ENDBRANCH   3   4
ENDBRANCH   2   3
ENDBRANCH   1   2
BRANCH   1  22
ATOM     22  C   UNL A   1      40.130  21.685  26.787  1.00  0.00     0.188 C 
BRANCH  22  23
ATOM     23  C   UNL A   1      41.161  20.720  26.205  1.00  0.00     0.188 C 
BRANCH  23  24
ATOM     24  O   UNL A   1      42.514  20.961  26.558  1.00  0.00    -0.376 OA
BRANCH  24  25
ATOM     25  C   UNL A   1      43.491  20.500  25.614  1.00  0.00     0.202 C 
BRANCH  25  26
ATOM     26  C   UNL A   1      44.559  21.539  25.200  1.00  0.00     0.261 C 
BRANCH  26  27
ATOM     27  O   UNL A   1      44.672  22.687  26.072  1.00  0.00    -0.460 OA
BRANCH  27  28
ATOM     28  C   UNL A   1      44.554  23.908  25.502  1.00  0.00     0.338 C 
ATOM     29  O   UNL A   1      44.839  24.197  24.351  1.00  0.00    -0.246 OA
BRANCH  28  30
ATOM     30  C   UNL A   1      43.764  24.797  26.402  1.00  0.00     0.060 A 
ATOM     31  C   UNL A   1      44.245  26.095  26.619  1.00  0.00     0.016 A 
ATOM     32  C   UNL A   1      42.546  24.410  26.973  1.00  0.00     0.016 A 
ATOM     33  C   UNL A   1      43.556  26.979  27.455  1.00  0.00     0.010 A 
ATOM     34  C   UNL A   1      41.856  25.296  27.816  1.00  0.00     0.010 A 
ATOM     35  C   UNL A   1      42.380  26.571  28.098  1.00  0.00    -0.014 A 
BRANCH  35  36
ATOM     36  C   UNL A   1      41.843  27.391  29.219  1.00  0.00     0.031 A 
ATOM     37  C   UNL A   1      42.551  27.334  30.549  1.00  0.00     0.074 A 
ATOM     38  C   UNL A   1      40.794  28.222  29.067  1.00  0.00     0.049 A 
ATOM     39  N   UNL A   1      42.304  27.983  31.658  1.00  0.00    -0.248 NA
ATOM     40  C   UNL A   1      43.699  26.417  30.634  1.00  0.00     0.031 C 
ATOM     41  C   UNL A   1      40.026  28.404  27.839  1.00  0.00     0.029 A 
ATOM     42  N   UNL A   1      40.198  29.075  29.967  1.00  0.00    -0.354 N 
ATOM     43  C   UNL A   1      43.270  27.563  32.565  1.00  0.00     0.074 A 
ATOM     44  C   UNL A   1      44.076  26.568  31.893  1.00  0.00     0.031 C 
ATOM     45  C   UNL A   1      39.054  29.308  28.064  1.00  0.00     0.029 A 
ATOM     46  C   UNL A   1      39.120  29.756  29.455  1.00  0.00     0.049 A 
ATOM     47  H   UNL A   1      40.515  29.187  30.892  1.00  0.00     0.167 HD
ATOM     48  C   UNL A   1      43.484  27.981  33.835  1.00  0.00     0.037 A 
ATOM     49  C   UNL A   1      38.279  30.630  30.045  1.00  0.00     0.037 A 
ATOM     50  C   UNL A   1      42.683  28.959  34.522  1.00  0.00     0.049 A 
ATOM     51  C   UNL A   1      38.494  31.028  31.486  1.00  0.00     0.074 A 
ATOM     52  C   UNL A   1      42.829  29.442  35.811  1.00  0.00     0.029 A 
ATOM     53  N   UNL A   1      41.581  29.599  33.978  1.00  0.00    -0.354 N 
ATOM     54  N   UNL A   1      39.432  30.652  32.321  1.00  0.00    -0.248 NA
ATOM     55  C   UNL A   1      37.534  31.984  32.061  1.00  0.00     0.031 C 
ATOM     56  C   UNL A   1      41.784  30.337  36.065  1.00  0.00     0.029 A 
ATOM     57  C   UNL A   1      41.023  30.456  34.915  1.00  0.00     0.049 A 
ATOM     58  H   UNL A   1      41.243  29.465  33.063  1.00  0.00     0.167 HD
ATOM     59  C   UNL A   1      39.191  31.342  33.505  1.00  0.00     0.074 A 
ATOM     60  C   UNL A   1      38.033  32.177  33.274  1.00  0.00     0.031 C 
ATOM     61  C   UNL A   1      39.870  31.287  34.679  1.00  0.00     0.037 A 
BRANCH  48  62
ATOM     62  C   UNL A   1      44.634  27.361  34.576  1.00  0.00     0.064 A 
ATOM     63  C   UNL A   1      44.525  26.093  35.169  1.00  0.00     0.173 A 
ATOM     64  C   UNL A   1      45.864  28.028  34.672  1.00  0.00     0.173 A 
ATOM     65  F   UNL A   1      43.364  25.422  35.122  1.00  0.00    -0.203 F 
ATOM     66  C   UNL A   1      45.599  25.530  35.854  1.00  0.00     0.198 A 
ATOM     67  C   UNL A   1      46.944  27.448  35.330  1.00  0.00     0.198 A 
ATOM     68  F   UNL A   1      46.019  29.241  34.119  1.00  0.00    -0.203 F 
ATOM     69  F   UNL A   1      45.456  24.341  36.455  1.00  0.00    -0.200 F 
ATOM     70  C   UNL A   1      46.808  26.203  35.926  1.00  0.00     0.200 A 
ATOM     71  F   UNL A   1      48.115  28.096  35.390  1.00  0.00    -0.200 F 
ATOM     72  F   UNL A   1      47.843  25.656  36.580  1.00  0.00    -0.200 F 
ENDBRANCH  48  62
BRANCH  49  73
ATOM     73  C   UNL A   1      37.133  31.196  29.280  1.00  0.00     0.064 A 
ATOM     74  C   UNL A   1      37.126  32.534  28.861  1.00  0.00     0.173 A 
ATOM     75  C   UNL A   1      36.000  30.419  28.996  1.00  0.00     0.173 A 
ATOM     76  F   UNL A   1      38.170  33.328  29.138  1.00  0.00    -0.203 F 
ATOM     77  C   UNL A   1      36.020  33.080  28.209  1.00  0.00     0.198 A 
ATOM     78  C   UNL A   1      34.909  30.956  28.318  1.00  0.00     0.198 A 
ATOM     79  F   UNL A   1      35.951  29.137  29.385  1.00  0.00    -0.203 F 
ATOM     80  F   UNL A   1      36.016  34.376  27.873  1.00  0.00    -0.200 F 
ATOM     81  C   UNL A   1      34.915  32.288  27.933  1.00  0.00     0.200 A 
ATOM     82  F   UNL A   1      33.845  30.188  28.049  1.00  0.00    -0.200 F 
ATOM     83  F   UNL A   1      33.852  32.813  27.309  1.00  0.00    -0.200 F 
ENDBRANCH  49  73
BRANCH  61  84
ATOM     84  C   UNL A   1      39.399  32.176  35.796  1.00  0.00     0.064 A 
ATOM     85  C   UNL A   1      39.859  33.495  35.937  1.00  0.00     0.173 A 
ATOM     86  C   UNL A   1      38.454  31.711  36.725  1.00  0.00     0.173 A 
ATOM     87  F   UNL A   1      40.768  33.987  35.083  1.00  0.00    -0.203 F 
ATOM     88  C   UNL A   1      39.418  34.300  36.985  1.00  0.00     0.198 A 
ATOM     89  C   UNL A   1      37.992  32.531  37.752  1.00  0.00     0.198 A 
ATOM     90  F   UNL A   1      37.973  30.463  36.633  1.00  0.00    -0.203 F 
ATOM     91  F   UNL A   1      39.914  35.537  37.132  1.00  0.00    -0.200 F 
ATOM     92  C   UNL A   1      38.482  33.820  37.888  1.00  0.00     0.200 A 
ATOM     93  F   UNL A   1      37.075  32.069  38.614  1.00  0.00    -0.200 F 
ATOM     94  F   UNL A   1      38.059  34.597  38.894  1.00  0.00    -0.200 F 
ENDBRANCH  61  84
ENDBRANCH  35  36
ENDBRANCH  28  30
ENDBRANCH  27  28
ENDBRANCH  26  27
ENDBRANCH  25  26
ENDBRANCH  24  25
ENDBRANCH  23  24
ENDBRANCH  22  23
ENDBRANCH   1  22
TORSDOF 22
ENDMDL
MODEL 3
REMARK VINA RESULT:      -9.8      4.735      8.052
REMARK SMILES COCCCC(=O)N[C@H]1CC[C@@H](C(=O)OCCOCCOCCOC(=O)c2ccc(-c3c4nc(c(-c5c(F)c(F)c(F)c(F)c5F)c5ccc([nH]5)c(-c5c(F)c(F)c(F)c(F)c5F)c5nc(c(-c6c(F)c(F)c(F)c(F)c6F)c6ccc3[nH]6)C=C5)C=C4)cc2)CC1
REMARK SMILES IDX 18 1 17 2 16 3 15 4 13 5 14 6 12 7 9 8 10 9 91 10 11 11
REMARK SMILES IDX 90 12 8 13 6 14 7 15 5 17 4 18 3 19 2 20 1 21 19 22 20 23
REMARK SMILES IDX 21 24 22 25 23 26 24 27 25 28 26 29 27 30 28 31 89 32 29 33
REMARK SMILES IDX 88 34 30 35 31 36 32 37 82 38 33 39 87 40 81 41 83 42 34 43
REMARK SMILES IDX 86 44 80 45 79 46 35 48 67 49 47 50 66 51 48 52 51 53 65 54
REMARK SMILES IDX 84 55 49 56 50 57 64 59 85 60 52 61 36 62 37 63 45 64 38 65
REMARK SMILES IDX 39 66 43 67 46 68 40 69 41 70 44 71 42 72 68 73 69 74 77 75
REMARK SMILES IDX 70 76 71 77 75 78 78 79 72 80 73 81 76 82 74 83 53 84 54 85
REMARK SMILES IDX 62 86 55 87 56 88 60 89 63 90 57 91 58 92 61 93 59 94
REMARK H PARENT 8 16 83 47 51 58
REMARK Flexibility Score: inf
ROOT
ATOM      1  O   UNL A   1      33.376  37.259  30.750  1.00  0.00    -0.376 OA
ENDROOT
BRANCH   1   2
ATOM      2  C   UNL A   1      32.742  36.353  31.650  1.00  0.00     0.202 C 
BRANCH   2   3
ATOM      3  C   UNL A   1      33.283  36.303  33.085  1.00  0.00     0.261 C 
BRANCH   3   4
ATOM      4  O   UNL A   1      34.718  36.286  33.179  1.00  0.00    -0.463 OA
BRANCH   4   5
ATOM      5  C   UNL A   1      35.286  35.079  33.432  1.00  0.00     0.309 C 
ATOM      6  O   UNL A   1      34.987  34.346  34.370  1.00  0.00    -0.252 OA
BRANCH   5   7
ATOM      7  C   UNL A   1      36.397  34.717  32.459  1.00  0.00     0.099 C 
ATOM      8  C   UNL A   1      36.985  31.821  32.500  1.00  0.00     0.082 C 
ATOM      9  C   UNL A   1      35.647  32.364  31.990  1.00  0.00     0.026 C 
ATOM     10  C   UNL A   1      37.616  32.724  33.556  1.00  0.00     0.026 C 
ATOM     11  C   UNL A   1      35.801  33.769  31.422  1.00  0.00     0.017 C 
ATOM     12  C   UNL A   1      37.705  34.165  33.046  1.00  0.00     0.017 C 
BRANCH   8  13
ATOM     13  N   UNL A   1      36.808  30.458  32.942  1.00  0.00    -0.353 N 
ATOM     14  C   UNL A   1      37.767  29.540  33.246  1.00  0.00     0.220 C 
ATOM     15  O   UNL A   1      37.436  28.354  33.298  1.00  0.00    -0.275 OA
ATOM     16  H   UNL A   1      35.876  30.153  33.035  1.00  0.00     0.163 HD
BRANCH  14  17
ATOM     17  C   UNL A   1      39.169  29.977  33.637  1.00  0.00     0.102 C 
BRANCH  17  18
ATOM     18  C   UNL A   1      40.384  29.214  33.102  1.00  0.00     0.038 C 
BRANCH  18  19
ATOM     19  C   UNL A   1      41.086  28.106  33.902  1.00  0.00     0.160 C 
BRANCH  19  20
ATOM     20  O   UNL A   1      42.334  27.535  33.532  1.00  0.00    -0.385 OA
ATOM     21  C   UNL A   1      43.541  28.030  34.067  1.00  0.00     0.194 C 
ENDBRANCH  19  20
ENDBRANCH  18  19
ENDBRANCH  17  18
ENDBRANCH  14  17
ENDBRANCH   8  13
ENDBRANCH   5   7
ENDBRANCH   4   5
ENDBRANCH   3   4
ENDBRANCH   2   3
ENDBRANCH   1   2
BRANCH   1  22
ATOM     22  C   UNL A   1      33.315  36.952  29.365  1.00  0.00     0.188 C 
BRANCH  22  23
ATOM     23  C   UNL A   1      32.958  35.514  28.989  1.00  0.00     0.188 C 
BRANCH  23  24
ATOM     24  O   UNL A   1      34.015  34.721  28.474  1.00  0.00    -0.376 OA
BRANCH  24  25
ATOM     25  C   UNL A   1      33.630  33.444  27.947  1.00  0.00     0.202 C 
BRANCH  25  26
ATOM     26  C   UNL A   1      34.695  32.328  28.056  1.00  0.00     0.261 C 
BRANCH  26  27
ATOM     27  O   UNL A   1      34.181  31.016  28.382  1.00  0.00    -0.460 OA
BRANCH  27  28
ATOM     28  C   UNL A   1      34.713  29.964  27.718  1.00  0.00     0.338 C 
ATOM     29  O   UNL A   1      34.208  29.376  26.775  1.00  0.00    -0.246 OA
BRANCH  28  30
ATOM     30  C   UNL A   1      36.137  29.794  28.128  1.00  0.00     0.060 A 
ATOM     31  C   UNL A   1      37.125  30.111  27.186  1.00  0.00     0.016 A 
ATOM     32  C   UNL A   1      36.514  29.401  29.417  1.00  0.00     0.016 A 
ATOM     33  C   UNL A   1      38.480  29.970  27.503  1.00  0.00     0.010 A 
ATOM     34  C   UNL A   1      37.874  29.256  29.734  1.00  0.00     0.010 A 
ATOM     35  C   UNL A   1      38.865  29.497  28.764  1.00  0.00    -0.014 A 
BRANCH  35  36
ATOM     36  C   UNL A   1      40.270  29.048  28.974  1.00  0.00     0.031 A 
ATOM     37  C   UNL A   1      41.204  29.957  29.733  1.00  0.00     0.074 A 
ATOM     38  C   UNL A   1      40.711  27.843  28.567  1.00  0.00     0.049 A 
ATOM     39  N   UNL A   1      42.453  29.773  30.080  1.00  0.00    -0.248 NA
ATOM     40  C   UNL A   1      40.646  31.249  30.162  1.00  0.00     0.031 C 
ATOM     41  C   UNL A   1      39.921  26.849  27.846  1.00  0.00     0.029 A 
ATOM     42  N   UNL A   1      41.945  27.253  28.711  1.00  0.00    -0.354 N 
ATOM     43  C   UNL A   1      42.824  30.918  30.774  1.00  0.00     0.074 A 
ATOM     44  C   UNL A   1      41.686  31.810  30.758  1.00  0.00     0.031 C 
ATOM     45  C   UNL A   1      40.692  25.773  27.603  1.00  0.00     0.029 A 
ATOM     46  C   UNL A   1      42.034  26.008  28.136  1.00  0.00     0.049 A 
ATOM     47  H   UNL A   1      42.695  27.682  29.181  1.00  0.00     0.167 HD
ATOM     48  C   UNL A   1      43.997  31.198  31.390  1.00  0.00     0.037 A 
ATOM     49  C   UNL A   1      43.081  25.161  28.042  1.00  0.00     0.037 A 
ATOM     50  C   UNL A   1      45.143  30.327  31.404  1.00  0.00     0.049 A 
ATOM     51  C   UNL A   1      44.403  25.525  28.676  1.00  0.00     0.074 A 
ATOM     52  C   UNL A   1      46.374  30.531  32.004  1.00  0.00     0.029 A 
ATOM     53  N   UNL A   1      45.202  29.091  30.781  1.00  0.00    -0.354 N 
ATOM     54  N   UNL A   1      44.730  26.594  29.361  1.00  0.00    -0.248 NA
ATOM     55  C   UNL A   1      45.499  24.554  28.530  1.00  0.00     0.031 C 
ATOM     56  C   UNL A   1      47.195  29.439  31.702  1.00  0.00     0.029 A 
ATOM     57  C   UNL A   1      46.457  28.530  30.964  1.00  0.00     0.049 A 
ATOM     58  H   UNL A   1      44.463  28.672  30.283  1.00  0.00     0.167 HD
ATOM     59  C   UNL A   1      46.054  26.412  29.747  1.00  0.00     0.074 A 
ATOM     60  C   UNL A   1      46.463  25.120  29.241  1.00  0.00     0.031 C 
ATOM     61  C   UNL A   1      46.858  27.242  30.459  1.00  0.00     0.037 A 
BRANCH  48  62
ATOM     62  C   UNL A   1      44.103  32.519  32.094  1.00  0.00     0.064 A 
ATOM     63  C   UNL A   1      43.797  32.651  33.458  1.00  0.00     0.173 A 
ATOM     64  C   UNL A   1      44.540  33.661  31.406  1.00  0.00     0.173 A 
ATOM     65  F   UNL A   1      43.356  31.592  34.156  1.00  0.00    -0.203 F 
ATOM     66  C   UNL A   1      43.899  33.882  34.098  1.00  0.00     0.198 A 
ATOM     67  C   UNL A   1      44.671  34.884  32.058  1.00  0.00     0.198 A 
ATOM     68  F   UNL A   1      44.847  33.587  30.102  1.00  0.00    -0.203 F 
ATOM     69  F   UNL A   1      43.553  33.994  35.388  1.00  0.00    -0.200 F 
ATOM     70  C   UNL A   1      44.344  34.995  33.401  1.00  0.00     0.200 A 
ATOM     71  F   UNL A   1      45.110  35.956  31.385  1.00  0.00    -0.200 F 
ATOM     72  F   UNL A   1      44.447  36.179  34.021  1.00  0.00    -0.200 F 
ENDBRANCH  48  62
BRANCH  49  73
ATOM     73  C   UNL A   1      42.937  23.875  27.307  1.00  0.00     0.064 A 
ATOM     74  C   UNL A   1      42.461  22.720  27.944  1.00  0.00     0.173 A 
ATOM     75  C   UNL A   1      43.323  23.764  25.962  1.00  0.00     0.173 A 
ATOM     76  F   UNL A   1      42.113  22.765  29.239  1.00  0.00    -0.203 F 
ATOM     77  C   UNL A   1      42.397  21.500  27.272  1.00  0.00     0.198 A 
ATOM     78  C   UNL A   1      43.229  22.552  25.283  1.00  0.00     0.198 A 
ATOM     79  F   UNL A   1      43.796  24.835  25.310  1.00  0.00    -0.203 F 
ATOM     80  F   UNL A   1      41.994  20.400  27.922  1.00  0.00    -0.200 F 
ATOM     81  C   UNL A   1      42.776  21.418  25.940  1.00  0.00     0.200 A 
ATOM     82  F   UNL A   1      43.592  22.478  23.995  1.00  0.00    -0.200 F 
ATOM     83  F   UNL A   1      42.718  20.245  25.296  1.00  0.00    -0.200 F 
ENDBRANCH  49  73
BRANCH  61  84
ATOM     84  C   UNL A   1      48.254  26.768  30.760  1.00  0.00     0.064 A 
ATOM     85  C   UNL A   1      48.536  25.954  31.867  1.00  0.00     0.173 A 
ATOM     86  C   UNL A   1      49.320  27.113  29.913  1.00  0.00     0.173 A 
ATOM     87  F   UNL A   1      47.557  25.603  32.713  1.00  0.00    -0.203 F 
ATOM     88  C   UNL A   1      49.837  25.533  32.135  1.00  0.00     0.198 A 
ATOM     89  C   UNL A   1      50.613  26.664  30.167  1.00  0.00     0.198 A 
ATOM     90  F   UNL A   1      49.106  27.881  28.834  1.00  0.00    -0.203 F 
ATOM     91  F   UNL A   1      50.091  24.804  33.231  1.00  0.00    -0.200 F 
ATOM     92  C   UNL A   1      50.873  25.884  31.283  1.00  0.00     0.200 A 
ATOM     93  F   UNL A   1      51.610  26.990  29.332  1.00  0.00    -0.200 F 
ATOM     94  F   UNL A   1      52.123  25.477  31.542  1.00  0.00    -0.200 F 
ENDBRANCH  61  84
ENDBRANCH  35  36
ENDBRANCH  28  30
ENDBRANCH  27  28
ENDBRANCH  26  27
ENDBRANCH  25  26
ENDBRANCH  24  25
ENDBRANCH  23  24
ENDBRANCH  22  23
ENDBRANCH   1  22
TORSDOF 22
ENDMDL
