MODEL 1
REMARK VINA RESULT:     -10.6      0.000      0.000
REMARK SMILES Cc1ccc(O[C@H](C)C(=O)NNC(=O)[C@@H]2[C@@H](C(=O)OCCOCCOCCOC(=O)c3ccc(-c4c5nc(c(-c6c(F)c(F)c(F)c(F)c6F)c6ccc([nH]6)c(-c6c(F)c(F)c(F)c(F)c6F)c6nc(c(-c7c(F)c(F)c(F)c(F)c7F)c7ccc4[nH]7)C=C6)C=C5)cc3)[C@@H]3C=C[C@H]2C3)cc1C
REMARK SMILES IDX 22 1 21 2 20 3 19 4 17 5 18 6 16 7 15 8 97 9 94 10 96 11
REMARK SMILES IDX 98 12 95 13 13 14 12 15 14 17 11 18 9 19 10 20 7 22 8 23
REMARK SMILES IDX 6 24 5 25 1 26 2 27 3 28 100 29 4 30 99 31 101 32 23 33
REMARK SMILES IDX 24 34 25 35 26 36 27 37 28 38 29 39 30 40 31 41 32 42 93 43
REMARK SMILES IDX 33 44 92 45 34 46 35 47 36 48 86 49 37 50 91 51 85 52 87 53
REMARK SMILES IDX 38 54 90 55 84 56 83 57 39 59 71 60 51 61 70 62 52 63 55 64
REMARK SMILES IDX 69 65 88 66 53 67 54 68 68 70 89 71 56 72 40 73 41 74 49 75
REMARK SMILES IDX 42 76 43 77 47 78 50 79 44 80 45 81 48 82 46 83 72 84 73 85
REMARK SMILES IDX 81 86 74 87 75 88 79 89 82 90 76 91 77 92 80 93 78 94 57 95
REMARK SMILES IDX 58 96 66 97 59 98 60 99 64 100 67 101 61 102 62 103 65 104
REMARK SMILES IDX 63 105
REMARK H PARENT 12 16 11 21 87 58 55 69
REMARK Flexibility Score: inf
ROOT
ATOM      1  O   UNL A   1      40.036  20.349  26.789  1.00  0.00    -0.376 OA
ENDROOT
BRANCH   1   2
ATOM      2  C   UNL A   1      39.370  19.898  25.608  1.00  0.00     0.202 C 
BRANCH   2   3
ATOM      3  C   UNL A   1      38.103  20.662  25.178  1.00  0.00     0.261 C 
BRANCH   3   4
ATOM      4  O   UNL A   1      36.913  19.858  24.961  1.00  0.00    -0.463 OA
BRANCH   4   5
ATOM      5  C   UNL A   1      35.737  20.456  25.296  1.00  0.00     0.310 C 
ATOM      6  O   UNL A   1      35.642  21.359  26.124  1.00  0.00    -0.252 OA
BRANCH   5   7
ATOM      7  C   UNL A   1      34.504  19.927  24.579  1.00  0.00     0.119 C 
ATOM      8  C   UNL A   1      33.072  20.108  25.218  1.00  0.00     0.102 C 
ATOM      9  C   UNL A   1      32.559  18.642  25.273  1.00  0.00     0.025 C 
ATOM     10  C   UNL A   1      34.619  18.380  24.456  1.00  0.00     0.027 C 
ATOM     11  C   UNL A   1      32.417  18.078  23.879  1.00  0.00    -0.027 C 
ATOM     12  C   UNL A   1      33.831  17.895  25.673  1.00  0.00     0.017 C 
ATOM     13  C   UNL A   1      33.653  17.929  23.385  1.00  0.00    -0.027 C 
BRANCH   8  14
ATOM     14  C   UNL A   1      32.286  21.139  24.397  1.00  0.00     0.242 C 
ATOM     15  N   UNL A   1      31.365  21.999  24.933  1.00  0.00    -0.267 N 
ATOM     16  H   UNL A   1      31.008  22.693  24.333  1.00  0.00     0.191 HD
ATOM     17  O   UNL A   1      32.543  21.286  23.195  1.00  0.00    -0.273 OA
BRANCH  15  18
ATOM     18  N   UNL A   1      30.884  21.995  26.229  1.00  0.00    -0.264 N 
ATOM     19  C   UNL A   1      30.243  23.057  26.827  1.00  0.00     0.279 C 
ATOM     20  O   UNL A   1      29.641  22.861  27.888  1.00  0.00    -0.269 OA
ATOM     21  H   UNL A   1      31.009  21.177  26.763  1.00  0.00     0.191 HD
BRANCH  19  22
ATOM     22  C   UNL A   1      30.409  24.478  26.255  1.00  0.00     0.260 C 
ATOM     23  C   UNL A   1      29.077  25.215  26.464  1.00  0.00     0.064 C 
BRANCH  22  24
ATOM     24  O   UNL A   1      31.507  25.169  26.850  1.00  0.00    -0.481 OA
BRANCH  24  25
ATOM     25  C   UNL A   1      32.265  25.994  26.058  1.00  0.00     0.120 A 
ATOM     26  C   UNL A   1      34.239  28.847  23.462  1.00  0.00     0.044 C 
ATOM     27  C   UNL A   1      33.559  27.894  24.405  1.00  0.00    -0.048 A 
ATOM     28  C   UNL A   1      33.889  26.533  24.344  1.00  0.00     0.007 A 
ATOM     29  C   UNL A   1      32.601  28.316  25.343  1.00  0.00    -0.045 A 
ATOM     30  C   UNL A   1      33.262  25.596  25.172  1.00  0.00     0.047 A 
ATOM     31  C   UNL A   1      31.963  27.356  26.156  1.00  0.00     0.050 A 
ATOM     32  C   UNL A   1      32.219  29.761  25.530  1.00  0.00     0.045 C 
ENDBRANCH  24  25
ENDBRANCH  22  24
ENDBRANCH  19  22
ENDBRANCH  15  18
ENDBRANCH   8  14
ENDBRANCH   5   7
ENDBRANCH   4   5
ENDBRANCH   3   4
ENDBRANCH   2   3
ENDBRANCH   1   2
BRANCH   1  33
ATOM     33  C   UNL A   1      41.451  20.246  26.776  1.00  0.00     0.188 C 
BRANCH  33  34
ATOM     34  C   UNL A   1      42.218  21.568  26.839  1.00  0.00     0.188 C 
BRANCH  34  35
ATOM     35  O   UNL A   1      41.984  22.453  25.756  1.00  0.00    -0.376 OA
BRANCH  35  36
ATOM     36  C   UNL A   1      43.126  23.047  25.134  1.00  0.00     0.202 C 
BRANCH  36  37
ATOM     37  C   UNL A   1      44.481  22.323  25.269  1.00  0.00     0.261 C 
BRANCH  37  38
ATOM     38  O   UNL A   1      45.189  22.511  26.514  1.00  0.00    -0.460 OA
BRANCH  38  39
ATOM     39  C   UNL A   1      45.923  23.640  26.670  1.00  0.00     0.338 C 
ATOM     40  O   UNL A   1      46.944  23.929  26.089  1.00  0.00    -0.246 OA
BRANCH  39  41
ATOM     41  C   UNL A   1      45.116  24.608  27.473  1.00  0.00     0.060 A 
ATOM     42  C   UNL A   1      45.141  25.958  27.089  1.00  0.00     0.016 A 
ATOM     43  C   UNL A   1      44.298  24.206  28.531  1.00  0.00     0.016 A 
ATOM     44  C   UNL A   1      44.389  26.909  27.784  1.00  0.00     0.010 A 
ATOM     45  C   UNL A   1      43.556  25.161  29.239  1.00  0.00     0.010 A 
ATOM     46  C   UNL A   1      43.625  26.523  28.892  1.00  0.00    -0.014 A 
BRANCH  46  47
ATOM     47  C   UNL A   1      43.094  27.555  29.823  1.00  0.00     0.031 A 
ATOM     48  C   UNL A   1      43.889  27.854  31.067  1.00  0.00     0.074 A 
ATOM     49  C   UNL A   1      41.961  28.237  29.577  1.00  0.00     0.049 A 
ATOM     50  N   UNL A   1      43.601  28.632  32.079  1.00  0.00    -0.248 NA
ATOM     51  C   UNL A   1      45.191  27.178  31.180  1.00  0.00     0.031 C 
ATOM     52  C   UNL A   1      41.132  28.106  28.383  1.00  0.00     0.029 A 
ATOM     53  N   UNL A   1      41.311  29.180  30.339  1.00  0.00    -0.354 N 
ATOM     54  C   UNL A   1      44.675  28.526  32.952  1.00  0.00     0.074 A 
ATOM     55  C   UNL A   1      45.610  27.591  32.366  1.00  0.00     0.031 C 
ATOM     56  C   UNL A   1      40.073  28.929  28.496  1.00  0.00     0.029 A 
ATOM     57  C   UNL A   1      40.127  29.612  29.790  1.00  0.00     0.049 A 
ATOM     58  H   UNL A   1      41.660  29.515  31.196  1.00  0.00     0.167 HD
ATOM     59  C   UNL A   1      44.871  29.153  34.135  1.00  0.00     0.037 A 
ATOM     60  C   UNL A   1      39.184  30.437  30.290  1.00  0.00     0.037 A 
ATOM     61  C   UNL A   1      43.947  30.087  34.722  1.00  0.00     0.049 A 
ATOM     62  C   UNL A   1      39.378  31.051  31.657  1.00  0.00     0.074 A 
ATOM     63  C   UNL A   1      44.056  30.770  35.919  1.00  0.00     0.029 A 
ATOM     64  N   UNL A   1      42.740  30.464  34.153  1.00  0.00    -0.354 N 
ATOM     65  N   UNL A   1      40.390  30.941  32.482  1.00  0.00    -0.248 NA
ATOM     66  C   UNL A   1      38.290  31.904  32.164  1.00  0.00     0.031 C 
ATOM     67  C   UNL A   1      42.888  31.518  36.103  1.00  0.00     0.029 A 
ATOM     68  C   UNL A   1      42.083  31.352  34.989  1.00  0.00     0.049 A 
ATOM     69  H   UNL A   1      42.400  30.148  33.285  1.00  0.00     0.167 HD
ATOM     70  C   UNL A   1      40.081  31.736  33.580  1.00  0.00     0.074 A 
ATOM     71  C   UNL A   1      38.788  32.328  33.317  1.00  0.00     0.031 C 
ATOM     72  C   UNL A   1      40.805  31.956  34.706  1.00  0.00     0.037 A 
BRANCH  59  73
ATOM     73  C   UNL A   1      46.120  28.815  34.897  1.00  0.00     0.064 A 
ATOM     74  C   UNL A   1      47.302  29.555  34.750  1.00  0.00     0.173 A 
ATOM     75  C   UNL A   1      46.124  27.742  35.802  1.00  0.00     0.173 A 
ATOM     76  F   UNL A   1      47.356  30.578  33.883  1.00  0.00    -0.203 F 
ATOM     77  C   UNL A   1      48.452  29.213  35.457  1.00  0.00     0.198 A 
ATOM     78  C   UNL A   1      47.266  27.426  36.533  1.00  0.00     0.198 A 
ATOM     79  F   UNL A   1      45.019  27.003  35.981  1.00  0.00    -0.203 F 
ATOM     80  F   UNL A   1      49.586  29.898  35.258  1.00  0.00    -0.200 F 
ATOM     81  C   UNL A   1      48.431  28.154  36.352  1.00  0.00     0.200 A 
ATOM     82  F   UNL A   1      47.240  26.409  37.407  1.00  0.00    -0.200 F 
ATOM     83  F   UNL A   1      49.537  27.831  37.036  1.00  0.00    -0.200 F 
ENDBRANCH  59  73
BRANCH  60  84
ATOM     84  C   UNL A   1      37.942  30.715  29.514  1.00  0.00     0.064 A 
ATOM     85  C   UNL A   1      37.000  29.707  29.262  1.00  0.00     0.173 A 
ATOM     86  C   UNL A   1      37.697  31.984  28.968  1.00  0.00     0.173 A 
ATOM     87  F   UNL A   1      37.205  28.468  29.732  1.00  0.00    -0.203 F 
ATOM     88  C   UNL A   1      35.874  29.952  28.478  1.00  0.00     0.198 A 
ATOM     89  C   UNL A   1      36.555  32.236  28.210  1.00  0.00     0.198 A 
ATOM     90  F   UNL A   1      38.572  32.981  29.166  1.00  0.00    -0.203 F 
ATOM     91  F   UNL A   1      35.021  28.956  28.204  1.00  0.00    -0.200 F 
ATOM     92  C   UNL A   1      35.649  31.218  27.958  1.00  0.00     0.200 A 
ATOM     93  F   UNL A   1      36.338  33.463  27.716  1.00  0.00    -0.200 F 
ATOM     94  F   UNL A   1      34.567  31.452  27.202  1.00  0.00    -0.200 F 
ENDBRANCH  60  84
BRANCH  72  95
ATOM     95  C   UNL A   1      40.256  32.921  35.718  1.00  0.00     0.064 A 
ATOM     96  C   UNL A   1      40.604  34.280  35.716  1.00  0.00     0.173 A 
ATOM     97  C   UNL A   1      39.315  32.488  36.666  1.00  0.00     0.173 A 
ATOM     98  F   UNL A   1      41.507  34.744  34.839  1.00  0.00    -0.203 F 
ATOM     99  C   UNL A   1      40.048  35.164  36.639  1.00  0.00     0.198 A 
ATOM    100  C   UNL A   1      38.736  33.381  37.565  1.00  0.00     0.198 A 
ATOM    101  F   UNL A   1      38.937  31.202  36.706  1.00  0.00    -0.203 F 
ATOM    102  F   UNL A   1      40.428  36.449  36.645  1.00  0.00    -0.200 F 
ATOM    103  C   UNL A   1      39.108  34.716  37.555  1.00  0.00     0.200 A 
ATOM    104  F   UNL A   1      37.814  32.949  38.438  1.00  0.00    -0.200 F 
ATOM    105  F   UNL A   1      38.563  35.571  38.431  1.00  0.00    -0.200 F 
ENDBRANCH  72  95
ENDBRANCH  46  47
ENDBRANCH  39  41
ENDBRANCH  38  39
ENDBRANCH  37  38
ENDBRANCH  36  37
ENDBRANCH  35  36
ENDBRANCH  34  35
ENDBRANCH  33  34
ENDBRANCH   1  33
TORSDOF 22
ENDMDL
MODEL 2
REMARK VINA RESULT:     -10.6      4.402      6.479
REMARK SMILES Cc1ccc(O[C@H](C)C(=O)NNC(=O)[C@@H]2[C@@H](C(=O)OCCOCCOCCOC(=O)c3ccc(-c4c5nc(c(-c6c(F)c(F)c(F)c(F)c6F)c6ccc([nH]6)c(-c6c(F)c(F)c(F)c(F)c6F)c6nc(c(-c7c(F)c(F)c(F)c(F)c7F)c7ccc4[nH]7)C=C6)C=C5)cc3)[C@@H]3C=C[C@H]2C3)cc1C
REMARK SMILES IDX 22 1 21 2 20 3 19 4 17 5 18 6 16 7 15 8 97 9 94 10 96 11
REMARK SMILES IDX 98 12 95 13 13 14 12 15 14 17 11 18 9 19 10 20 7 22 8 23
REMARK SMILES IDX 6 24 5 25 1 26 2 27 3 28 100 29 4 30 99 31 101 32 23 33
REMARK SMILES IDX 24 34 25 35 26 36 27 37 28 38 29 39 30 40 31 41 32 42 93 43
REMARK SMILES IDX 33 44 92 45 34 46 35 47 36 48 86 49 37 50 91 51 85 52 87 53
REMARK SMILES IDX 38 54 90 55 84 56 83 57 39 59 71 60 51 61 70 62 52 63 55 64
REMARK SMILES IDX 69 65 88 66 53 67 54 68 68 70 89 71 56 72 40 73 41 74 49 75
REMARK SMILES IDX 42 76 43 77 47 78 50 79 44 80 45 81 48 82 46 83 72 84 73 85
REMARK SMILES IDX 81 86 74 87 75 88 79 89 82 90 76 91 77 92 80 93 78 94 57 95
REMARK SMILES IDX 58 96 66 97 59 98 60 99 64 100 67 101 61 102 62 103 65 104
REMARK SMILES IDX 63 105
REMARK H PARENT 12 16 11 21 87 58 55 69
REMARK Flexibility Score: inf
ROOT
ATOM      1  O   UNL A   1      40.853  20.531  26.848  1.00  0.00    -0.376 OA
ENDROOT
BRANCH   1   2
ATOM      2  C   UNL A   1      39.649  20.636  26.087  1.00  0.00     0.202 C 
BRANCH   2   3
ATOM      3  C   UNL A   1      38.952  22.010  26.057  1.00  0.00     0.261 C 
BRANCH   3   4
ATOM      4  O   UNL A   1      37.605  22.034  25.516  1.00  0.00    -0.463 OA
BRANCH   4   5
ATOM      5  C   UNL A   1      36.902  23.176  25.752  1.00  0.00     0.310 C 
ATOM      6  O   UNL A   1      37.380  24.173  26.287  1.00  0.00    -0.252 OA
BRANCH   5   7
ATOM      7  C   UNL A   1      35.445  23.152  25.316  1.00  0.00     0.119 C 
ATOM      8  C   UNL A   1      34.390  24.101  26.009  1.00  0.00     0.102 C 
ATOM      9  C   UNL A   1      33.322  23.087  26.501  1.00  0.00     0.025 C 
ATOM     10  C   UNL A   1      34.857  21.739  25.605  1.00  0.00     0.027 C 
ATOM     11  C   UNL A   1      32.672  22.390  25.328  1.00  0.00    -0.027 C 
ATOM     12  C   UNL A   1      34.202  21.929  26.972  1.00  0.00     0.017 C 
ATOM     13  C   UNL A   1      33.597  21.587  24.785  1.00  0.00    -0.027 C 
BRANCH   8  14
ATOM     14  C   UNL A   1      33.975  25.194  25.015  1.00  0.00     0.242 C 
ATOM     15  N   UNL A   1      33.218  26.284  25.352  1.00  0.00    -0.267 N 
ATOM     16  H   UNL A   1      33.110  26.976  24.660  1.00  0.00     0.191 HD
ATOM     17  O   UNL A   1      34.409  25.160  23.855  1.00  0.00    -0.273 OA
BRANCH  15  18
ATOM     18  N   UNL A   1      32.589  26.514  26.562  1.00  0.00    -0.264 N 
ATOM     19  C   UNL A   1      32.104  27.736  26.969  1.00  0.00     0.279 C 
ATOM     20  O   UNL A   1      31.349  27.775  27.945  1.00  0.00    -0.269 OA
ATOM     21  H   UNL A   1      32.481  25.751  27.175  1.00  0.00     0.191 HD
BRANCH  19  22
ATOM     22  C   UNL A   1      32.620  29.029  26.307  1.00  0.00     0.260 C 
ATOM     23  C   UNL A   1      31.823  29.229  25.009  1.00  0.00     0.064 C 
BRANCH  22  24
ATOM     24  O   UNL A   1      32.519  30.153  27.181  1.00  0.00    -0.481 OA
BRANCH  24  25
ATOM     25  C   UNL A   1      33.665  30.836  27.500  1.00  0.00     0.120 A 
ATOM     26  C   UNL A   1      37.415  32.597  28.772  1.00  0.00     0.044 C 
ATOM     27  C   UNL A   1      36.141  31.960  28.289  1.00  0.00    -0.048 A 
ATOM     28  C   UNL A   1      34.972  32.733  28.248  1.00  0.00     0.007 A 
ATOM     29  C   UNL A   1      36.078  30.616  27.881  1.00  0.00    -0.045 A 
ATOM     30  C   UNL A   1      33.752  32.182  27.843  1.00  0.00     0.047 A 
ATOM     31  C   UNL A   1      34.836  30.071  27.494  1.00  0.00     0.050 A 
ATOM     32  C   UNL A   1      37.286  29.719  27.831  1.00  0.00     0.045 C 
ENDBRANCH  24  25
ENDBRANCH  22  24
ENDBRANCH  19  22
ENDBRANCH  15  18
ENDBRANCH   8  14
ENDBRANCH   5   7
ENDBRANCH   4   5
ENDBRANCH   3   4
ENDBRANCH   2   3
ENDBRANCH   1   2
BRANCH   1  33
ATOM     33  C   UNL A   1      42.033  20.275  26.103  1.00  0.00     0.188 C 
BRANCH  33  34
ATOM     34  C   UNL A   1      43.032  21.431  26.016  1.00  0.00     0.188 C 
BRANCH  34  35
ATOM     35  O   UNL A   1      42.989  22.348  27.096  1.00  0.00    -0.376 OA
BRANCH  35  36
ATOM     36  C   UNL A   1      43.407  23.690  26.837  1.00  0.00     0.202 C 
BRANCH  36  37
ATOM     37  C   UNL A   1      42.985  24.332  25.499  1.00  0.00     0.261 C 
BRANCH  37  38
ATOM     38  O   UNL A   1      42.505  25.693  25.563  1.00  0.00    -0.460 OA
BRANCH  38  39
ATOM     39  C   UNL A   1      41.301  25.922  26.145  1.00  0.00     0.338 C 
ATOM     40  O   UNL A   1      40.337  25.191  26.132  1.00  0.00    -0.246 OA
BRANCH  39  41
ATOM     41  C   UNL A   1      41.443  27.101  27.051  1.00  0.00     0.060 A 
ATOM     42  C   UNL A   1      40.811  28.296  26.675  1.00  0.00     0.016 A 
ATOM     43  C   UNL A   1      42.116  27.030  28.274  1.00  0.00     0.016 A 
ATOM     44  C   UNL A   1      40.886  29.428  27.492  1.00  0.00     0.010 A 
ATOM     45  C   UNL A   1      42.206  28.168  29.086  1.00  0.00     0.010 A 
ATOM     46  C   UNL A   1      41.622  29.384  28.682  1.00  0.00    -0.014 A 
BRANCH  46  47
ATOM     47  C   UNL A   1      41.979  30.648  29.382  1.00  0.00     0.031 A 
ATOM     48  C   UNL A   1      43.259  31.333  28.983  1.00  0.00     0.074 A 
ATOM     49  C   UNL A   1      41.192  31.203  30.321  1.00  0.00     0.049 A 
ATOM     50  N   UNL A   1      43.843  32.385  29.498  1.00  0.00    -0.248 NA
ATOM     51  C   UNL A   1      43.979  30.744  27.842  1.00  0.00     0.031 C 
ATOM     52  C   UNL A   1      39.895  30.692  30.752  1.00  0.00     0.029 A 
ATOM     53  N   UNL A   1      41.385  32.328  31.088  1.00  0.00    -0.354 N 
ATOM     54  C   UNL A   1      45.001  32.572  28.756  1.00  0.00     0.074 A 
ATOM     55  C   UNL A   1      45.054  31.514  27.772  1.00  0.00     0.031 C 
ATOM     56  C   UNL A   1      39.411  31.495  31.719  1.00  0.00     0.029 A 
ATOM     57  C   UNL A   1      40.385  32.549  32.005  1.00  0.00     0.049 A 
ATOM     58  H   UNL A   1      42.166  32.919  30.991  1.00  0.00     0.167 HD
ATOM     59  C   UNL A   1      45.939  33.542  28.878  1.00  0.00     0.037 A 
ATOM     60  C   UNL A   1      40.286  33.475  32.981  1.00  0.00     0.037 A 
ATOM     61  C   UNL A   1      45.891  34.599  29.853  1.00  0.00     0.049 A 
ATOM     62  C   UNL A   1      41.391  34.490  33.162  1.00  0.00     0.074 A 
ATOM     63  C   UNL A   1      46.796  35.624  30.057  1.00  0.00     0.029 A 
ATOM     64  N   UNL A   1      44.881  34.762  30.790  1.00  0.00    -0.354 N 
ATOM     65  N   UNL A   1      42.489  34.658  32.465  1.00  0.00    -0.248 NA
ATOM     66  C   UNL A   1      41.244  35.443  34.274  1.00  0.00     0.031 C 
ATOM     67  C   UNL A   1      46.364  36.376  31.155  1.00  0.00     0.029 A 
ATOM     68  C   UNL A   1      45.157  35.858  31.592  1.00  0.00     0.049 A 
ATOM     69  H   UNL A   1      44.089  34.185  30.874  1.00  0.00     0.167 HD
ATOM     70  C   UNL A   1      43.138  35.753  33.025  1.00  0.00     0.074 A 
ATOM     71  C   UNL A   1      42.311  36.214  34.118  1.00  0.00     0.031 C 
ATOM     72  C   UNL A   1      44.314  36.324  32.664  1.00  0.00     0.037 A 
BRANCH  59  73
ATOM     73  C   UNL A   1      47.122  33.477  27.958  1.00  0.00     0.064 A 
ATOM     74  C   UNL A   1      48.226  32.652  28.225  1.00  0.00     0.173 A 
ATOM     75  C   UNL A   1      47.143  34.240  26.780  1.00  0.00     0.173 A 
ATOM     76  F   UNL A   1      48.264  31.918  29.347  1.00  0.00    -0.203 F 
ATOM     77  C   UNL A   1      49.319  32.619  27.363  1.00  0.00     0.198 A 
ATOM     78  C   UNL A   1      48.222  34.178  25.904  1.00  0.00     0.198 A 
ATOM     79  F   UNL A   1      46.111  35.044  26.477  1.00  0.00    -0.203 F 
ATOM     80  F   UNL A   1      50.386  31.868  27.667  1.00  0.00    -0.200 F 
ATOM     81  C   UNL A   1      49.313  33.376  26.200  1.00  0.00     0.200 A 
ATOM     82  F   UNL A   1      48.209  34.900  24.775  1.00  0.00    -0.200 F 
ATOM     83  F   UNL A   1      50.363  33.339  25.369  1.00  0.00    -0.200 F 
ENDBRANCH  59  73
BRANCH  60  84
ATOM     84  C   UNL A   1      39.110  33.479  33.896  1.00  0.00     0.064 A 
ATOM     85  C   UNL A   1      37.941  34.185  33.575  1.00  0.00     0.173 A 
ATOM     86  C   UNL A   1      39.150  32.816  35.132  1.00  0.00     0.173 A 
ATOM     87  F   UNL A   1      37.866  34.866  32.422  1.00  0.00    -0.203 F 
ATOM     88  C   UNL A   1      36.868  34.245  34.464  1.00  0.00     0.198 A 
ATOM     89  C   UNL A   1      38.064  32.851  36.005  1.00  0.00     0.198 A 
ATOM     90  F   UNL A   1      40.248  32.137  35.495  1.00  0.00    -0.203 F 
ATOM     91  F   UNL A   1      35.788  34.977  34.157  1.00  0.00    -0.200 F 
ATOM     92  C   UNL A   1      36.928  33.573  35.675  1.00  0.00     0.200 A 
ATOM     93  F   UNL A   1      38.124  32.194  37.172  1.00  0.00    -0.200 F 
ATOM     94  F   UNL A   1      35.897  33.633  36.529  1.00  0.00    -0.200 F 
ENDBRANCH  60  84
BRANCH  72  95
ATOM     95  C   UNL A   1      44.758  37.551  33.411  1.00  0.00     0.064 A 
ATOM     96  C   UNL A   1      45.626  37.478  34.510  1.00  0.00     0.173 A 
ATOM     97  C   UNL A   1      44.355  38.824  32.977  1.00  0.00     0.173 A 
ATOM     98  F   UNL A   1      46.032  36.286  34.972  1.00  0.00    -0.203 F 
ATOM     99  C   UNL A   1      46.058  38.633  35.160  1.00  0.00     0.198 A 
ATOM    100  C   UNL A   1      44.815  39.977  33.608  1.00  0.00     0.198 A 
ATOM    101  F   UNL A   1      43.534  38.952  31.925  1.00  0.00    -0.203 F 
ATOM    102  F   UNL A   1      46.854  38.538  36.234  1.00  0.00    -0.200 F 
ATOM    103  C   UNL A   1      45.660  39.881  34.703  1.00  0.00     0.200 A 
ATOM    104  F   UNL A   1      44.443  41.182  33.153  1.00  0.00    -0.200 F 
ATOM    105  F   UNL A   1      46.088  40.990  35.320  1.00  0.00    -0.200 F 
ENDBRANCH  72  95
ENDBRANCH  46  47
ENDBRANCH  39  41
ENDBRANCH  38  39
ENDBRANCH  37  38
ENDBRANCH  36  37
ENDBRANCH  35  36
ENDBRANCH  34  35
ENDBRANCH  33  34
ENDBRANCH   1  33
TORSDOF 22
ENDMDL
MODEL 3
REMARK VINA RESULT:     -10.3      7.100      9.640
REMARK SMILES Cc1ccc(O[C@H](C)C(=O)NNC(=O)[C@@H]2[C@@H](C(=O)OCCOCCOCCOC(=O)c3ccc(-c4c5nc(c(-c6c(F)c(F)c(F)c(F)c6F)c6ccc([nH]6)c(-c6c(F)c(F)c(F)c(F)c6F)c6nc(c(-c7c(F)c(F)c(F)c(F)c7F)c7ccc4[nH]7)C=C6)C=C5)cc3)[C@@H]3C=C[C@H]2C3)cc1C
REMARK SMILES IDX 22 1 21 2 20 3 19 4 17 5 18 6 16 7 15 8 97 9 94 10 96 11
REMARK SMILES IDX 98 12 95 13 13 14 12 15 14 17 11 18 9 19 10 20 7 22 8 23
REMARK SMILES IDX 6 24 5 25 1 26 2 27 3 28 100 29 4 30 99 31 101 32 23 33
REMARK SMILES IDX 24 34 25 35 26 36 27 37 28 38 29 39 30 40 31 41 32 42 93 43
REMARK SMILES IDX 33 44 92 45 34 46 35 47 36 48 86 49 37 50 91 51 85 52 87 53
REMARK SMILES IDX 38 54 90 55 84 56 83 57 39 59 71 60 51 61 70 62 52 63 55 64
REMARK SMILES IDX 69 65 88 66 53 67 54 68 68 70 89 71 56 72 40 73 41 74 49 75
REMARK SMILES IDX 42 76 43 77 47 78 50 79 44 80 45 81 48 82 46 83 72 84 73 85
REMARK SMILES IDX 81 86 74 87 75 88 79 89 82 90 76 91 77 92 80 93 78 94 57 95
REMARK SMILES IDX 58 96 66 97 59 98 60 99 64 100 67 101 61 102 62 103 65 104
REMARK SMILES IDX 63 105
REMARK H PARENT 12 16 11 21 87 58 55 69
REMARK Flexibility Score: inf
ROOT
ATOM      1  O   UNL A   1      38.185  22.737  26.312  1.00  0.00    -0.376 OA
ENDROOT
BRANCH   1   2
ATOM      2  C   UNL A   1      37.475  23.103  25.127  1.00  0.00     0.202 C 
BRANCH   2   3
ATOM      3  C   UNL A   1      36.383  22.135  24.633  1.00  0.00     0.261 C 
BRANCH   3   4
ATOM      4  O   UNL A   1      35.536  21.548  25.657  1.00  0.00    -0.463 OA
BRANCH   4   5
ATOM      5  C   UNL A   1      34.353  21.040  25.213  1.00  0.00     0.310 C 
ATOM      6  O   UNL A   1      34.183  19.859  24.925  1.00  0.00    -0.252 OA
BRANCH   5   7
ATOM      7  C   UNL A   1      33.218  22.045  25.077  1.00  0.00     0.119 C 
ATOM      8  C   UNL A   1      33.491  23.587  25.277  1.00  0.00     0.102 C 
ATOM      9  C   UNL A   1      32.473  23.949  26.393  1.00  0.00     0.025 C 
ATOM     10  C   UNL A   1      32.153  21.752  26.174  1.00  0.00     0.027 C 
ATOM     11  C   UNL A   1      31.057  23.751  25.904  1.00  0.00    -0.027 C 
ATOM     12  C   UNL A   1      32.559  22.714  27.290  1.00  0.00     0.017 C 
ATOM     13  C   UNL A   1      30.868  22.432  25.764  1.00  0.00    -0.027 C 
BRANCH   8  14
ATOM     14  C   UNL A   1      33.386  24.292  23.918  1.00  0.00     0.242 C 
ATOM     15  N   UNL A   1      33.598  25.633  23.737  1.00  0.00    -0.267 N 
ATOM     16  H   UNL A   1      33.616  25.954  22.806  1.00  0.00     0.191 HD
ATOM     17  O   UNL A   1      33.188  23.621  22.897  1.00  0.00    -0.273 OA
BRANCH  15  18
ATOM     18  N   UNL A   1      33.788  26.582  24.723  1.00  0.00    -0.264 N 
ATOM     19  C   UNL A   1      33.329  27.878  24.657  1.00  0.00     0.279 C 
ATOM     20  O   UNL A   1      33.337  28.560  25.687  1.00  0.00    -0.269 OA
ATOM     21  H   UNL A   1      34.287  26.314  25.529  1.00  0.00     0.191 HD
BRANCH  19  22
ATOM     22  C   UNL A   1      32.959  28.496  23.295  1.00  0.00     0.260 C 
ATOM     23  C   UNL A   1      34.273  28.814  22.564  1.00  0.00     0.064 C 
BRANCH  22  24
ATOM     24  O   UNL A   1      32.110  27.640  22.532  1.00  0.00    -0.481 OA
BRANCH  24  25
ATOM     25  C   UNL A   1      30.759  27.686  22.764  1.00  0.00     0.120 A 
ATOM     26  C   UNL A   1      26.554  28.310  23.604  1.00  0.00     0.044 C 
ATOM     27  C   UNL A   1      28.004  28.113  23.261  1.00  0.00    -0.048 A 
ATOM     28  C   UNL A   1      28.650  26.950  23.702  1.00  0.00     0.007 A 
ATOM     29  C   UNL A   1      28.737  29.054  22.516  1.00  0.00    -0.045 A 
ATOM     30  C   UNL A   1      30.007  26.731  23.443  1.00  0.00     0.047 A 
ATOM     31  C   UNL A   1      30.110  28.827  22.281  1.00  0.00     0.050 A 
ATOM     32  C   UNL A   1      28.123  30.304  21.946  1.00  0.00     0.045 C 
ENDBRANCH  24  25
ENDBRANCH  22  24
ENDBRANCH  19  22
ENDBRANCH  15  18
ENDBRANCH   8  14
ENDBRANCH   5   7
ENDBRANCH   4   5
ENDBRANCH   3   4
ENDBRANCH   2   3
ENDBRANCH   1   2
BRANCH   1  33
ATOM     33  C   UNL A   1      39.456  22.140  26.109  1.00  0.00     0.188 C 
BRANCH  33  34
ATOM     34  C   UNL A   1      40.436  22.239  27.279  1.00  0.00     0.188 C 
BRANCH  34  35
ATOM     35  O   UNL A   1      41.430  21.229  27.322  1.00  0.00    -0.376 OA
BRANCH  35  36
ATOM     36  C   UNL A   1      42.157  20.971  26.118  1.00  0.00     0.202 C 
BRANCH  36  37
ATOM     37  C   UNL A   1      43.591  21.529  26.006  1.00  0.00     0.261 C 
BRANCH  37  38
ATOM     38  O   UNL A   1      43.731  22.964  26.101  1.00  0.00    -0.460 OA
BRANCH  38  39
ATOM     39  C   UNL A   1      44.124  23.493  27.286  1.00  0.00     0.338 C 
ATOM     40  O   UNL A   1      43.980  23.004  28.384  1.00  0.00    -0.246 OA
BRANCH  39  41
ATOM     41  C   UNL A   1      45.023  24.651  26.999  1.00  0.00     0.060 A 
ATOM     42  C   UNL A   1      45.828  25.130  28.044  1.00  0.00     0.016 A 
ATOM     43  C   UNL A   1      45.135  25.216  25.726  1.00  0.00     0.016 A 
ATOM     44  C   UNL A   1      46.708  26.195  27.833  1.00  0.00     0.010 A 
ATOM     45  C   UNL A   1      46.005  26.294  25.517  1.00  0.00     0.010 A 
ATOM     46  C   UNL A   1      46.770  26.813  26.579  1.00  0.00    -0.014 A 
BRANCH  46  47
ATOM     47  C   UNL A   1      47.444  28.132  26.433  1.00  0.00     0.031 A 
ATOM     48  C   UNL A   1      48.913  28.136  26.101  1.00  0.00     0.074 A 
ATOM     49  C   UNL A   1      46.786  29.299  26.558  1.00  0.00     0.049 A 
ATOM     50  N   UNL A   1      49.750  29.139  26.015  1.00  0.00    -0.248 NA
ATOM     51  C   UNL A   1      49.518  26.823  25.828  1.00  0.00     0.031 C 
ATOM     52  C   UNL A   1      45.355  29.446  26.803  1.00  0.00     0.029 A 
ATOM     53  N   UNL A   1      47.254  30.591  26.499  1.00  0.00    -0.354 N 
ATOM     54  C   UNL A   1      50.978  28.576  25.695  1.00  0.00     0.074 A 
ATOM     55  C   UNL A   1      50.786  27.144  25.626  1.00  0.00     0.031 C 
ATOM     56  C   UNL A   1      45.061  30.756  26.888  1.00  0.00     0.029 A 
ATOM     57  C   UNL A   1      46.290  31.539  26.746  1.00  0.00     0.049 A 
ATOM     58  H   UNL A   1      48.190  30.817  26.298  1.00  0.00     0.167 HD
ATOM     59  C   UNL A   1      52.162  29.193  25.474  1.00  0.00     0.037 A 
ATOM     60  C   UNL A   1      46.396  32.877  26.875  1.00  0.00     0.037 A 
ATOM     61  C   UNL A   1      52.359  30.617  25.537  1.00  0.00     0.049 A 
ATOM     62  C   UNL A   1      47.746  33.538  26.719  1.00  0.00     0.074 A 
ATOM     63  C   UNL A   1      53.522  31.336  25.333  1.00  0.00     0.029 A 
ATOM     64  N   UNL A   1      51.365  31.538  25.832  1.00  0.00    -0.354 N 
ATOM     65  N   UNL A   1      48.905  33.001  26.426  1.00  0.00    -0.248 NA
ATOM     66  C   UNL A   1      47.801  34.995  26.918  1.00  0.00     0.031 C 
ATOM     67  C   UNL A   1      53.246  32.689  25.560  1.00  0.00     0.029 A 
ATOM     68  C   UNL A   1      51.896  32.818  25.841  1.00  0.00     0.049 A 
ATOM     69  H   UNL A   1      50.423  31.316  26.011  1.00  0.00     0.167 HD
ATOM     70  C   UNL A   1      49.813  34.053  26.367  1.00  0.00     0.074 A 
ATOM     71  C   UNL A   1      49.072  35.261  26.650  1.00  0.00     0.031 C 
ATOM     72  C   UNL A   1      51.143  34.018  26.100  1.00  0.00     0.037 A 
BRANCH  59  73
ATOM     73  C   UNL A   1      53.351  28.324  25.183  1.00  0.00     0.064 A 
ATOM     74  C   UNL A   1      54.095  27.718  26.206  1.00  0.00     0.173 A 
ATOM     75  C   UNL A   1      53.738  28.081  23.856  1.00  0.00     0.173 A 
ATOM     76  F   UNL A   1      53.777  27.934  27.491  1.00  0.00    -0.203 F 
ATOM     77  C   UNL A   1      55.202  26.926  25.912  1.00  0.00     0.198 A 
ATOM     78  C   UNL A   1      54.824  27.261  23.565  1.00  0.00     0.198 A 
ATOM     79  F   UNL A   1      53.059  28.635  22.840  1.00  0.00    -0.203 F 
ATOM     80  F   UNL A   1      55.932  26.403  26.907  1.00  0.00    -0.200 F 
ATOM     81  C   UNL A   1      55.561  26.693  24.593  1.00  0.00     0.200 A 
ATOM     82  F   UNL A   1      55.163  27.027  22.290  1.00  0.00    -0.200 F 
ATOM     83  F   UNL A   1      56.624  25.926  24.312  1.00  0.00    -0.200 F 
ENDBRANCH  59  73
BRANCH  60  84
ATOM     84  C   UNL A   1      45.195  33.697  27.201  1.00  0.00     0.064 A 
ATOM     85  C   UNL A   1      44.856  33.995  28.529  1.00  0.00     0.173 A 
ATOM     86  C   UNL A   1      44.336  34.160  26.192  1.00  0.00     0.173 A 
ATOM     87  F   UNL A   1      45.624  33.545  29.532  1.00  0.00    -0.203 F 
ATOM     88  C   UNL A   1      43.695  34.703  28.836  1.00  0.00     0.198 A 
ATOM     89  C   UNL A   1      43.193  34.895  26.499  1.00  0.00     0.198 A 
ATOM     90  F   UNL A   1      44.605  33.893  24.906  1.00  0.00    -0.203 F 
ATOM     91  F   UNL A   1      43.365  34.921  30.116  1.00  0.00    -0.200 F 
ATOM     92  C   UNL A   1      42.868  35.158  27.820  1.00  0.00     0.200 A 
ATOM     93  F   UNL A   1      42.400  35.339  25.513  1.00  0.00    -0.200 F 
ATOM     94  F   UNL A   1      41.751  35.837  28.116  1.00  0.00    -0.200 F 
ENDBRANCH  60  84
BRANCH  72  95
ATOM     95  C   UNL A   1      51.881  35.326  26.038  1.00  0.00     0.064 A 
ATOM     96  C   UNL A   1      52.163  35.965  24.822  1.00  0.00     0.173 A 
ATOM     97  C   UNL A   1      52.257  35.980  27.223  1.00  0.00     0.173 A 
ATOM     98  F   UNL A   1      51.836  35.379  23.661  1.00  0.00    -0.203 F 
ATOM     99  C   UNL A   1      52.811  37.199  24.793  1.00  0.00     0.198 A 
ATOM    100  C   UNL A   1      52.874  37.228  27.192  1.00  0.00     0.198 A 
ATOM    101  F   UNL A   1      52.002  35.420  28.415  1.00  0.00    -0.203 F 
ATOM    102  F   UNL A   1      53.107  37.770  23.618  1.00  0.00    -0.200 F 
ATOM    103  C   UNL A   1      53.157  37.832  25.977  1.00  0.00     0.200 A 
ATOM    104  F   UNL A   1      53.191  37.846  28.338  1.00  0.00    -0.200 F 
ATOM    105  F   UNL A   1      53.767  39.025  25.947  1.00  0.00    -0.200 F 
ENDBRANCH  72  95
ENDBRANCH  46  47
ENDBRANCH  39  41
ENDBRANCH  38  39
ENDBRANCH  37  38
ENDBRANCH  36  37
ENDBRANCH  35  36
ENDBRANCH  34  35
ENDBRANCH  33  34
ENDBRANCH   1  33
TORSDOF 22
ENDMDL
