MODEL 1
REMARK VINA RESULT:     -11.2      0.000      0.000
REMARK SMILES CCCCN(c1ccccc1C(=O)OCCOCCOCCOC(=O)c1ccc(-c2c3nc(c(-c4c(F)c(F)c(F)c(F)c4F)c4ccc([nH]4)c(-c4c(F)c(F)c(F)c(F)c4F)c4nc(c(-c5c(F)c(F)c(F)c(F)c5F)c5ccc2[nH]5)C=C4)C=C3)cc1)S(=O)(=O)c1ccc2c(c1)oc(=O)n2C
REMARK SMILES IDX 18 1 17 2 16 3 15 4 14 5 12 6 13 7 11 8 6 9 7 10 8 11 10 12
REMARK SMILES IDX 9 13 5 14 4 15 3 16 2 17 1 18 89 19 90 20 91 21 92 22 93 23
REMARK SMILES IDX 97 24 94 25 96 26 95 27 98 28 101 29 99 30 102 31 100 32
REMARK SMILES IDX 19 33 20 34 21 35 22 36 23 37 24 38 25 39 26 40 27 41 88 42
REMARK SMILES IDX 28 43 87 44 29 45 30 46 31 47 81 48 32 49 86 50 80 51 82 52
REMARK SMILES IDX 33 53 85 54 79 55 78 56 34 58 66 59 46 60 65 61 47 62 50 63
REMARK SMILES IDX 64 64 83 65 48 66 49 67 63 69 84 70 51 71 35 72 36 73 44 74
REMARK SMILES IDX 37 75 38 76 42 77 45 78 39 79 40 80 43 81 41 82 67 83 68 84
REMARK SMILES IDX 76 85 69 86 70 87 74 88 77 89 71 90 72 91 75 92 73 93 52 94
REMARK SMILES IDX 53 95 61 96 54 97 55 98 59 99 62 100 56 101 57 102 60 103
REMARK SMILES IDX 58 104
REMARK H PARENT 82 57 50 68
REMARK Flexibility Score: inf
ROOT
ATOM      1  C   UNL A   1      35.719  32.723  27.989  1.00  0.00     0.188 C 
ENDROOT
BRANCH   1   2
ATOM      2  O   UNL A   1      35.458  31.395  28.436  1.00  0.00    -0.376 OA
BRANCH   2   3
ATOM      3  C   UNL A   1      34.797  30.481  27.567  1.00  0.00     0.202 C 
BRANCH   3   4
ATOM      4  C   UNL A   1      33.332  30.744  27.203  1.00  0.00     0.261 C 
BRANCH   4   5
ATOM      5  O   UNL A   1      32.891  30.023  26.039  1.00  0.00    -0.460 OA
BRANCH   5   6
ATOM      6  C   UNL A   1      31.867  29.165  26.220  1.00  0.00     0.340 C 
ATOM      7  O   UNL A   1      31.418  28.819  27.305  1.00  0.00    -0.246 OA
BRANCH   6   8
ATOM      8  C   UNL A   1      31.210  28.729  24.956  1.00  0.00     0.084 A 
ATOM      9  C   UNL A   1      30.973  27.404  24.516  1.00  0.00     0.066 A 
ATOM     10  C   UNL A   1      29.890  27.235  23.646  1.00  0.00     0.028 A 
ATOM     11  C   UNL A   1      29.310  28.320  22.970  1.00  0.00     0.002 A 
ATOM     12  C   UNL A   1      30.649  29.817  24.248  1.00  0.00     0.018 A 
ATOM     13  C   UNL A   1      29.750  29.611  23.212  1.00  0.00     0.001 A 
BRANCH   9  14
ATOM     14  N   UNL A   1      31.813  26.260  24.865  1.00  0.00    -0.265 N 
BRANCH  14  15
ATOM     15  C   UNL A   1      33.249  26.285  24.384  1.00  0.00     0.136 C 
BRANCH  15  16
ATOM     16  C   UNL A   1      33.667  25.348  23.244  1.00  0.00     0.022 C 
BRANCH  16  17
ATOM     17  C   UNL A   1      32.617  24.870  22.232  1.00  0.00    -0.002 C 
ATOM     18  C   UNL A   1      32.567  25.638  20.916  1.00  0.00     0.004 C 
ENDBRANCH  16  17
ENDBRANCH  15  16
ENDBRANCH  14  15
BRANCH  14  19
ATOM     19  S   UNL A   1      31.548  25.279  26.251  1.00  0.00     0.264 S 
ATOM     20  O   UNL A   1      32.178  26.000  27.342  1.00  0.00    -0.201 OA
ATOM     21  O   UNL A   1      30.133  24.967  26.306  1.00  0.00    -0.201 OA
BRANCH  19  22
ATOM     22  C   UNL A   1      32.380  23.675  26.311  1.00  0.00     0.091 A 
ATOM     23  C   UNL A   1      33.748  23.508  26.600  1.00  0.00     0.025 A 
ATOM     24  C   UNL A   1      31.692  22.617  25.674  1.00  0.00     0.071 A 
ATOM     25  C   UNL A   1      34.446  22.341  26.238  1.00  0.00     0.032 A 
ATOM     26  C   UNL A   1      32.404  21.494  25.302  1.00  0.00     0.157 A 
ATOM     27  C   UNL A   1      33.750  21.368  25.560  1.00  0.00     0.090 A 
ATOM     28  O   UNL A   1      31.900  20.436  24.561  1.00  0.00    -0.408 OA
ATOM     29  N   UNL A   1      34.144  20.196  24.961  1.00  0.00    -0.277 N 
ATOM     30  C   UNL A   1      33.035  19.640  24.357  1.00  0.00     0.419 A 
ATOM     31  C   UNL A   1      35.462  19.634  24.931  1.00  0.00     0.157 C 
ATOM     32  O   UNL A   1      33.012  18.593  23.717  1.00  0.00    -0.223 OA
ENDBRANCH  19  22
ENDBRANCH  14  19
ENDBRANCH   9  14
ENDBRANCH   6   8
ENDBRANCH   5   6
ENDBRANCH   4   5
ENDBRANCH   3   4
ENDBRANCH   2   3
ENDBRANCH   1   2
BRANCH   1  33
ATOM     33  C   UNL A   1      35.575  33.910  28.972  1.00  0.00     0.188 C 
BRANCH  33  34
ATOM     34  O   UNL A   1      34.751  34.942  28.483  1.00  0.00    -0.376 OA
BRANCH  34  35
ATOM     35  C   UNL A   1      33.406  34.984  28.923  1.00  0.00     0.202 C 
BRANCH  35  36
ATOM     36  C   UNL A   1      32.909  36.066  29.906  1.00  0.00     0.261 C 
BRANCH  36  37
ATOM     37  O   UNL A   1      32.208  35.639  31.085  1.00  0.00    -0.460 OA
BRANCH  37  38
ATOM     38  C   UNL A   1      32.684  36.027  32.291  1.00  0.00     0.338 C 
ATOM     39  O   UNL A   1      32.163  36.792  33.078  1.00  0.00    -0.246 OA
BRANCH  38  40
ATOM     40  C   UNL A   1      33.870  35.186  32.592  1.00  0.00     0.060 A 
ATOM     41  C   UNL A   1      33.679  33.867  33.031  1.00  0.00     0.016 A 
ATOM     42  C   UNL A   1      35.160  35.675  32.381  1.00  0.00     0.016 A 
ATOM     43  C   UNL A   1      34.780  33.031  33.247  1.00  0.00     0.010 A 
ATOM     44  C   UNL A   1      36.262  34.846  32.626  1.00  0.00     0.010 A 
ATOM     45  C   UNL A   1      36.081  33.521  33.065  1.00  0.00    -0.014 A 
BRANCH  45  46
ATOM     46  C   UNL A   1      37.264  32.699  33.430  1.00  0.00     0.031 A 
ATOM     47  C   UNL A   1      37.997  33.006  34.703  1.00  0.00     0.074 A 
ATOM     48  C   UNL A   1      37.701  31.714  32.625  1.00  0.00     0.049 A 
ATOM     49  N   UNL A   1      39.117  32.505  35.162  1.00  0.00    -0.248 NA
ATOM     50  C   UNL A   1      37.386  34.017  35.579  1.00  0.00     0.031 C 
ATOM     51  C   UNL A   1      37.061  31.290  31.382  1.00  0.00     0.029 A 
ATOM     52  N   UNL A   1      38.811  30.907  32.723  1.00  0.00    -0.354 N 
ATOM     53  C   UNL A   1      39.350  33.147  36.371  1.00  0.00     0.074 A 
ATOM     54  C   UNL A   1      38.267  34.087  36.566  1.00  0.00     0.031 C 
ATOM     55  C   UNL A   1      37.802  30.321  30.818  1.00  0.00     0.029 A 
ATOM     56  C   UNL A   1      38.991  30.086  31.635  1.00  0.00     0.049 A 
ATOM     57  H   UNL A   1      39.417  30.917  33.498  1.00  0.00     0.167 HD
ATOM     58  C   UNL A   1      40.376  32.968  37.237  1.00  0.00     0.037 A 
ATOM     59  C   UNL A   1      40.020  29.274  31.317  1.00  0.00     0.037 A 
ATOM     60  C   UNL A   1      41.457  32.039  37.036  1.00  0.00     0.049 A 
ATOM     61  C   UNL A   1      41.201  29.166  32.251  1.00  0.00     0.074 A 
ATOM     62  C   UNL A   1      42.519  31.759  37.878  1.00  0.00     0.029 A 
ATOM     63  N   UNL A   1      41.624  31.253  35.906  1.00  0.00    -0.354 N 
ATOM     64  N   UNL A   1      41.394  29.741  33.414  1.00  0.00    -0.248 NA
ATOM     65  C   UNL A   1      42.311  28.301  31.824  1.00  0.00     0.031 C 
ATOM     66  C   UNL A   1      43.365  30.854  37.228  1.00  0.00     0.029 A 
ATOM     67  C   UNL A   1      42.798  30.523  36.008  1.00  0.00     0.049 A 
ATOM     68  H   UNL A   1      41.002  31.219  35.144  1.00  0.00     0.167 HD
ATOM     69  C   UNL A   1      42.632  29.297  33.862  1.00  0.00     0.074 A 
ATOM     70  C   UNL A   1      43.137  28.385  32.858  1.00  0.00     0.031 C 
ATOM     71  C   UNL A   1      43.294  29.620  35.001  1.00  0.00     0.037 A 
BRANCH  58  72
ATOM     72  C   UNL A   1      40.401  33.821  38.472  1.00  0.00     0.064 A 
ATOM     73  C   UNL A   1      39.728  33.446  39.644  1.00  0.00     0.173 A 
ATOM     74  C   UNL A   1      41.152  35.007  38.497  1.00  0.00     0.173 A 
ATOM     75  F   UNL A   1      38.987  32.328  39.669  1.00  0.00    -0.203 F 
ATOM     76  C   UNL A   1      39.786  34.239  40.788  1.00  0.00     0.198 A 
ATOM     77  C   UNL A   1      41.232  35.781  39.651  1.00  0.00     0.198 A 
ATOM     78  F   UNL A   1      41.819  35.409  37.404  1.00  0.00    -0.203 F 
ATOM     79  F   UNL A   1      39.100  33.883  41.883  1.00  0.00    -0.200 F 
ATOM     80  C   UNL A   1      40.545  35.400  40.793  1.00  0.00     0.200 A 
ATOM     81  F   UNL A   1      41.978  36.894  39.658  1.00  0.00    -0.200 F 
ATOM     82  F   UNL A   1      40.608  36.155  41.899  1.00  0.00    -0.200 F 
ENDBRANCH  58  72
BRANCH  59  83
ATOM     83  C   UNL A   1      40.010  28.526  30.031  1.00  0.00     0.064 A 
ATOM     84  C   UNL A   1      39.429  27.254  29.937  1.00  0.00     0.173 A 
ATOM     85  C   UNL A   1      40.611  29.052  28.877  1.00  0.00     0.173 A 
ATOM     86  F   UNL A   1      38.871  26.692  31.018  1.00  0.00    -0.203 F 
ATOM     87  C   UNL A   1      39.467  26.529  28.746  1.00  0.00     0.198 A 
ATOM     88  C   UNL A   1      40.620  28.342  27.679  1.00  0.00     0.198 A 
ATOM     89  F   UNL A   1      41.191  30.261  28.914  1.00  0.00    -0.203 F 
ATOM     90  F   UNL A   1      38.953  25.293  28.700  1.00  0.00    -0.200 F 
ATOM     91  C   UNL A   1      40.056  27.077  27.616  1.00  0.00     0.200 A 
ATOM     92  F   UNL A   1      41.183  28.879  26.588  1.00  0.00    -0.200 F 
ATOM     93  F   UNL A   1      40.091  26.381  26.472  1.00  0.00    -0.200 F 
ENDBRANCH  59  83
BRANCH  71  94
ATOM     94  C   UNL A   1      44.633  28.977  35.236  1.00  0.00     0.064 A 
ATOM     95  C   UNL A   1      45.823  29.584  34.807  1.00  0.00     0.173 A 
ATOM     96  C   UNL A   1      44.732  27.774  35.950  1.00  0.00     0.173 A 
ATOM     97  F   UNL A   1      45.783  30.729  34.108  1.00  0.00    -0.203 F 
ATOM     98  C   UNL A   1      47.060  29.000  35.069  1.00  0.00     0.198 A 
ATOM     99  C   UNL A   1      45.972  27.208  36.237  1.00  0.00     0.198 A 
ATOM    100  F   UNL A   1      43.626  27.155  36.390  1.00  0.00    -0.203 F 
ATOM    101  F   UNL A   1      48.181  29.577  34.613  1.00  0.00    -0.200 F 
ATOM    102  C   UNL A   1      47.134  27.819  35.792  1.00  0.00     0.200 A 
ATOM    103  F   UNL A   1      46.042  26.076  36.950  1.00  0.00    -0.200 F 
ATOM    104  F   UNL A   1      48.326  27.266  36.054  1.00  0.00    -0.200 F 
ENDBRANCH  71  94
ENDBRANCH  45  46
ENDBRANCH  38  40
ENDBRANCH  37  38
ENDBRANCH  36  37
ENDBRANCH  35  36
ENDBRANCH  34  35
ENDBRANCH  33  34
ENDBRANCH   1  33
TORSDOF 23
ENDMDL
MODEL 2
REMARK VINA RESULT:     -11.0      0.808      2.031
REMARK SMILES CCCCN(c1ccccc1C(=O)OCCOCCOCCOC(=O)c1ccc(-c2c3nc(c(-c4c(F)c(F)c(F)c(F)c4F)c4ccc([nH]4)c(-c4c(F)c(F)c(F)c(F)c4F)c4nc(c(-c5c(F)c(F)c(F)c(F)c5F)c5ccc2[nH]5)C=C4)C=C3)cc1)S(=O)(=O)c1ccc2c(c1)oc(=O)n2C
REMARK SMILES IDX 18 1 17 2 16 3 15 4 14 5 12 6 13 7 11 8 6 9 7 10 8 11 10 12
REMARK SMILES IDX 9 13 5 14 4 15 3 16 2 17 1 18 89 19 90 20 91 21 92 22 93 23
REMARK SMILES IDX 97 24 94 25 96 26 95 27 98 28 101 29 99 30 102 31 100 32
REMARK SMILES IDX 19 33 20 34 21 35 22 36 23 37 24 38 25 39 26 40 27 41 88 42
REMARK SMILES IDX 28 43 87 44 29 45 30 46 31 47 81 48 32 49 86 50 80 51 82 52
REMARK SMILES IDX 33 53 85 54 79 55 78 56 34 58 66 59 46 60 65 61 47 62 50 63
REMARK SMILES IDX 64 64 83 65 48 66 49 67 63 69 84 70 51 71 35 72 36 73 44 74
REMARK SMILES IDX 37 75 38 76 42 77 45 78 39 79 40 80 43 81 41 82 67 83 68 84
REMARK SMILES IDX 76 85 69 86 70 87 74 88 77 89 71 90 72 91 75 92 73 93 52 94
REMARK SMILES IDX 53 95 61 96 54 97 55 98 59 99 62 100 56 101 57 102 60 103
REMARK SMILES IDX 58 104
REMARK H PARENT 82 57 50 68
REMARK Flexibility Score: inf
ROOT
ATOM      1  C   UNL A   1      34.363  31.679  28.065  1.00  0.00     0.188 C 
ENDROOT
BRANCH   1   2
ATOM      2  O   UNL A   1      33.117  31.421  27.423  1.00  0.00    -0.376 OA
BRANCH   2   3
ATOM      3  C   UNL A   1      32.819  30.101  26.978  1.00  0.00     0.202 C 
BRANCH   3   4
ATOM      4  C   UNL A   1      32.495  29.882  25.496  1.00  0.00     0.261 C 
BRANCH   4   5
ATOM      5  O   UNL A   1      33.238  28.804  24.899  1.00  0.00    -0.460 OA
BRANCH   5   6
ATOM      6  C   UNL A   1      32.966  28.536  23.606  1.00  0.00     0.340 C 
ATOM      7  O   UNL A   1      32.972  29.356  22.698  1.00  0.00    -0.246 OA
BRANCH   6   8
ATOM      8  C   UNL A   1      32.758  27.090  23.317  1.00  0.00     0.084 A 
ATOM      9  C   UNL A   1      31.594  26.319  23.555  1.00  0.00     0.066 A 
ATOM     10  C   UNL A   1      31.419  25.206  22.724  1.00  0.00     0.028 A 
ATOM     11  C   UNL A   1      32.476  24.678  21.966  1.00  0.00     0.002 A 
ATOM     12  C   UNL A   1      33.831  26.536  22.581  1.00  0.00     0.018 A 
ATOM     13  C   UNL A   1      33.713  25.301  21.961  1.00  0.00     0.001 A 
BRANCH   9  14
ATOM     14  N   UNL A   1      30.637  26.585  24.628  1.00  0.00    -0.265 N 
BRANCH  14  15
ATOM     15  C   UNL A   1      29.267  27.089  24.221  1.00  0.00     0.136 C 
BRANCH  15  16
ATOM     16  C   UNL A   1      29.147  28.013  23.004  1.00  0.00     0.022 C 
BRANCH  16  17
ATOM     17  C   UNL A   1      28.217  29.232  23.066  1.00  0.00    -0.002 C 
ATOM     18  C   UNL A   1      28.891  30.565  23.373  1.00  0.00     0.004 C 
ENDBRANCH  16  17
ENDBRANCH  15  16
ENDBRANCH  14  15
BRANCH  14  19
ATOM     19  S   UNL A   1      30.675  25.788  26.149  1.00  0.00     0.264 S 
ATOM     20  O   UNL A   1      31.273  26.749  27.058  1.00  0.00    -0.201 OA
ATOM     21  O   UNL A   1      29.345  25.271  26.410  1.00  0.00    -0.201 OA
BRANCH  19  22
ATOM     22  C   UNL A   1      31.770  24.359  26.318  1.00  0.00     0.091 A 
ATOM     23  C   UNL A   1      33.175  24.441  26.324  1.00  0.00     0.025 A 
ATOM     24  C   UNL A   1      31.168  23.107  26.053  1.00  0.00     0.071 A 
ATOM     25  C   UNL A   1      33.985  23.326  26.037  1.00  0.00     0.032 A 
ATOM     26  C   UNL A   1      31.982  22.034  25.745  1.00  0.00     0.157 A 
ATOM     27  C   UNL A   1      33.354  22.146  25.719  1.00  0.00     0.090 A 
ATOM     28  O   UNL A   1      31.539  20.784  25.339  1.00  0.00    -0.408 OA
ATOM     29  N   UNL A   1      33.825  20.935  25.273  1.00  0.00    -0.277 N 
ATOM     30  C   UNL A   1      32.736  20.120  25.040  1.00  0.00     0.419 A 
ATOM     31  C   UNL A   1      35.191  20.559  25.057  1.00  0.00     0.157 C 
ATOM     32  O   UNL A   1      32.776  18.967  24.623  1.00  0.00    -0.223 OA
ENDBRANCH  19  22
ENDBRANCH  14  19
ENDBRANCH   9  14
ENDBRANCH   6   8
ENDBRANCH   5   6
ENDBRANCH   4   5
ENDBRANCH   3   4
ENDBRANCH   2   3
ENDBRANCH   1   2
BRANCH   1  33
ATOM     33  C   UNL A   1      34.737  33.126  28.467  1.00  0.00     0.188 C 
BRANCH  33  34
ATOM     34  O   UNL A   1      33.677  33.829  29.072  1.00  0.00    -0.376 OA
BRANCH  34  35
ATOM     35  C   UNL A   1      33.587  35.224  28.843  1.00  0.00     0.202 C 
BRANCH  35  36
ATOM     36  C   UNL A   1      32.547  36.098  29.575  1.00  0.00     0.261 C 
BRANCH  36  37
ATOM     37  O   UNL A   1      32.932  36.710  30.817  1.00  0.00    -0.460 OA
BRANCH  37  38
ATOM     38  C   UNL A   1      32.643  36.060  31.970  1.00  0.00     0.338 C 
ATOM     39  O   UNL A   1      31.575  36.026  32.549  1.00  0.00    -0.246 OA
BRANCH  38  40
ATOM     40  C   UNL A   1      33.811  35.207  32.304  1.00  0.00     0.060 A 
ATOM     41  C   UNL A   1      33.595  33.933  32.850  1.00  0.00     0.016 A 
ATOM     42  C   UNL A   1      35.108  35.637  32.021  1.00  0.00     0.016 A 
ATOM     43  C   UNL A   1      34.676  33.082  33.101  1.00  0.00     0.010 A 
ATOM     44  C   UNL A   1      36.192  34.796  32.301  1.00  0.00     0.010 A 
ATOM     45  C   UNL A   1      35.985  33.516  32.847  1.00  0.00    -0.014 A 
BRANCH  45  46
ATOM     46  C   UNL A   1      37.153  32.688  33.243  1.00  0.00     0.031 A 
ATOM     47  C   UNL A   1      37.860  32.996  34.532  1.00  0.00     0.074 A 
ATOM     48  C   UNL A   1      37.602  31.695  32.454  1.00  0.00     0.049 A 
ATOM     49  N   UNL A   1      38.964  32.490  35.019  1.00  0.00    -0.248 NA
ATOM     50  C   UNL A   1      37.236  34.017  35.387  1.00  0.00     0.031 C 
ATOM     51  C   UNL A   1      36.987  31.268  31.199  1.00  0.00     0.029 A 
ATOM     52  N   UNL A   1      38.703  30.880  32.582  1.00  0.00    -0.354 N 
ATOM     53  C   UNL A   1      39.175  33.137  36.229  1.00  0.00     0.074 A 
ATOM     54  C   UNL A   1      38.094  34.085  36.394  1.00  0.00     0.031 C 
ATOM     55  C   UNL A   1      37.734  30.291  30.658  1.00  0.00     0.029 A 
ATOM     56  C   UNL A   1      38.903  30.052  31.503  1.00  0.00     0.049 A 
ATOM     57  H   UNL A   1      39.292  30.891  33.371  1.00  0.00     0.167 HD
ATOM     58  C   UNL A   1      40.179  32.956  37.120  1.00  0.00     0.037 A 
ATOM     59  C   UNL A   1      39.933  29.231  31.213  1.00  0.00     0.037 A 
ATOM     60  C   UNL A   1      41.258  32.018  36.949  1.00  0.00     0.049 A 
ATOM     61  C   UNL A   1      41.092  29.120  32.175  1.00  0.00     0.074 A 
ATOM     62  C   UNL A   1      42.298  31.735  37.816  1.00  0.00     0.029 A 
ATOM     63  N   UNL A   1      41.445  31.225  35.827  1.00  0.00    -0.354 N 
ATOM     64  N   UNL A   1      41.261  29.700  33.338  1.00  0.00    -0.248 NA
ATOM     65  C   UNL A   1      42.205  28.245  31.778  1.00  0.00     0.031 C 
ATOM     66  C   UNL A   1      43.153  30.821  37.191  1.00  0.00     0.029 A 
ATOM     67  C   UNL A   1      42.612  30.487  35.960  1.00  0.00     0.049 A 
ATOM     68  H   UNL A   1      40.841  31.191  35.051  1.00  0.00     0.167 HD
ATOM     69  C   UNL A   1      42.486  29.250  33.818  1.00  0.00     0.074 A 
ATOM     70  C   UNL A   1      43.007  28.329  32.831  1.00  0.00     0.031 C 
ATOM     71  C   UNL A   1      43.124  29.575  34.970  1.00  0.00     0.037 A 
BRANCH  58  72
ATOM     72  C   UNL A   1      40.181  33.816  38.350  1.00  0.00     0.064 A 
ATOM     73  C   UNL A   1      40.918  35.007  38.418  1.00  0.00     0.173 A 
ATOM     74  C   UNL A   1      39.394  33.467  39.459  1.00  0.00     0.173 A 
ATOM     75  F   UNL A   1      41.696  35.380  37.390  1.00  0.00    -0.203 F 
ATOM     76  C   UNL A   1      40.885  35.805  39.560  1.00  0.00     0.198 A 
ATOM     77  C   UNL A   1      39.340  34.282  40.585  1.00  0.00     0.198 A 
ATOM     78  F   UNL A   1      38.665  32.340  39.443  1.00  0.00    -0.203 F 
ATOM     79  F   UNL A   1      41.632  36.917  39.619  1.00  0.00    -0.200 F 
ATOM     80  C   UNL A   1      40.090  35.446  40.638  1.00  0.00     0.200 A 
ATOM     81  F   UNL A   1      38.559  33.940  41.620  1.00  0.00    -0.200 F 
ATOM     82  F   UNL A   1      40.052  36.221  41.731  1.00  0.00    -0.200 F 
ENDBRANCH  58  72
BRANCH  59  83
ATOM     83  C   UNL A   1      39.947  28.476  29.931  1.00  0.00     0.064 A 
ATOM     84  C   UNL A   1      39.368  27.203  29.833  1.00  0.00     0.173 A 
ATOM     85  C   UNL A   1      40.570  28.996  28.786  1.00  0.00     0.173 A 
ATOM     86  F   UNL A   1      38.789  26.647  30.907  1.00  0.00    -0.203 F 
ATOM     87  C   UNL A   1      39.429  26.472  28.647  1.00  0.00     0.198 A 
ATOM     88  C   UNL A   1      40.602  28.278  27.592  1.00  0.00     0.198 A 
ATOM     89  F   UNL A   1      41.149  30.205  28.827  1.00  0.00    -0.203 F 
ATOM     90  F   UNL A   1      38.915  25.236  28.599  1.00  0.00    -0.200 F 
ATOM     91  C   UNL A   1      40.038  27.014  27.526  1.00  0.00     0.200 A 
ATOM     92  F   UNL A   1      41.185  28.809  26.509  1.00  0.00    -0.200 F 
ATOM     93  F   UNL A   1      40.095  26.311  26.387  1.00  0.00    -0.200 F 
ENDBRANCH  59  83
BRANCH  71  94
ATOM     94  C   UNL A   1      44.452  28.924  35.239  1.00  0.00     0.064 A 
ATOM     95  C   UNL A   1      45.653  29.499  34.795  1.00  0.00     0.173 A 
ATOM     96  C   UNL A   1      44.530  27.748  35.999  1.00  0.00     0.173 A 
ATOM     97  F   UNL A   1      45.634  30.616  34.052  1.00  0.00    -0.203 F 
ATOM     98  C   UNL A   1      46.881  28.909  35.088  1.00  0.00     0.198 A 
ATOM     99  C   UNL A   1      45.761  27.178  36.318  1.00  0.00     0.198 A 
ATOM    100  F   UNL A   1      43.413  27.162  36.455  1.00  0.00    -0.203 F 
ATOM    101  F   UNL A   1      48.012  29.453  34.619  1.00  0.00    -0.200 F 
ATOM    102  C   UNL A   1      46.934  27.756  35.857  1.00  0.00     0.200 A 
ATOM    103  F   UNL A   1      45.811  26.073  37.074  1.00  0.00    -0.200 F 
ATOM    104  F   UNL A   1      48.117  27.198  36.150  1.00  0.00    -0.200 F 
ENDBRANCH  71  94
ENDBRANCH  45  46
ENDBRANCH  38  40
ENDBRANCH  37  38
ENDBRANCH  36  37
ENDBRANCH  35  36
ENDBRANCH  34  35
ENDBRANCH  33  34
ENDBRANCH   1  33
TORSDOF 23
ENDMDL
MODEL 3
REMARK VINA RESULT:     -10.3      1.667      7.826
REMARK SMILES CCCCN(c1ccccc1C(=O)OCCOCCOCCOC(=O)c1ccc(-c2c3nc(c(-c4c(F)c(F)c(F)c(F)c4F)c4ccc([nH]4)c(-c4c(F)c(F)c(F)c(F)c4F)c4nc(c(-c5c(F)c(F)c(F)c(F)c5F)c5ccc2[nH]5)C=C4)C=C3)cc1)S(=O)(=O)c1ccc2c(c1)oc(=O)n2C
REMARK SMILES IDX 18 1 17 2 16 3 15 4 14 5 12 6 13 7 11 8 6 9 7 10 8 11 10 12
REMARK SMILES IDX 9 13 5 14 4 15 3 16 2 17 1 18 89 19 90 20 91 21 92 22 93 23
REMARK SMILES IDX 97 24 94 25 96 26 95 27 98 28 101 29 99 30 102 31 100 32
REMARK SMILES IDX 19 33 20 34 21 35 22 36 23 37 24 38 25 39 26 40 27 41 88 42
REMARK SMILES IDX 28 43 87 44 29 45 30 46 31 47 81 48 32 49 86 50 80 51 82 52
REMARK SMILES IDX 33 53 85 54 79 55 78 56 34 58 66 59 46 60 65 61 47 62 50 63
REMARK SMILES IDX 64 64 83 65 48 66 49 67 63 69 84 70 51 71 35 72 36 73 44 74
REMARK SMILES IDX 37 75 38 76 42 77 45 78 39 79 40 80 43 81 41 82 67 83 68 84
REMARK SMILES IDX 76 85 69 86 70 87 74 88 77 89 71 90 72 91 75 92 73 93 52 94
REMARK SMILES IDX 53 95 61 96 54 97 55 98 59 99 62 100 56 101 57 102 60 103
REMARK SMILES IDX 58 104
REMARK H PARENT 82 57 50 68
REMARK Flexibility Score: inf
ROOT
ATOM      1  C   UNL A   1      33.979  29.662  27.107  1.00  0.00     0.188 C 
ENDROOT
BRANCH   1   2
ATOM      2  O   UNL A   1      33.163  30.074  26.014  1.00  0.00    -0.376 OA
BRANCH   2   3
ATOM      3  C   UNL A   1      33.011  29.211  24.891  1.00  0.00     0.202 C 
BRANCH   3   4
ATOM      4  C   UNL A   1      33.613  27.804  24.961  1.00  0.00     0.261 C 
BRANCH   4   5
ATOM      5  O   UNL A   1      32.729  26.829  25.541  1.00  0.00    -0.460 OA
BRANCH   5   6
ATOM      6  C   UNL A   1      33.265  25.621  25.808  1.00  0.00     0.340 C 
ATOM      7  O   UNL A   1      34.432  25.418  26.114  1.00  0.00    -0.246 OA
BRANCH   6   8
ATOM      8  C   UNL A   1      32.275  24.507  25.820  1.00  0.00     0.084 A 
ATOM      9  C   UNL A   1      32.497  23.150  25.482  1.00  0.00     0.066 A 
ATOM     10  C   UNL A   1      31.641  22.223  26.088  1.00  0.00     0.028 A 
ATOM     11  C   UNL A   1      30.434  22.616  26.689  1.00  0.00     0.002 A 
ATOM     12  C   UNL A   1      31.043  24.898  26.394  1.00  0.00     0.018 A 
ATOM     13  C   UNL A   1      30.096  23.956  26.767  1.00  0.00     0.001 A 
BRANCH   9  14
ATOM     14  N   UNL A   1      33.498  22.695  24.518  1.00  0.00    -0.265 N 
BRANCH  14  15
ATOM     15  C   UNL A   1      34.300  21.464  24.885  1.00  0.00     0.136 C 
BRANCH  15  16
ATOM     16  C   UNL A   1      35.454  21.600  25.886  1.00  0.00     0.022 C 
BRANCH  16  17
ATOM     17  C   UNL A   1      36.847  22.005  25.387  1.00  0.00    -0.002 C 
ATOM     18  C   UNL A   1      37.051  23.493  25.126  1.00  0.00     0.004 C 
ENDBRANCH  16  17
ENDBRANCH  15  16
ENDBRANCH  14  15
BRANCH  14  19
ATOM     19  S   UNL A   1      33.388  22.991  22.829  1.00  0.00     0.264 S 
ATOM     20  O   UNL A   1      34.749  23.280  22.414  1.00  0.00    -0.201 OA
ATOM     21  O   UNL A   1      32.667  21.883  22.233  1.00  0.00    -0.201 OA
BRANCH  19  22
ATOM     22  C   UNL A   1      32.495  24.469  22.295  1.00  0.00     0.091 A 
ATOM     23  C   UNL A   1      33.115  25.613  21.760  1.00  0.00     0.025 A 
ATOM     24  C   UNL A   1      31.178  24.587  22.796  1.00  0.00     0.071 A 
ATOM     25  C   UNL A   1      32.475  26.867  21.748  1.00  0.00     0.032 A 
ATOM     26  C   UNL A   1      30.582  25.834  22.801  1.00  0.00     0.157 A 
ATOM     27  C   UNL A   1      31.222  26.948  22.307  1.00  0.00     0.090 A 
ATOM     28  O   UNL A   1      29.354  26.132  23.372  1.00  0.00    -0.408 OA
ATOM     29  N   UNL A   1      30.393  28.011  22.571  1.00  0.00    -0.277 N 
ATOM     30  C   UNL A   1      29.275  27.521  23.215  1.00  0.00     0.419 A 
ATOM     31  C   UNL A   1      30.625  29.392  22.267  1.00  0.00     0.157 C 
ATOM     32  O   UNL A   1      28.324  28.187  23.614  1.00  0.00    -0.223 OA
ENDBRANCH  19  22
ENDBRANCH  14  19
ENDBRANCH   9  14
ENDBRANCH   6   8
ENDBRANCH   5   6
ENDBRANCH   4   5
ENDBRANCH   3   4
ENDBRANCH   2   3
ENDBRANCH   1   2
BRANCH   1  33
ATOM     33  C   UNL A   1      35.019  30.641  27.705  1.00  0.00     0.188 C 
BRANCH  33  34
ATOM     34  O   UNL A   1      34.611  31.988  27.651  1.00  0.00    -0.376 OA
BRANCH  34  35
ATOM     35  C   UNL A   1      33.245  32.280  27.882  1.00  0.00     0.202 C 
BRANCH  35  36
ATOM     36  C   UNL A   1      32.681  33.706  27.708  1.00  0.00     0.261 C 
BRANCH  36  37
ATOM     37  O   UNL A   1      33.410  34.798  28.292  1.00  0.00    -0.460 OA
BRANCH  37  38
ATOM     38  C   UNL A   1      33.359  34.958  29.636  1.00  0.00     0.338 C 
ATOM     39  O   UNL A   1      32.423  35.368  30.294  1.00  0.00    -0.246 OA
BRANCH  38  40
ATOM     40  C   UNL A   1      34.582  34.339  30.203  1.00  0.00     0.060 A 
ATOM     41  C   UNL A   1      35.816  34.557  29.571  1.00  0.00     0.016 A 
ATOM     42  C   UNL A   1      34.522  33.600  31.386  1.00  0.00     0.016 A 
ATOM     43  C   UNL A   1      36.993  34.048  30.131  1.00  0.00     0.010 A 
ATOM     44  C   UNL A   1      35.698  33.066  31.929  1.00  0.00     0.010 A 
ATOM     45  C   UNL A   1      36.940  33.282  31.303  1.00  0.00    -0.014 A 
BRANCH  45  46
ATOM     46  C   UNL A   1      38.155  32.609  31.831  1.00  0.00     0.031 A 
ATOM     47  C   UNL A   1      38.736  31.454  31.068  1.00  0.00     0.074 A 
ATOM     48  C   UNL A   1      38.717  32.998  32.990  1.00  0.00     0.049 A 
ATOM     49  N   UNL A   1      39.713  30.646  31.395  1.00  0.00    -0.248 NA
ATOM     50  C   UNL A   1      38.133  31.170  29.758  1.00  0.00     0.031 C 
ATOM     51  C   UNL A   1      38.276  34.125  33.807  1.00  0.00     0.029 A 
ATOM     52  N   UNL A   1      39.771  32.464  33.694  1.00  0.00    -0.354 N 
ATOM     53  C   UNL A   1      39.832  29.752  30.340  1.00  0.00     0.074 A 
ATOM     54  C   UNL A   1      38.818  30.105  29.370  1.00  0.00     0.031 C 
ATOM     55  C   UNL A   1      39.034  34.183  34.916  1.00  0.00     0.029 A 
ATOM     56  C   UNL A   1      39.984  33.071  34.909  1.00  0.00     0.049 A 
ATOM     57  H   UNL A   1      40.319  31.718  33.361  1.00  0.00     0.167 HD
ATOM     58  C   UNL A   1      40.709  28.729  30.195  1.00  0.00     0.037 A 
ATOM     59  C   UNL A   1      40.818  32.739  35.916  1.00  0.00     0.037 A 
ATOM     60  C   UNL A   1      41.712  28.374  31.165  1.00  0.00     0.049 A 
ATOM     61  C   UNL A   1      41.717  31.535  35.773  1.00  0.00     0.074 A 
ATOM     62  C   UNL A   1      42.671  27.381  31.088  1.00  0.00     0.029 A 
ATOM     63  N   UNL A   1      41.871  28.989  32.398  1.00  0.00    -0.354 N 
ATOM     64  N   UNL A   1      41.857  30.722  34.754  1.00  0.00    -0.248 NA
ATOM     65  C   UNL A   1      42.568  31.198  36.924  1.00  0.00     0.031 C 
ATOM     66  C   UNL A   1      43.367  27.349  32.300  1.00  0.00     0.029 A 
ATOM     67  C   UNL A   1      42.884  28.364  33.110  1.00  0.00     0.049 A 
ATOM     68  H   UNL A   1      41.345  29.756  32.720  1.00  0.00     0.167 HD
ATOM     69  C   UNL A   1      42.819  29.792  35.132  1.00  0.00     0.074 A 
ATOM     70  C   UNL A   1      43.246  30.155  36.467  1.00  0.00     0.031 C 
ATOM     71  C   UNL A   1      43.300  28.730  34.439  1.00  0.00     0.037 A 
BRANCH  58  72
ATOM     72  C   UNL A   1      40.603  27.892  28.953  1.00  0.00     0.064 A 
ATOM     73  C   UNL A   1      41.350  28.180  27.801  1.00  0.00     0.173 A 
ATOM     74  C   UNL A   1      39.779  26.756  28.935  1.00  0.00     0.173 A 
ATOM     75  F   UNL A   1      42.144  29.261  27.764  1.00  0.00    -0.203 F 
ATOM     76  C   UNL A   1      41.257  27.374  26.669  1.00  0.00     0.198 A 
ATOM     77  C   UNL A   1      39.712  25.936  27.812  1.00  0.00     0.198 A 
ATOM     78  F   UNL A   1      39.047  26.433  30.012  1.00  0.00    -0.203 F 
ATOM     79  F   UNL A   1      41.948  27.693  25.565  1.00  0.00    -0.200 F 
ATOM     80  C   UNL A   1      40.446  26.249  26.678  1.00  0.00     0.200 A 
ATOM     81  F   UNL A   1      38.939  24.842  27.828  1.00  0.00    -0.200 F 
ATOM     82  F   UNL A   1      40.367  25.469  25.591  1.00  0.00    -0.200 F 
ENDBRANCH  58  72
BRANCH  59  83
ATOM     83  C   UNL A   1      40.818  33.530  37.177  1.00  0.00     0.064 A 
ATOM     84  C   UNL A   1      39.874  33.287  38.184  1.00  0.00     0.173 A 
ATOM     85  C   UNL A   1      41.740  34.567  37.386  1.00  0.00     0.173 A 
ATOM     86  F   UNL A   1      38.951  32.330  38.019  1.00  0.00    -0.203 F 
ATOM     87  C   UNL A   1      39.839  34.064  39.342  1.00  0.00     0.198 A 
ATOM     88  C   UNL A   1      41.725  35.321  38.558  1.00  0.00     0.198 A 
ATOM     89  F   UNL A   1      42.658  34.849  36.450  1.00  0.00    -0.203 F 
ATOM     90  F   UNL A   1      38.891  33.845  40.263  1.00  0.00    -0.200 F 
ATOM     91  C   UNL A   1      40.769  35.075  39.531  1.00  0.00     0.200 A 
ATOM     92  F   UNL A   1      42.631  36.291  38.739  1.00  0.00    -0.200 F 
ATOM     93  F   UNL A   1      40.736  35.819  40.644  1.00  0.00    -0.200 F 
ENDBRANCH  59  83
BRANCH  71  94
ATOM     94  C   UNL A   1      44.354  27.886  35.100  1.00  0.00     0.064 A 
ATOM     95  C   UNL A   1      44.016  26.774  35.886  1.00  0.00     0.173 A 
ATOM     96  C   UNL A   1      45.716  28.154  34.895  1.00  0.00     0.173 A 
ATOM     97  F   UNL A   1      42.728  26.482  36.125  1.00  0.00    -0.203 F 
ATOM     98  C   UNL A   1      45.003  25.974  36.457  1.00  0.00     0.198 A 
ATOM     99  C   UNL A   1      46.700  27.334  35.442  1.00  0.00     0.198 A 
ATOM    100  F   UNL A   1      46.094  29.200  34.146  1.00  0.00    -0.203 F 
ATOM    101  F   UNL A   1      44.656  24.941  37.239  1.00  0.00    -0.200 F 
ATOM    102  C   UNL A   1      46.343  26.248  36.226  1.00  0.00     0.200 A 
ATOM    103  F   UNL A   1      47.993  27.591  35.204  1.00  0.00    -0.200 F 
ATOM    104  F   UNL A   1      47.290  25.469  36.765  1.00  0.00    -0.200 F 
ENDBRANCH  71  94
ENDBRANCH  45  46
ENDBRANCH  38  40
ENDBRANCH  37  38
ENDBRANCH  36  37
ENDBRANCH  35  36
ENDBRANCH  34  35
ENDBRANCH  33  34
ENDBRANCH   1  33
TORSDOF 23
ENDMDL
