MODEL 1
REMARK VINA RESULT:     -10.7      0.000      0.000
REMARK SMILES C[C@]1(C(=O)NCc2ccc(C(=O)OCCOCCOCCOC(=O)c3ccc(-c4c5nc(c(-c6c(F)c(F)c(F)c(F)c6F)c6ccc([nH]6)c(-c6c(F)c(F)c(F)c(F)c6F)c6nc(c(-c7c(F)c(F)c(F)c(F)c7F)c7ccc4[nH]7)C=C6)C=C5)cc3)o2)CCC[NH2+]C1
REMARK SMILES IDX 17 1 16 2 15 3 14 4 13 5 11 6 12 7 10 8 7 9 8 10 88 11 9 12
REMARK SMILES IDX 6 13 5 14 3 15 4 16 2 18 1 19 89 20 93 21 90 22 92 23 91 24
REMARK SMILES IDX 18 27 19 28 20 29 21 30 22 31 23 32 24 33 25 34 26 35 87 36
REMARK SMILES IDX 27 37 86 38 28 39 29 40 30 41 80 42 31 43 85 44 79 45 81 46
REMARK SMILES IDX 32 47 84 48 78 49 77 50 33 52 65 53 45 54 64 55 46 56 49 57
REMARK SMILES IDX 63 58 82 59 47 60 48 61 62 63 83 64 50 65 34 66 35 67 43 68
REMARK SMILES IDX 36 69 37 70 41 71 44 72 38 73 39 74 42 75 40 76 66 77 67 78
REMARK SMILES IDX 75 79 68 80 69 81 73 82 76 83 70 84 71 85 74 86 72 87 51 88
REMARK SMILES IDX 52 89 60 90 53 91 54 92 58 93 61 94 55 95 56 96 59 97 57 98
REMARK H PARENT 5 17 92 25 92 26 81 51 49 62
REMARK Flexibility Score: inf
ROOT
ATOM      1  C   UNL A   1      40.271  21.311  26.189  1.00  0.00     0.188 C 
ENDROOT
BRANCH   1   2
ATOM      2  O   UNL A   1      39.298  22.340  26.333  1.00  0.00    -0.376 OA
BRANCH   2   3
ATOM      3  C   UNL A   1      38.023  22.189  25.721  1.00  0.00     0.202 C 
BRANCH   3   4
ATOM      4  C   UNL A   1      37.298  23.482  25.345  1.00  0.00     0.261 C 
BRANCH   4   5
ATOM      5  O   UNL A   1      35.963  23.226  24.881  1.00  0.00    -0.457 OA
BRANCH   5   6
ATOM      6  C   UNL A   1      35.788  23.223  23.527  1.00  0.00     0.374 C 
ATOM      7  O   UNL A   1      36.651  22.930  22.710  1.00  0.00    -0.242 OA
BRANCH   6   8
ATOM      8  C   UNL A   1      34.399  23.473  23.224  1.00  0.00     0.211 A 
ATOM      9  C   UNL A   1      32.751  24.675  22.375  1.00  0.00     0.124 A 
ATOM     10  C   UNL A   1      32.202  23.463  22.742  1.00  0.00     0.048 A 
ATOM     11  O   UNL A   1      34.076  24.692  22.689  1.00  0.00    -0.452 OA
ATOM     12  C   UNL A   1      33.260  22.688  23.279  1.00  0.00     0.058 A 
BRANCH   9  13
ATOM     13  C   UNL A   1      32.226  25.893  21.702  1.00  0.00     0.191 C 
BRANCH  13  14
ATOM     14  N   UNL A   1      33.124  26.995  21.947  1.00  0.00    -0.348 N 
ATOM     15  C   UNL A   1      33.101  28.012  22.849  1.00  0.00     0.232 C 
ATOM     16  O   UNL A   1      33.859  28.949  22.581  1.00  0.00    -0.274 OA
ATOM     17  H   UNL A   1      33.903  27.016  21.344  1.00  0.00     0.163 HD
BRANCH  15  18
ATOM     18  C   UNL A   1      32.194  28.001  24.104  1.00  0.00     0.095 C 
ATOM     19  C   UNL A   1      30.713  27.979  23.669  1.00  0.00     0.028 C 
ATOM     20  C   UNL A   1      32.506  26.803  25.029  1.00  0.00     0.028 C 
ATOM     21  C   UNL A   1      32.414  29.316  24.912  1.00  0.00     0.277 C 
ATOM     22  C   UNL A   1      33.847  26.957  25.749  1.00  0.00     0.063 C 
ATOM     23  N   UNL A   1      33.696  29.400  25.620  1.00  0.00    -0.345 N 
ATOM     24  C   UNL A   1      33.915  28.274  26.513  1.00  0.00     0.260 C 
ATOM     25  H   UNL A   1      34.449  29.423  24.931  1.00  0.00     0.346 HD
ATOM     26  H   UNL A   1      33.681  30.248  26.187  1.00  0.00     0.346 HD
ENDBRANCH  15  18
ENDBRANCH  13  14
ENDBRANCH   9  13
ENDBRANCH   6   8
ENDBRANCH   5   6
ENDBRANCH   4   5
ENDBRANCH   3   4
ENDBRANCH   2   3
ENDBRANCH   1   2
BRANCH   1  27
ATOM     27  C   UNL A   1      40.972  20.754  27.442  1.00  0.00     0.188 C 
BRANCH  27  28
ATOM     28  O   UNL A   1      42.137  19.992  27.159  1.00  0.00    -0.376 OA
BRANCH  28  29
ATOM     29  C   UNL A   1      42.005  19.022  26.130  1.00  0.00     0.202 C 
BRANCH  29  30
ATOM     30  C   UNL A   1      43.364  18.479  25.683  1.00  0.00     0.261 C 
BRANCH  30  31
ATOM     31  O   UNL A   1      43.783  18.933  24.386  1.00  0.00    -0.460 OA
BRANCH  31  32
ATOM     32  C   UNL A   1      44.991  19.531  24.317  1.00  0.00     0.338 C 
ATOM     33  O   UNL A   1      46.015  19.085  23.832  1.00  0.00    -0.246 OA
BRANCH  32  34
ATOM     34  C   UNL A   1      44.845  20.911  24.815  1.00  0.00     0.060 A 
ATOM     35  C   UNL A   1      44.300  21.883  23.967  1.00  0.00     0.016 A 
ATOM     36  C   UNL A   1      45.269  21.245  26.103  1.00  0.00     0.016 A 
ATOM     37  C   UNL A   1      44.207  23.206  24.401  1.00  0.00     0.010 A 
ATOM     38  C   UNL A   1      45.191  22.571  26.529  1.00  0.00     0.010 A 
ATOM     39  C   UNL A   1      44.687  23.561  25.670  1.00  0.00    -0.014 A 
BRANCH  39  40
ATOM     40  C   UNL A   1      44.839  24.985  26.044  1.00  0.00     0.031 A 
ATOM     41  C   UNL A   1      46.199  25.613  25.926  1.00  0.00     0.074 A 
ATOM     42  C   UNL A   1      43.802  25.701  26.509  1.00  0.00     0.049 A 
ATOM     43  N   UNL A   1      46.599  26.808  26.277  1.00  0.00    -0.248 NA
ATOM     44  C   UNL A   1      47.255  24.773  25.336  1.00  0.00     0.031 C 
ATOM     45  C   UNL A   1      42.431  25.214  26.646  1.00  0.00     0.029 A 
ATOM     46  N   UNL A   1      43.752  26.991  26.974  1.00  0.00    -0.354 N 
ATOM     47  C   UNL A   1      47.947  26.863  25.954  1.00  0.00     0.074 A 
ATOM     48  C   UNL A   1      48.306  25.577  25.397  1.00  0.00     0.031 C 
ATOM     49  C   UNL A   1      41.676  26.191  27.181  1.00  0.00     0.029 A 
ATOM     50  C   UNL A   1      42.517  27.356  27.449  1.00  0.00     0.049 A 
ATOM     51  H   UNL A   1      44.528  27.597  26.968  1.00  0.00     0.167 HD
ATOM     52  C   UNL A   1      48.810  27.895  26.105  1.00  0.00     0.037 A 
ATOM     53  C   UNL A   1      42.123  28.494  28.054  1.00  0.00     0.037 A 
ATOM     54  C   UNL A   1      48.463  29.168  26.673  1.00  0.00     0.049 A 
ATOM     55  C   UNL A   1      43.119  29.603  28.273  1.00  0.00     0.074 A 
ATOM     56  C   UNL A   1      49.266  30.277  26.864  1.00  0.00     0.029 A 
ATOM     57  N   UNL A   1      47.203  29.497  27.151  1.00  0.00    -0.354 N 
ATOM     58  N   UNL A   1      44.386  29.658  27.942  1.00  0.00    -0.248 NA
ATOM     59  C   UNL A   1      42.628  30.810  28.956  1.00  0.00     0.031 C 
ATOM     60  C   UNL A   1      48.502  31.266  27.492  1.00  0.00     0.029 A 
ATOM     61  C   UNL A   1      47.212  30.787  27.655  1.00  0.00     0.049 A 
ATOM     62  H   UNL A   1      46.419  28.901  27.135  1.00  0.00     0.167 HD
ATOM     63  C   UNL A   1      44.835  30.909  28.347  1.00  0.00     0.074 A 
ATOM     64  C   UNL A   1      43.704  31.585  28.947  1.00  0.00     0.031 C 
ATOM     65  C   UNL A   1      46.073  31.449  28.233  1.00  0.00     0.037 A 
BRANCH  52  66
ATOM     66  C   UNL A   1      50.225  27.671  25.669  1.00  0.00     0.064 A 
ATOM     67  C   UNL A   1      51.235  27.370  26.594  1.00  0.00     0.173 A 
ATOM     68  C   UNL A   1      50.571  27.742  24.312  1.00  0.00     0.173 A 
ATOM     69  F   UNL A   1      50.955  27.310  27.905  1.00  0.00    -0.203 F 
ATOM     70  C   UNL A   1      52.549  27.168  26.176  1.00  0.00     0.198 A 
ATOM     71  C   UNL A   1      51.880  27.519  23.896  1.00  0.00     0.198 A 
ATOM     72  F   UNL A   1      49.639  28.030  23.391  1.00  0.00    -0.203 F 
ATOM     73  F   UNL A   1      53.507  26.923  27.080  1.00  0.00    -0.200 F 
ATOM     74  C   UNL A   1      52.868  27.238  24.828  1.00  0.00     0.200 A 
ATOM     75  F   UNL A   1      52.187  27.582  22.594  1.00  0.00    -0.200 F 
ATOM     76  F   UNL A   1      54.132  27.043  24.427  1.00  0.00    -0.200 F 
ENDBRANCH  52  66
BRANCH  53  77
ATOM     77  C   UNL A   1      40.720  28.642  28.514  1.00  0.00     0.064 A 
ATOM     78  C   UNL A   1      40.357  28.340  29.834  1.00  0.00     0.173 A 
ATOM     79  C   UNL A   1      39.707  29.060  27.638  1.00  0.00     0.173 A 
ATOM     80  F   UNL A   1      41.287  27.906  30.699  1.00  0.00    -0.203 F 
ATOM     81  C   UNL A   1      39.033  28.435  30.257  1.00  0.00     0.198 A 
ATOM     82  C   UNL A   1      38.387  29.178  28.068  1.00  0.00     0.198 A 
ATOM     83  F   UNL A   1      40.002  29.354  26.363  1.00  0.00    -0.203 F 
ATOM     84  F   UNL A   1      38.707  28.096  31.511  1.00  0.00    -0.200 F 
ATOM     85  C   UNL A   1      38.050  28.859  29.374  1.00  0.00     0.200 A 
ATOM     86  F   UNL A   1      37.441  29.590  27.214  1.00  0.00    -0.200 F 
ATOM     87  F   UNL A   1      36.777  28.946  29.781  1.00  0.00    -0.200 F 
ENDBRANCH  53  77
BRANCH  65  88
ATOM     88  C   UNL A   1      46.264  32.852  28.725  1.00  0.00     0.064 A 
ATOM     89  C   UNL A   1      46.626  33.122  30.053  1.00  0.00     0.173 A 
ATOM     90  C   UNL A   1      46.141  33.935  27.842  1.00  0.00     0.173 A 
ATOM     91  F   UNL A   1      46.743  32.120  30.937  1.00  0.00    -0.203 F 
ATOM     92  C   UNL A   1      46.842  34.429  30.481  1.00  0.00     0.198 A 
ATOM     93  C   UNL A   1      46.380  35.237  28.269  1.00  0.00     0.198 A 
ATOM     94  F   UNL A   1      45.802  33.728  26.560  1.00  0.00    -0.203 F 
ATOM     95  F   UNL A   1      47.156  34.668  31.763  1.00  0.00    -0.200 F 
ATOM     96  C   UNL A   1      46.727  35.484  29.589  1.00  0.00     0.200 A 
ATOM     97  F   UNL A   1      46.278  36.256  27.403  1.00  0.00    -0.200 F 
ATOM     98  F   UNL A   1      46.944  36.740  30.002  1.00  0.00    -0.200 F 
ENDBRANCH  65  88
ENDBRANCH  39  40
ENDBRANCH  32  34
ENDBRANCH  31  32
ENDBRANCH  30  31
ENDBRANCH  29  30
ENDBRANCH  28  29
ENDBRANCH  27  28
ENDBRANCH   1  27
TORSDOF 20
ENDMDL
MODEL 2
REMARK VINA RESULT:     -10.7      1.644      7.528
REMARK SMILES C[C@]1(C(=O)NCc2ccc(C(=O)OCCOCCOCCOC(=O)c3ccc(-c4c5nc(c(-c6c(F)c(F)c(F)c(F)c6F)c6ccc([nH]6)c(-c6c(F)c(F)c(F)c(F)c6F)c6nc(c(-c7c(F)c(F)c(F)c(F)c7F)c7ccc4[nH]7)C=C6)C=C5)cc3)o2)CCC[NH2+]C1
REMARK SMILES IDX 17 1 16 2 15 3 14 4 13 5 11 6 12 7 10 8 7 9 8 10 88 11 9 12
REMARK SMILES IDX 6 13 5 14 3 15 4 16 2 18 1 19 89 20 93 21 90 22 92 23 91 24
REMARK SMILES IDX 18 27 19 28 20 29 21 30 22 31 23 32 24 33 25 34 26 35 87 36
REMARK SMILES IDX 27 37 86 38 28 39 29 40 30 41 80 42 31 43 85 44 79 45 81 46
REMARK SMILES IDX 32 47 84 48 78 49 77 50 33 52 65 53 45 54 64 55 46 56 49 57
REMARK SMILES IDX 63 58 82 59 47 60 48 61 62 63 83 64 50 65 34 66 35 67 43 68
REMARK SMILES IDX 36 69 37 70 41 71 44 72 38 73 39 74 42 75 40 76 66 77 67 78
REMARK SMILES IDX 75 79 68 80 69 81 73 82 76 83 70 84 71 85 74 86 72 87 51 88
REMARK SMILES IDX 52 89 60 90 53 91 54 92 58 93 61 94 55 95 56 96 59 97 57 98
REMARK H PARENT 5 17 92 25 92 26 81 51 49 62
REMARK Flexibility Score: inf
ROOT
ATOM      1  C   UNL A   1      36.796  23.266  24.584  1.00  0.00     0.188 C 
ENDROOT
BRANCH   1   2
ATOM      2  O   UNL A   1      35.424  23.346  24.959  1.00  0.00    -0.376 OA
BRANCH   2   3
ATOM      3  C   UNL A   1      35.056  23.135  26.316  1.00  0.00     0.202 C 
BRANCH   3   4
ATOM      4  C   UNL A   1      34.639  21.712  26.688  1.00  0.00     0.261 C 
BRANCH   4   5
ATOM      5  O   UNL A   1      33.221  21.522  26.554  1.00  0.00    -0.457 OA
BRANCH   5   6
ATOM      6  C   UNL A   1      32.776  21.190  25.307  1.00  0.00     0.374 C 
ATOM      7  O   UNL A   1      32.887  20.083  24.795  1.00  0.00    -0.242 OA
BRANCH   6   8
ATOM      8  C   UNL A   1      32.031  22.297  24.755  1.00  0.00     0.211 A 
ATOM      9  C   UNL A   1      30.965  24.225  24.902  1.00  0.00     0.124 A 
ATOM     10  C   UNL A   1      31.074  23.941  23.556  1.00  0.00     0.048 A 
ATOM     11  O   UNL A   1      31.521  23.218  25.631  1.00  0.00    -0.452 OA
ATOM     12  C   UNL A   1      31.766  22.708  23.460  1.00  0.00     0.058 A 
BRANCH   9  13
ATOM     13  C   UNL A   1      30.424  25.371  25.682  1.00  0.00     0.191 C 
BRANCH  13  14
ATOM     14  N   UNL A   1      30.262  26.507  24.807  1.00  0.00    -0.348 N 
ATOM     15  C   UNL A   1      31.017  27.618  24.599  1.00  0.00     0.232 C 
ATOM     16  O   UNL A   1      30.431  28.530  24.008  1.00  0.00    -0.274 OA
ATOM     17  H   UNL A   1      29.447  26.470  24.254  1.00  0.00     0.163 HD
BRANCH  15  18
ATOM     18  C   UNL A   1      32.487  27.735  25.072  1.00  0.00     0.095 C 
ATOM     19  C   UNL A   1      32.557  27.506  26.596  1.00  0.00     0.028 C 
ATOM     20  C   UNL A   1      33.411  26.743  24.330  1.00  0.00     0.028 C 
ATOM     21  C   UNL A   1      33.002  29.182  24.802  1.00  0.00     0.277 C 
ATOM     22  C   UNL A   1      33.635  27.137  22.870  1.00  0.00     0.063 C 
ATOM     23  N   UNL A   1      33.244  29.500  23.391  1.00  0.00    -0.345 N 
ATOM     24  C   UNL A   1      34.158  28.563  22.757  1.00  0.00     0.260 C 
ATOM     25  H   UNL A   1      32.353  29.474  22.893  1.00  0.00     0.346 HD
ATOM     26  H   UNL A   1      33.670  30.425  23.351  1.00  0.00     0.346 HD
ENDBRANCH  15  18
ENDBRANCH  13  14
ENDBRANCH   9  13
ENDBRANCH   6   8
ENDBRANCH   5   6
ENDBRANCH   4   5
ENDBRANCH   3   4
ENDBRANCH   2   3
ENDBRANCH   1   2
BRANCH   1  27
ATOM     27  C   UNL A   1      37.878  23.247  25.678  1.00  0.00     0.188 C 
BRANCH  27  28
ATOM     28  O   UNL A   1      38.292  21.942  26.055  1.00  0.00    -0.376 OA
BRANCH  28  29
ATOM     29  C   UNL A   1      38.055  20.918  25.100  1.00  0.00     0.202 C 
BRANCH  29  30
ATOM     30  C   UNL A   1      38.924  19.685  25.359  1.00  0.00     0.261 C 
BRANCH  30  31
ATOM     31  O   UNL A   1      39.837  19.827  26.459  1.00  0.00    -0.460 OA
BRANCH  31  32
ATOM     32  C   UNL A   1      41.134  19.556  26.206  1.00  0.00     0.338 C 
ATOM     33  O   UNL A   1      41.604  18.529  25.751  1.00  0.00    -0.246 OA
BRANCH  32  34
ATOM     34  C   UNL A   1      41.912  20.785  26.450  1.00  0.00     0.060 A 
ATOM     35  C   UNL A   1      42.272  21.109  27.762  1.00  0.00     0.016 A 
ATOM     36  C   UNL A   1      42.260  21.622  25.386  1.00  0.00     0.016 A 
ATOM     37  C   UNL A   1      42.959  22.297  28.019  1.00  0.00     0.010 A 
ATOM     38  C   UNL A   1      42.932  22.816  25.646  1.00  0.00     0.010 A 
ATOM     39  C   UNL A   1      43.258  23.173  26.965  1.00  0.00    -0.014 A 
BRANCH  39  40
ATOM     40  C   UNL A   1      43.744  24.543  27.242  1.00  0.00     0.031 A 
ATOM     41  C   UNL A   1      42.758  25.565  27.733  1.00  0.00     0.074 A 
ATOM     42  C   UNL A   1      45.026  24.886  27.032  1.00  0.00     0.049 A 
ATOM     43  N   UNL A   1      42.924  26.844  27.956  1.00  0.00    -0.248 NA
ATOM     44  C   UNL A   1      41.396  25.077  28.004  1.00  0.00     0.031 C 
ATOM     45  C   UNL A   1      46.082  23.981  26.582  1.00  0.00     0.029 A 
ATOM     46  N   UNL A   1      45.650  26.102  27.153  1.00  0.00    -0.354 N 
ATOM     47  C   UNL A   1      41.692  27.312  28.390  1.00  0.00     0.074 A 
ATOM     48  C   UNL A   1      40.781  26.188  28.382  1.00  0.00     0.031 C 
ATOM     49  C   UNL A   1      47.223  24.681  26.444  1.00  0.00     0.029 A 
ATOM     50  C   UNL A   1      46.968  26.084  26.769  1.00  0.00     0.049 A 
ATOM     51  H   UNL A   1      45.196  26.911  27.483  1.00  0.00     0.167 HD
ATOM     52  C   UNL A   1      41.351  28.566  28.765  1.00  0.00     0.037 A 
ATOM     53  C   UNL A   1      47.855  27.094  26.668  1.00  0.00     0.037 A 
ATOM     54  C   UNL A   1      42.247  29.689  28.759  1.00  0.00     0.049 A 
ATOM     55  C   UNL A   1      47.432  28.494  27.027  1.00  0.00     0.074 A 
ATOM     56  C   UNL A   1      41.995  30.998  29.127  1.00  0.00     0.029 A 
ATOM     57  N   UNL A   1      43.573  29.632  28.356  1.00  0.00    -0.354 N 
ATOM     58  N   UNL A   1      46.273  28.925  27.461  1.00  0.00    -0.248 NA
ATOM     59  C   UNL A   1      48.443  29.552  26.877  1.00  0.00     0.031 C 
ATOM     60  C   UNL A   1      43.159  31.743  28.910  1.00  0.00     0.029 A 
ATOM     61  C   UNL A   1      44.147  30.889  28.446  1.00  0.00     0.049 A 
ATOM     62  H   UNL A   1      44.036  28.819  28.049  1.00  0.00     0.167 HD
ATOM     63  C   UNL A   1      46.422  30.292  27.663  1.00  0.00     0.074 A 
ATOM     64  C   UNL A   1      47.787  30.620  27.308  1.00  0.00     0.031 C 
ATOM     65  C   UNL A   1      45.511  31.194  28.104  1.00  0.00     0.037 A 
BRANCH  52  66
ATOM     66  C   UNL A   1      39.932  28.789  29.189  1.00  0.00     0.064 A 
ATOM     67  C   UNL A   1      38.945  29.169  28.268  1.00  0.00     0.173 A 
ATOM     68  C   UNL A   1      39.552  28.606  30.526  1.00  0.00     0.173 A 
ATOM     69  F   UNL A   1      39.266  29.375  26.981  1.00  0.00    -0.203 F 
ATOM     70  C   UNL A   1      37.630  29.379  28.676  1.00  0.00     0.198 A 
ATOM     71  C   UNL A   1      38.232  28.795  30.926  1.00  0.00     0.198 A 
ATOM     72  F   UNL A   1      40.461  28.246  31.444  1.00  0.00    -0.203 F 
ATOM     73  F   UNL A   1      36.712  29.782  27.787  1.00  0.00    -0.200 F 
ATOM     74  C   UNL A   1      37.275  29.187  30.003  1.00  0.00     0.200 A 
ATOM     75  F   UNL A   1      37.889  28.605  32.207  1.00  0.00    -0.200 F 
ATOM     76  F   UNL A   1      36.008  29.387  30.393  1.00  0.00    -0.200 F 
ENDBRANCH  52  66
BRANCH  53  77
ATOM     77  C   UNL A   1      49.235  26.824  26.192  1.00  0.00     0.064 A 
ATOM     78  C   UNL A   1      50.250  26.463  27.089  1.00  0.00     0.173 A 
ATOM     79  C   UNL A   1      49.574  26.950  24.837  1.00  0.00     0.173 A 
ATOM     80  F   UNL A   1      49.978  26.361  28.399  1.00  0.00    -0.203 F 
ATOM     81  C   UNL A   1      51.555  26.252  26.650  1.00  0.00     0.198 A 
ATOM     82  C   UNL A   1      50.875  26.716  24.397  1.00  0.00     0.198 A 
ATOM     83  F   UNL A   1      48.639  27.301  23.941  1.00  0.00    -0.203 F 
ATOM     84  F   UNL A   1      52.516  25.952  27.535  1.00  0.00    -0.200 F 
ATOM     85  C   UNL A   1      51.865  26.375  25.304  1.00  0.00     0.200 A 
ATOM     86  F   UNL A   1      51.170  26.832  23.095  1.00  0.00    -0.200 F 
ATOM     87  F   UNL A   1      53.122  26.176  24.884  1.00  0.00    -0.200 F 
ENDBRANCH  53  77
BRANCH  65  88
ATOM     88  C   UNL A   1      45.966  32.613  28.268  1.00  0.00     0.064 A 
ATOM     89  C   UNL A   1      46.554  33.063  29.459  1.00  0.00     0.173 A 
ATOM     90  C   UNL A   1      45.865  33.517  27.199  1.00  0.00     0.173 A 
ATOM     91  F   UNL A   1      46.660  32.238  30.511  1.00  0.00    -0.203 F 
ATOM     92  C   UNL A   1      47.010  34.373  29.578  1.00  0.00     0.198 A 
ATOM     93  C   UNL A   1      46.343  34.818  27.315  1.00  0.00     0.198 A 
ATOM     94  F   UNL A   1      45.315  33.131  26.038  1.00  0.00    -0.203 F 
ATOM     95  F   UNL A   1      47.541  34.793  30.735  1.00  0.00    -0.200 F 
ATOM     96  C   UNL A   1      46.912  35.246  28.505  1.00  0.00     0.200 A 
ATOM     97  F   UNL A   1      46.256  35.659  26.274  1.00  0.00    -0.200 F 
ATOM     98  F   UNL A   1      47.360  36.504  28.620  1.00  0.00    -0.200 F 
ENDBRANCH  65  88
ENDBRANCH  39  40
ENDBRANCH  32  34
ENDBRANCH  31  32
ENDBRANCH  30  31
ENDBRANCH  29  30
ENDBRANCH  28  29
ENDBRANCH  27  28
ENDBRANCH   1  27
TORSDOF 20
ENDMDL
MODEL 3
REMARK VINA RESULT:     -10.6      3.127      8.785
REMARK SMILES C[C@]1(C(=O)NCc2ccc(C(=O)OCCOCCOCCOC(=O)c3ccc(-c4c5nc(c(-c6c(F)c(F)c(F)c(F)c6F)c6ccc([nH]6)c(-c6c(F)c(F)c(F)c(F)c6F)c6nc(c(-c7c(F)c(F)c(F)c(F)c7F)c7ccc4[nH]7)C=C6)C=C5)cc3)o2)CCC[NH2+]C1
REMARK SMILES IDX 17 1 16 2 15 3 14 4 13 5 11 6 12 7 10 8 7 9 8 10 88 11 9 12
REMARK SMILES IDX 6 13 5 14 3 15 4 16 2 18 1 19 89 20 93 21 90 22 92 23 91 24
REMARK SMILES IDX 18 27 19 28 20 29 21 30 22 31 23 32 24 33 25 34 26 35 87 36
REMARK SMILES IDX 27 37 86 38 28 39 29 40 30 41 80 42 31 43 85 44 79 45 81 46
REMARK SMILES IDX 32 47 84 48 78 49 77 50 33 52 65 53 45 54 64 55 46 56 49 57
REMARK SMILES IDX 63 58 82 59 47 60 48 61 62 63 83 64 50 65 34 66 35 67 43 68
REMARK SMILES IDX 36 69 37 70 41 71 44 72 38 73 39 74 42 75 40 76 66 77 67 78
REMARK SMILES IDX 75 79 68 80 69 81 73 82 76 83 70 84 71 85 74 86 72 87 51 88
REMARK SMILES IDX 52 89 60 90 53 91 54 92 58 93 61 94 55 95 56 96 59 97 57 98
REMARK H PARENT 5 17 92 25 92 26 81 51 49 62
REMARK Flexibility Score: inf
ROOT
ATOM      1  C   UNL A   1      34.649  24.783  24.343  1.00  0.00     0.188 C 
ENDROOT
BRANCH   1   2
ATOM      2  O   UNL A   1      33.759  25.865  24.602  1.00  0.00    -0.376 OA
BRANCH   2   3
ATOM      3  C   UNL A   1      33.588  26.327  25.936  1.00  0.00     0.202 C 
BRANCH   3   4
ATOM      4  C   UNL A   1      32.166  26.260  26.495  1.00  0.00     0.261 C 
BRANCH   4   5
ATOM      5  O   UNL A   1      31.284  25.543  25.616  1.00  0.00    -0.457 OA
BRANCH   5   6
ATOM      6  C   UNL A   1      30.870  24.316  26.050  1.00  0.00     0.374 C 
ATOM      7  O   UNL A   1      30.033  24.128  26.923  1.00  0.00    -0.242 OA
BRANCH   6   8
ATOM      8  C   UNL A   1      31.462  23.292  25.222  1.00  0.00     0.211 A 
ATOM      9  C   UNL A   1      32.757  21.534  24.884  1.00  0.00     0.124 A 
ATOM     10  C   UNL A   1      32.050  21.731  23.715  1.00  0.00     0.048 A 
ATOM     11  O   UNL A   1      32.421  22.495  25.789  1.00  0.00    -0.452 OA
ATOM     12  C   UNL A   1      31.212  22.852  23.934  1.00  0.00     0.058 A 
BRANCH   9  13
ATOM     13  C   UNL A   1      33.734  20.514  25.349  1.00  0.00     0.191 C 
BRANCH  13  14
ATOM     14  N   UNL A   1      33.020  19.391  25.907  1.00  0.00    -0.348 N 
ATOM     15  C   UNL A   1      32.755  18.146  25.430  1.00  0.00     0.232 C 
ATOM     16  O   UNL A   1      31.860  17.548  26.034  1.00  0.00    -0.274 OA
ATOM     17  H   UNL A   1      32.653  19.560  26.805  1.00  0.00     0.163 HD
BRANCH  15  18
ATOM     18  C   UNL A   1      33.507  17.531  24.224  1.00  0.00     0.095 C 
ATOM     19  C   UNL A   1      32.851  18.009  22.911  1.00  0.00     0.028 C 
ATOM     20  C   UNL A   1      35.011  17.886  24.241  1.00  0.00     0.028 C 
ATOM     21  C   UNL A   1      33.367  15.979  24.266  1.00  0.00     0.277 C 
ATOM     22  C   UNL A   1      35.769  17.153  25.348  1.00  0.00     0.063 C 
ATOM     23  N   UNL A   1      34.146  15.316  25.317  1.00  0.00    -0.345 N 
ATOM     24  C   UNL A   1      35.561  15.646  25.255  1.00  0.00     0.260 C 
ATOM     25  H   UNL A   1      33.782  15.606  26.226  1.00  0.00     0.346 HD
ATOM     26  H   UNL A   1      34.056  14.309  25.181  1.00  0.00     0.346 HD
ENDBRANCH  15  18
ENDBRANCH  13  14
ENDBRANCH   9  13
ENDBRANCH   6   8
ENDBRANCH   5   6
ENDBRANCH   4   5
ENDBRANCH   3   4
ENDBRANCH   2   3
ENDBRANCH   1   2
BRANCH   1  27
ATOM     27  C   UNL A   1      34.592  24.068  22.981  1.00  0.00     0.188 C 
BRANCH  27  28
ATOM     28  O   UNL A   1      35.470  22.956  22.877  1.00  0.00    -0.376 OA
BRANCH  28  29
ATOM     29  C   UNL A   1      36.665  23.040  23.640  1.00  0.00     0.202 C 
BRANCH  29  30
ATOM     30  C   UNL A   1      36.987  21.719  24.341  1.00  0.00     0.261 C 
BRANCH  30  31
ATOM     31  O   UNL A   1      37.399  21.862  25.709  1.00  0.00    -0.460 OA
BRANCH  31  32
ATOM     32  C   UNL A   1      38.685  21.560  25.988  1.00  0.00     0.338 C 
ATOM     33  O   UNL A   1      39.285  20.536  25.715  1.00  0.00    -0.246 OA
BRANCH  32  34
ATOM     34  C   UNL A   1      39.316  22.755  26.579  1.00  0.00     0.060 A 
ATOM     35  C   UNL A   1      38.802  24.018  26.262  1.00  0.00     0.016 A 
ATOM     36  C   UNL A   1      40.423  22.625  27.419  1.00  0.00     0.016 A 
ATOM     37  C   UNL A   1      39.421  25.163  26.765  1.00  0.00     0.010 A 
ATOM     38  C   UNL A   1      41.051  23.771  27.909  1.00  0.00     0.010 A 
ATOM     39  C   UNL A   1      40.570  25.044  27.560  1.00  0.00    -0.014 A 
BRANCH  39  40
ATOM     40  C   UNL A   1      41.387  26.236  27.882  1.00  0.00     0.031 A 
ATOM     41  C   UNL A   1      40.742  27.358  28.647  1.00  0.00     0.074 A 
ATOM     42  C   UNL A   1      42.664  26.339  27.479  1.00  0.00     0.049 A 
ATOM     43  N   UNL A   1      41.221  28.533  28.965  1.00  0.00    -0.248 NA
ATOM     44  C   UNL A   1      39.364  27.122  29.109  1.00  0.00     0.031 C 
ATOM     45  C   UNL A   1      43.408  25.312  26.754  1.00  0.00     0.029 A 
ATOM     46  N   UNL A   1      43.554  27.376  27.608  1.00  0.00    -0.354 N 
ATOM     47  C   UNL A   1      40.207  29.175  29.662  1.00  0.00     0.074 A 
ATOM     48  C   UNL A   1      39.079  28.271  29.705  1.00  0.00     0.031 C 
ATOM     49  C   UNL A   1      44.641  25.779  26.483  1.00  0.00     0.029 A 
ATOM     50  C   UNL A   1      44.758  27.146  26.991  1.00  0.00     0.049 A 
ATOM     51  H   UNL A   1      43.348  28.206  28.096  1.00  0.00     0.167 HD
ATOM     52  C   UNL A   1      40.216  30.408  30.219  1.00  0.00     0.037 A 
ATOM     53  C   UNL A   1      45.821  27.959  26.834  1.00  0.00     0.037 A 
ATOM     54  C   UNL A   1      41.328  31.317  30.164  1.00  0.00     0.049 A 
ATOM     55  C   UNL A   1      45.781  29.353  27.405  1.00  0.00     0.074 A 
ATOM     56  C   UNL A   1      41.434  32.586  30.703  1.00  0.00     0.029 A 
ATOM     57  N   UNL A   1      42.528  31.051  29.523  1.00  0.00    -0.354 N 
ATOM     58  N   UNL A   1      44.830  29.945  28.084  1.00  0.00    -0.248 NA
ATOM     59  C   UNL A   1      46.967  30.195  27.182  1.00  0.00     0.031 C 
ATOM     60  C   UNL A   1      42.686  33.104  30.355  1.00  0.00     0.029 A 
ATOM     61  C   UNL A   1      43.375  32.141  29.635  1.00  0.00     0.049 A 
ATOM     62  H   UNL A   1      42.745  30.211  29.056  1.00  0.00     0.167 HD
ATOM     63  C   UNL A   1      45.309  31.212  28.394  1.00  0.00     0.074 A 
ATOM     64  C   UNL A   1      46.640  31.304  27.831  1.00  0.00     0.031 C 
ATOM     65  C   UNL A   1      44.702  32.208  29.083  1.00  0.00     0.037 A 
BRANCH  52  66
ATOM     66  C   UNL A   1      38.966  30.852  30.915  1.00  0.00     0.064 A 
ATOM     67  C   UNL A   1      38.805  30.693  32.299  1.00  0.00     0.173 A 
ATOM     68  C   UNL A   1      37.927  31.457  30.194  1.00  0.00     0.173 A 
ATOM     69  F   UNL A   1      39.765  30.102  33.027  1.00  0.00    -0.203 F 
ATOM     70  C   UNL A   1      37.636  31.106  32.933  1.00  0.00     0.198 A 
ATOM     71  C   UNL A   1      36.770  31.888  30.835  1.00  0.00     0.198 A 
ATOM     72  F   UNL A   1      38.035  31.628  28.868  1.00  0.00    -0.203 F 
ATOM     73  F   UNL A   1      37.485  30.906  34.250  1.00  0.00    -0.200 F 
ATOM     74  C   UNL A   1      36.623  31.707  32.202  1.00  0.00     0.200 A 
ATOM     75  F   UNL A   1      35.793  32.473  30.128  1.00  0.00    -0.200 F 
ATOM     76  F   UNL A   1      35.499  32.105  32.814  1.00  0.00    -0.200 F 
ENDBRANCH  52  66
BRANCH  53  77
ATOM     77  C   UNL A   1      47.014  27.486  26.089  1.00  0.00     0.064 A 
ATOM     78  C   UNL A   1      48.105  26.917  26.761  1.00  0.00     0.173 A 
ATOM     79  C   UNL A   1      47.102  27.618  24.695  1.00  0.00     0.173 A 
ATOM     80  F   UNL A   1      48.078  26.799  28.097  1.00  0.00    -0.203 F 
ATOM     81  C   UNL A   1      49.245  26.512  26.070  1.00  0.00     0.198 A 
ATOM     82  C   UNL A   1      48.233  27.191  24.002  1.00  0.00     0.198 A 
ATOM     83  F   UNL A   1      46.088  28.163  24.008  1.00  0.00    -0.203 F 
ATOM     84  F   UNL A   1      50.291  26.013  26.742  1.00  0.00    -0.200 F 
ATOM     85  C   UNL A   1      49.305  26.645  24.690  1.00  0.00     0.200 A 
ATOM     86  F   UNL A   1      48.287  27.318  22.670  1.00  0.00    -0.200 F 
ATOM     87  F   UNL A   1      50.403  26.259  24.027  1.00  0.00    -0.200 F 
ENDBRANCH  53  77
BRANCH  65  88
ATOM     88  C   UNL A   1      45.481  33.470  29.306  1.00  0.00     0.064 A 
ATOM     89  C   UNL A   1      46.354  33.612  30.394  1.00  0.00     0.173 A 
ATOM     90  C   UNL A   1      45.396  34.526  28.386  1.00  0.00     0.173 A 
ATOM     91  F   UNL A   1      46.458  32.634  31.306  1.00  0.00    -0.203 F 
ATOM     92  C   UNL A   1      47.102  34.774  30.560  1.00  0.00     0.198 A 
ATOM     93  C   UNL A   1      46.163  35.676  28.544  1.00  0.00     0.198 A 
ATOM     94  F   UNL A   1      44.579  34.435  27.325  1.00  0.00    -0.203 F 
ATOM     95  F   UNL A   1      47.907  34.903  31.625  1.00  0.00    -0.200 F 
ATOM     96  C   UNL A   1      47.012  35.800  29.633  1.00  0.00     0.200 A 
ATOM     97  F   UNL A   1      46.082  36.664  27.641  1.00  0.00    -0.200 F 
ATOM     98  F   UNL A   1      47.741  36.915  29.791  1.00  0.00    -0.200 F 
ENDBRANCH  65  88
ENDBRANCH  39  40
ENDBRANCH  32  34
ENDBRANCH  31  32
ENDBRANCH  30  31
ENDBRANCH  29  30
ENDBRANCH  28  29
ENDBRANCH  27  28
ENDBRANCH   1  27
TORSDOF 20
ENDMDL
