MODEL 1
REMARK VINA RESULT:     -11.0      0.000      0.000
REMARK SMILES COc1cc([C@H]2c3c(-c4ccccc4)n[nH]c3C(=O)N2c2ccc(C(=O)OCCOCCOCCOC(=O)c3ccc(-c4c5nc(c(-c6c(F)c(F)c(F)c(F)c6F)c6ccc([nH]6)c(-c6c(F)c(F)c(F)c(F)c6F)c6nc(c(-c7c(F)c(F)c(F)c(F)c7F)c7ccc4[nH]7)C=C6)C=C5)cc3)cc2)ccc1O
REMARK SMILES IDX 31 1 30 2 29 3 28 4 27 5 25 6 26 7 24 8 21 9 22 10 103 11
REMARK SMILES IDX 23 12 102 13 20 14 6 15 7 16 8 17 17 18 18 19 15 20 16 21
REMARK SMILES IDX 19 22 5 24 3 25 4 26 106 27 105 28 104 29 2 30 1 31 107 32
REMARK SMILES IDX 9 34 10 35 14 36 11 37 13 38 12 39 32 40 33 41 34 42 35 43
REMARK SMILES IDX 36 44 37 45 38 46 39 47 40 48 101 49 41 50 100 51 42 52
REMARK SMILES IDX 43 53 44 54 94 55 45 56 99 57 93 58 95 59 46 60 98 61 92 62
REMARK SMILES IDX 91 63 47 65 79 66 59 67 78 68 60 69 63 70 77 71 96 72 61 73
REMARK SMILES IDX 62 74 76 76 97 77 64 78 48 79 49 80 57 81 50 82 51 83 55 84
REMARK SMILES IDX 58 85 52 86 53 87 56 88 54 89 80 90 81 91 89 92 82 93 83 94
REMARK SMILES IDX 87 95 90 96 84 97 85 98 88 99 86 100 65 101 66 102 74 103
REMARK SMILES IDX 67 104 68 105 72 106 75 107 69 108 70 109 73 110 71 111
REMARK H PARENT 16 23 107 33 95 64 63 75
REMARK Flexibility Score: inf
ROOT
ATOM      1  C   UNL A   1      43.924  43.238  31.527  1.00  0.00     0.188 C 
ENDROOT
BRANCH   1   2
ATOM      2  O   UNL A   1      44.308  44.392  30.824  1.00  0.00    -0.376 OA
BRANCH   2   3
ATOM      3  C   UNL A   1      44.583  44.335  29.434  1.00  0.00     0.202 C 
BRANCH   3   4
ATOM      4  C   UNL A   1      45.929  43.935  28.786  1.00  0.00     0.261 C 
BRANCH   4   5
ATOM      5  O   UNL A   1      46.165  44.290  27.420  1.00  0.00    -0.460 OA
BRANCH   5   6
ATOM      6  C   UNL A   1      46.579  43.285  26.610  1.00  0.00     0.338 C 
ATOM      7  O   UNL A   1      47.353  42.389  26.901  1.00  0.00    -0.246 OA
BRANCH   6   8
ATOM      8  C   UNL A   1      45.794  43.288  25.353  1.00  0.00     0.060 A 
ATOM      9  C   UNL A   1      44.480  43.345  22.882  1.00  0.00     0.045 A 
ATOM     10  C   UNL A   1      45.583  42.509  23.060  1.00  0.00     0.027 A 
ATOM     11  C   UNL A   1      43.986  44.081  23.969  1.00  0.00     0.027 A 
ATOM     12  C   UNL A   1      46.263  42.514  24.280  1.00  0.00     0.018 A 
ATOM     13  C   UNL A   1      44.618  44.027  25.216  1.00  0.00     0.018 A 
BRANCH   9  14
ATOM     14  N   UNL A   1      43.941  43.543  21.595  1.00  0.00    -0.295 N 
ATOM     15  C   UNL A   1      44.227  44.803  20.844  1.00  0.00     0.156 C 
ATOM     16  C   UNL A   1      43.508  44.516  19.582  1.00  0.00     0.038 A 
ATOM     17  C   UNL A   1      43.164  45.042  18.328  1.00  0.00     0.099 A 
ATOM     18  C   UNL A   1      42.970  43.263  19.622  1.00  0.00     0.129 A 
ATOM     19  C   UNL A   1      43.262  42.571  20.830  1.00  0.00     0.277 C 
ATOM     20  N   UNL A   1      42.389  44.155  17.660  1.00  0.00    -0.174 NA
ATOM     21  N   UNL A   1      42.310  43.067  18.469  1.00  0.00    -0.272 N 
ATOM     22  O   UNL A   1      42.964  41.430  21.112  1.00  0.00    -0.267 OA
ATOM     23  H   UNL A   1      41.829  42.239  18.239  1.00  0.00     0.190 HD
BRANCH  15  24
ATOM     24  C   UNL A   1      45.700  44.963  20.503  1.00  0.00    -0.016 A 
ATOM     25  C   UNL A   1      47.833  46.116  20.914  1.00  0.00     0.160 A 
ATOM     26  C   UNL A   1      46.467  45.930  21.184  1.00  0.00     0.056 A 
ATOM     27  C   UNL A   1      48.435  45.324  19.935  1.00  0.00     0.157 A 
ATOM     28  C   UNL A   1      47.701  44.359  19.250  1.00  0.00     0.050 A 
ATOM     29  C   UNL A   1      46.355  44.157  19.553  1.00  0.00     0.010 A 
BRANCH  25  30
ATOM     30  O   UNL A   1      48.455  47.002  21.750  1.00  0.00    -0.493 OA
ATOM     31  C   UNL A   1      48.854  46.544  23.035  1.00  0.00     0.278 C 
ENDBRANCH  25  30
BRANCH  27  32
ATOM     32  O   UNL A   1      49.766  45.362  19.643  1.00  0.00    -0.504 OA
ATOM     33  H   UNL A   1      50.398  45.396  20.335  1.00  0.00     0.293 HD
ENDBRANCH  27  32
ENDBRANCH  15  24
BRANCH  17  34
ATOM     34  C   UNL A   1      43.538  46.321  17.740  1.00  0.00     0.002 A 
ATOM     35  C   UNL A   1      42.620  47.376  17.694  1.00  0.00     0.010 A 
ATOM     36  C   UNL A   1      44.813  46.507  17.190  1.00  0.00     0.010 A 
ATOM     37  C   UNL A   1      42.980  48.602  17.126  1.00  0.00     0.001 A 
ATOM     38  C   UNL A   1      45.174  47.732  16.626  1.00  0.00     0.001 A 
ATOM     39  C   UNL A   1      44.259  48.780  16.597  1.00  0.00     0.000 A 
ENDBRANCH  17  34
ENDBRANCH   9  14
ENDBRANCH   6   8
ENDBRANCH   5   6
ENDBRANCH   4   5
ENDBRANCH   3   4
ENDBRANCH   2   3
ENDBRANCH   1   2
BRANCH   1  40
ATOM     40  C   UNL A   1      44.948  42.091  31.683  1.00  0.00     0.188 C 
BRANCH  40  41
ATOM     41  O   UNL A   1      44.837  40.868  30.982  1.00  0.00    -0.376 OA
BRANCH  41  42
ATOM     42  C   UNL A   1      43.641  40.369  30.404  1.00  0.00     0.202 C 
BRANCH  42  43
ATOM     43  C   UNL A   1      43.564  39.497  29.154  1.00  0.00     0.261 C 
BRANCH  43  44
ATOM     44  O   UNL A   1      43.588  38.115  29.415  1.00  0.00    -0.460 OA
BRANCH  44  45
ATOM     45  C   UNL A   1      43.685  37.364  28.302  1.00  0.00     0.338 C 
ATOM     46  O   UNL A   1      43.390  37.680  27.161  1.00  0.00    -0.246 OA
BRANCH  45  47
ATOM     47  C   UNL A   1      44.163  36.031  28.685  1.00  0.00     0.060 A 
ATOM     48  C   UNL A   1      43.857  35.022  27.773  1.00  0.00     0.016 A 
ATOM     49  C   UNL A   1      44.331  35.796  30.053  1.00  0.00     0.016 A 
ATOM     50  C   UNL A   1      43.273  33.892  28.284  1.00  0.00     0.010 A 
ATOM     51  C   UNL A   1      43.745  34.675  30.560  1.00  0.00     0.010 A 
ATOM     52  C   UNL A   1      43.093  33.828  29.667  1.00  0.00    -0.014 A 
BRANCH  52  53
ATOM     53  C   UNL A   1      42.217  32.815  30.202  1.00  0.00     0.031 A 
ATOM     54  C   UNL A   1      42.708  31.467  29.873  1.00  0.00     0.074 A 
ATOM     55  C   UNL A   1      41.169  33.129  30.988  1.00  0.00     0.049 A 
ATOM     56  N   UNL A   1      42.220  30.643  29.009  1.00  0.00    -0.248 NA
ATOM     57  C   UNL A   1      44.047  31.101  30.368  1.00  0.00     0.031 C 
ATOM     58  C   UNL A   1      40.790  34.429  31.553  1.00  0.00     0.029 A 
ATOM     59  N   UNL A   1      40.248  32.287  31.527  1.00  0.00    -0.354 N 
ATOM     60  C   UNL A   1      43.088  29.560  29.023  1.00  0.00     0.074 A 
ATOM     61  C   UNL A   1      44.299  30.014  29.643  1.00  0.00     0.031 C 
ATOM     62  C   UNL A   1      39.874  34.243  32.536  1.00  0.00     0.029 A 
ATOM     63  C   UNL A   1      39.506  32.840  32.571  1.00  0.00     0.049 A 
ATOM     64  H   UNL A   1      40.117  31.364  31.208  1.00  0.00     0.167 HD
ATOM     65  C   UNL A   1      42.624  28.297  28.832  1.00  0.00     0.037 A 
ATOM     66  C   UNL A   1      38.745  32.116  33.435  1.00  0.00     0.037 A 
ATOM     67  C   UNL A   1      41.324  28.315  28.212  1.00  0.00     0.049 A 
ATOM     68  C   UNL A   1      38.484  30.804  32.776  1.00  0.00     0.074 A 
ATOM     69  C   UNL A   1      40.842  28.758  26.996  1.00  0.00     0.029 A 
ATOM     70  N   UNL A   1      40.230  28.203  29.035  1.00  0.00    -0.354 N 
ATOM     71  N   UNL A   1      37.772  30.676  31.687  1.00  0.00    -0.248 NA
ATOM     72  C   UNL A   1      39.448  29.738  33.023  1.00  0.00     0.031 C 
ATOM     73  C   UNL A   1      39.571  29.334  27.288  1.00  0.00     0.029 A 
ATOM     74  C   UNL A   1      39.308  29.142  28.646  1.00  0.00     0.049 A 
ATOM     75  H   UNL A   1      40.125  27.562  29.774  1.00  0.00     0.167 HD
ATOM     76  C   UNL A   1      38.471  29.760  30.912  1.00  0.00     0.074 A 
ATOM     77  C   UNL A   1      39.480  29.193  31.805  1.00  0.00     0.031 C 
ATOM     78  C   UNL A   1      38.369  29.762  29.551  1.00  0.00     0.037 A 
BRANCH  65  79
ATOM     79  C   UNL A   1      43.155  27.098  29.578  1.00  0.00     0.064 A 
ATOM     80  C   UNL A   1      43.160  27.131  30.983  1.00  0.00     0.173 A 
ATOM     81  C   UNL A   1      43.912  26.057  28.992  1.00  0.00     0.173 A 
ATOM     82  F   UNL A   1      42.490  28.087  31.645  1.00  0.00    -0.203 F 
ATOM     83  C   UNL A   1      43.926  26.240  31.738  1.00  0.00     0.198 A 
ATOM     84  C   UNL A   1      44.626  25.134  29.749  1.00  0.00     0.198 A 
ATOM     85  F   UNL A   1      44.094  25.943  27.673  1.00  0.00    -0.203 F 
ATOM     86  F   UNL A   1      44.000  26.391  33.066  1.00  0.00    -0.200 F 
ATOM     87  C   UNL A   1      44.663  25.246  31.120  1.00  0.00     0.200 A 
ATOM     88  F   UNL A   1      45.346  24.190  29.126  1.00  0.00    -0.200 F 
ATOM     89  F   UNL A   1      45.445  24.429  31.837  1.00  0.00    -0.200 F 
ENDBRANCH  65  79
BRANCH  66  90
ATOM     90  C   UNL A   1      38.621  32.298  34.905  1.00  0.00     0.064 A 
ATOM     91  C   UNL A   1      39.745  32.245  35.748  1.00  0.00     0.173 A 
ATOM     92  C   UNL A   1      37.441  32.815  35.475  1.00  0.00     0.173 A 
ATOM     93  F   UNL A   1      40.924  31.821  35.271  1.00  0.00    -0.203 F 
ATOM     94  C   UNL A   1      39.693  32.695  37.075  1.00  0.00     0.198 A 
ATOM     95  C   UNL A   1      37.389  33.262  36.797  1.00  0.00     0.198 A 
ATOM     96  F   UNL A   1      36.340  32.992  34.730  1.00  0.00    -0.203 F 
ATOM     97  F   UNL A   1      40.798  32.679  37.832  1.00  0.00    -0.200 F 
ATOM     98  C   UNL A   1      38.516  33.211  37.595  1.00  0.00     0.200 A 
ATOM     99  F   UNL A   1      36.257  33.801  37.272  1.00  0.00    -0.200 F 
ATOM    100  F   UNL A   1      38.480  33.696  38.843  1.00  0.00    -0.200 F 
ENDBRANCH  66  90
BRANCH  78 101
ATOM    101  C   UNL A   1      37.321  30.641  28.924  1.00  0.00     0.064 A 
ATOM    102  C   UNL A   1      36.038  30.198  28.556  1.00  0.00     0.173 A 
ATOM    103  C   UNL A   1      37.566  32.019  28.875  1.00  0.00     0.173 A 
ATOM    104  F   UNL A   1      35.702  28.906  28.661  1.00  0.00    -0.203 F 
ATOM    105  C   UNL A   1      35.055  31.097  28.141  1.00  0.00     0.198 A 
ATOM    106  C   UNL A   1      36.574  32.916  28.493  1.00  0.00     0.198 A 
ATOM    107  F   UNL A   1      38.756  32.501  29.265  1.00  0.00    -0.203 F 
ATOM    108  F   UNL A   1      33.835  30.652  27.800  1.00  0.00    -0.200 F 
ATOM    109  C   UNL A   1      35.322  32.456  28.121  1.00  0.00     0.200 A 
ATOM    110  F   UNL A   1      36.822  34.233  28.524  1.00  0.00    -0.200 F 
ATOM    111  F   UNL A   1      34.362  33.327  27.772  1.00  0.00    -0.200 F 
ENDBRANCH  78 101
ENDBRANCH  52  53
ENDBRANCH  45  47
ENDBRANCH  44  45
ENDBRANCH  43  44
ENDBRANCH  42  43
ENDBRANCH  41  42
ENDBRANCH  40  41
ENDBRANCH   1  40
TORSDOF 22
ENDMDL
MODEL 2
REMARK VINA RESULT:     -10.9      7.825     17.485
REMARK SMILES COc1cc([C@H]2c3c(-c4ccccc4)n[nH]c3C(=O)N2c2ccc(C(=O)OCCOCCOCCOC(=O)c3ccc(-c4c5nc(c(-c6c(F)c(F)c(F)c(F)c6F)c6ccc([nH]6)c(-c6c(F)c(F)c(F)c(F)c6F)c6nc(c(-c7c(F)c(F)c(F)c(F)c7F)c7ccc4[nH]7)C=C6)C=C5)cc3)cc2)ccc1O
REMARK SMILES IDX 31 1 30 2 29 3 28 4 27 5 25 6 26 7 24 8 21 9 22 10 103 11
REMARK SMILES IDX 23 12 102 13 20 14 6 15 7 16 8 17 17 18 18 19 15 20 16 21
REMARK SMILES IDX 19 22 5 24 3 25 4 26 106 27 105 28 104 29 2 30 1 31 107 32
REMARK SMILES IDX 9 34 10 35 14 36 11 37 13 38 12 39 32 40 33 41 34 42 35 43
REMARK SMILES IDX 36 44 37 45 38 46 39 47 40 48 101 49 41 50 100 51 42 52
REMARK SMILES IDX 43 53 44 54 94 55 45 56 99 57 93 58 95 59 46 60 98 61 92 62
REMARK SMILES IDX 91 63 47 65 79 66 59 67 78 68 60 69 63 70 77 71 96 72 61 73
REMARK SMILES IDX 62 74 76 76 97 77 64 78 48 79 49 80 57 81 50 82 51 83 55 84
REMARK SMILES IDX 58 85 52 86 53 87 56 88 54 89 80 90 81 91 89 92 82 93 83 94
REMARK SMILES IDX 87 95 90 96 84 97 85 98 88 99 86 100 65 101 66 102 74 103
REMARK SMILES IDX 67 104 68 105 72 106 75 107 69 108 70 109 73 110 71 111
REMARK H PARENT 16 23 107 33 95 64 63 75
REMARK Flexibility Score: inf
ROOT
ATOM      1  C   UNL A   1      39.014  30.701  35.771  1.00  0.00     0.188 C 
ENDROOT
BRANCH   1   2
ATOM      2  O   UNL A   1      39.879  29.713  35.271  1.00  0.00    -0.376 OA
BRANCH   2   3
ATOM      3  C   UNL A   1      40.992  29.273  36.030  1.00  0.00     0.202 C 
BRANCH   3   4
ATOM      4  C   UNL A   1      41.712  27.911  35.890  1.00  0.00     0.261 C 
BRANCH   4   5
ATOM      5  O   UNL A   1      41.595  26.961  36.954  1.00  0.00    -0.460 OA
BRANCH   5   6
ATOM      6  C   UNL A   1      41.367  25.678  36.580  1.00  0.00     0.338 C 
ATOM      7  O   UNL A   1      40.293  25.190  36.272  1.00  0.00    -0.246 OA
BRANCH   6   8
ATOM      8  C   UNL A   1      42.654  24.969  36.384  1.00  0.00     0.060 A 
ATOM      9  C   UNL A   1      45.176  23.808  36.025  1.00  0.00     0.045 A 
ATOM     10  C   UNL A   1      44.924  24.577  37.161  1.00  0.00     0.027 A 
ATOM     11  C   UNL A   1      44.137  23.549  35.119  1.00  0.00     0.027 A 
ATOM     12  C   UNL A   1      43.679  25.192  37.317  1.00  0.00     0.018 A 
ATOM     13  C   UNL A   1      42.864  24.098  35.315  1.00  0.00     0.018 A 
BRANCH   9  14
ATOM     14  N   UNL A   1      46.489  23.396  35.724  1.00  0.00    -0.295 N 
ATOM     15  C   UNL A   1      47.186  22.402  36.595  1.00  0.00     0.156 C 
ATOM     16  C   UNL A   1      48.463  22.268  35.859  1.00  0.00     0.038 A 
ATOM     17  C   UNL A   1      49.718  21.642  35.870  1.00  0.00     0.099 A 
ATOM     18  C   UNL A   1      48.434  23.026  34.725  1.00  0.00     0.129 A 
ATOM     19  C   UNL A   1      47.198  23.708  34.544  1.00  0.00     0.277 C 
ATOM     20  N   UNL A   1      50.445  22.062  34.808  1.00  0.00    -0.174 NA
ATOM     21  N   UNL A   1      49.621  22.889  34.114  1.00  0.00    -0.272 N 
ATOM     22  O   UNL A   1      46.874  24.399  33.603  1.00  0.00    -0.267 OA
ATOM     23  H   UNL A   1      49.864  23.332  33.269  1.00  0.00     0.190 HD
BRANCH  15  24
ATOM     24  C   UNL A   1      46.511  21.039  36.589  1.00  0.00    -0.016 A 
ATOM     25  C   UNL A   1      45.891  19.001  37.818  1.00  0.00     0.160 A 
ATOM     26  C   UNL A   1      46.506  20.263  37.766  1.00  0.00     0.056 A 
ATOM     27  C   UNL A   1      45.282  18.506  36.665  1.00  0.00     0.157 A 
ATOM     28  C   UNL A   1      45.269  19.253  35.490  1.00  0.00     0.050 A 
ATOM     29  C   UNL A   1      45.849  20.521  35.460  1.00  0.00     0.010 A 
BRANCH  25  30
ATOM     30  O   UNL A   1      45.865  18.441  39.065  1.00  0.00    -0.493 OA
ATOM     31  C   UNL A   1      46.124  19.280  40.184  1.00  0.00     0.278 C 
ENDBRANCH  25  30
BRANCH  27  32
ATOM     32  O   UNL A   1      44.590  17.332  36.618  1.00  0.00    -0.504 OA
ATOM     33  H   UNL A   1      45.042  16.517  36.722  1.00  0.00     0.293 HD
ENDBRANCH  27  32
ENDBRANCH  15  24
BRANCH  17  34
ATOM     34  C   UNL A   1      50.247  20.673  36.821  1.00  0.00     0.002 A 
ATOM     35  C   UNL A   1      50.859  19.498  36.370  1.00  0.00     0.010 A 
ATOM     36  C   UNL A   1      50.130  20.890  38.200  1.00  0.00     0.010 A 
ATOM     37  C   UNL A   1      51.363  18.568  37.284  1.00  0.00     0.001 A 
ATOM     38  C   UNL A   1      50.636  19.963  39.113  1.00  0.00     0.001 A 
ATOM     39  C   UNL A   1      51.255  18.804  38.655  1.00  0.00     0.000 A 
ENDBRANCH  17  34
ENDBRANCH   9  14
ENDBRANCH   6   8
ENDBRANCH   5   6
ENDBRANCH   4   5
ENDBRANCH   3   4
ENDBRANCH   2   3
ENDBRANCH   1   2
BRANCH   1  40
ATOM     40  C   UNL A   1      38.211  31.560  34.769  1.00  0.00     0.188 C 
BRANCH  40  41
ATOM     41  O   UNL A   1      37.033  32.255  35.131  1.00  0.00    -0.376 OA
BRANCH  41  42
ATOM     42  C   UNL A   1      36.830  33.650  34.966  1.00  0.00     0.202 C 
BRANCH  42  43
ATOM     43  C   UNL A   1      35.514  34.306  34.560  1.00  0.00     0.261 C 
BRANCH  43  44
ATOM     44  O   UNL A   1      34.676  33.483  33.786  1.00  0.00    -0.460 OA
BRANCH  44  45
ATOM     45  C   UNL A   1      34.331  34.032  32.606  1.00  0.00     0.338 C 
ATOM     46  O   UNL A   1      33.716  35.069  32.419  1.00  0.00    -0.246 OA
BRANCH  45  47
ATOM     47  C   UNL A   1      34.771  33.135  31.533  1.00  0.00     0.060 A 
ATOM     48  C   UNL A   1      35.276  31.912  31.972  1.00  0.00     0.016 A 
ATOM     49  C   UNL A   1      35.171  33.739  30.337  1.00  0.00     0.016 A 
ATOM     50  C   UNL A   1      36.491  31.533  31.462  1.00  0.00     0.010 A 
ATOM     51  C   UNL A   1      36.382  33.365  29.835  1.00  0.00     0.010 A 
ATOM     52  C   UNL A   1      37.081  32.369  30.512  1.00  0.00    -0.014 A 
BRANCH  52  53
ATOM     53  C   UNL A   1      38.472  32.172  30.190  1.00  0.00     0.031 A 
ATOM     54  C   UNL A   1      38.694  30.837  29.607  1.00  0.00     0.074 A 
ATOM     55  C   UNL A   1      39.377  33.161  30.323  1.00  0.00     0.049 A 
ATOM     56  N   UNL A   1      39.254  29.820  30.167  1.00  0.00    -0.248 NA
ATOM     57  C   UNL A   1      37.975  30.523  28.360  1.00  0.00     0.031 C 
ATOM     58  C   UNL A   1      39.163  34.575  30.653  1.00  0.00     0.029 A 
ATOM     59  N   UNL A   1      40.716  33.104  30.092  1.00  0.00    -0.354 N 
ATOM     60  C   UNL A   1      39.141  28.797  29.236  1.00  0.00     0.074 A 
ATOM     61  C   UNL A   1      38.128  29.202  28.304  1.00  0.00     0.031 C 
ATOM     62  C   UNL A   1      40.287  35.278  30.365  1.00  0.00     0.029 A 
ATOM     63  C   UNL A   1      41.329  34.351  29.967  1.00  0.00     0.049 A 
ATOM     64  H   UNL A   1      41.210  32.256  30.019  1.00  0.00     0.167 HD
ATOM     65  C   UNL A   1      40.117  27.859  29.112  1.00  0.00     0.037 A 
ATOM     66  C   UNL A   1      42.577  34.542  29.460  1.00  0.00     0.037 A 
ATOM     67  C   UNL A   1      40.952  27.829  30.286  1.00  0.00     0.049 A 
ATOM     68  C   UNL A   1      43.276  33.227  29.546  1.00  0.00     0.074 A 
ATOM     69  C   UNL A   1      40.732  27.536  31.617  1.00  0.00     0.029 A 
ATOM     70  N   UNL A   1      42.128  28.536  30.243  1.00  0.00    -0.354 N 
ATOM     71  N   UNL A   1      43.579  32.647  30.678  1.00  0.00    -0.248 NA
ATOM     72  C   UNL A   1      43.149  32.336  28.400  1.00  0.00     0.031 C 
ATOM     73  C   UNL A   1      41.525  28.474  32.340  1.00  0.00     0.029 A 
ATOM     74  C   UNL A   1      42.247  29.235  31.418  1.00  0.00     0.049 A 
ATOM     75  H   UNL A   1      42.774  28.541  29.500  1.00  0.00     0.167 HD
ATOM     76  C   UNL A   1      43.272  31.307  30.482  1.00  0.00     0.074 A 
ATOM     77  C   UNL A   1      43.041  31.172  29.045  1.00  0.00     0.031 C 
ATOM     78  C   UNL A   1      42.939  30.497  31.530  1.00  0.00     0.037 A 
BRANCH  65  79
ATOM     79  C   UNL A   1      40.554  27.288  27.786  1.00  0.00     0.064 A 
ATOM     80  C   UNL A   1      40.539  25.892  27.620  1.00  0.00     0.173 A 
ATOM     81  C   UNL A   1      41.246  28.011  26.787  1.00  0.00     0.173 A 
ATOM     82  F   UNL A   1      39.926  25.105  28.517  1.00  0.00    -0.203 F 
ATOM     83  C   UNL A   1      41.231  25.267  26.580  1.00  0.00     0.198 A 
ATOM     84  C   UNL A   1      41.884  27.389  25.720  1.00  0.00     0.198 A 
ATOM     85  F   UNL A   1      41.440  29.333  26.848  1.00  0.00    -0.203 F 
ATOM     86  F   UNL A   1      41.295  23.930  26.537  1.00  0.00    -0.200 F 
ATOM     87  C   UNL A   1      41.908  26.016  25.634  1.00  0.00     0.200 A 
ATOM     88  F   UNL A   1      42.547  28.136  24.825  1.00  0.00    -0.200 F 
ATOM     89  F   UNL A   1      42.621  25.418  24.672  1.00  0.00    -0.200 F 
ENDBRANCH  65  79
BRANCH  66  90
ATOM     90  C   UNL A   1      43.025  35.614  28.534  1.00  0.00     0.064 A 
ATOM     91  C   UNL A   1      42.138  36.213  27.622  1.00  0.00     0.173 A 
ATOM     92  C   UNL A   1      44.256  36.271  28.726  1.00  0.00     0.173 A 
ATOM     93  F   UNL A   1      40.922  35.686  27.422  1.00  0.00    -0.203 F 
ATOM     94  C   UNL A   1      42.460  37.403  26.955  1.00  0.00     0.198 A 
ATOM     95  C   UNL A   1      44.577  37.456  28.061  1.00  0.00     0.198 A 
ATOM     96  F   UNL A   1      45.132  35.832  29.641  1.00  0.00    -0.203 F 
ATOM     97  F   UNL A   1      41.568  37.974  26.133  1.00  0.00    -0.200 F 
ATOM     98  C   UNL A   1      43.676  38.028  27.182  1.00  0.00     0.200 A 
ATOM     99  F   UNL A   1      45.737  38.074  28.326  1.00  0.00    -0.200 F 
ATOM    100  F   UNL A   1      43.961  39.196  26.592  1.00  0.00    -0.200 F 
ENDBRANCH  66  90
BRANCH  78 101
ATOM    101  C   UNL A   1      43.118  31.038  32.923  1.00  0.00     0.064 A 
ATOM    102  C   UNL A   1      44.341  31.042  33.616  1.00  0.00     0.173 A 
ATOM    103  C   UNL A   1      42.052  31.747  33.491  1.00  0.00     0.173 A 
ATOM    104  F   UNL A   1      45.428  30.460  33.093  1.00  0.00    -0.203 F 
ATOM    105  C   UNL A   1      44.480  31.711  34.833  1.00  0.00     0.198 A 
ATOM    106  C   UNL A   1      42.203  32.442  34.686  1.00  0.00     0.198 A 
ATOM    107  F   UNL A   1      40.877  31.820  32.846  1.00  0.00    -0.203 F 
ATOM    108  F   UNL A   1      45.659  31.707  35.474  1.00  0.00    -0.200 F 
ATOM    109  C   UNL A   1      43.413  32.420  35.360  1.00  0.00     0.200 A 
ATOM    110  F   UNL A   1      41.183  33.167  35.166  1.00  0.00    -0.200 F 
ATOM    111  F   UNL A   1      43.559  33.108  36.502  1.00  0.00    -0.200 F 
ENDBRANCH  78 101
ENDBRANCH  52  53
ENDBRANCH  45  47
ENDBRANCH  44  45
ENDBRANCH  43  44
ENDBRANCH  42  43
ENDBRANCH  41  42
ENDBRANCH  40  41
ENDBRANCH   1  40
TORSDOF 22
ENDMDL
MODEL 3
REMARK VINA RESULT:     -10.9      8.878     16.914
REMARK SMILES COc1cc([C@H]2c3c(-c4ccccc4)n[nH]c3C(=O)N2c2ccc(C(=O)OCCOCCOCCOC(=O)c3ccc(-c4c5nc(c(-c6c(F)c(F)c(F)c(F)c6F)c6ccc([nH]6)c(-c6c(F)c(F)c(F)c(F)c6F)c6nc(c(-c7c(F)c(F)c(F)c(F)c7F)c7ccc4[nH]7)C=C6)C=C5)cc3)cc2)ccc1O
REMARK SMILES IDX 31 1 30 2 29 3 28 4 27 5 25 6 26 7 24 8 21 9 22 10 103 11
REMARK SMILES IDX 23 12 102 13 20 14 6 15 7 16 8 17 17 18 18 19 15 20 16 21
REMARK SMILES IDX 19 22 5 24 3 25 4 26 106 27 105 28 104 29 2 30 1 31 107 32
REMARK SMILES IDX 9 34 10 35 14 36 11 37 13 38 12 39 32 40 33 41 34 42 35 43
REMARK SMILES IDX 36 44 37 45 38 46 39 47 40 48 101 49 41 50 100 51 42 52
REMARK SMILES IDX 43 53 44 54 94 55 45 56 99 57 93 58 95 59 46 60 98 61 92 62
REMARK SMILES IDX 91 63 47 65 79 66 59 67 78 68 60 69 63 70 77 71 96 72 61 73
REMARK SMILES IDX 62 74 76 76 97 77 64 78 48 79 49 80 57 81 50 82 51 83 55 84
REMARK SMILES IDX 58 85 52 86 53 87 56 88 54 89 80 90 81 91 89 92 82 93 83 94
REMARK SMILES IDX 87 95 90 96 84 97 85 98 88 99 86 100 65 101 66 102 74 103
REMARK SMILES IDX 67 104 68 105 72 106 75 107 69 108 70 109 73 110 71 111
REMARK H PARENT 16 23 107 33 95 64 63 75
REMARK Flexibility Score: inf
ROOT
ATOM      1  C   UNL A   1      49.347  26.918  25.501  1.00  0.00     0.188 C 
ENDROOT
BRANCH   1   2
ATOM      2  O   UNL A   1      49.165  27.288  26.845  1.00  0.00    -0.376 OA
BRANCH   2   3
ATOM      3  C   UNL A   1      48.244  26.592  27.668  1.00  0.00     0.202 C 
BRANCH   3   4
ATOM      4  C   UNL A   1      47.799  27.005  29.091  1.00  0.00     0.261 C 
BRANCH   4   5
ATOM      5  O   UNL A   1      47.418  25.980  30.014  1.00  0.00    -0.460 OA
BRANCH   5   6
ATOM      6  C   UNL A   1      46.085  25.790  30.170  1.00  0.00     0.338 C 
ATOM      7  O   UNL A   1      45.251  25.722  29.282  1.00  0.00    -0.246 OA
BRANCH   6   8
ATOM      8  C   UNL A   1      45.779  25.460  31.582  1.00  0.00     0.060 A 
ATOM      9  C   UNL A   1      45.400  24.824  34.282  1.00  0.00     0.045 A 
ATOM     10  C   UNL A   1      46.152  25.946  33.934  1.00  0.00     0.027 A 
ATOM     11  C   UNL A   1      44.766  24.077  33.278  1.00  0.00     0.027 A 
ATOM     12  C   UNL A   1      46.376  26.237  32.586  1.00  0.00     0.018 A 
ATOM     13  C   UNL A   1      44.924  24.413  31.928  1.00  0.00     0.018 A 
BRANCH   9  14
ATOM     14  N   UNL A   1      45.375  24.373  35.616  1.00  0.00    -0.295 N 
ATOM     15  C   UNL A   1      46.045  23.091  35.991  1.00  0.00     0.156 C 
ATOM     16  C   UNL A   1      45.791  23.087  37.449  1.00  0.00     0.038 A 
ATOM     17  C   UNL A   1      45.973  22.351  38.630  1.00  0.00     0.099 A 
ATOM     18  C   UNL A   1      45.139  24.227  37.816  1.00  0.00     0.129 A 
ATOM     19  C   UNL A   1      44.906  25.110  36.725  1.00  0.00     0.277 C 
ATOM     20  N   UNL A   1      45.390  23.002  39.664  1.00  0.00    -0.174 NA
ATOM     21  N   UNL A   1      44.910  24.157  39.137  1.00  0.00    -0.272 N 
ATOM     22  O   UNL A   1      44.404  26.211  36.767  1.00  0.00    -0.267 OA
ATOM     23  H   UNL A   1      44.453  24.857  39.658  1.00  0.00     0.190 HD
BRANCH  15  24
ATOM     24  C   UNL A   1      47.552  23.135  35.791  1.00  0.00    -0.016 A 
ATOM     25  C   UNL A   1      49.535  22.291  34.606  1.00  0.00     0.160 A 
ATOM     26  C   UNL A   1      48.149  22.287  34.836  1.00  0.00     0.056 A 
ATOM     27  C   UNL A   1      50.335  23.154  35.356  1.00  0.00     0.157 A 
ATOM     28  C   UNL A   1      49.771  24.004  36.303  1.00  0.00     0.050 A 
ATOM     29  C   UNL A   1      48.390  24.019  36.497  1.00  0.00     0.010 A 
BRANCH  25  30
ATOM     30  O   UNL A   1      49.933  21.504  33.560  1.00  0.00    -0.493 OA
ATOM     31  C   UNL A   1      50.486  20.228  33.854  1.00  0.00     0.278 C 
ENDBRANCH  25  30
BRANCH  27  32
ATOM     32  O   UNL A   1      51.677  23.299  35.167  1.00  0.00    -0.504 OA
ATOM     33  H   UNL A   1      51.999  23.721  34.394  1.00  0.00     0.293 HD
ENDBRANCH  27  32
ENDBRANCH  15  24
BRANCH  17  34
ATOM     34  C   UNL A   1      46.669  21.087  38.820  1.00  0.00     0.002 A 
ATOM     35  C   UNL A   1      47.788  20.768  38.041  1.00  0.00     0.010 A 
ATOM     36  C   UNL A   1      46.217  20.159  39.767  1.00  0.00     0.010 A 
ATOM     37  C   UNL A   1      48.452  19.552  38.223  1.00  0.00     0.001 A 
ATOM     38  C   UNL A   1      46.883  18.946  39.952  1.00  0.00     0.001 A 
ATOM     39  C   UNL A   1      48.002  18.644  39.182  1.00  0.00     0.000 A 
ENDBRANCH  17  34
ENDBRANCH   9  14
ENDBRANCH   6   8
ENDBRANCH   5   6
ENDBRANCH   4   5
ENDBRANCH   3   4
ENDBRANCH   2   3
ENDBRANCH   1   2
BRANCH   1  40
ATOM     40  C   UNL A   1      48.181  27.129  24.509  1.00  0.00     0.188 C 
BRANCH  40  41
ATOM     41  O   UNL A   1      47.154  26.174  24.325  1.00  0.00    -0.376 OA
BRANCH  41  42
ATOM     42  C   UNL A   1      45.958  26.111  25.086  1.00  0.00     0.202 C 
BRANCH  42  43
ATOM     43  C   UNL A   1      44.986  24.935  25.102  1.00  0.00     0.261 C 
BRANCH  43  44
ATOM     44  O   UNL A   1      43.659  25.289  25.409  1.00  0.00    -0.460 OA
BRANCH  44  45
ATOM     45  C   UNL A   1      42.843  24.228  25.550  1.00  0.00     0.338 C 
ATOM     46  O   UNL A   1      42.891  23.167  24.951  1.00  0.00    -0.246 OA
BRANCH  45  47
ATOM     47  C   UNL A   1      41.808  24.570  26.531  1.00  0.00     0.060 A 
ATOM     48  C   UNL A   1      40.812  25.419  26.050  1.00  0.00     0.016 A 
ATOM     49  C   UNL A   1      42.182  24.522  27.878  1.00  0.00     0.016 A 
ATOM     50  C   UNL A   1      40.526  26.522  26.813  1.00  0.00     0.010 A 
ATOM     51  C   UNL A   1      41.901  25.621  28.633  1.00  0.00     0.010 A 
ATOM     52  C   UNL A   1      41.208  26.664  28.023  1.00  0.00    -0.014 A 
BRANCH  52  53
ATOM     53  C   UNL A   1      41.168  27.941  28.691  1.00  0.00     0.031 A 
ATOM     54  C   UNL A   1      42.348  28.752  28.348  1.00  0.00     0.074 A 
ATOM     55  C   UNL A   1      40.105  28.322  29.426  1.00  0.00     0.049 A 
ATOM     56  N   UNL A   1      43.362  29.018  29.099  1.00  0.00    -0.248 NA
ATOM     57  C   UNL A   1      42.544  29.082  26.926  1.00  0.00     0.031 C 
ATOM     58  C   UNL A   1      38.804  27.662  29.587  1.00  0.00     0.029 A 
ATOM     59  N   UNL A   1      39.949  29.472  30.134  1.00  0.00    -0.354 N 
ATOM     60  C   UNL A   1      44.225  29.740  28.286  1.00  0.00     0.074 A 
ATOM     61  C   UNL A   1      43.807  29.503  26.933  1.00  0.00     0.031 C 
ATOM     62  C   UNL A   1      37.923  28.533  30.140  1.00  0.00     0.029 A 
ATOM     63  C   UNL A   1      38.629  29.750  30.493  1.00  0.00     0.049 A 
ATOM     64  H   UNL A   1      40.702  30.060  30.371  1.00  0.00     0.167 HD
ATOM     65  C   UNL A   1      44.994  30.735  28.800  1.00  0.00     0.037 A 
ATOM     66  C   UNL A   1      38.198  30.959  30.942  1.00  0.00     0.037 A 
ATOM     67  C   UNL A   1      45.109  30.608  30.231  1.00  0.00     0.049 A 
ATOM     68  C   UNL A   1      39.407  31.692  31.417  1.00  0.00     0.074 A 
ATOM     69  C   UNL A   1      45.642  29.653  31.074  1.00  0.00     0.029 A 
ATOM     70  N   UNL A   1      44.257  31.361  31.002  1.00  0.00    -0.354 N 
ATOM     71  N   UNL A   1      40.121  31.312  32.444  1.00  0.00    -0.248 NA
ATOM     72  C   UNL A   1      40.107  32.515  30.438  1.00  0.00     0.031 C 
ATOM     73  C   UNL A   1      44.740  29.585  32.176  1.00  0.00     0.029 A 
ATOM     74  C   UNL A   1      43.752  30.553  31.989  1.00  0.00     0.049 A 
ATOM     75  H   UNL A   1      44.047  32.313  30.870  1.00  0.00     0.167 HD
ATOM     76  C   UNL A   1      41.439  31.485  32.043  1.00  0.00     0.074 A 
ATOM     77  C   UNL A   1      41.365  32.261  30.807  1.00  0.00     0.031 C 
ATOM     78  C   UNL A   1      42.446  30.735  32.579  1.00  0.00     0.037 A 
BRANCH  65  79
ATOM     79  C   UNL A   1      45.278  32.024  28.071  1.00  0.00     0.064 A 
ATOM     80  C   UNL A   1      44.197  32.859  27.740  1.00  0.00     0.173 A 
ATOM     81  C   UNL A   1      46.504  32.337  27.438  1.00  0.00     0.173 A 
ATOM     82  F   UNL A   1      42.982  32.645  28.268  1.00  0.00    -0.203 F 
ATOM     83  C   UNL A   1      44.317  33.876  26.791  1.00  0.00     0.198 A 
ATOM     84  C   UNL A   1      46.633  33.389  26.537  1.00  0.00     0.198 A 
ATOM     85  F   UNL A   1      47.601  31.584  27.565  1.00  0.00    -0.203 F 
ATOM     86  F   UNL A   1      43.230  34.562  26.413  1.00  0.00    -0.200 F 
ATOM     87  C   UNL A   1      45.533  34.136  26.185  1.00  0.00     0.200 A 
ATOM     88  F   UNL A   1      47.820  33.610  25.952  1.00  0.00    -0.200 F 
ATOM     89  F   UNL A   1      45.636  35.070  25.232  1.00  0.00    -0.200 F 
ENDBRANCH  65  79
BRANCH  66  90
ATOM     90  C   UNL A   1      36.939  31.664  30.584  1.00  0.00     0.064 A 
ATOM     91  C   UNL A   1      36.006  32.041  31.565  1.00  0.00     0.173 A 
ATOM     92  C   UNL A   1      36.767  32.238  29.309  1.00  0.00     0.173 A 
ATOM     93  F   UNL A   1      36.129  31.588  32.821  1.00  0.00    -0.203 F 
ATOM     94  C   UNL A   1      34.972  32.947  31.289  1.00  0.00     0.198 A 
ATOM     95  C   UNL A   1      35.737  33.139  29.034  1.00  0.00     0.198 A 
ATOM     96  F   UNL A   1      37.656  32.015  28.331  1.00  0.00    -0.203 F 
ATOM     97  F   UNL A   1      34.133  33.324  32.263  1.00  0.00    -0.200 F 
ATOM     98  C   UNL A   1      34.844  33.502  30.025  1.00  0.00     0.200 A 
ATOM     99  F   UNL A   1      35.654  33.703  27.820  1.00  0.00    -0.200 F 
ATOM    100  F   UNL A   1      33.895  34.412  29.775  1.00  0.00    -0.200 F 
ENDBRANCH  66  90
BRANCH  78 101
ATOM    101  C   UNL A   1      42.122  29.865  33.763  1.00  0.00     0.064 A 
ATOM    102  C   UNL A   1      41.708  28.525  33.666  1.00  0.00     0.173 A 
ATOM    103  C   UNL A   1      42.430  30.354  35.038  1.00  0.00     0.173 A 
ATOM    104  F   UNL A   1      41.480  27.960  32.473  1.00  0.00    -0.203 F 
ATOM    105  C   UNL A   1      41.590  27.721  34.801  1.00  0.00     0.198 A 
ATOM    106  C   UNL A   1      42.345  29.541  36.164  1.00  0.00     0.198 A 
ATOM    107  F   UNL A   1      42.880  31.610  35.182  1.00  0.00    -0.203 F 
ATOM    108  F   UNL A   1      41.198  26.442  34.685  1.00  0.00    -0.200 F 
ATOM    109  C   UNL A   1      41.920  28.228  36.047  1.00  0.00     0.200 A 
ATOM    110  F   UNL A   1      42.713  30.023  37.359  1.00  0.00    -0.200 F 
ATOM    111  F   UNL A   1      41.858  27.443  37.133  1.00  0.00    -0.200 F 
ENDBRANCH  78 101
ENDBRANCH  52  53
ENDBRANCH  45  47
ENDBRANCH  44  45
ENDBRANCH  43  44
ENDBRANCH  42  43
ENDBRANCH  41  42
ENDBRANCH  40  41
ENDBRANCH   1  40
TORSDOF 22
ENDMDL
