MODEL 1
REMARK VINA RESULT:     -11.1      0.000      0.000
REMARK SMILES CC(C)N1C[C@@H](C(=O)N2CCC(C(=O)OCCOCCOCCOC(=O)c3ccc(-c4c5nc(c(-c6c(F)c(F)c(F)c(F)c6F)c6ccc([nH]6)c(-c6c(F)c(F)c(F)c(F)c6F)c6nc(c(-c7c(F)c(F)c(F)c(F)c7F)c7ccc4[nH]7)C=C6)C=C5)cc3)CC2)CC1=O
REMARK SMILES IDX 19 1 18 2 17 3 16 4 15 5 13 6 14 7 12 8 7 9 8 10 9 11 10 12
REMARK SMILES IDX 91 13 11 14 90 15 6 16 4 17 5 18 93 19 92 20 94 21 2 22 1 23
REMARK SMILES IDX 3 24 20 25 21 26 22 27 23 28 24 29 25 30 26 31 27 32 28 33
REMARK SMILES IDX 89 34 29 35 88 36 30 37 31 38 32 39 82 40 33 41 87 42 81 43
REMARK SMILES IDX 83 44 34 45 86 46 80 47 79 48 35 50 67 51 47 52 66 53 48 54
REMARK SMILES IDX 51 55 65 56 84 57 49 58 50 59 64 61 85 62 52 63 36 64 37 65
REMARK SMILES IDX 45 66 38 67 39 68 43 69 46 70 40 71 41 72 44 73 42 74 68 75
REMARK SMILES IDX 69 76 77 77 70 78 71 79 75 80 78 81 72 82 73 83 76 84 74 85
REMARK SMILES IDX 53 86 54 87 62 88 55 89 56 90 60 91 63 92 57 93 58 94 61 95
REMARK SMILES IDX 59 96
REMARK H PARENT 83 49 51 60
REMARK Flexibility Score: inf
ROOT
ATOM      1  C   UNL A   1      38.793  22.094  25.903  1.00  0.00     0.188 C 
ENDROOT
BRANCH   1   2
ATOM      2  O   UNL A   1      38.017  21.026  25.375  1.00  0.00    -0.376 OA
BRANCH   2   3
ATOM      3  C   UNL A   1      36.729  21.352  24.854  1.00  0.00     0.202 C 
BRANCH   3   4
ATOM      4  C   UNL A   1      36.642  22.559  23.905  1.00  0.00     0.261 C 
BRANCH   4   5
ATOM      5  O   UNL A   1      35.716  23.591  24.309  1.00  0.00    -0.463 OA
BRANCH   5   6
ATOM      6  C   UNL A   1      34.682  23.815  23.458  1.00  0.00     0.309 C 
ATOM      7  O   UNL A   1      34.592  23.334  22.332  1.00  0.00    -0.252 OA
BRANCH   6   8
ATOM      8  C   UNL A   1      33.562  24.663  24.037  1.00  0.00     0.103 C 
ATOM      9  C   UNL A   1      31.338  27.866  23.065  1.00  0.00     0.227 C 
ATOM     10  O   UNL A   1      32.214  28.718  22.882  1.00  0.00    -0.274 OA
ATOM     11  N   UNL A   1      31.588  26.763  23.863  1.00  0.00    -0.342 N 
ATOM     12  C   UNL A   1      32.639  26.860  24.872  1.00  0.00     0.120 C 
ATOM     13  C   UNL A   1      31.199  25.396  23.551  1.00  0.00     0.120 C 
ATOM     14  C   UNL A   1      33.900  26.101  24.457  1.00  0.00     0.037 C 
ATOM     15  C   UNL A   1      32.413  24.644  23.019  1.00  0.00     0.037 C 
BRANCH   9  16
ATOM     16  C   UNL A   1      29.920  28.182  22.605  1.00  0.00     0.107 C 
ATOM     17  N   UNL A   1      28.412  29.980  22.544  1.00  0.00    -0.339 N 
ATOM     18  C   UNL A   1      29.801  29.673  22.334  1.00  0.00     0.133 C 
ATOM     19  C   UNL A   1      27.718  28.933  23.124  1.00  0.00     0.223 C 
ATOM     20  C   UNL A   1      28.687  27.811  23.415  1.00  0.00     0.115 C 
ATOM     21  O   UNL A   1      26.528  28.901  23.393  1.00  0.00    -0.275 OA
BRANCH  17  22
ATOM     22  C   UNL A   1      27.847  31.249  22.086  1.00  0.00     0.078 C 
ATOM     23  C   UNL A   1      28.081  32.351  23.115  1.00  0.00     0.031 C 
ATOM     24  C   UNL A   1      28.354  31.653  20.703  1.00  0.00     0.031 C 
ENDBRANCH  17  22
ENDBRANCH   9  16
ENDBRANCH   6   8
ENDBRANCH   5   6
ENDBRANCH   4   5
ENDBRANCH   3   4
ENDBRANCH   2   3
ENDBRANCH   1   2
BRANCH   1  25
ATOM     25  C   UNL A   1      40.107  21.706  26.575  1.00  0.00     0.188 C 
BRANCH  25  26
ATOM     26  O   UNL A   1      41.166  21.338  25.714  1.00  0.00    -0.376 OA
BRANCH  26  27
ATOM     27  C   UNL A   1      42.444  21.092  26.301  1.00  0.00     0.202 C 
BRANCH  27  28
ATOM     28  C   UNL A   1      43.713  21.695  25.645  1.00  0.00     0.261 C 
BRANCH  28  29
ATOM     29  O   UNL A   1      44.345  22.820  26.300  1.00  0.00    -0.460 OA
BRANCH  29  30
ATOM     30  C   UNL A   1      44.168  24.054  25.767  1.00  0.00     0.338 C 
ATOM     31  O   UNL A   1      44.294  24.353  24.598  1.00  0.00    -0.246 OA
BRANCH  30  32
ATOM     32  C   UNL A   1      43.505  24.932  26.786  1.00  0.00     0.060 A 
ATOM     33  C   UNL A   1      43.917  26.273  26.859  1.00  0.00     0.016 A 
ATOM     34  C   UNL A   1      42.458  24.497  27.605  1.00  0.00     0.016 A 
ATOM     35  C   UNL A   1      43.325  27.160  27.768  1.00  0.00     0.010 A 
ATOM     36  C   UNL A   1      41.880  25.381  28.534  1.00  0.00     0.010 A 
ATOM     37  C   UNL A   1      42.334  26.709  28.648  1.00  0.00    -0.014 A 
BRANCH  37  38
ATOM     38  C   UNL A   1      41.939  27.547  29.820  1.00  0.00     0.031 A 
ATOM     39  C   UNL A   1      40.712  28.416  29.688  1.00  0.00     0.074 A 
ATOM     40  C   UNL A   1      42.609  27.534  30.988  1.00  0.00     0.049 A 
ATOM     41  N   UNL A   1      40.203  29.283  30.526  1.00  0.00    -0.248 NA
ATOM     42  C   UNL A   1      39.957  28.281  28.432  1.00  0.00     0.031 C 
ATOM     43  C   UNL A   1      43.772  26.705  31.290  1.00  0.00     0.029 A 
ATOM     44  N   UNL A   1      42.404  28.257  32.142  1.00  0.00    -0.354 N 
ATOM     45  C   UNL A   1      39.076  29.799  29.898  1.00  0.00     0.074 A 
ATOM     46  C   UNL A   1      38.996  29.177  28.595  1.00  0.00     0.031 C 
ATOM     47  C   UNL A   1      44.190  26.978  32.541  1.00  0.00     0.029 A 
ATOM     48  C   UNL A   1      43.348  28.029  33.115  1.00  0.00     0.049 A 
ATOM     49  H   UNL A   1      41.651  28.880  32.259  1.00  0.00     0.167 HD
ATOM     50  C   UNL A   1      38.178  30.702  30.364  1.00  0.00     0.037 A 
ATOM     51  C   UNL A   1      43.528  28.619  34.316  1.00  0.00     0.037 A 
ATOM     52  C   UNL A   1      38.252  31.335  31.654  1.00  0.00     0.049 A 
ATOM     53  C   UNL A   1      42.578  29.706  34.770  1.00  0.00     0.074 A 
ATOM     54  C   UNL A   1      37.393  32.268  32.208  1.00  0.00     0.029 A 
ATOM     55  N   UNL A   1      39.249  31.107  32.591  1.00  0.00    -0.354 N 
ATOM     56  N   UNL A   1      41.510  30.179  34.174  1.00  0.00    -0.248 NA
ATOM     57  C   UNL A   1      42.861  30.340  36.068  1.00  0.00     0.031 C 
ATOM     58  C   UNL A   1      37.899  32.647  33.455  1.00  0.00     0.029 A 
ATOM     59  C   UNL A   1      39.037  31.900  33.708  1.00  0.00     0.049 A 
ATOM     60  H   UNL A   1      39.996  30.475  32.479  1.00  0.00     0.167 HD
ATOM     61  C   UNL A   1      40.976  31.129  35.039  1.00  0.00     0.074 A 
ATOM     62  C   UNL A   1      41.829  31.158  36.207  1.00  0.00     0.031 C 
ATOM     63  C   UNL A   1      39.877  31.908  34.879  1.00  0.00     0.037 A 
BRANCH  50  64
ATOM     64  C   UNL A   1      37.042  31.079  29.456  1.00  0.00     0.064 A 
ATOM     65  C   UNL A   1      35.988  30.194  29.187  1.00  0.00     0.173 A 
ATOM     66  C   UNL A   1      36.990  32.356  28.875  1.00  0.00     0.173 A 
ATOM     67  F   UNL A   1      35.996  28.956  29.705  1.00  0.00    -0.203 F 
ATOM     68  C   UNL A   1      34.939  30.562  28.348  1.00  0.00     0.198 A 
ATOM     69  C   UNL A   1      35.923  32.733  28.065  1.00  0.00     0.198 A 
ATOM     70  F   UNL A   1      37.969  33.244  29.104  1.00  0.00    -0.203 F 
ATOM     71  F   UNL A   1      33.971  29.680  28.063  1.00  0.00    -0.200 F 
ATOM     72  C   UNL A   1      34.903  31.833  27.794  1.00  0.00     0.200 A 
ATOM     73  F   UNL A   1      35.881  33.966  27.544  1.00  0.00    -0.200 F 
ATOM     74  F   UNL A   1      33.889  32.188  26.995  1.00  0.00    -0.200 F 
ENDBRANCH  50  64
BRANCH  51  75
ATOM     75  C   UNL A   1      44.674  28.229  35.187  1.00  0.00     0.064 A 
ATOM     76  C   UNL A   1      44.576  27.148  36.077  1.00  0.00     0.173 A 
ATOM     77  C   UNL A   1      45.865  28.971  35.200  1.00  0.00     0.173 A 
ATOM     78  F   UNL A   1      43.445  26.427  36.132  1.00  0.00    -0.203 F 
ATOM     79  C   UNL A   1      45.609  26.844  36.962  1.00  0.00     0.198 A 
ATOM     80  C   UNL A   1      46.912  28.643  36.060  1.00  0.00     0.198 A 
ATOM     81  F   UNL A   1      46.010  30.022  34.380  1.00  0.00    -0.203 F 
ATOM     82  F   UNL A   1      45.458  25.850  37.849  1.00  0.00    -0.200 F 
ATOM     83  C   UNL A   1      46.779  27.588  36.950  1.00  0.00     0.200 A 
ATOM     84  F   UNL A   1      48.043  29.362  36.039  1.00  0.00    -0.200 F 
ATOM     85  F   UNL A   1      47.769  27.299  37.805  1.00  0.00    -0.200 F 
ENDBRANCH  51  75
BRANCH  63  86
ATOM     86  C   UNL A   1      39.489  32.817  36.014  1.00  0.00     0.064 A 
ATOM     87  C   UNL A   1      38.633  32.400  37.044  1.00  0.00     0.173 A 
ATOM     88  C   UNL A   1      40.020  34.116  36.092  1.00  0.00     0.173 A 
ATOM     89  F   UNL A   1      38.089  31.174  37.016  1.00  0.00    -0.203 F 
ATOM     90  C   UNL A   1      38.299  33.256  38.091  1.00  0.00     0.198 A 
ATOM     91  C   UNL A   1      39.711  34.957  37.159  1.00  0.00     0.198 A 
ATOM     92  F   UNL A   1      40.852  34.565  35.141  1.00  0.00    -0.203 F 
ATOM     93  F   UNL A   1      37.437  32.853  39.035  1.00  0.00    -0.200 F 
ATOM     94  C   UNL A   1      38.845  34.530  38.152  1.00  0.00     0.200 A 
ATOM     95  F   UNL A   1      40.255  36.180  37.224  1.00  0.00    -0.200 F 
ATOM     96  F   UNL A   1      38.528  35.350  39.165  1.00  0.00    -0.200 F 
ENDBRANCH  63  86
ENDBRANCH  37  38
ENDBRANCH  30  32
ENDBRANCH  29  30
ENDBRANCH  28  29
ENDBRANCH  27  28
ENDBRANCH  26  27
ENDBRANCH  25  26
ENDBRANCH   1  25
TORSDOF 19
ENDMDL
MODEL 2
REMARK VINA RESULT:     -11.0      4.854      9.107
REMARK SMILES CC(C)N1C[C@@H](C(=O)N2CCC(C(=O)OCCOCCOCCOC(=O)c3ccc(-c4c5nc(c(-c6c(F)c(F)c(F)c(F)c6F)c6ccc([nH]6)c(-c6c(F)c(F)c(F)c(F)c6F)c6nc(c(-c7c(F)c(F)c(F)c(F)c7F)c7ccc4[nH]7)C=C6)C=C5)cc3)CC2)CC1=O
REMARK SMILES IDX 19 1 18 2 17 3 16 4 15 5 13 6 14 7 12 8 7 9 8 10 9 11 10 12
REMARK SMILES IDX 91 13 11 14 90 15 6 16 4 17 5 18 93 19 92 20 94 21 2 22 1 23
REMARK SMILES IDX 3 24 20 25 21 26 22 27 23 28 24 29 25 30 26 31 27 32 28 33
REMARK SMILES IDX 89 34 29 35 88 36 30 37 31 38 32 39 82 40 33 41 87 42 81 43
REMARK SMILES IDX 83 44 34 45 86 46 80 47 79 48 35 50 67 51 47 52 66 53 48 54
REMARK SMILES IDX 51 55 65 56 84 57 49 58 50 59 64 61 85 62 52 63 36 64 37 65
REMARK SMILES IDX 45 66 38 67 39 68 43 69 46 70 40 71 41 72 44 73 42 74 68 75
REMARK SMILES IDX 69 76 77 77 70 78 71 79 75 80 78 81 72 82 73 83 76 84 74 85
REMARK SMILES IDX 53 86 54 87 62 88 55 89 56 90 60 91 63 92 57 93 58 94 61 95
REMARK SMILES IDX 59 96
REMARK H PARENT 83 49 51 60
REMARK Flexibility Score: inf
ROOT
ATOM      1  C   UNL A   1      39.471  21.486  25.981  1.00  0.00     0.188 C 
ENDROOT
BRANCH   1   2
ATOM      2  O   UNL A   1      38.379  20.750  25.444  1.00  0.00    -0.376 OA
BRANCH   2   3
ATOM      3  C   UNL A   1      37.140  21.441  25.293  1.00  0.00     0.202 C 
BRANCH   3   4
ATOM      4  C   UNL A   1      37.151  22.727  24.450  1.00  0.00     0.261 C 
BRANCH   4   5
ATOM      5  O   UNL A   1      36.113  23.679  24.770  1.00  0.00    -0.463 OA
BRANCH   5   6
ATOM      6  C   UNL A   1      35.110  23.776  23.861  1.00  0.00     0.309 C 
ATOM      7  O   UNL A   1      35.148  23.300  22.729  1.00  0.00    -0.252 OA
BRANCH   6   8
ATOM      8  C   UNL A   1      33.857  24.465  24.376  1.00  0.00     0.103 C 
ATOM      9  C   UNL A   1      31.499  27.593  23.479  1.00  0.00     0.227 C 
ATOM     10  O   UNL A   1      32.314  28.522  23.509  1.00  0.00    -0.274 OA
ATOM     11  N   UNL A   1      31.745  26.422  24.176  1.00  0.00    -0.342 N 
ATOM     12  C   UNL A   1      32.651  26.473  25.319  1.00  0.00     0.120 C 
ATOM     13  C   UNL A   1      31.518  25.080  23.665  1.00  0.00     0.120 C 
ATOM     14  C   UNL A   1      34.015  25.863  24.993  1.00  0.00     0.037 C 
ATOM     15  C   UNL A   1      32.849  24.487  23.219  1.00  0.00     0.037 C 
BRANCH   9  16
ATOM     16  C   UNL A   1      30.128  27.860  22.872  1.00  0.00     0.107 C 
ATOM     17  N   UNL A   1      28.522  29.567  22.748  1.00  0.00    -0.339 N 
ATOM     18  C   UNL A   1      29.943  29.357  22.688  1.00  0.00     0.133 C 
ATOM     19  C   UNL A   1      27.835  28.442  23.170  1.00  0.00     0.223 C 
ATOM     20  C   UNL A   1      28.836  27.360  23.501  1.00  0.00     0.115 C 
ATOM     21  O   UNL A   1      26.627  28.322  23.290  1.00  0.00    -0.275 OA
BRANCH  17  22
ATOM     22  C   UNL A   1      27.931  30.831  22.309  1.00  0.00     0.078 C 
ATOM     23  C   UNL A   1      27.655  31.744  23.500  1.00  0.00     0.031 C 
ATOM     24  C   UNL A   1      28.770  31.534  21.243  1.00  0.00     0.031 C 
ENDBRANCH  17  22
ENDBRANCH   9  16
ENDBRANCH   6   8
ENDBRANCH   5   6
ENDBRANCH   4   5
ENDBRANCH   3   4
ENDBRANCH   2   3
ENDBRANCH   1   2
BRANCH   1  25
ATOM     25  C   UNL A   1      40.597  20.665  26.606  1.00  0.00     0.188 C 
BRANCH  25  26
ATOM     26  O   UNL A   1      41.095  19.594  25.829  1.00  0.00    -0.376 OA
BRANCH  26  27
ATOM     27  C   UNL A   1      42.170  18.826  26.372  1.00  0.00     0.202 C 
BRANCH  27  28
ATOM     28  C   UNL A   1      43.041  17.960  25.425  1.00  0.00     0.261 C 
BRANCH  28  29
ATOM     29  O   UNL A   1      44.426  18.336  25.244  1.00  0.00    -0.460 OA
BRANCH  29  30
ATOM     30  C   UNL A   1      44.728  19.205  24.247  1.00  0.00     0.338 C 
ATOM     31  O   UNL A   1      44.853  18.930  23.072  1.00  0.00    -0.246 OA
BRANCH  30  32
ATOM     32  C   UNL A   1      44.593  20.606  24.767  1.00  0.00     0.060 A 
ATOM     33  C   UNL A   1      44.344  21.626  23.834  1.00  0.00     0.016 A 
ATOM     34  C   UNL A   1      44.631  20.924  26.128  1.00  0.00     0.016 A 
ATOM     35  C   UNL A   1      44.180  22.955  24.247  1.00  0.00     0.010 A 
ATOM     36  C   UNL A   1      44.490  22.261  26.541  1.00  0.00     0.010 A 
ATOM     37  C   UNL A   1      44.300  23.292  25.601  1.00  0.00    -0.014 A 
BRANCH  37  38
ATOM     38  C   UNL A   1      44.451  24.722  26.004  1.00  0.00     0.031 A 
ATOM     39  C   UNL A   1      45.810  25.361  25.854  1.00  0.00     0.074 A 
ATOM     40  C   UNL A   1      43.426  25.466  26.461  1.00  0.00     0.049 A 
ATOM     41  N   UNL A   1      46.219  26.556  26.198  1.00  0.00    -0.248 NA
ATOM     42  C   UNL A   1      46.850  24.528  25.228  1.00  0.00     0.031 C 
ATOM     43  C   UNL A   1      42.045  25.012  26.604  1.00  0.00     0.029 A 
ATOM     44  N   UNL A   1      43.397  26.770  26.903  1.00  0.00    -0.354 N 
ATOM     45  C   UNL A   1      47.559  26.616  25.835  1.00  0.00     0.074 A 
ATOM     46  C   UNL A   1      47.905  25.326  25.280  1.00  0.00     0.031 C 
ATOM     47  C   UNL A   1      41.307  26.015  27.114  1.00  0.00     0.029 A 
ATOM     48  C   UNL A   1      42.168  27.171  27.372  1.00  0.00     0.049 A 
ATOM     49  H   UNL A   1      44.184  27.361  26.884  1.00  0.00     0.167 HD
ATOM     50  C   UNL A   1      48.426  27.653  25.941  1.00  0.00     0.037 A 
ATOM     51  C   UNL A   1      41.790  28.323  27.966  1.00  0.00     0.037 A 
ATOM     52  C   UNL A   1      48.097  28.938  26.500  1.00  0.00     0.049 A 
ATOM     53  C   UNL A   1      42.803  29.427  28.176  1.00  0.00     0.074 A 
ATOM     54  C   UNL A   1      48.912  30.045  26.656  1.00  0.00     0.029 A 
ATOM     55  N   UNL A   1      46.853  29.285  27.003  1.00  0.00    -0.354 N 
ATOM     56  N   UNL A   1      44.065  29.479  27.820  1.00  0.00    -0.248 NA
ATOM     57  C   UNL A   1      42.336  30.637  28.873  1.00  0.00     0.031 C 
ATOM     58  C   UNL A   1      48.179  31.043  27.305  1.00  0.00     0.029 A 
ATOM     59  C   UNL A   1      46.887  30.582  27.491  1.00  0.00     0.049 A 
ATOM     60  H   UNL A   1      46.062  28.698  27.011  1.00  0.00     0.167 HD
ATOM     61  C   UNL A   1      44.523  30.732  28.211  1.00  0.00     0.074 A 
ATOM     62  C   UNL A   1      43.404  31.417  28.819  1.00  0.00     0.031 C 
ATOM     63  C   UNL A   1      45.762  31.268  28.076  1.00  0.00     0.037 A 
BRANCH  50  64
ATOM     64  C   UNL A   1      49.832  27.431  25.460  1.00  0.00     0.064 A 
ATOM     65  C   UNL A   1      50.871  27.100  26.343  1.00  0.00     0.173 A 
ATOM     66  C   UNL A   1      50.137  27.518  24.093  1.00  0.00     0.173 A 
ATOM     67  F   UNL A   1      50.636  27.019  27.662  1.00  0.00    -0.203 F 
ATOM     68  C   UNL A   1      52.167  26.892  25.880  1.00  0.00     0.198 A 
ATOM     69  C   UNL A   1      51.427  27.275  23.629  1.00  0.00     0.198 A 
ATOM     70  F   UNL A   1      49.181  27.826  23.204  1.00  0.00    -0.203 F 
ATOM     71  F   UNL A   1      53.153  26.629  26.748  1.00  0.00    -0.200 F 
ATOM     72  C   UNL A   1      52.443  26.971  24.523  1.00  0.00     0.200 A 
ATOM     73  F   UNL A   1      51.688  27.336  22.316  1.00  0.00    -0.200 F 
ATOM     74  F   UNL A   1      53.689  26.762  24.078  1.00  0.00    -0.200 F 
ENDBRANCH  50  64
BRANCH  51  75
ATOM     75  C   UNL A   1      40.389  28.505  28.442  1.00  0.00     0.064 A 
ATOM     76  C   UNL A   1      39.395  29.019  27.596  1.00  0.00     0.173 A 
ATOM     77  C   UNL A   1      40.031  28.236  29.772  1.00  0.00     0.173 A 
ATOM     78  F   UNL A   1      39.692  29.328  26.325  1.00  0.00    -0.203 F 
ATOM     79  C   UNL A   1      38.109  29.283  28.068  1.00  0.00     0.198 A 
ATOM     80  C   UNL A   1      38.736  28.467  30.233  1.00  0.00     0.198 A 
ATOM     81  F   UNL A   1      40.944  27.755  30.629  1.00  0.00    -0.203 F 
ATOM     82  F   UNL A   1      37.201  29.841  27.255  1.00  0.00    -0.200 F 
ATOM     83  C   UNL A   1      37.779  29.002  29.384  1.00  0.00     0.200 A 
ATOM     84  F   UNL A   1      38.420  28.186  31.505  1.00  0.00    -0.200 F 
ATOM     85  F   UNL A   1      36.546  29.262  29.839  1.00  0.00    -0.200 F 
ENDBRANCH  51  75
BRANCH  63  86
ATOM     86  C   UNL A   1      45.968  32.686  28.537  1.00  0.00     0.064 A 
ATOM     87  C   UNL A   1      45.734  33.785  27.698  1.00  0.00     0.173 A 
ATOM     88  C   UNL A   1      46.368  32.948  29.859  1.00  0.00     0.173 A 
ATOM     89  F   UNL A   1      45.360  33.594  26.424  1.00  0.00    -0.203 F 
ATOM     90  C   UNL A   1      45.919  35.089  28.152  1.00  0.00     0.198 A 
ATOM     91  C   UNL A   1      46.518  34.254  30.320  1.00  0.00     0.198 A 
ATOM     92  F   UNL A   1      46.597  31.936  30.710  1.00  0.00    -0.203 F 
ATOM     93  F   UNL A   1      45.740  36.120  27.315  1.00  0.00    -0.200 F 
ATOM     94  C   UNL A   1      46.303  35.322  29.465  1.00  0.00     0.200 A 
ATOM     95  F   UNL A   1      46.871  34.476  31.593  1.00  0.00    -0.200 F 
ATOM     96  F   UNL A   1      46.473  36.578  29.903  1.00  0.00    -0.200 F 
ENDBRANCH  63  86
ENDBRANCH  37  38
ENDBRANCH  30  32
ENDBRANCH  29  30
ENDBRANCH  28  29
ENDBRANCH  27  28
ENDBRANCH  26  27
ENDBRANCH  25  26
ENDBRANCH   1  25
TORSDOF 19
ENDMDL
MODEL 3
REMARK VINA RESULT:     -10.7      5.568     12.335
REMARK SMILES CC(C)N1C[C@@H](C(=O)N2CCC(C(=O)OCCOCCOCCOC(=O)c3ccc(-c4c5nc(c(-c6c(F)c(F)c(F)c(F)c6F)c6ccc([nH]6)c(-c6c(F)c(F)c(F)c(F)c6F)c6nc(c(-c7c(F)c(F)c(F)c(F)c7F)c7ccc4[nH]7)C=C6)C=C5)cc3)CC2)CC1=O
REMARK SMILES IDX 19 1 18 2 17 3 16 4 15 5 13 6 14 7 12 8 7 9 8 10 9 11 10 12
REMARK SMILES IDX 91 13 11 14 90 15 6 16 4 17 5 18 93 19 92 20 94 21 2 22 1 23
REMARK SMILES IDX 3 24 20 25 21 26 22 27 23 28 24 29 25 30 26 31 27 32 28 33
REMARK SMILES IDX 89 34 29 35 88 36 30 37 31 38 32 39 82 40 33 41 87 42 81 43
REMARK SMILES IDX 83 44 34 45 86 46 80 47 79 48 35 50 67 51 47 52 66 53 48 54
REMARK SMILES IDX 51 55 65 56 84 57 49 58 50 59 64 61 85 62 52 63 36 64 37 65
REMARK SMILES IDX 45 66 38 67 39 68 43 69 46 70 40 71 41 72 44 73 42 74 68 75
REMARK SMILES IDX 69 76 77 77 70 78 71 79 75 80 78 81 72 82 73 83 76 84 74 85
REMARK SMILES IDX 53 86 54 87 62 88 55 89 56 90 60 91 63 92 57 93 58 94 61 95
REMARK SMILES IDX 59 96
REMARK H PARENT 83 49 51 60
REMARK Flexibility Score: inf
ROOT
ATOM      1  C   UNL A   1      33.116  36.595  28.821  1.00  0.00     0.188 C 
ENDROOT
BRANCH   1   2
ATOM      2  O   UNL A   1      33.030  37.023  30.174  1.00  0.00    -0.376 OA
BRANCH   2   3
ATOM      3  C   UNL A   1      32.530  36.082  31.124  1.00  0.00     0.202 C 
BRANCH   3   4
ATOM      4  C   UNL A   1      33.358  35.868  32.402  1.00  0.00     0.261 C 
BRANCH   4   5
ATOM      5  O   UNL A   1      34.500  34.996  32.253  1.00  0.00    -0.463 OA
BRANCH   5   6
ATOM      6  C   UNL A   1      34.341  33.738  32.735  1.00  0.00     0.309 C 
ATOM      7  O   UNL A   1      33.288  33.292  33.183  1.00  0.00    -0.252 OA
BRANCH   6   8
ATOM      8  C   UNL A   1      35.570  32.854  32.607  1.00  0.00     0.103 C 
ATOM      9  C   UNL A   1      39.539  33.030  33.214  1.00  0.00     0.227 C 
ATOM     10  O   UNL A   1      39.849  33.980  32.487  1.00  0.00    -0.274 OA
ATOM     11  N   UNL A   1      38.382  32.309  32.970  1.00  0.00    -0.342 N 
ATOM     12  C   UNL A   1      37.832  32.318  31.618  1.00  0.00     0.120 C 
ATOM     13  C   UNL A   1      37.438  31.871  33.986  1.00  0.00     0.120 C 
ATOM     14  C   UNL A   1      36.591  33.205  31.514  1.00  0.00     0.037 C 
ATOM     15  C   UNL A   1      36.239  32.811  33.988  1.00  0.00     0.037 C 
BRANCH   9  16
ATOM     16  C   UNL A   1      40.571  32.521  34.212  1.00  0.00     0.107 C 
ATOM     17  N   UNL A   1      41.120  30.564  35.386  1.00  0.00    -0.339 N 
ATOM     18  C   UNL A   1      40.686  31.010  34.090  1.00  0.00     0.133 C 
ATOM     19  C   UNL A   1      41.064  31.566  36.340  1.00  0.00     0.223 C 
ATOM     20  C   UNL A   1      40.488  32.809  35.704  1.00  0.00     0.115 C 
ATOM     21  O   UNL A   1      41.394  31.482  37.512  1.00  0.00    -0.275 OA
BRANCH  17  22
ATOM     22  C   UNL A   1      41.635  29.209  35.579  1.00  0.00     0.078 C 
ATOM     23  C   UNL A   1      41.233  28.304  34.418  1.00  0.00     0.031 C 
ATOM     24  C   UNL A   1      43.144  29.182  35.817  1.00  0.00     0.031 C 
ENDBRANCH  17  22
ENDBRANCH   9  16
ENDBRANCH   6   8
ENDBRANCH   5   6
ENDBRANCH   4   5
ENDBRANCH   3   4
ENDBRANCH   2   3
ENDBRANCH   1   2
BRANCH   1  25
ATOM     25  C   UNL A   1      34.423  35.925  28.405  1.00  0.00     0.188 C 
BRANCH  25  26
ATOM     26  O   UNL A   1      34.303  34.755  27.620  1.00  0.00    -0.376 OA
BRANCH  26  27
ATOM     27  C   UNL A   1      34.030  33.527  28.296  1.00  0.00     0.202 C 
BRANCH  27  28
ATOM     28  C   UNL A   1      34.886  32.274  27.976  1.00  0.00     0.261 C 
BRANCH  28  29
ATOM     29  O   UNL A   1      34.455  31.003  28.515  1.00  0.00    -0.460 OA
BRANCH  29  30
ATOM     30  C   UNL A   1      34.898  29.870  27.915  1.00  0.00     0.338 C 
ATOM     31  O   UNL A   1      34.324  29.251  27.043  1.00  0.00    -0.246 OA
BRANCH  30  32
ATOM     32  C   UNL A   1      36.337  29.659  28.278  1.00  0.00     0.060 A 
ATOM     33  C   UNL A   1      37.301  29.872  27.279  1.00  0.00     0.016 A 
ATOM     34  C   UNL A   1      36.760  29.333  29.571  1.00  0.00     0.016 A 
ATOM     35  C   UNL A   1      38.667  29.720  27.550  1.00  0.00     0.010 A 
ATOM     36  C   UNL A   1      38.130  29.158  29.838  1.00  0.00     0.010 A 
ATOM     37  C   UNL A   1      39.091  29.313  28.821  1.00  0.00    -0.014 A 
BRANCH  37  38
ATOM     38  C   UNL A   1      40.493  28.839  29.024  1.00  0.00     0.031 A 
ATOM     39  C   UNL A   1      41.460  29.763  29.723  1.00  0.00     0.074 A 
ATOM     40  C   UNL A   1      40.914  27.619  28.640  1.00  0.00     0.049 A 
ATOM     41  N   UNL A   1      42.740  29.619  29.955  1.00  0.00    -0.248 NA
ATOM     42  C   UNL A   1      40.896  31.024  30.229  1.00  0.00     0.031 C 
ATOM     43  C   UNL A   1      40.088  26.593  28.011  1.00  0.00     0.029 A 
ATOM     44  N   UNL A   1      42.162  27.041  28.719  1.00  0.00    -0.354 N 
ATOM     45  C   UNL A   1      43.134  30.770  30.627  1.00  0.00     0.074 A 
ATOM     46  C   UNL A   1      41.967  31.618  30.732  1.00  0.00     0.031 C 
ATOM     47  C   UNL A   1      40.853  25.518  27.745  1.00  0.00     0.029 A 
ATOM     48  C   UNL A   1      42.233  25.792  28.149  1.00  0.00     0.049 A 
ATOM     49  H   UNL A   1      42.932  27.482  29.144  1.00  0.00     0.167 HD
ATOM     50  C   UNL A   1      44.353  31.092  31.124  1.00  0.00     0.037 A 
ATOM     51  C   UNL A   1      43.292  24.978  27.950  1.00  0.00     0.037 A 
ATOM     52  C   UNL A   1      45.524  30.261  31.018  1.00  0.00     0.049 A 
ATOM     53  C   UNL A   1      44.667  25.407  28.414  1.00  0.00     0.074 A 
ATOM     54  C   UNL A   1      46.803  30.509  31.483  1.00  0.00     0.029 A 
ATOM     55  N   UNL A   1      45.560  29.024  30.394  1.00  0.00    -0.354 N 
ATOM     56  N   UNL A   1      45.027  26.492  29.057  1.00  0.00    -0.248 NA
ATOM     57  C   UNL A   1      45.784  24.494  28.123  1.00  0.00     0.031 C 
ATOM     58  C   UNL A   1      47.627  29.449  31.092  1.00  0.00     0.029 A 
ATOM     59  C   UNL A   1      46.846  28.508  30.443  1.00  0.00     0.049 A 
ATOM     60  H   UNL A   1      44.787  28.577  29.978  1.00  0.00     0.167 HD
ATOM     61  C   UNL A   1      46.395  26.369  29.281  1.00  0.00     0.074 A 
ATOM     62  C   UNL A   1      46.799  25.101  28.717  1.00  0.00     0.031 C 
ATOM     63  C   UNL A   1      47.239  27.232  29.900  1.00  0.00     0.037 A 
BRANCH  50  64
ATOM     64  C   UNL A   1      44.490  32.420  31.814  1.00  0.00     0.064 A 
ATOM     65  C   UNL A   1      44.878  33.575  31.120  1.00  0.00     0.173 A 
ATOM     66  C   UNL A   1      44.196  32.544  33.181  1.00  0.00     0.173 A 
ATOM     67  F   UNL A   1      45.185  33.509  29.815  1.00  0.00    -0.203 F 
ATOM     68  C   UNL A   1      44.994  34.799  31.773  1.00  0.00     0.198 A 
ATOM     69  C   UNL A   1      44.280  33.776  33.824  1.00  0.00     0.198 A 
ATOM     70  F   UNL A   1      43.815  31.472  33.892  1.00  0.00    -0.203 F 
ATOM     71  F   UNL A   1      45.418  35.878  31.101  1.00  0.00    -0.200 F 
ATOM     72  C   UNL A   1      44.687  34.901  33.122  1.00  0.00     0.200 A 
ATOM     73  F   UNL A   1      43.967  33.875  35.123  1.00  0.00    -0.200 F 
ATOM     74  F   UNL A   1      44.791  36.081  33.748  1.00  0.00    -0.200 F 
ENDBRANCH  50  64
BRANCH  51  75
ATOM     75  C   UNL A   1      43.123  23.672  27.251  1.00  0.00     0.064 A 
ATOM     76  C   UNL A   1      42.624  22.546  27.924  1.00  0.00     0.173 A 
ATOM     77  C   UNL A   1      43.521  23.503  25.916  1.00  0.00     0.173 A 
ATOM     78  F   UNL A   1      42.263  22.643  29.213  1.00  0.00    -0.203 F 
ATOM     79  C   UNL A   1      42.559  21.301  27.301  1.00  0.00     0.198 A 
ATOM     80  C   UNL A   1      43.421  22.266  25.282  1.00  0.00     0.198 A 
ATOM     81  F   UNL A   1      44.016  24.542  25.226  1.00  0.00    -0.203 F 
ATOM     82  F   UNL A   1      42.145  20.229  27.992  1.00  0.00    -0.200 F 
ATOM     83  C   UNL A   1      42.952  21.162  25.979  1.00  0.00     0.200 A 
ATOM     84  F   UNL A   1      43.796  22.139  24.002  1.00  0.00    -0.200 F 
ATOM     85  F   UNL A   1      42.895  19.964  25.382  1.00  0.00    -0.200 F 
ENDBRANCH  51  75
BRANCH  63  86
ATOM     86  C   UNL A   1      48.676  26.816  30.059  1.00  0.00     0.064 A 
ATOM     87  C   UNL A   1      49.667  27.183  29.136  1.00  0.00     0.173 A 
ATOM     88  C   UNL A   1      49.076  26.070  31.182  1.00  0.00     0.173 A 
ATOM     89  F   UNL A   1      49.341  27.887  28.042  1.00  0.00    -0.203 F 
ATOM     90  C   UNL A   1      50.993  26.796  29.313  1.00  0.00     0.198 A 
ATOM     91  C   UNL A   1      50.409  25.715  31.373  1.00  0.00     0.198 A 
ATOM     92  F   UNL A   1      48.174  25.698  32.103  1.00  0.00    -0.203 F 
ATOM     93  F   UNL A   1      51.911  27.115  28.390  1.00  0.00    -0.200 F 
ATOM     94  C   UNL A   1      51.364  26.070  30.435  1.00  0.00     0.200 A 
ATOM     95  F   UNL A   1      50.767  25.029  32.467  1.00  0.00    -0.200 F 
ATOM     96  F   UNL A   1      52.643  25.705  30.608  1.00  0.00    -0.200 F 
ENDBRANCH  63  86
ENDBRANCH  37  38
ENDBRANCH  30  32
ENDBRANCH  29  30
ENDBRANCH  28  29
ENDBRANCH  27  28
ENDBRANCH  26  27
ENDBRANCH  25  26
ENDBRANCH   1  25
TORSDOF 19
ENDMDL
