MODEL 1
REMARK VINA RESULT:     -10.9      0.000      0.000
REMARK SMILES C[C@H](NC(=O)c1ccc(C(C)(C)C)cc1)C(=O)N[C@@H](C(=O)OCCOCCOCCOC(=O)c1ccc(-c2c3nc(c(-c4c(F)c(F)c(F)c(F)c4F)c4ccc([nH]4)c(-c4c(F)c(F)c(F)c(F)c4F)c4nc(c(-c5c(F)c(F)c(F)c(F)c5F)c5ccc2[nH]5)C=C4)C=C3)cc1)[C@H](C)O
REMARK SMILES IDX 25 1 24 2 23 3 22 4 20 5 21 6 19 7 18 8 16 9 17 10 2 12 1 13
REMARK SMILES IDX 3 14 4 15 5 17 6 18 7 19 15 20 8 21 14 22 9 23 10 24 11 25
REMARK SMILES IDX 12 26 13 27 97 28 98 29 99 30 26 32 27 33 28 34 29 35 30 36
REMARK SMILES IDX 31 37 32 38 33 39 34 40 35 41 96 42 36 43 95 44 37 45 38 46
REMARK SMILES IDX 39 47 89 48 40 49 94 50 88 51 90 52 41 53 93 54 87 55 86 56
REMARK SMILES IDX 42 58 74 59 54 60 73 61 55 62 58 63 72 64 91 65 56 66 57 67
REMARK SMILES IDX 71 69 92 70 59 71 43 72 44 73 52 74 45 75 46 76 50 77 53 78
REMARK SMILES IDX 47 79 48 80 51 81 49 82 75 83 76 84 84 85 77 86 78 87 82 88
REMARK SMILES IDX 85 89 79 90 80 91 83 92 81 93 60 94 61 95 69 96 62 97 63 98
REMARK SMILES IDX 67 99 70 100 64 101 65 102 68 103 66 104
REMARK H PARENT 18 11 3 16 99 31 90 57 58 68
REMARK Flexibility Score: inf
ROOT
ATOM      1  O   UNL A   1      34.697  30.299  27.837  1.00  0.00    -0.376 OA
ENDROOT
BRANCH   1   2
ATOM      2  C   UNL A   1      33.480  30.135  27.107  1.00  0.00     0.202 C 
BRANCH   2   3
ATOM      3  C   UNL A   1      32.695  28.809  27.184  1.00  0.00     0.261 C 
BRANCH   3   4
ATOM      4  O   UNL A   1      31.856  28.547  26.039  1.00  0.00    -0.462 OA
BRANCH   4   5
ATOM      5  C   UNL A   1      32.379  27.754  25.059  1.00  0.00     0.331 C 
ATOM      6  O   UNL A   1      33.329  26.994  25.215  1.00  0.00    -0.250 OA
BRANCH   5   7
ATOM      7  C   UNL A   1      31.632  27.889  23.713  1.00  0.00     0.221 C 
BRANCH   7   8
ATOM      8  N   UNL A   1      30.215  27.452  23.688  1.00  0.00    -0.339 N 
ATOM      9  C   UNL A   1      29.649  26.307  24.173  1.00  0.00     0.243 C 
ATOM     10  O   UNL A   1      28.438  26.295  24.398  1.00  0.00    -0.273 OA
ATOM     11  H   UNL A   1      29.590  28.079  23.259  1.00  0.00     0.164 HD
BRANCH   9  12
ATOM     12  C   UNL A   1      30.533  25.095  24.480  1.00  0.00     0.168 C 
ATOM     13  C   UNL A   1      30.722  24.235  23.228  1.00  0.00     0.041 C 
BRANCH  12  14
ATOM     14  N   UNL A   1      29.925  24.444  25.656  1.00  0.00    -0.341 N 
ATOM     15  C   UNL A   1      30.457  23.598  26.588  1.00  0.00     0.251 C 
ATOM     16  H   UNL A   1      28.973  24.654  25.791  1.00  0.00     0.164 HD
ATOM     17  O   UNL A   1      29.772  23.145  27.496  1.00  0.00    -0.269 OA
BRANCH  15  18
ATOM     18  C   UNL A   1      31.851  23.183  26.415  1.00  0.00     0.039 A 
ATOM     19  C   UNL A   1      32.102  21.997  25.733  1.00  0.00     0.014 A 
ATOM     20  C   UNL A   1      32.885  24.047  26.766  1.00  0.00     0.014 A 
ATOM     21  C   UNL A   1      33.395  21.743  25.282  1.00  0.00     0.005 A 
ATOM     22  C   UNL A   1      34.169  23.797  26.289  1.00  0.00     0.005 A 
ATOM     23  C   UNL A   1      34.437  22.671  25.488  1.00  0.00    -0.043 A 
BRANCH  23  24
ATOM     24  C   UNL A   1      35.821  22.437  24.862  1.00  0.00    -0.013 C 
ATOM     25  C   UNL A   1      35.774  22.951  23.414  1.00  0.00     0.016 C 
ATOM     26  C   UNL A   1      36.923  23.187  25.647  1.00  0.00     0.016 C 
ATOM     27  C   UNL A   1      36.241  20.949  24.846  1.00  0.00     0.016 C 
ENDBRANCH  23  24
ENDBRANCH  15  18
ENDBRANCH  12  14
ENDBRANCH   9  12
ENDBRANCH   7   8
BRANCH   7  28
ATOM     28  C   UNL A   1      32.467  27.251  22.550  1.00  0.00     0.145 C 
ATOM     29  C   UNL A   1      33.672  28.074  22.088  1.00  0.00     0.041 C 
BRANCH  28  30
ATOM     30  O   UNL A   1      31.664  27.019  21.386  1.00  0.00    -0.391 OA
ATOM     31  H   UNL A   1      31.851  27.701  20.723  1.00  0.00     0.211 HD
ENDBRANCH  28  30
ENDBRANCH   7  28
ENDBRANCH   5   7
ENDBRANCH   4   5
ENDBRANCH   3   4
ENDBRANCH   2   3
ENDBRANCH   1   2
BRANCH   1  32
ATOM     32  C   UNL A   1      34.880  31.497  28.567  1.00  0.00     0.188 C 
BRANCH  32  33
ATOM     33  C   UNL A   1      35.632  32.635  27.882  1.00  0.00     0.188 C 
BRANCH  33  34
ATOM     34  O   UNL A   1      34.957  33.854  27.714  1.00  0.00    -0.376 OA
BRANCH  34  35
ATOM     35  C   UNL A   1      33.659  34.022  28.266  1.00  0.00     0.202 C 
BRANCH  35  36
ATOM     36  C   UNL A   1      33.264  35.190  29.195  1.00  0.00     0.261 C 
BRANCH  36  37
ATOM     37  O   UNL A   1      32.518  34.883  30.384  1.00  0.00    -0.460 OA
BRANCH  37  38
ATOM     38  C   UNL A   1      32.816  35.599  31.498  1.00  0.00     0.338 C 
ATOM     39  O   UNL A   1      32.159  36.490  31.990  1.00  0.00    -0.246 OA
BRANCH  38  40
ATOM     40  C   UNL A   1      33.953  34.921  32.180  1.00  0.00     0.060 A 
ATOM     41  C   UNL A   1      35.180  35.602  32.245  1.00  0.00     0.016 A 
ATOM     42  C   UNL A   1      33.822  33.662  32.768  1.00  0.00     0.016 A 
ATOM     43  C   UNL A   1      36.292  35.002  32.836  1.00  0.00     0.010 A 
ATOM     44  C   UNL A   1      34.945  33.045  33.336  1.00  0.00     0.010 A 
ATOM     45  C   UNL A   1      36.196  33.693  33.325  1.00  0.00    -0.014 A 
BRANCH  45  46
ATOM     46  C   UNL A   1      37.450  32.922  33.538  1.00  0.00     0.031 A 
ATOM     47  C   UNL A   1      38.211  33.166  34.818  1.00  0.00     0.074 A 
ATOM     48  C   UNL A   1      37.872  31.975  32.681  1.00  0.00     0.049 A 
ATOM     49  N   UNL A   1      39.316  32.618  35.253  1.00  0.00    -0.248 NA
ATOM     50  C   UNL A   1      37.637  34.167  35.733  1.00  0.00     0.031 C 
ATOM     51  C   UNL A   1      37.207  31.597  31.438  1.00  0.00     0.029 A 
ATOM     52  N   UNL A   1      38.974  31.154  32.739  1.00  0.00    -0.354 N 
ATOM     53  C   UNL A   1      39.570  33.209  36.484  1.00  0.00     0.074 A 
ATOM     54  C   UNL A   1      38.527  34.185  36.711  1.00  0.00     0.031 C 
ATOM     55  C   UNL A   1      37.918  30.621  30.845  1.00  0.00     0.029 A 
ATOM     56  C   UNL A   1      39.103  30.325  31.652  1.00  0.00     0.049 A 
ATOM     57  H   UNL A   1      39.610  31.162  33.489  1.00  0.00     0.167 HD
ATOM     58  C   UNL A   1      40.572  32.956  37.360  1.00  0.00     0.037 A 
ATOM     59  C   UNL A   1      40.076  29.445  31.341  1.00  0.00     0.037 A 
ATOM     60  C   UNL A   1      41.616  31.992  37.139  1.00  0.00     0.049 A 
ATOM     61  C   UNL A   1      41.229  29.239  32.295  1.00  0.00     0.074 A 
ATOM     62  C   UNL A   1      42.678  31.666  37.965  1.00  0.00     0.029 A 
ATOM     63  N   UNL A   1      41.733  31.202  36.006  1.00  0.00    -0.354 N 
ATOM     64  N   UNL A   1      41.453  29.790  33.463  1.00  0.00    -0.248 NA
ATOM     65  C   UNL A   1      42.261  28.273  31.887  1.00  0.00     0.031 C 
ATOM     66  C   UNL A   1      43.471  30.723  37.305  1.00  0.00     0.029 A 
ATOM     67  C   UNL A   1      42.863  30.405  36.101  1.00  0.00     0.049 A 
ATOM     68  H   UNL A   1      41.108  31.207  35.246  1.00  0.00     0.167 HD
ATOM     69  C   UNL A   1      42.621  29.209  33.946  1.00  0.00     0.074 A 
ATOM     70  C   UNL A   1      43.051  28.252  32.949  1.00  0.00     0.031 C 
ATOM     71  C   UNL A   1      43.275  29.442  35.112  1.00  0.00     0.037 A 
BRANCH  58  72
ATOM     72  C   UNL A   1      40.605  33.769  38.622  1.00  0.00     0.064 A 
ATOM     73  C   UNL A   1      41.412  34.911  38.748  1.00  0.00     0.173 A 
ATOM     74  C   UNL A   1      39.807  33.407  39.718  1.00  0.00     0.173 A 
ATOM     75  F   UNL A   1      42.209  35.290  37.737  1.00  0.00    -0.203 F 
ATOM     76  C   UNL A   1      41.441  35.640  39.934  1.00  0.00     0.198 A 
ATOM     77  C   UNL A   1      39.811  34.160  40.889  1.00  0.00     0.198 A 
ATOM     78  F   UNL A   1      39.017  32.326  39.651  1.00  0.00    -0.203 F 
ATOM     79  F   UNL A   1      42.262  36.693  40.051  1.00  0.00    -0.200 F 
ATOM     80  C   UNL A   1      40.635  35.270  41.000  1.00  0.00     0.200 A 
ATOM     81  F   UNL A   1      39.022  33.807  41.913  1.00  0.00    -0.200 F 
ATOM     82  F   UNL A   1      40.660  35.976  42.139  1.00  0.00    -0.200 F 
ENDBRANCH  58  72
BRANCH  59  83
ATOM     83  C   UNL A   1      40.019  28.685  30.062  1.00  0.00     0.064 A 
ATOM     84  C   UNL A   1      39.400  27.428  29.988  1.00  0.00     0.173 A 
ATOM     85  C   UNL A   1      40.630  29.177  28.898  1.00  0.00     0.173 A 
ATOM     86  F   UNL A   1      38.829  26.899  31.080  1.00  0.00    -0.203 F 
ATOM     87  C   UNL A   1      39.420  26.682  28.811  1.00  0.00     0.198 A 
ATOM     88  C   UNL A   1      40.618  28.445  27.712  1.00  0.00     0.198 A 
ATOM     89  F   UNL A   1      41.241  30.370  28.914  1.00  0.00    -0.203 F 
ATOM     90  F   UNL A   1      38.877  25.457  28.788  1.00  0.00    -0.200 F 
ATOM     91  C   UNL A   1      40.024  27.193  27.672  1.00  0.00     0.200 A 
ATOM     92  F   UNL A   1      41.195  28.947  26.613  1.00  0.00    -0.200 F 
ATOM     93  F   UNL A   1      40.044  26.474  26.542  1.00  0.00    -0.200 F 
ENDBRANCH  59  83
BRANCH  71  94
ATOM     94  C   UNL A   1      44.489  28.601  35.410  1.00  0.00     0.064 A 
ATOM     95  C   UNL A   1      44.403  27.378  36.093  1.00  0.00     0.173 A 
ATOM     96  C   UNL A   1      45.759  29.022  34.983  1.00  0.00     0.173 A 
ATOM     97  F   UNL A   1      43.217  26.930  36.528  1.00  0.00    -0.203 F 
ATOM     98  C   UNL A   1      45.546  26.634  36.378  1.00  0.00     0.198 A 
ATOM     99  C   UNL A   1      46.894  28.257  35.235  1.00  0.00     0.198 A 
ATOM    100  F   UNL A   1      45.900  30.177  34.314  1.00  0.00    -0.203 F 
ATOM    101  F   UNL A   1      45.446  25.505  37.091  1.00  0.00    -0.200 F 
ATOM    102  C   UNL A   1      46.789  27.071  35.944  1.00  0.00     0.200 A 
ATOM    103  F   UNL A   1      48.091  28.672  34.798  1.00  0.00    -0.200 F 
ATOM    104  F   UNL A   1      47.887  26.353  36.219  1.00  0.00    -0.200 F 
ENDBRANCH  71  94
ENDBRANCH  45  46
ENDBRANCH  38  40
ENDBRANCH  37  38
ENDBRANCH  36  37
ENDBRANCH  35  36
ENDBRANCH  34  35
ENDBRANCH  33  34
ENDBRANCH  32  33
ENDBRANCH   1  32
TORSDOF 24
ENDMDL
MODEL 2
REMARK VINA RESULT:     -10.2      5.236     10.700
REMARK SMILES C[C@H](NC(=O)c1ccc(C(C)(C)C)cc1)C(=O)N[C@@H](C(=O)OCCOCCOCCOC(=O)c1ccc(-c2c3nc(c(-c4c(F)c(F)c(F)c(F)c4F)c4ccc([nH]4)c(-c4c(F)c(F)c(F)c(F)c4F)c4nc(c(-c5c(F)c(F)c(F)c(F)c5F)c5ccc2[nH]5)C=C4)C=C3)cc1)[C@H](C)O
REMARK SMILES IDX 25 1 24 2 23 3 22 4 20 5 21 6 19 7 18 8 16 9 17 10 2 12 1 13
REMARK SMILES IDX 3 14 4 15 5 17 6 18 7 19 15 20 8 21 14 22 9 23 10 24 11 25
REMARK SMILES IDX 12 26 13 27 97 28 98 29 99 30 26 32 27 33 28 34 29 35 30 36
REMARK SMILES IDX 31 37 32 38 33 39 34 40 35 41 96 42 36 43 95 44 37 45 38 46
REMARK SMILES IDX 39 47 89 48 40 49 94 50 88 51 90 52 41 53 93 54 87 55 86 56
REMARK SMILES IDX 42 58 74 59 54 60 73 61 55 62 58 63 72 64 91 65 56 66 57 67
REMARK SMILES IDX 71 69 92 70 59 71 43 72 44 73 52 74 45 75 46 76 50 77 53 78
REMARK SMILES IDX 47 79 48 80 51 81 49 82 75 83 76 84 84 85 77 86 78 87 82 88
REMARK SMILES IDX 85 89 79 90 80 91 83 92 81 93 60 94 61 95 69 96 62 97 63 98
REMARK SMILES IDX 67 99 70 100 64 101 65 102 68 103 66 104
REMARK H PARENT 18 11 3 16 99 31 90 57 58 68
REMARK Flexibility Score: inf
ROOT
ATOM      1  O   UNL A   1      35.454  23.149  26.276  1.00  0.00    -0.376 OA
ENDROOT
BRANCH   1   2
ATOM      2  C   UNL A   1      35.448  24.249  25.364  1.00  0.00     0.202 C 
BRANCH   2   3
ATOM      3  C   UNL A   1      34.233  25.197  25.292  1.00  0.00     0.261 C 
BRANCH   3   4
ATOM      4  O   UNL A   1      34.370  26.267  24.333  1.00  0.00    -0.462 OA
BRANCH   4   5
ATOM      5  C   UNL A   1      33.424  27.251  24.367  1.00  0.00     0.331 C 
ATOM      6  O   UNL A   1      33.417  28.180  25.168  1.00  0.00    -0.250 OA
BRANCH   5   7
ATOM      7  C   UNL A   1      32.352  27.094  23.264  1.00  0.00     0.221 C 
BRANCH   7   8
ATOM      8  N   UNL A   1      32.843  26.953  21.871  1.00  0.00    -0.339 N 
ATOM      9  C   UNL A   1      32.987  25.828  21.110  1.00  0.00     0.243 C 
ATOM     10  O   UNL A   1      33.042  25.946  19.885  1.00  0.00    -0.273 OA
ATOM     11  H   UNL A   1      33.104  27.794  21.431  1.00  0.00     0.164 HD
BRANCH   9  12
ATOM     12  C   UNL A   1      33.017  24.454  21.785  1.00  0.00     0.168 C 
ATOM     13  C   UNL A   1      33.260  23.351  20.751  1.00  0.00     0.041 C 
BRANCH  12  14
ATOM     14  N   UNL A   1      31.777  24.369  22.577  1.00  0.00    -0.341 N 
ATOM     15  C   UNL A   1      31.274  23.362  23.353  1.00  0.00     0.251 C 
ATOM     16  H   UNL A   1      31.213  25.176  22.540  1.00  0.00     0.164 HD
ATOM     17  O   UNL A   1      30.200  23.483  23.929  1.00  0.00    -0.269 OA
BRANCH  15  18
ATOM     18  C   UNL A   1      32.021  22.103  23.403  1.00  0.00     0.039 A 
ATOM     19  C   UNL A   1      32.851  21.877  24.496  1.00  0.00     0.014 A 
ATOM     20  C   UNL A   1      31.760  21.100  22.474  1.00  0.00     0.014 A 
ATOM     21  C   UNL A   1      33.317  20.586  24.727  1.00  0.00     0.005 A 
ATOM     22  C   UNL A   1      32.209  19.806  22.728  1.00  0.00     0.005 A 
ATOM     23  C   UNL A   1      32.947  19.512  23.890  1.00  0.00    -0.043 A 
BRANCH  23  24
ATOM     24  C   UNL A   1      33.357  18.074  24.244  1.00  0.00    -0.013 C 
ATOM     25  C   UNL A   1      33.171  17.210  22.987  1.00  0.00     0.016 C 
ATOM     26  C   UNL A   1      34.832  18.014  24.707  1.00  0.00     0.016 C 
ATOM     27  C   UNL A   1      32.521  17.465  25.393  1.00  0.00     0.016 C 
ENDBRANCH  23  24
ENDBRANCH  15  18
ENDBRANCH  12  14
ENDBRANCH   9  12
ENDBRANCH   7   8
BRANCH   7  28
ATOM     28  C   UNL A   1      31.256  28.206  23.394  1.00  0.00     0.145 C 
ATOM     29  C   UNL A   1      29.821  27.737  23.143  1.00  0.00     0.041 C 
BRANCH  28  30
ATOM     30  O   UNL A   1      31.492  29.292  22.490  1.00  0.00    -0.391 OA
ATOM     31  H   UNL A   1      30.991  29.147  21.672  1.00  0.00     0.211 HD
ENDBRANCH  28  30
ENDBRANCH   7  28
ENDBRANCH   5   7
ENDBRANCH   4   5
ENDBRANCH   3   4
ENDBRANCH   2   3
ENDBRANCH   1   2
BRANCH   1  32
ATOM     32  C   UNL A   1      36.256  22.027  25.961  1.00  0.00     0.188 C 
BRANCH  32  33
ATOM     33  C   UNL A   1      37.558  22.278  25.205  1.00  0.00     0.188 C 
BRANCH  33  34
ATOM     34  O   UNL A   1      38.683  21.525  25.577  1.00  0.00    -0.376 OA
BRANCH  34  35
ATOM     35  C   UNL A   1      38.714  20.129  25.314  1.00  0.00     0.202 C 
BRANCH  35  36
ATOM     36  C   UNL A   1      39.861  19.196  25.758  1.00  0.00     0.261 C 
BRANCH  36  37
ATOM     37  O   UNL A   1      40.777  19.680  26.754  1.00  0.00    -0.460 OA
BRANCH  37  38
ATOM     38  C   UNL A   1      41.893  20.309  26.307  1.00  0.00     0.338 C 
ATOM     39  O   UNL A   1      42.676  19.904  25.476  1.00  0.00    -0.246 OA
BRANCH  38  40
ATOM     40  C   UNL A   1      41.851  21.712  26.804  1.00  0.00     0.060 A 
ATOM     41  C   UNL A   1      41.481  22.719  25.898  1.00  0.00     0.016 A 
ATOM     42  C   UNL A   1      42.138  22.038  28.131  1.00  0.00     0.016 A 
ATOM     43  C   UNL A   1      41.463  24.056  26.295  1.00  0.00     0.010 A 
ATOM     44  C   UNL A   1      42.149  23.383  28.524  1.00  0.00     0.010 A 
ATOM     45  C   UNL A   1      41.861  24.401  27.593  1.00  0.00    -0.014 A 
BRANCH  45  46
ATOM     46  C   UNL A   1      42.257  25.809  27.864  1.00  0.00     0.031 A 
ATOM     47  C   UNL A   1      43.595  26.271  27.342  1.00  0.00     0.074 A 
ATOM     48  C   UNL A   1      41.440  26.685  28.475  1.00  0.00     0.049 A 
ATOM     49  N   UNL A   1      44.167  27.444  27.427  1.00  0.00    -0.248 NA
ATOM     50  C   UNL A   1      44.392  25.265  26.621  1.00  0.00     0.031 C 
ATOM     51  C   UNL A   1      40.101  26.391  28.978  1.00  0.00     0.029 A 
ATOM     52  N   UNL A   1      41.628  28.015  28.771  1.00  0.00    -0.354 N 
ATOM     53  C   UNL A   1      45.388  27.315  26.777  1.00  0.00     0.074 A 
ATOM     54  C   UNL A   1      45.492  25.941  26.336  1.00  0.00     0.031 C 
ATOM     55  C   UNL A   1      39.589  27.507  29.528  1.00  0.00     0.029 A 
ATOM     56  C   UNL A   1      40.574  28.586  29.441  1.00  0.00     0.049 A 
ATOM     57  H   UNL A   1      42.442  28.510  28.526  1.00  0.00     0.167 HD
ATOM     58  C   UNL A   1      46.336  28.255  26.550  1.00  0.00     0.037 A 
ATOM     59  C   UNL A   1      40.434  29.831  29.940  1.00  0.00     0.037 A 
ATOM     60  C   UNL A   1      46.243  29.622  26.990  1.00  0.00     0.049 A 
ATOM     61  C   UNL A   1      41.541  30.842  29.747  1.00  0.00     0.074 A 
ATOM     62  C   UNL A   1      47.152  30.649  26.813  1.00  0.00     0.029 A 
ATOM     63  N   UNL A   1      45.176  30.150  27.702  1.00  0.00    -0.354 N 
ATOM     64  N   UNL A   1      42.684  30.716  29.118  1.00  0.00    -0.248 NA
ATOM     65  C   UNL A   1      41.326  32.176  30.327  1.00  0.00     0.031 C 
ATOM     66  C   UNL A   1      46.665  31.783  27.470  1.00  0.00     0.029 A 
ATOM     67  C   UNL A   1      45.416  31.484  27.991  1.00  0.00     0.049 A 
ATOM     68  H   UNL A   1      44.369  29.651  27.964  1.00  0.00     0.167 HD
ATOM     69  C   UNL A   1      43.301  31.960  29.188  1.00  0.00     0.074 A 
ATOM     70  C   UNL A   1      42.399  32.831  29.911  1.00  0.00     0.031 C 
ATOM     71  C   UNL A   1      44.505  32.349  28.696  1.00  0.00     0.037 A 
BRANCH  58  72
ATOM     72  C   UNL A   1      47.577  27.821  25.824  1.00  0.00     0.064 A 
ATOM     73  C   UNL A   1      48.756  27.484  26.508  1.00  0.00     0.173 A 
ATOM     74  C   UNL A   1      47.582  27.729  24.424  1.00  0.00     0.173 A 
ATOM     75  F   UNL A   1      48.811  27.574  27.846  1.00  0.00    -0.203 F 
ATOM     76  C   UNL A   1      49.901  27.102  25.814  1.00  0.00     0.198 A 
ATOM     77  C   UNL A   1      48.719  27.311  23.737  1.00  0.00     0.198 A 
ATOM     78  F   UNL A   1      46.482  28.039  23.723  1.00  0.00    -0.203 F 
ATOM     79  F   UNL A   1      51.032  26.841  26.484  1.00  0.00    -0.200 F 
ATOM     80  C   UNL A   1      49.880  27.007  24.431  1.00  0.00     0.200 A 
ATOM     81  F   UNL A   1      48.691  27.209  22.401  1.00  0.00    -0.200 F 
ATOM     82  F   UNL A   1      50.981  26.633  23.765  1.00  0.00    -0.200 F 
ENDBRANCH  58  72
BRANCH  59  83
ATOM     83  C   UNL A   1      39.199  30.207  30.682  1.00  0.00     0.064 A 
ATOM     84  C   UNL A   1      38.122  30.831  30.035  1.00  0.00     0.173 A 
ATOM     85  C   UNL A   1      39.093  29.999  32.066  1.00  0.00     0.173 A 
ATOM     86  F   UNL A   1      38.186  31.081  28.719  1.00  0.00    -0.203 F 
ATOM     87  C   UNL A   1      37.001  31.256  30.746  1.00  0.00     0.198 A 
ATOM     88  C   UNL A   1      37.956  30.394  32.770  1.00  0.00     0.198 A 
ATOM     89  F   UNL A   1      40.096  29.413  32.735  1.00  0.00    -0.203 F 
ATOM     90  F   UNL A   1      36.015  31.906  30.113  1.00  0.00    -0.200 F 
ATOM     91  C   UNL A   1      36.917  31.033  32.112  1.00  0.00     0.200 A 
ATOM     92  F   UNL A   1      37.877  30.167  34.087  1.00  0.00    -0.200 F 
ATOM     93  F   UNL A   1      35.840  31.444  32.796  1.00  0.00    -0.200 F 
ENDBRANCH  59  83
BRANCH  71  94
ATOM     94  C   UNL A   1      44.889  33.796  28.857  1.00  0.00     0.064 A 
ATOM     95  C   UNL A   1      45.633  34.255  29.954  1.00  0.00     0.173 A 
ATOM     96  C   UNL A   1      44.520  34.735  27.879  1.00  0.00     0.173 A 
ATOM     97  F   UNL A   1      46.006  33.404  30.921  1.00  0.00    -0.203 F 
ATOM     98  C   UNL A   1      45.951  35.605  30.090  1.00  0.00     0.198 A 
ATOM     99  C   UNL A   1      44.874  36.076  27.998  1.00  0.00     0.198 A 
ATOM    100  F   UNL A   1      43.820  34.351  26.801  1.00  0.00    -0.203 F 
ATOM    101  F   UNL A   1      46.602  36.030  31.181  1.00  0.00    -0.200 F 
ATOM    102  C   UNL A   1      45.577  36.513  29.110  1.00  0.00     0.200 A 
ATOM    103  F   UNL A   1      44.528  36.947  27.040  1.00  0.00    -0.200 F 
ATOM    104  F   UNL A   1      45.885  37.811  29.244  1.00  0.00    -0.200 F 
ENDBRANCH  71  94
ENDBRANCH  45  46
ENDBRANCH  38  40
ENDBRANCH  37  38
ENDBRANCH  36  37
ENDBRANCH  35  36
ENDBRANCH  34  35
ENDBRANCH  33  34
ENDBRANCH  32  33
ENDBRANCH   1  32
TORSDOF 24
ENDMDL
MODEL 3
REMARK VINA RESULT:     -10.0      6.653     12.161
REMARK SMILES C[C@H](NC(=O)c1ccc(C(C)(C)C)cc1)C(=O)N[C@@H](C(=O)OCCOCCOCCOC(=O)c1ccc(-c2c3nc(c(-c4c(F)c(F)c(F)c(F)c4F)c4ccc([nH]4)c(-c4c(F)c(F)c(F)c(F)c4F)c4nc(c(-c5c(F)c(F)c(F)c(F)c5F)c5ccc2[nH]5)C=C4)C=C3)cc1)[C@H](C)O
REMARK SMILES IDX 25 1 24 2 23 3 22 4 20 5 21 6 19 7 18 8 16 9 17 10 2 12 1 13
REMARK SMILES IDX 3 14 4 15 5 17 6 18 7 19 15 20 8 21 14 22 9 23 10 24 11 25
REMARK SMILES IDX 12 26 13 27 97 28 98 29 99 30 26 32 27 33 28 34 29 35 30 36
REMARK SMILES IDX 31 37 32 38 33 39 34 40 35 41 96 42 36 43 95 44 37 45 38 46
REMARK SMILES IDX 39 47 89 48 40 49 94 50 88 51 90 52 41 53 93 54 87 55 86 56
REMARK SMILES IDX 42 58 74 59 54 60 73 61 55 62 58 63 72 64 91 65 56 66 57 67
REMARK SMILES IDX 71 69 92 70 59 71 43 72 44 73 52 74 45 75 46 76 50 77 53 78
REMARK SMILES IDX 47 79 48 80 51 81 49 82 75 83 76 84 84 85 77 86 78 87 82 88
REMARK SMILES IDX 85 89 79 90 80 91 83 92 81 93 60 94 61 95 69 96 62 97 63 98
REMARK SMILES IDX 67 99 70 100 64 101 65 102 68 103 66 104
REMARK H PARENT 18 11 3 16 99 31 90 57 58 68
REMARK Flexibility Score: inf
ROOT
ATOM      1  O   UNL A   1      37.854  22.264  25.941  1.00  0.00    -0.376 OA
ENDROOT
BRANCH   1   2
ATOM      2  C   UNL A   1      37.412  23.376  25.159  1.00  0.00     0.202 C 
BRANCH   2   3
ATOM      3  C   UNL A   1      36.400  23.170  24.013  1.00  0.00     0.261 C 
BRANCH   3   4
ATOM      4  O   UNL A   1      35.107  22.690  24.441  1.00  0.00    -0.462 OA
BRANCH   4   5
ATOM      5  C   UNL A   1      34.016  23.199  23.798  1.00  0.00     0.331 C 
ATOM      6  O   UNL A   1      34.069  23.965  22.841  1.00  0.00    -0.250 OA
BRANCH   5   7
ATOM      7  C   UNL A   1      32.679  22.694  24.388  1.00  0.00     0.221 C 
BRANCH   7   8
ATOM      8  N   UNL A   1      32.234  23.313  25.660  1.00  0.00    -0.339 N 
ATOM      9  C   UNL A   1      31.472  24.428  25.864  1.00  0.00     0.243 C 
ATOM     10  O   UNL A   1      30.902  24.564  26.947  1.00  0.00    -0.273 OA
ATOM     11  H   UNL A   1      32.532  22.853  26.477  1.00  0.00     0.164 HD
BRANCH   9  12
ATOM     12  C   UNL A   1      31.296  25.445  24.733  1.00  0.00     0.168 C 
ATOM     13  C   UNL A   1      30.640  24.790  23.516  1.00  0.00     0.041 C 
BRANCH  12  14
ATOM     14  N   UNL A   1      32.624  26.054  24.533  1.00  0.00    -0.341 N 
ATOM     15  C   UNL A   1      32.984  27.295  24.087  1.00  0.00     0.251 C 
ATOM     16  H   UNL A   1      33.380  25.466  24.759  1.00  0.00     0.164 HD
ATOM     17  O   UNL A   1      34.162  27.611  23.976  1.00  0.00    -0.269 OA
BRANCH  15  18
ATOM     18  C   UNL A   1      31.915  28.204  23.665  1.00  0.00     0.039 A 
ATOM     19  C   UNL A   1      31.335  27.999  22.418  1.00  0.00     0.014 A 
ATOM     20  C   UNL A   1      31.385  29.122  24.567  1.00  0.00     0.014 A 
ATOM     21  C   UNL A   1      30.129  28.631  22.127  1.00  0.00     0.005 A 
ATOM     22  C   UNL A   1      30.164  29.729  24.278  1.00  0.00     0.005 A 
ATOM     23  C   UNL A   1      29.484  29.450  23.078  1.00  0.00    -0.043 A 
BRANCH  23  24
ATOM     24  C   UNL A   1      28.088  30.023  22.790  1.00  0.00    -0.013 C 
ATOM     25  C   UNL A   1      28.030  30.391  21.299  1.00  0.00     0.016 C 
ATOM     26  C   UNL A   1      26.984  28.988  23.116  1.00  0.00     0.016 C 
ATOM     27  C   UNL A   1      27.758  31.281  23.625  1.00  0.00     0.016 C 
ENDBRANCH  23  24
ENDBRANCH  15  18
ENDBRANCH  12  14
ENDBRANCH   9  12
ENDBRANCH   7   8
BRANCH   7  28
ATOM     28  C   UNL A   1      32.660  21.128  24.454  1.00  0.00     0.145 C 
ATOM     29  C   UNL A   1      32.172  20.429  23.182  1.00  0.00     0.041 C 
BRANCH  28  30
ATOM     30  O   UNL A   1      31.831  20.653  25.521  1.00  0.00    -0.391 OA
ATOM     31  H   UNL A   1      32.380  20.468  26.300  1.00  0.00     0.211 HD
ENDBRANCH  28  30
ENDBRANCH   7  28
ENDBRANCH   5   7
ENDBRANCH   4   5
ENDBRANCH   3   4
ENDBRANCH   2   3
ENDBRANCH   1   2
BRANCH   1  32
ATOM     32  C   UNL A   1      39.196  22.257  26.390  1.00  0.00     0.188 C 
BRANCH  32  33
ATOM     33  C   UNL A   1      39.970  20.946  26.283  1.00  0.00     0.188 C 
BRANCH  33  34
ATOM     34  O   UNL A   1      40.858  20.628  27.323  1.00  0.00    -0.376 OA
BRANCH  34  35
ATOM     35  C   UNL A   1      41.532  19.377  27.315  1.00  0.00     0.202 C 
BRANCH  35  36
ATOM     36  C   UNL A   1      42.384  18.867  26.134  1.00  0.00     0.261 C 
BRANCH  36  37
ATOM     37  O   UNL A   1      42.752  19.808  25.112  1.00  0.00    -0.460 OA
BRANCH  37  38
ATOM     38  C   UNL A   1      44.048  19.799  24.707  1.00  0.00     0.338 C 
ATOM     39  O   UNL A   1      44.600  18.947  24.046  1.00  0.00    -0.246 OA
BRANCH  38  40
ATOM     40  C   UNL A   1      44.615  21.150  24.975  1.00  0.00     0.060 A 
ATOM     41  C   UNL A   1      45.143  21.399  26.252  1.00  0.00     0.016 A 
ATOM     42  C   UNL A   1      44.657  22.144  23.995  1.00  0.00     0.016 A 
ATOM     43  C   UNL A   1      45.651  22.657  26.573  1.00  0.00     0.010 A 
ATOM     44  C   UNL A   1      45.140  23.417  24.326  1.00  0.00     0.010 A 
ATOM     45  C   UNL A   1      45.591  23.692  25.632  1.00  0.00    -0.014 A 
BRANCH  45  46
ATOM     46  C   UNL A   1      45.717  25.095  26.110  1.00  0.00     0.031 A 
ATOM     47  C   UNL A   1      47.071  25.751  26.001  1.00  0.00     0.074 A 
ATOM     48  C   UNL A   1      44.664  25.807  26.551  1.00  0.00     0.049 A 
ATOM     49  N   UNL A   1      47.444  26.962  26.329  1.00  0.00    -0.248 NA
ATOM     50  C   UNL A   1      48.150  24.923  25.440  1.00  0.00     0.031 C 
ATOM     51  C   UNL A   1      43.292  25.318  26.655  1.00  0.00     0.029 A 
ATOM     52  N   UNL A   1      44.594  27.107  26.992  1.00  0.00    -0.354 N 
ATOM     53  C   UNL A   1      48.795  27.036  26.018  1.00  0.00     0.074 A 
ATOM     54  C   UNL A   1      49.188  25.739  25.513  1.00  0.00     0.031 C 
ATOM     55  C   UNL A   1      42.515  26.305  27.137  1.00  0.00     0.029 A 
ATOM     56  C   UNL A   1      43.339  27.485  27.402  1.00  0.00     0.049 A 
ATOM     57  H   UNL A   1      45.372  27.710  27.012  1.00  0.00     0.167 HD
ATOM     58  C   UNL A   1      49.638  28.091  26.128  1.00  0.00     0.037 A 
ATOM     59  C   UNL A   1      42.914  28.645  27.943  1.00  0.00     0.037 A 
ATOM     60  C   UNL A   1      49.257  29.382  26.636  1.00  0.00     0.049 A 
ATOM     61  C   UNL A   1      43.891  29.782  28.133  1.00  0.00     0.074 A 
ATOM     62  C   UNL A   1      50.039  30.513  26.789  1.00  0.00     0.029 A 
ATOM     63  N   UNL A   1      47.986  29.711  27.078  1.00  0.00    -0.354 N 
ATOM     64  N   UNL A   1      45.163  29.849  27.822  1.00  0.00    -0.248 NA
ATOM     65  C   UNL A   1      43.363  31.013  28.740  1.00  0.00     0.031 C 
ATOM     66  C   UNL A   1      49.256  31.508  27.382  1.00  0.00     0.029 A 
ATOM     67  C   UNL A   1      47.967  31.023  27.527  1.00  0.00     0.049 A 
ATOM     68  H   UNL A   1      47.211  29.104  27.076  1.00  0.00     0.167 HD
ATOM     69  C   UNL A   1      45.573  31.136  28.154  1.00  0.00     0.074 A 
ATOM     70  C   UNL A   1      44.411  31.820  28.678  1.00  0.00     0.031 C 
ATOM     71  C   UNL A   1      46.801  31.702  28.031  1.00  0.00     0.037 A 
BRANCH  58  72
ATOM     72  C   UNL A   1      51.068  27.875  25.726  1.00  0.00     0.064 A 
ATOM     73  C   UNL A   1      51.519  28.134  24.421  1.00  0.00     0.173 A 
ATOM     74  C   UNL A   1      52.006  27.414  26.663  1.00  0.00     0.173 A 
ATOM     75  F   UNL A   1      50.660  28.557  23.481  1.00  0.00    -0.203 F 
ATOM     76  C   UNL A   1      52.846  27.909  24.064  1.00  0.00     0.198 A 
ATOM     77  C   UNL A   1      53.340  27.226  26.311  1.00  0.00     0.198 A 
ATOM     78  F   UNL A   1      51.629  27.152  27.923  1.00  0.00    -0.203 F 
ATOM     79  F   UNL A   1      53.240  28.108  22.799  1.00  0.00    -0.200 F 
ATOM     80  C   UNL A   1      53.757  27.464  25.010  1.00  0.00     0.200 A 
ATOM     81  F   UNL A   1      54.220  26.807  27.231  1.00  0.00    -0.200 F 
ATOM     82  F   UNL A   1      55.035  27.254  24.667  1.00  0.00    -0.200 F 
ENDBRANCH  58  72
BRANCH  59  83
ATOM     83  C   UNL A   1      41.493  28.803  28.358  1.00  0.00     0.064 A 
ATOM     84  C   UNL A   1      41.099  28.613  29.691  1.00  0.00     0.173 A 
ATOM     85  C   UNL A   1      40.491  29.095  27.420  1.00  0.00     0.173 A 
ATOM     86  F   UNL A   1      42.013  28.300  30.621  1.00  0.00    -0.203 F 
ATOM     87  C   UNL A   1      39.757  28.680  30.063  1.00  0.00     0.198 A 
ATOM     88  C   UNL A   1      39.154  29.196  27.800  1.00  0.00     0.198 A 
ATOM     89  F   UNL A   1      40.813  29.280  26.131  1.00  0.00    -0.203 F 
ATOM     90  F   UNL A   1      39.402  28.430  31.331  1.00  0.00    -0.200 F 
ATOM     91  C   UNL A   1      38.786  28.977  29.118  1.00  0.00     0.200 A 
ATOM     92  F   UNL A   1      38.222  29.493  26.885  1.00  0.00    -0.200 F 
ATOM     93  F   UNL A   1      37.497  29.039  29.476  1.00  0.00    -0.200 F 
ENDBRANCH  59  83
BRANCH  71  94
ATOM     94  C   UNL A   1      46.938  33.155  28.404  1.00  0.00     0.064 A 
ATOM     95  C   UNL A   1      47.314  33.565  29.692  1.00  0.00     0.173 A 
ATOM     96  C   UNL A   1      46.707  34.153  27.443  1.00  0.00     0.173 A 
ATOM     97  F   UNL A   1      47.542  32.655  30.650  1.00  0.00    -0.203 F 
ATOM     98  C   UNL A   1      47.407  34.917  30.015  1.00  0.00     0.198 A 
ATOM     99  C   UNL A   1      46.839  35.502  27.759  1.00  0.00     0.198 A 
ATOM    100  F   UNL A   1      46.357  33.820  26.191  1.00  0.00    -0.203 F 
ATOM    101  F   UNL A   1      47.701  35.284  31.270  1.00  0.00    -0.200 F 
ATOM    102  C   UNL A   1      47.175  35.884  29.048  1.00  0.00     0.200 A 
ATOM    103  F   UNL A   1      46.634  36.433  26.817  1.00  0.00    -0.200 F 
ATOM    104  F   UNL A   1      47.266  37.184  29.362  1.00  0.00    -0.200 F 
ENDBRANCH  71  94
ENDBRANCH  45  46
ENDBRANCH  38  40
ENDBRANCH  37  38
ENDBRANCH  36  37
ENDBRANCH  35  36
ENDBRANCH  34  35
ENDBRANCH  33  34
ENDBRANCH  32  33
ENDBRANCH   1  32
TORSDOF 24
ENDMDL
