MODEL 1
REMARK VINA RESULT:     -12.3      0.000      0.000
REMARK SMILES O=C(OCCOCCOCCOC(=O)[C@H]1CCCN(c2cc(-c3ccccn3)nc(-c3ccccc3F)n2)C1)c1ccc(-c2c3nc(c(-c4c(F)c(F)c(F)c(F)c4F)c4ccc([nH]4)c(-c4c(F)c(F)c(F)c(F)c4F)c4nc(c(-c5c(F)c(F)c(F)c(F)c5F)c5ccc2[nH]5)C=C4)C=C3)cc1
REMARK SMILES IDX 7 1 6 2 5 3 4 4 3 5 2 6 1 7 40 8 41 9 102 10 42 11 101 12
REMARK SMILES IDX 43 13 44 14 45 15 95 16 46 17 100 18 94 19 96 20 47 21 99 22
REMARK SMILES IDX 93 23 92 24 48 26 80 27 60 28 79 29 61 30 64 31 78 32 97 33
REMARK SMILES IDX 62 34 63 35 77 37 98 38 65 39 49 40 50 41 58 42 51 43 52 44
REMARK SMILES IDX 56 45 59 46 53 47 54 48 57 49 55 50 81 51 82 52 90 53 83 54
REMARK SMILES IDX 84 55 88 56 91 57 85 58 86 59 89 60 87 61 66 62 67 63 75 64
REMARK SMILES IDX 68 65 69 66 73 67 76 68 70 69 71 70 74 71 72 72 8 73 9 74
REMARK SMILES IDX 10 75 11 76 12 77 13 78 14 79 15 80 16 81 39 82 17 83 19 84
REMARK SMILES IDX 18 85 20 86 21 87 38 88 22 89 30 90 29 91 23 92 24 93 28 94
REMARK SMILES IDX 25 95 27 96 26 97 31 98 32 99 36 100 33 101 35 102 37 103
REMARK SMILES IDX 34 104
REMARK H PARENT 96 25 64 36
REMARK Flexibility Score: inf
ROOT
ATOM      1  C   UNL A   1      35.681  21.662  24.630  1.00  0.00     0.188 C 
ENDROOT
BRANCH   1   2
ATOM      2  O   UNL A   1      37.041  21.349  24.308  1.00  0.00    -0.376 OA
BRANCH   2   3
ATOM      3  C   UNL A   1      37.708  20.635  25.359  1.00  0.00     0.202 C 
BRANCH   3   4
ATOM      4  C   UNL A   1      38.745  19.594  24.889  1.00  0.00     0.261 C 
BRANCH   4   5
ATOM      5  O   UNL A   1      39.709  19.234  25.897  1.00  0.00    -0.460 OA
BRANCH   5   6
ATOM      6  C   UNL A   1      40.933  19.766  26.153  1.00  0.00     0.338 C 
ATOM      7  O   UNL A   1      41.922  19.048  26.011  1.00  0.00    -0.246 OA
BRANCH   6   8
ATOM      8  C   UNL A   1      41.158  21.179  26.593  1.00  0.00     0.060 A 
ATOM      9  C   UNL A   1      40.818  22.305  25.853  1.00  0.00     0.016 A 
ATOM     10  C   UNL A   1      41.735  21.392  27.861  1.00  0.00     0.016 A 
ATOM     11  C   UNL A   1      41.146  23.583  26.268  1.00  0.00     0.010 A 
ATOM     12  C   UNL A   1      42.006  22.688  28.326  1.00  0.00     0.010 A 
ATOM     13  C   UNL A   1      41.744  23.791  27.504  1.00  0.00    -0.014 A 
BRANCH  13  14
ATOM     14  C   UNL A   1      42.187  25.168  27.807  1.00  0.00     0.031 A 
ATOM     15  C   UNL A   1      43.554  25.591  27.395  1.00  0.00     0.074 A 
ATOM     16  C   UNL A   1      41.316  26.093  28.254  1.00  0.00     0.049 A 
ATOM     17  N   UNL A   1      44.121  26.758  27.538  1.00  0.00    -0.248 NA
ATOM     18  C   UNL A   1      44.367  24.601  26.672  1.00  0.00     0.031 C 
ATOM     19  C   UNL A   1      39.905  25.839  28.486  1.00  0.00     0.029 A 
ATOM     20  N   UNL A   1      41.468  27.416  28.595  1.00  0.00    -0.354 N 
ATOM     21  C   UNL A   1      45.325  26.662  26.868  1.00  0.00     0.074 A 
ATOM     22  C   UNL A   1      45.452  25.304  26.388  1.00  0.00     0.031 C 
ATOM     23  C   UNL A   1      39.340  26.945  28.981  1.00  0.00     0.029 A 
ATOM     24  C   UNL A   1      40.340  27.966  29.168  1.00  0.00     0.049 A 
ATOM     25  H   UNL A   1      42.300  27.920  28.446  1.00  0.00     0.167 HD
ATOM     26  C   UNL A   1      46.219  27.645  26.633  1.00  0.00     0.037 A 
ATOM     27  C   UNL A   1      40.170  29.142  29.800  1.00  0.00     0.037 A 
ATOM     28  C   UNL A   1      46.081  28.997  27.098  1.00  0.00     0.049 A 
ATOM     29  C   UNL A   1      41.284  30.131  29.720  1.00  0.00     0.074 A 
ATOM     30  C   UNL A   1      46.956  30.055  26.937  1.00  0.00     0.029 A 
ATOM     31  N   UNL A   1      44.997  29.479  27.816  1.00  0.00    -0.354 N 
ATOM     32  N   UNL A   1      42.457  30.005  29.156  1.00  0.00    -0.248 NA
ATOM     33  C   UNL A   1      41.015  31.457  30.293  1.00  0.00     0.031 C 
ATOM     34  C   UNL A   1      46.432  31.162  27.609  1.00  0.00     0.029 A 
ATOM     35  C   UNL A   1      45.205  30.809  28.141  1.00  0.00     0.049 A 
ATOM     36  H   UNL A   1      44.199  28.954  28.058  1.00  0.00     0.167 HD
ATOM     37  C   UNL A   1      43.061  31.238  29.294  1.00  0.00     0.074 A 
ATOM     38  C   UNL A   1      42.119  32.105  29.970  1.00  0.00     0.031 C 
ATOM     39  C   UNL A   1      44.287  31.626  28.879  1.00  0.00     0.037 A 
BRANCH  26  40
ATOM     40  C   UNL A   1      47.442  27.286  25.857  1.00  0.00     0.064 A 
ATOM     41  C   UNL A   1      48.570  26.795  26.526  1.00  0.00     0.173 A 
ATOM     42  C   UNL A   1      47.519  27.482  24.471  1.00  0.00     0.173 A 
ATOM     43  F   UNL A   1      48.527  26.576  27.848  1.00  0.00    -0.203 F 
ATOM     44  C   UNL A   1      49.750  26.544  25.837  1.00  0.00     0.198 A 
ATOM     45  C   UNL A   1      48.695  27.207  23.781  1.00  0.00     0.198 A 
ATOM     46  F   UNL A   1      46.449  27.916  23.788  1.00  0.00    -0.203 F 
ATOM     47  F   UNL A   1      50.829  26.108  26.502  1.00  0.00    -0.200 F 
ATOM     48  C   UNL A   1      49.813  26.753  24.468  1.00  0.00     0.200 A 
ATOM     49  F   UNL A   1      48.747  27.378  22.453  1.00  0.00    -0.200 F 
ATOM     50  F   UNL A   1      50.952  26.511  23.806  1.00  0.00    -0.200 F 
ENDBRANCH  26  40
BRANCH  27  51
ATOM     51  C   UNL A   1      38.979  29.519  30.606  1.00  0.00     0.064 A 
ATOM     52  C   UNL A   1      39.026  29.380  32.006  1.00  0.00     0.173 A 
ATOM     53  C   UNL A   1      37.923  30.261  30.065  1.00  0.00     0.173 A 
ATOM     54  F   UNL A   1      40.101  28.823  32.581  1.00  0.00    -0.203 F 
ATOM     55  C   UNL A   1      38.040  29.924  32.828  1.00  0.00     0.198 A 
ATOM     56  C   UNL A   1      36.953  30.835  30.892  1.00  0.00     0.198 A 
ATOM     57  F   UNL A   1      37.890  30.518  28.750  1.00  0.00    -0.203 F 
ATOM     58  F   UNL A   1      38.122  29.794  34.159  1.00  0.00    -0.200 F 
ATOM     59  C   UNL A   1      37.008  30.661  32.268  1.00  0.00     0.200 A 
ATOM     60  F   UNL A   1      35.990  31.600  30.359  1.00  0.00    -0.200 F 
ATOM     61  F   UNL A   1      36.088  31.235  33.057  1.00  0.00    -0.200 F 
ENDBRANCH  27  51
BRANCH  39  62
ATOM     62  C   UNL A   1      44.655  33.037  29.189  1.00  0.00     0.064 A 
ATOM     63  C   UNL A   1      44.341  34.065  28.292  1.00  0.00     0.173 A 
ATOM     64  C   UNL A   1      45.258  33.375  30.409  1.00  0.00     0.173 A 
ATOM     65  F   UNL A   1      43.748  33.786  27.121  1.00  0.00    -0.203 F 
ATOM     66  C   UNL A   1      44.619  35.389  28.607  1.00  0.00     0.198 A 
ATOM     67  C   UNL A   1      45.500  34.703  30.737  1.00  0.00     0.198 A 
ATOM     68  F   UNL A   1      45.535  32.422  31.313  1.00  0.00    -0.203 F 
ATOM     69  F   UNL A   1      44.318  36.360  27.734  1.00  0.00    -0.200 F 
ATOM     70  C   UNL A   1      45.186  35.707  29.833  1.00  0.00     0.200 A 
ATOM     71  F   UNL A   1      46.002  35.012  31.939  1.00  0.00    -0.200 F 
ATOM     72  F   UNL A   1      45.413  36.988  30.153  1.00  0.00    -0.200 F 
ENDBRANCH  39  62
ENDBRANCH  13  14
ENDBRANCH   6   8
ENDBRANCH   5   6
ENDBRANCH   4   5
ENDBRANCH   3   4
ENDBRANCH   2   3
ENDBRANCH   1   2
BRANCH   1  73
ATOM     73  C   UNL A   1      34.830  20.447  24.995  1.00  0.00     0.188 C 
BRANCH  73  74
ATOM     74  O   UNL A   1      33.803  20.630  25.961  1.00  0.00    -0.376 OA
BRANCH  74  75
ATOM     75  C   UNL A   1      34.028  21.590  26.986  1.00  0.00     0.202 C 
BRANCH  75  76
ATOM     76  C   UNL A   1      32.868  22.512  27.401  1.00  0.00     0.261 C 
BRANCH  76  77
ATOM     77  O   UNL A   1      31.683  22.427  26.589  1.00  0.00    -0.463 OA
BRANCH  77  78
ATOM     78  C   UNL A   1      30.940  23.564  26.501  1.00  0.00     0.310 C 
ATOM     79  O   UNL A   1      30.080  23.895  27.317  1.00  0.00    -0.252 OA
BRANCH  78  80
ATOM     80  C   UNL A   1      31.291  24.437  25.313  1.00  0.00     0.118 C 
ATOM     81  C   UNL A   1      32.144  23.680  24.286  1.00  0.00     0.019 C 
ATOM     82  C   UNL A   1      30.081  25.039  24.609  1.00  0.00     0.133 C 
ATOM     83  C   UNL A   1      32.580  24.625  23.162  1.00  0.00     0.022 C 
ATOM     84  N   UNL A   1      30.494  25.884  23.481  1.00  0.00    -0.356 N 
ATOM     85  C   UNL A   1      31.370  25.270  22.480  1.00  0.00     0.118 C 
BRANCH  84  86
ATOM     86  C   UNL A   1      30.697  27.236  23.736  1.00  0.00     0.133 A 
ATOM     87  C   UNL A   1      29.988  28.171  23.015  1.00  0.00     0.077 A 
ATOM     88  N   UNL A   1      31.523  27.597  24.725  1.00  0.00    -0.211 NA
ATOM     89  C   UNL A   1      30.128  29.504  23.359  1.00  0.00     0.095 A 
ATOM     90  C   UNL A   1      31.677  28.910  24.963  1.00  0.00     0.165 A 
ATOM     91  N   UNL A   1      31.017  29.896  24.315  1.00  0.00    -0.226 NA
BRANCH  89  92
ATOM     92  C   UNL A   1      29.228  30.494  22.706  1.00  0.00     0.089 A 
ATOM     93  C   UNL A   1      28.747  30.277  21.405  1.00  0.00     0.030 A 
ATOM     94  N   UNL A   1      29.028  31.685  23.322  1.00  0.00    -0.255 NA
ATOM     95  C   UNL A   1      28.054  31.273  20.719  1.00  0.00     0.004 A 
ATOM     96  C   UNL A   1      28.342  32.639  22.636  1.00  0.00     0.112 A 
ATOM     97  C   UNL A   1      27.852  32.488  21.347  1.00  0.00     0.020 A 
ENDBRANCH  89  92
BRANCH  90  98
ATOM     98  C   UNL A   1      32.704  29.231  25.968  1.00  0.00     0.055 A 
ATOM     99  C   UNL A   1      32.506  30.261  26.899  1.00  0.00     0.015 A 
ATOM    100  C   UNL A   1      33.977  28.641  25.972  1.00  0.00     0.134 A 
ATOM    101  C   UNL A   1      33.529  30.655  27.779  1.00  0.00     0.001 A 
ATOM    102  C   UNL A   1      34.991  29.002  26.858  1.00  0.00     0.040 A 
ATOM    103  F   UNL A   1      34.300  27.666  25.126  1.00  0.00    -0.206 F 
ATOM    104  C   UNL A   1      34.769  30.020  27.765  1.00  0.00     0.003 A 
ENDBRANCH  90  98
ENDBRANCH  84  86
ENDBRANCH  78  80
ENDBRANCH  77  78
ENDBRANCH  76  77
ENDBRANCH  75  76
ENDBRANCH  74  75
ENDBRANCH  73  74
ENDBRANCH   1  73
TORSDOF 20
ENDMDL
MODEL 2
REMARK VINA RESULT:     -12.2      1.494      2.208
REMARK SMILES O=C(OCCOCCOCCOC(=O)[C@H]1CCCN(c2cc(-c3ccccn3)nc(-c3ccccc3F)n2)C1)c1ccc(-c2c3nc(c(-c4c(F)c(F)c(F)c(F)c4F)c4ccc([nH]4)c(-c4c(F)c(F)c(F)c(F)c4F)c4nc(c(-c5c(F)c(F)c(F)c(F)c5F)c5ccc2[nH]5)C=C4)C=C3)cc1
REMARK SMILES IDX 7 1 6 2 5 3 4 4 3 5 2 6 1 7 40 8 41 9 102 10 42 11 101 12
REMARK SMILES IDX 43 13 44 14 45 15 95 16 46 17 100 18 94 19 96 20 47 21 99 22
REMARK SMILES IDX 93 23 92 24 48 26 80 27 60 28 79 29 61 30 64 31 78 32 97 33
REMARK SMILES IDX 62 34 63 35 77 37 98 38 65 39 49 40 50 41 58 42 51 43 52 44
REMARK SMILES IDX 56 45 59 46 53 47 54 48 57 49 55 50 81 51 82 52 90 53 83 54
REMARK SMILES IDX 84 55 88 56 91 57 85 58 86 59 89 60 87 61 66 62 67 63 75 64
REMARK SMILES IDX 68 65 69 66 73 67 76 68 70 69 71 70 74 71 72 72 8 73 9 74
REMARK SMILES IDX 10 75 11 76 12 77 13 78 14 79 15 80 16 81 39 82 17 83 19 84
REMARK SMILES IDX 18 85 20 86 21 87 38 88 22 89 30 90 29 91 23 92 24 93 28 94
REMARK SMILES IDX 25 95 27 96 26 97 31 98 32 99 36 100 33 101 35 102 37 103
REMARK SMILES IDX 34 104
REMARK H PARENT 96 25 64 36
REMARK Flexibility Score: inf
ROOT
ATOM      1  C   UNL A   1      34.200  18.252  24.271  1.00  0.00     0.188 C 
ENDROOT
BRANCH   1   2
ATOM      2  O   UNL A   1      35.560  18.352  24.711  1.00  0.00    -0.376 OA
BRANCH   2   3
ATOM      3  C   UNL A   1      35.959  19.705  24.971  1.00  0.00     0.202 C 
BRANCH   3   4
ATOM      4  C   UNL A   1      37.460  19.998  24.764  1.00  0.00     0.261 C 
BRANCH   4   5
ATOM      5  O   UNL A   1      37.964  21.070  25.583  1.00  0.00    -0.460 OA
BRANCH   5   6
ATOM      6  C   UNL A   1      39.216  21.272  26.069  1.00  0.00     0.338 C 
ATOM      7  O   UNL A   1      40.004  20.326  26.063  1.00  0.00    -0.246 OA
BRANCH   6   8
ATOM      8  C   UNL A   1      39.706  22.579  26.610  1.00  0.00     0.060 A 
ATOM      9  C   UNL A   1      39.288  23.828  26.166  1.00  0.00     0.016 A 
ATOM     10  C   UNL A   1      40.642  22.549  27.663  1.00  0.00     0.016 A 
ATOM     11  C   UNL A   1      39.854  25.000  26.634  1.00  0.00     0.010 A 
ATOM     12  C   UNL A   1      41.169  23.735  28.198  1.00  0.00     0.010 A 
ATOM     13  C   UNL A   1      40.800  24.970  27.650  1.00  0.00    -0.014 A 
BRANCH  13  14
ATOM     14  C   UNL A   1      41.454  26.251  27.991  1.00  0.00     0.031 A 
ATOM     15  C   UNL A   1      42.877  26.456  27.606  1.00  0.00     0.074 A 
ATOM     16  C   UNL A   1      40.736  27.294  28.449  1.00  0.00     0.049 A 
ATOM     17  N   UNL A   1      43.622  27.513  27.784  1.00  0.00    -0.248 NA
ATOM     18  C   UNL A   1      43.532  25.363  26.871  1.00  0.00     0.031 C 
ATOM     19  C   UNL A   1      39.299  27.266  28.657  1.00  0.00     0.029 A 
ATOM     20  N   UNL A   1      41.093  28.568  28.822  1.00  0.00    -0.354 N 
ATOM     21  C   UNL A   1      44.806  27.238  27.127  1.00  0.00     0.074 A 
ATOM     22  C   UNL A   1      44.720  25.888  26.617  1.00  0.00     0.031 C 
ATOM     23  C   UNL A   1      38.911  28.438  29.171  1.00  0.00     0.029 A 
ATOM     24  C   UNL A   1      40.059  29.281  29.394  1.00  0.00     0.049 A 
ATOM     25  H   UNL A   1      41.997  28.934  28.696  1.00  0.00     0.167 HD
ATOM     26  C   UNL A   1      45.850  28.070  26.927  1.00  0.00     0.037 A 
ATOM     27  C   UNL A   1      40.070  30.454  30.051  1.00  0.00     0.037 A 
ATOM     28  C   UNL A   1      45.924  29.416  27.422  1.00  0.00     0.049 A 
ATOM     29  C   UNL A   1      41.330  31.253  30.009  1.00  0.00     0.074 A 
ATOM     30  C   UNL A   1      46.960  30.323  27.296  1.00  0.00     0.029 A 
ATOM     31  N   UNL A   1      44.920  30.051  28.137  1.00  0.00    -0.354 N 
ATOM     32  N   UNL A   1      42.476  30.951  29.457  1.00  0.00    -0.248 NA
ATOM     33  C   UNL A   1      41.269  32.592  30.609  1.00  0.00     0.031 C 
ATOM     34  C   UNL A   1      46.611  31.485  27.988  1.00  0.00     0.029 A 
ATOM     35  C   UNL A   1      45.334  31.323  28.496  1.00  0.00     0.049 A 
ATOM     36  H   UNL A   1      44.044  29.657  28.356  1.00  0.00     0.167 HD
ATOM     37  C   UNL A   1      43.268  32.068  29.631  1.00  0.00     0.074 A 
ATOM     38  C   UNL A   1      42.468  33.061  30.315  1.00  0.00     0.031 C 
ATOM     39  C   UNL A   1      44.547  32.261  29.240  1.00  0.00     0.037 A 
BRANCH  26  40
ATOM     40  C   UNL A   1      47.012  27.535  26.158  1.00  0.00     0.064 A 
ATOM     41  C   UNL A   1      48.082  26.942  26.839  1.00  0.00     0.173 A 
ATOM     42  C   UNL A   1      47.094  27.661  24.764  1.00  0.00     0.173 A 
ATOM     43  F   UNL A   1      48.030  26.785  28.170  1.00  0.00    -0.203 F 
ATOM     44  C   UNL A   1      49.215  26.523  26.153  1.00  0.00     0.198 A 
ATOM     45  C   UNL A   1      48.220  27.219  24.078  1.00  0.00     0.198 A 
ATOM     46  F   UNL A   1      46.075  28.190  24.071  1.00  0.00    -0.203 F 
ATOM     47  F   UNL A   1      50.243  25.990  26.828  1.00  0.00    -0.200 F 
ATOM     48  C   UNL A   1      49.285  26.664  24.775  1.00  0.00     0.200 A 
ATOM     49  F   UNL A   1      48.276  27.325  22.744  1.00  0.00    -0.200 F 
ATOM     50  F   UNL A   1      50.378  26.260  24.117  1.00  0.00    -0.200 F 
ENDBRANCH  26  40
BRANCH  27  51
ATOM     51  C   UNL A   1      38.942  31.002  30.851  1.00  0.00     0.064 A 
ATOM     52  C   UNL A   1      38.848  30.674  32.216  1.00  0.00     0.173 A 
ATOM     53  C   UNL A   1      38.135  32.043  30.377  1.00  0.00     0.173 A 
ATOM     54  F   UNL A   1      39.714  29.803  32.751  1.00  0.00    -0.203 F 
ATOM     55  C   UNL A   1      37.956  31.331  33.064  1.00  0.00     0.198 A 
ATOM     56  C   UNL A   1      37.266  32.722  31.236  1.00  0.00     0.198 A 
ATOM     57  F   UNL A   1      38.264  32.469  29.113  1.00  0.00    -0.203 F 
ATOM     58  F   UNL A   1      37.903  31.013  34.365  1.00  0.00    -0.200 F 
ATOM     59  C   UNL A   1      37.172  32.362  32.573  1.00  0.00     0.200 A 
ATOM     60  F   UNL A   1      36.553  33.760  30.778  1.00  0.00    -0.200 F 
ATOM     61  F   UNL A   1      36.355  33.035  33.396  1.00  0.00    -0.200 F 
ENDBRANCH  27  51
BRANCH  39  62
ATOM     62  C   UNL A   1      45.133  33.588  29.589  1.00  0.00     0.064 A 
ATOM     63  C   UNL A   1      45.859  33.753  30.775  1.00  0.00     0.173 A 
ATOM     64  C   UNL A   1      45.032  34.676  28.709  1.00  0.00     0.173 A 
ATOM     65  F   UNL A   1      45.993  32.732  31.635  1.00  0.00    -0.203 F 
ATOM     66  C   UNL A   1      46.465  34.967  31.070  1.00  0.00     0.198 A 
ATOM     67  C   UNL A   1      45.671  35.876  28.991  1.00  0.00     0.198 A 
ATOM     68  F   UNL A   1      44.381  34.544  27.543  1.00  0.00    -0.203 F 
ATOM     69  F   UNL A   1      47.149  35.109  32.213  1.00  0.00    -0.200 F 
ATOM     70  C   UNL A   1      46.381  36.022  30.173  1.00  0.00     0.200 A 
ATOM     71  F   UNL A   1      45.631  36.878  28.102  1.00  0.00    -0.200 F 
ATOM     72  F   UNL A   1      47.004  37.178  30.440  1.00  0.00    -0.200 F 
ENDBRANCH  39  62
ENDBRANCH  13  14
ENDBRANCH   6   8
ENDBRANCH   5   6
ENDBRANCH   4   5
ENDBRANCH   3   4
ENDBRANCH   2   3
ENDBRANCH   1   2
BRANCH   1  73
ATOM     73  C   UNL A   1      33.178  18.777  25.279  1.00  0.00     0.188 C 
BRANCH  73  74
ATOM     74  O   UNL A   1      32.155  19.635  24.791  1.00  0.00    -0.376 OA
BRANCH  74  75
ATOM     75  C   UNL A   1      32.386  21.036  24.855  1.00  0.00     0.202 C 
BRANCH  75  76
ATOM     76  C   UNL A   1      33.375  21.667  23.859  1.00  0.00     0.261 C 
BRANCH  76  77
ATOM     77  O   UNL A   1      32.788  22.475  22.824  1.00  0.00    -0.463 OA
BRANCH  77  78
ATOM     78  C   UNL A   1      33.129  23.792  22.832  1.00  0.00     0.310 C 
ATOM     79  O   UNL A   1      34.188  24.238  22.391  1.00  0.00    -0.252 OA
BRANCH  78  80
ATOM     80  C   UNL A   1      32.057  24.701  23.403  1.00  0.00     0.118 C 
ATOM     81  C   UNL A   1      30.660  24.078  23.278  1.00  0.00     0.019 C 
ATOM     82  C   UNL A   1      32.297  25.102  24.853  1.00  0.00     0.133 C 
ATOM     83  C   UNL A   1      29.595  25.071  23.752  1.00  0.00     0.022 C 
ATOM     84  N   UNL A   1      31.232  25.993  25.336  1.00  0.00    -0.356 N 
ATOM     85  C   UNL A   1      29.855  25.515  25.195  1.00  0.00     0.118 C 
BRANCH  84  86
ATOM     86  C   UNL A   1      31.431  27.361  25.191  1.00  0.00     0.133 A 
ATOM     87  C   UNL A   1      30.676  28.058  24.273  1.00  0.00     0.077 A 
ATOM     88  N   UNL A   1      32.300  27.985  25.996  1.00  0.00    -0.211 NA
ATOM     89  C   UNL A   1      30.816  29.434  24.221  1.00  0.00     0.095 A 
ATOM     90  C   UNL A   1      32.450  29.311  25.848  1.00  0.00     0.165 A 
ATOM     91  N   UNL A   1      31.746  30.077  24.983  1.00  0.00    -0.226 NA
BRANCH  89  92
ATOM     92  C   UNL A   1      29.873  30.202  23.363  1.00  0.00     0.089 A 
ATOM     93  C   UNL A   1      29.143  31.281  23.887  1.00  0.00     0.030 A 
ATOM     94  N   UNL A   1      29.603  29.728  22.121  1.00  0.00    -0.255 NA
ATOM     95  C   UNL A   1      28.131  31.890  23.148  1.00  0.00     0.004 A 
ATOM     96  C   UNL A   1      28.615  30.344  21.417  1.00  0.00     0.112 A 
ATOM     97  C   UNL A   1      27.854  31.406  21.884  1.00  0.00     0.020 A 
ENDBRANCH  89  92
BRANCH  90  98
ATOM     98  C   UNL A   1      33.520  29.900  26.668  1.00  0.00     0.055 A 
ATOM     99  C   UNL A   1      34.699  29.189  26.934  1.00  0.00     0.015 A 
ATOM    100  C   UNL A   1      33.380  31.122  27.342  1.00  0.00     0.134 A 
ATOM    101  C   UNL A   1      35.671  29.693  27.817  1.00  0.00     0.001 A 
ATOM    102  C   UNL A   1      34.347  31.647  28.197  1.00  0.00     0.040 A 
ATOM    103  F   UNL A   1      32.300  31.885  27.191  1.00  0.00    -0.206 F 
ATOM    104  C   UNL A   1      35.500  30.926  28.441  1.00  0.00     0.003 A 
ENDBRANCH  90  98
ENDBRANCH  84  86
ENDBRANCH  78  80
ENDBRANCH  77  78
ENDBRANCH  76  77
ENDBRANCH  75  76
ENDBRANCH  74  75
ENDBRANCH  73  74
ENDBRANCH   1  73
TORSDOF 20
ENDMDL
MODEL 3
REMARK VINA RESULT:     -12.1      1.381      7.519
REMARK SMILES O=C(OCCOCCOCCOC(=O)[C@H]1CCCN(c2cc(-c3ccccn3)nc(-c3ccccc3F)n2)C1)c1ccc(-c2c3nc(c(-c4c(F)c(F)c(F)c(F)c4F)c4ccc([nH]4)c(-c4c(F)c(F)c(F)c(F)c4F)c4nc(c(-c5c(F)c(F)c(F)c(F)c5F)c5ccc2[nH]5)C=C4)C=C3)cc1
REMARK SMILES IDX 7 1 6 2 5 3 4 4 3 5 2 6 1 7 40 8 41 9 102 10 42 11 101 12
REMARK SMILES IDX 43 13 44 14 45 15 95 16 46 17 100 18 94 19 96 20 47 21 99 22
REMARK SMILES IDX 93 23 92 24 48 26 80 27 60 28 79 29 61 30 64 31 78 32 97 33
REMARK SMILES IDX 62 34 63 35 77 37 98 38 65 39 49 40 50 41 58 42 51 43 52 44
REMARK SMILES IDX 56 45 59 46 53 47 54 48 57 49 55 50 81 51 82 52 90 53 83 54
REMARK SMILES IDX 84 55 88 56 91 57 85 58 86 59 89 60 87 61 66 62 67 63 75 64
REMARK SMILES IDX 68 65 69 66 73 67 76 68 70 69 71 70 74 71 72 72 8 73 9 74
REMARK SMILES IDX 10 75 11 76 12 77 13 78 14 79 15 80 16 81 39 82 17 83 19 84
REMARK SMILES IDX 18 85 20 86 21 87 38 88 22 89 30 90 29 91 23 92 24 93 28 94
REMARK SMILES IDX 25 95 27 96 26 97 31 98 32 99 36 100 33 101 35 102 37 103
REMARK SMILES IDX 34 104
REMARK H PARENT 96 25 64 36
REMARK Flexibility Score: inf
ROOT
ATOM      1  C   UNL A   1      34.143  18.520  24.220  1.00  0.00     0.188 C 
ENDROOT
BRANCH   1   2
ATOM      2  O   UNL A   1      35.491  18.521  24.705  1.00  0.00    -0.376 OA
BRANCH   2   3
ATOM      3  C   UNL A   1      36.021  19.844  24.866  1.00  0.00     0.202 C 
BRANCH   3   4
ATOM      4  C   UNL A   1      37.561  19.937  24.886  1.00  0.00     0.261 C 
BRANCH   4   5
ATOM      5  O   UNL A   1      38.067  21.096  25.575  1.00  0.00    -0.460 OA
BRANCH   5   6
ATOM      6  C   UNL A   1      39.286  21.305  26.136  1.00  0.00     0.338 C 
ATOM      7  O   UNL A   1      40.033  20.338  26.286  1.00  0.00    -0.246 OA
BRANCH   6   8
ATOM      8  C   UNL A   1      39.787  22.644  26.581  1.00  0.00     0.060 A 
ATOM      9  C   UNL A   1      39.352  23.863  26.074  1.00  0.00     0.016 A 
ATOM     10  C   UNL A   1      40.754  22.680  27.605  1.00  0.00     0.016 A 
ATOM     11  C   UNL A   1      39.927  25.062  26.453  1.00  0.00     0.010 A 
ATOM     12  C   UNL A   1      41.292  23.898  28.051  1.00  0.00     0.010 A 
ATOM     13  C   UNL A   1      40.903  25.096  27.440  1.00  0.00    -0.014 A 
BRANCH  13  14
ATOM     14  C   UNL A   1      41.561  26.396  27.683  1.00  0.00     0.031 A 
ATOM     15  C   UNL A   1      40.792  27.477  28.359  1.00  0.00     0.074 A 
ATOM     16  C   UNL A   1      42.886  26.546  27.496  1.00  0.00     0.049 A 
ATOM     17  N   UNL A   1      41.194  28.673  28.692  1.00  0.00    -0.248 NA
ATOM     18  C   UNL A   1      39.418  27.155  28.775  1.00  0.00     0.031 C 
ATOM     19  C   UNL A   1      43.771  25.488  27.041  1.00  0.00     0.029 A 
ATOM     20  N   UNL A   1      43.725  27.624  27.655  1.00  0.00    -0.354 N 
ATOM     21  C   UNL A   1      40.148  29.221  29.412  1.00  0.00     0.074 A 
ATOM     22  C   UNL A   1      39.062  28.267  29.399  1.00  0.00     0.031 C 
ATOM     23  C   UNL A   1      45.006  25.982  26.905  1.00  0.00     0.029 A 
ATOM     24  C   UNL A   1      45.004  27.394  27.193  1.00  0.00     0.049 A 
ATOM     25  H   UNL A   1      43.440  28.475  28.057  1.00  0.00     0.167 HD
ATOM     26  C   UNL A   1      40.127  30.400  30.067  1.00  0.00     0.037 A 
ATOM     27  C   UNL A   1      46.025  28.249  26.994  1.00  0.00     0.037 A 
ATOM     28  C   UNL A   1      41.215  31.337  30.089  1.00  0.00     0.049 A 
ATOM     29  C   UNL A   1      45.875  29.633  27.531  1.00  0.00     0.074 A 
ATOM     30  C   UNL A   1      41.270  32.576  30.701  1.00  0.00     0.029 A 
ATOM     31  N   UNL A   1      42.440  31.140  29.473  1.00  0.00    -0.354 N 
ATOM     32  N   UNL A   1      44.850  30.173  28.137  1.00  0.00    -0.248 NA
ATOM     33  C   UNL A   1      47.058  30.498  27.430  1.00  0.00     0.031 C 
ATOM     34  C   UNL A   1      42.505  33.156  30.404  1.00  0.00     0.029 A 
ATOM     35  C   UNL A   1      43.241  32.255  29.655  1.00  0.00     0.049 A 
ATOM     36  H   UNL A   1      42.703  30.328  28.980  1.00  0.00     0.167 HD
ATOM     37  C   UNL A   1      45.269  31.436  28.503  1.00  0.00     0.074 A 
ATOM     38  C   UNL A   1      46.645  31.574  28.074  1.00  0.00     0.031 C 
ATOM     39  C   UNL A   1      44.577  32.396  29.155  1.00  0.00     0.037 A 
BRANCH  26  40
ATOM     40  C   UNL A   1      38.874  30.754  30.796  1.00  0.00     0.064 A 
ATOM     41  C   UNL A   1      37.857  31.451  30.130  1.00  0.00     0.173 A 
ATOM     42  C   UNL A   1      38.703  30.459  32.155  1.00  0.00     0.173 A 
ATOM     43  F   UNL A   1      37.976  31.734  28.825  1.00  0.00    -0.203 F 
ATOM     44  C   UNL A   1      36.724  31.875  30.813  1.00  0.00     0.198 A 
ATOM     45  C   UNL A   1      37.556  30.864  32.829  1.00  0.00     0.198 A 
ATOM     46  F   UNL A   1      39.636  29.761  32.819  1.00  0.00    -0.203 F 
ATOM     47  F   UNL A   1      35.779  32.571  30.166  1.00  0.00    -0.200 F 
ATOM     48  C   UNL A   1      36.574  31.584  32.160  1.00  0.00     0.200 A 
ATOM     49  F   UNL A   1      37.396  30.555  34.123  1.00  0.00    -0.200 F 
ATOM     50  F   UNL A   1      35.481  31.993  32.816  1.00  0.00    -0.200 F 
ENDBRANCH  26  40
BRANCH  27  51
ATOM     51  C   UNL A   1      47.273  27.937  26.248  1.00  0.00     0.064 A 
ATOM     52  C   UNL A   1      48.386  27.441  26.952  1.00  0.00     0.173 A 
ATOM     53  C   UNL A   1      47.300  27.853  24.851  1.00  0.00     0.173 A 
ATOM     54  F   UNL A   1      48.338  27.348  28.288  1.00  0.00    -0.203 F 
ATOM     55  C   UNL A   1      49.496  26.919  26.288  1.00  0.00     0.198 A 
ATOM     56  C   UNL A   1      48.398  27.298  24.188  1.00  0.00     0.198 A 
ATOM     57  F   UNL A   1      46.222  28.208  24.138  1.00  0.00    -0.203 F 
ATOM     58  F   UNL A   1      50.534  26.434  26.984  1.00  0.00    -0.200 F 
ATOM     59  C   UNL A   1      49.496  26.840  24.905  1.00  0.00     0.200 A 
ATOM     60  F   UNL A   1      48.375  27.164  22.855  1.00  0.00    -0.200 F 
ATOM     61  F   UNL A   1      50.536  26.287  24.263  1.00  0.00    -0.200 F 
ENDBRANCH  27  51
BRANCH  39  62
ATOM     62  C   UNL A   1      45.314  33.670  29.396  1.00  0.00     0.064 A 
ATOM     63  C   UNL A   1      46.117  33.820  30.533  1.00  0.00     0.173 A 
ATOM     64  C   UNL A   1      45.276  34.715  28.461  1.00  0.00     0.173 A 
ATOM     65  F   UNL A   1      46.194  32.837  31.443  1.00  0.00    -0.203 F 
ATOM     66  C   UNL A   1      46.860  34.977  30.727  1.00  0.00     0.198 A 
ATOM     67  C   UNL A   1      46.049  35.854  28.640  1.00  0.00     0.198 A 
ATOM     68  F   UNL A   1      44.551  34.591  27.338  1.00  0.00    -0.203 F 
ATOM     69  F   UNL A   1      47.618  35.107  31.824  1.00  0.00    -0.200 F 
ATOM     70  C   UNL A   1      46.835  35.987  29.775  1.00  0.00     0.200 A 
ATOM     71  F   UNL A   1      46.063  36.806  27.697  1.00  0.00    -0.200 F 
ATOM     72  F   UNL A   1      47.587  37.083  29.943  1.00  0.00    -0.200 F 
ENDBRANCH  39  62
ENDBRANCH  13  14
ENDBRANCH   6   8
ENDBRANCH   5   6
ENDBRANCH   4   5
ENDBRANCH   3   4
ENDBRANCH   2   3
ENDBRANCH   1   2
BRANCH   1  73
ATOM     73  C   UNL A   1      33.098  18.193  25.286  1.00  0.00     0.188 C 
BRANCH  73  74
ATOM     74  O   UNL A   1      32.257  19.251  25.727  1.00  0.00    -0.376 OA
BRANCH  74  75
ATOM     75  C   UNL A   1      32.667  20.582  25.436  1.00  0.00     0.202 C 
BRANCH  75  76
ATOM     76  C   UNL A   1      33.248  21.440  26.573  1.00  0.00     0.261 C 
BRANCH  76  77
ATOM     77  O   UNL A   1      33.384  22.844  26.288  1.00  0.00    -0.463 OA
BRANCH  77  78
ATOM     78  C   UNL A   1      32.303  23.617  26.578  1.00  0.00     0.310 C 
ATOM     79  O   UNL A   1      31.750  23.653  27.678  1.00  0.00    -0.252 OA
BRANCH  78  80
ATOM     80  C   UNL A   1      31.842  24.487  25.425  1.00  0.00     0.118 C 
ATOM     81  C   UNL A   1      31.858  23.721  24.095  1.00  0.00     0.019 C 
ATOM     82  C   UNL A   1      30.465  25.105  25.629  1.00  0.00     0.133 C 
ATOM     83  C   UNL A   1      31.505  24.662  22.940  1.00  0.00     0.022 C 
ATOM     84  N   UNL A   1      30.090  25.947  24.485  1.00  0.00    -0.356 N 
ATOM     85  C   UNL A   1      30.141  25.323  23.160  1.00  0.00     0.118 C 
BRANCH  84  86
ATOM     86  C   UNL A   1      30.423  27.295  24.548  1.00  0.00     0.133 A 
ATOM     87  C   UNL A   1      31.427  27.701  25.400  1.00  0.00     0.077 A 
ATOM     88  N   UNL A   1      29.811  28.159  23.730  1.00  0.00    -0.211 NA
ATOM     89  C   UNL A   1      31.814  29.030  25.368  1.00  0.00     0.095 A 
ATOM     90  C   UNL A   1      30.174  29.450  23.798  1.00  0.00     0.165 A 
ATOM     91  N   UNL A   1      31.154  29.937  24.593  1.00  0.00    -0.226 NA
BRANCH  89  92
ATOM     92  C   UNL A   1      33.016  29.428  26.150  1.00  0.00     0.089 A 
ATOM     93  C   UNL A   1      34.082  28.532  26.333  1.00  0.00     0.030 A 
ATOM     94  N   UNL A   1      32.983  30.603  26.826  1.00  0.00    -0.255 NA
ATOM     95  C   UNL A   1      35.127  28.827  27.206  1.00  0.00     0.004 A 
ATOM     96  C   UNL A   1      34.018  30.872  27.667  1.00  0.00     0.112 A 
ATOM     97  C   UNL A   1      35.091  30.023  27.897  1.00  0.00     0.020 A 
ENDBRANCH  89  92
BRANCH  90  98
ATOM     98  C   UNL A   1      29.361  30.357  22.972  1.00  0.00     0.055 A 
ATOM     99  C   UNL A   1      29.045  30.036  21.645  1.00  0.00     0.015 A 
ATOM    100  C   UNL A   1      28.977  31.638  23.398  1.00  0.00     0.134 A 
ATOM    101  C   UNL A   1      28.375  30.950  20.812  1.00  0.00     0.001 A 
ATOM    102  C   UNL A   1      28.288  32.544  22.593  1.00  0.00     0.040 A 
ATOM    103  F   UNL A   1      29.235  32.073  24.629  1.00  0.00    -0.206 F 
ATOM    104  C   UNL A   1      27.989  32.201  21.288  1.00  0.00     0.003 A 
ENDBRANCH  90  98
ENDBRANCH  84  86
ENDBRANCH  78  80
ENDBRANCH  77  78
ENDBRANCH  76  77
ENDBRANCH  75  76
ENDBRANCH  74  75
ENDBRANCH  73  74
ENDBRANCH   1  73
TORSDOF 20
ENDMDL
