MODEL 1
REMARK VINA RESULT:     -12.5      0.000      0.000
REMARK SMILES Cc1ccc(S(=O)(=O)N[C@@H](Cc2cccc(F)c2)C(=O)OCCOCCOCCOC(=O)c2ccc(-c3c4nc(c(-c5c(F)c(F)c(F)c(F)c5F)c5ccc([nH]5)c(-c5c(F)c(F)c(F)c(F)c5F)c5nc(c(-c6c(F)c(F)c(F)c(F)c6F)c6ccc3[nH]6)C=C5)C=C4)cc2)cc1
REMARK SMILES IDX 25 1 24 2 23 3 22 4 21 5 19 6 20 7 10 8 9 9 6 11 7 12 8 13
REMARK SMILES IDX 5 14 1 15 2 16 3 17 97 18 4 19 96 20 11 21 12 22 13 23 18 24
REMARK SMILES IDX 14 25 16 26 15 27 17 28 26 29 27 30 28 31 29 32 30 33 31 34
REMARK SMILES IDX 32 35 33 36 34 37 95 38 35 39 94 40 36 41 37 42 38 43 88 44
REMARK SMILES IDX 39 45 93 46 87 47 89 48 40 49 92 50 86 51 85 52 41 54 73 55
REMARK SMILES IDX 53 56 72 57 54 58 57 59 71 60 90 61 55 62 56 63 70 65 91 66
REMARK SMILES IDX 58 67 42 68 43 69 51 70 44 71 45 72 49 73 52 74 46 75 47 76
REMARK SMILES IDX 50 77 48 78 74 79 75 80 83 81 76 82 77 83 81 84 84 85 78 86
REMARK SMILES IDX 79 87 82 88 80 89 59 90 60 91 68 92 61 93 62 94 66 95 69 96
REMARK SMILES IDX 63 97 64 98 67 99 65 100
REMARK H PARENT 9 10 89 53 57 64
REMARK Flexibility Score: inf
ROOT
ATOM      1  C   UNL A   1      40.315  19.621  26.154  1.00  0.00     0.188 C 
ENDROOT
BRANCH   1   2
ATOM      2  O   UNL A   1      40.079  21.050  26.113  1.00  0.00    -0.376 OA
BRANCH   2   3
ATOM      3  C   UNL A   1      38.880  21.812  25.784  1.00  0.00     0.202 C 
BRANCH   3   4
ATOM      4  C   UNL A   1      37.275  21.461  25.017  1.00  0.00     0.261 C 
BRANCH   4   5
ATOM      5  O   UNL A   1      35.625  21.211  25.618  1.00  0.00    -0.462 OA
BRANCH   5   6
ATOM      6  C   UNL A   1      34.657  21.923  26.435  1.00  0.00     0.324 C 
ATOM      7  O   UNL A   1      34.405  21.667  27.614  1.00  0.00    -0.250 OA
BRANCH   6   8
ATOM      8  C   UNL A   1      33.763  23.067  26.016  1.00  0.00     0.184 C 
BRANCH   8   9
ATOM      9  N   UNL A   1      32.619  23.300  26.870  1.00  0.00    -0.197 NA
ATOM     10  H   UNL A   1      32.530  22.480  27.469  1.00  0.00     0.142 HD
BRANCH   9  11
ATOM     11  S   UNL A   1      31.112  23.577  26.213  1.00  0.00     0.241 S 
ATOM     12  O   UNL A   1      30.168  23.445  27.295  1.00  0.00    -0.207 OA
ATOM     13  O   UNL A   1      31.055  22.718  25.047  1.00  0.00    -0.207 OA
BRANCH  11  14
ATOM     14  C   UNL A   1      30.994  25.261  25.621  1.00  0.00     0.082 A 
ATOM     15  C   UNL A   1      30.485  29.180  23.870  1.00  0.00     0.044 C 
ATOM     16  C   UNL A   1      30.649  27.830  24.509  1.00  0.00    -0.051 A 
ATOM     17  C   UNL A   1      30.052  26.714  23.916  1.00  0.00     0.005 A 
ATOM     18  C   UNL A   1      31.418  27.652  25.666  1.00  0.00     0.005 A 
ATOM     19  C   UNL A   1      30.205  25.445  24.478  1.00  0.00     0.022 A 
ATOM     20  C   UNL A   1      31.621  26.368  26.203  1.00  0.00     0.022 A 
ENDBRANCH  11  14
ENDBRANCH   9  11
ENDBRANCH   8   9
BRANCH   8  21
ATOM     21  C   UNL A   1      34.440  24.336  25.351  1.00  0.00     0.067 C 
BRANCH  21  22
ATOM     22  C   UNL A   1      34.143  24.670  23.891  1.00  0.00    -0.043 A 
ATOM     23  C   UNL A   1      33.718  23.647  23.028  1.00  0.00     0.004 A 
ATOM     24  C   UNL A   1      34.116  25.987  23.422  1.00  0.00     0.043 A 
ATOM     25  C   UNL A   1      32.957  23.955  21.907  1.00  0.00     0.003 A 
ATOM     26  C   UNL A   1      33.273  26.290  22.371  1.00  0.00     0.123 A 
ATOM     27  C   UNL A   1      32.650  25.284  21.660  1.00  0.00     0.039 A 
ATOM     28  F   UNL A   1      32.940  27.564  22.148  1.00  0.00    -0.207 F 
ENDBRANCH  21  22
ENDBRANCH   8  21
ENDBRANCH   6   8
ENDBRANCH   5   6
ENDBRANCH   4   5
ENDBRANCH   3   4
ENDBRANCH   2   3
ENDBRANCH   1   2
BRANCH   1  29
ATOM     29  C   UNL A   1      41.693  19.006  26.040  1.00  0.00     0.188 C 
BRANCH  29  30
ATOM     30  O   UNL A   1      42.626  20.043  26.167  1.00  0.00    -0.376 OA
BRANCH  30  31
ATOM     31  C   UNL A   1      43.789  19.921  25.386  1.00  0.00     0.202 C 
BRANCH  31  32
ATOM     32  C   UNL A   1      44.491  21.269  25.180  1.00  0.00     0.261 C 
BRANCH  32  33
ATOM     33  O   UNL A   1      43.648  22.358  25.645  1.00  0.00    -0.460 OA
BRANCH  33  34
ATOM     34  C   UNL A   1      43.758  23.573  25.001  1.00  0.00     0.338 C 
ATOM     35  O   UNL A   1      44.716  23.917  24.334  1.00  0.00    -0.246 OA
BRANCH  34  36
ATOM     36  C   UNL A   1      42.655  24.503  25.453  1.00  0.00     0.060 A 
ATOM     37  C   UNL A   1      42.442  25.819  25.000  1.00  0.00     0.016 A 
ATOM     38  C   UNL A   1      42.129  24.217  26.659  1.00  0.00     0.016 A 
ATOM     39  C   UNL A   1      41.978  26.896  25.888  1.00  0.00     0.010 A 
ATOM     40  C   UNL A   1      42.000  25.314  27.511  1.00  0.00     0.010 A 
ATOM     41  C   UNL A   1      41.872  26.741  27.276  1.00  0.00    -0.014 A 
BRANCH  41  42
ATOM     42  C   UNL A   1      41.636  28.055  28.480  1.00  0.00     0.031 A 
ATOM     43  C   UNL A   1      40.358  29.295  28.714  1.00  0.00     0.074 A 
ATOM     44  C   UNL A   1      42.576  28.238  29.440  1.00  0.00     0.049 A 
ATOM     45  N   UNL A   1      40.169  30.018  29.810  1.00  0.00    -0.248 NA
ATOM     46  C   UNL A   1      39.177  29.667  27.835  1.00  0.00     0.031 C 
ATOM     47  C   UNL A   1      42.405  28.897  30.740  1.00  0.00     0.029 A 
ATOM     48  N   UNL A   1      43.915  27.841  29.476  1.00  0.00    -0.354 N 
ATOM     49  C   UNL A   1      38.945  30.697  29.748  1.00  0.00     0.074 A 
ATOM     50  C   UNL A   1      38.255  30.143  28.654  1.00  0.00     0.031 C 
ATOM     51  C   UNL A   1      43.604  29.184  31.254  1.00  0.00     0.029 A 
ATOM     52  C   UNL A   1      44.570  28.827  30.252  1.00  0.00     0.049 A 
ATOM     53  H   UNL A   1      44.315  27.048  29.053  1.00  0.00     0.167 HD
ATOM     54  C   UNL A   1      38.541  31.786  30.464  1.00  0.00     0.037 A 
ATOM     55  C   UNL A   1      45.500  29.637  29.684  1.00  0.00     0.037 A 
ATOM     56  C   UNL A   1      39.614  32.287  31.290  1.00  0.00     0.049 A 
ATOM     57  C   UNL A   1      45.111  31.109  29.755  1.00  0.00     0.074 A 
ATOM     58  C   UNL A   1      40.325  31.751  32.343  1.00  0.00     0.029 A 
ATOM     59  N   UNL A   1      40.403  33.305  30.793  1.00  0.00    -0.354 N 
ATOM     60  N   UNL A   1      44.122  31.628  30.445  1.00  0.00    -0.248 NA
ATOM     61  C   UNL A   1      45.794  32.101  28.931  1.00  0.00     0.031 C 
ATOM     62  C   UNL A   1      41.666  32.241  32.225  1.00  0.00     0.029 A 
ATOM     63  C   UNL A   1      41.739  33.122  31.151  1.00  0.00     0.049 A 
ATOM     64  H   UNL A   1      40.068  34.060  30.257  1.00  0.00     0.167 HD
ATOM     65  C   UNL A   1      43.918  32.929  30.039  1.00  0.00     0.074 A 
ATOM     66  C   UNL A   1      45.019  33.179  29.113  1.00  0.00     0.031 C 
ATOM     67  C   UNL A   1      42.835  33.721  30.363  1.00  0.00     0.037 A 
BRANCH  54  68
ATOM     68  C   UNL A   1      37.114  32.346  30.372  1.00  0.00     0.064 A 
ATOM     69  C   UNL A   1      36.804  33.303  29.392  1.00  0.00     0.173 A 
ATOM     70  C   UNL A   1      36.056  32.087  31.281  1.00  0.00     0.173 A 
ATOM     71  F   UNL A   1      37.666  33.552  28.397  1.00  0.00    -0.203 F 
ATOM     72  C   UNL A   1      35.609  34.044  29.415  1.00  0.00     0.198 A 
ATOM     73  C   UNL A   1      34.911  32.894  31.371  1.00  0.00     0.198 A 
ATOM     74  F   UNL A   1      36.088  31.029  32.106  1.00  0.00    -0.203 F 
ATOM     75  F   UNL A   1      35.360  34.939  28.449  1.00  0.00    -0.200 F 
ATOM     76  C   UNL A   1      34.694  33.885  30.440  1.00  0.00     0.200 A 
ATOM     77  F   UNL A   1      34.035  32.712  32.371  1.00  0.00    -0.200 F 
ATOM     78  F   UNL A   1      33.600  34.658  30.513  1.00  0.00    -0.200 F 
ENDBRANCH  54  68
BRANCH  55  79
ATOM     79  C   UNL A   1      46.222  28.892  28.594  1.00  0.00     0.064 A 
ATOM     80  C   UNL A   1      47.208  27.953  29.007  1.00  0.00     0.173 A 
ATOM     81  C   UNL A   1      45.680  28.710  27.315  1.00  0.00     0.173 A 
ATOM     82  F   UNL A   1      47.758  28.054  30.228  1.00  0.00    -0.203 F 
ATOM     83  C   UNL A   1      47.483  26.804  28.266  1.00  0.00     0.198 A 
ATOM     84  C   UNL A   1      46.018  27.590  26.543  1.00  0.00     0.198 A 
ATOM     85  F   UNL A   1      44.720  29.521  26.855  1.00  0.00    -0.203 F 
ATOM     86  F   UNL A   1      48.242  25.831  28.793  1.00  0.00    -0.200 F 
ATOM     87  C   UNL A   1      46.871  26.615  27.043  1.00  0.00     0.200 A 
ATOM     88  F   UNL A   1      45.378  27.363  25.386  1.00  0.00    -0.200 F 
ATOM     89  F   UNL A   1      47.024  25.454  26.388  1.00  0.00    -0.200 F 
ENDBRANCH  55  79
BRANCH  67  90
ATOM     90  C   UNL A   1      42.778  35.132  29.799  1.00  0.00     0.064 A 
ATOM     91  C   UNL A   1      43.388  36.199  30.488  1.00  0.00     0.173 A 
ATOM     92  C   UNL A   1      42.144  35.489  28.591  1.00  0.00     0.173 A 
ATOM     93  F   UNL A   1      43.951  35.999  31.689  1.00  0.00    -0.203 F 
ATOM     94  C   UNL A   1      43.462  37.487  29.951  1.00  0.00     0.198 A 
ATOM     95  C   UNL A   1      42.166  36.788  28.083  1.00  0.00     0.198 A 
ATOM     96  F   UNL A   1      41.487  34.594  27.842  1.00  0.00    -0.203 F 
ATOM     97  F   UNL A   1      44.146  38.437  30.601  1.00  0.00    -0.200 F 
ATOM     98  C   UNL A   1      42.849  37.782  28.750  1.00  0.00     0.200 A 
ATOM     99  F   UNL A   1      41.527  37.060  26.936  1.00  0.00    -0.200 F 
ATOM    100  F   UNL A   1      42.909  39.019  28.239  1.00  0.00    -0.200 F 
ENDBRANCH  67  90
ENDBRANCH  41  42
ENDBRANCH  34  36
ENDBRANCH  33  34
ENDBRANCH  32  33
ENDBRANCH  31  32
ENDBRANCH  30  31
ENDBRANCH  29  30
ENDBRANCH   1  29
TORSDOF 22
ENDMDL
MODEL 2
REMARK VINA RESULT:     -12.2      1.284      2.121
REMARK SMILES Cc1ccc(S(=O)(=O)N[C@@H](Cc2cccc(F)c2)C(=O)OCCOCCOCCOC(=O)c2ccc(-c3c4nc(c(-c5c(F)c(F)c(F)c(F)c5F)c5ccc([nH]5)c(-c5c(F)c(F)c(F)c(F)c5F)c5nc(c(-c6c(F)c(F)c(F)c(F)c6F)c6ccc3[nH]6)C=C5)C=C4)cc2)cc1
REMARK SMILES IDX 25 1 24 2 23 3 22 4 21 5 19 6 20 7 10 8 9 9 6 11 7 12 8 13
REMARK SMILES IDX 5 14 1 15 2 16 3 17 97 18 4 19 96 20 11 21 12 22 13 23 18 24
REMARK SMILES IDX 14 25 16 26 15 27 17 28 26 29 27 30 28 31 29 32 30 33 31 34
REMARK SMILES IDX 32 35 33 36 34 37 95 38 35 39 94 40 36 41 37 42 38 43 88 44
REMARK SMILES IDX 39 45 93 46 87 47 89 48 40 49 92 50 86 51 85 52 41 54 73 55
REMARK SMILES IDX 53 56 72 57 54 58 57 59 71 60 90 61 55 62 56 63 70 65 91 66
REMARK SMILES IDX 58 67 42 68 43 69 51 70 44 71 45 72 49 73 52 74 46 75 47 76
REMARK SMILES IDX 50 77 48 78 74 79 75 80 83 81 76 82 77 83 81 84 84 85 78 86
REMARK SMILES IDX 79 87 82 88 80 89 59 90 60 91 68 92 61 93 62 94 66 95 69 96
REMARK SMILES IDX 63 97 64 98 67 99 65 100
REMARK H PARENT 9 10 89 53 57 64
REMARK Flexibility Score: inf
ROOT
ATOM      1  C   UNL A   1      39.219  21.774  25.923  1.00  0.00     0.188 C 
ENDROOT
BRANCH   1   2
ATOM      2  O   UNL A   1      37.864  21.445  25.529  1.00  0.00    -0.376 OA
BRANCH   2   3
ATOM      3  C   UNL A   1      36.599  22.119  25.798  1.00  0.00     0.202 C 
BRANCH   3   4
ATOM      4  C   UNL A   1      35.149  21.815  26.842  1.00  0.00     0.261 C 
BRANCH   4   5
ATOM      5  O   UNL A   1      33.467  21.337  26.546  1.00  0.00    -0.462 OA
BRANCH   5   6
ATOM      6  C   UNL A   1      32.433  21.592  25.557  1.00  0.00     0.324 C 
ATOM      7  O   UNL A   1      31.325  21.053  25.539  1.00  0.00    -0.250 OA
BRANCH   6   8
ATOM      8  C   UNL A   1      32.509  22.516  24.364  1.00  0.00     0.184 C 
BRANCH   8   9
ATOM      9  N   UNL A   1      33.602  22.259  23.453  1.00  0.00    -0.197 NA
ATOM     10  H   UNL A   1      34.334  21.803  23.997  1.00  0.00     0.142 HD
BRANCH   9  11
ATOM     11  S   UNL A   1      34.331  23.511  22.627  1.00  0.00     0.241 S 
ATOM     12  O   UNL A   1      33.623  23.637  21.376  1.00  0.00    -0.207 OA
ATOM     13  O   UNL A   1      35.747  23.206  22.671  1.00  0.00    -0.207 OA
BRANCH  11  14
ATOM     14  C   UNL A   1      34.105  25.050  23.511  1.00  0.00     0.082 A 
ATOM     15  C   UNL A   1      33.655  28.557  25.995  1.00  0.00     0.044 C 
ATOM     16  C   UNL A   1      33.834  27.356  25.111  1.00  0.00    -0.051 A 
ATOM     17  C   UNL A   1      34.235  26.142  25.677  1.00  0.00     0.005 A 
ATOM     18  C   UNL A   1      33.573  27.408  23.736  1.00  0.00     0.005 A 
ATOM     19  C   UNL A   1      34.389  25.005  24.881  1.00  0.00     0.022 A 
ATOM     20  C   UNL A   1      33.674  26.253  22.941  1.00  0.00     0.022 A 
ENDBRANCH  11  14
ENDBRANCH   9  11
ENDBRANCH   8   9
BRANCH   8  21
ATOM     21  C   UNL A   1      31.149  23.031  23.735  1.00  0.00     0.067 C 
BRANCH  21  22
ATOM     22  C   UNL A   1      30.515  24.317  24.260  1.00  0.00    -0.043 A 
ATOM     23  C   UNL A   1      30.629  24.628  25.625  1.00  0.00     0.004 A 
ATOM     24  C   UNL A   1      29.971  25.280  23.404  1.00  0.00     0.043 A 
ATOM     25  C   UNL A   1      30.560  25.951  26.045  1.00  0.00     0.003 A 
ATOM     26  C   UNL A   1      30.007  26.603  23.800  1.00  0.00     0.123 A 
ATOM     27  C   UNL A   1      30.360  26.938  25.092  1.00  0.00     0.039 A 
ATOM     28  F   UNL A   1      29.854  27.562  22.885  1.00  0.00    -0.207 F 
ENDBRANCH  21  22
ENDBRANCH   8  21
ENDBRANCH   6   8
ENDBRANCH   5   6
ENDBRANCH   4   5
ENDBRANCH   3   4
ENDBRANCH   2   3
ENDBRANCH   1   2
BRANCH   1  29
ATOM     29  C   UNL A   1      40.146  20.790  26.604  1.00  0.00     0.188 C 
BRANCH  29  30
ATOM     30  O   UNL A   1      41.179  20.497  25.704  1.00  0.00    -0.376 OA
BRANCH  30  31
ATOM     31  C   UNL A   1      42.373  20.022  26.275  1.00  0.00     0.202 C 
BRANCH  31  32
ATOM     32  C   UNL A   1      43.612  20.657  25.632  1.00  0.00     0.261 C 
BRANCH  32  33
ATOM     33  O   UNL A   1      43.802  22.012  26.122  1.00  0.00    -0.460 OA
BRANCH  33  34
ATOM     34  C   UNL A   1      43.538  23.050  25.254  1.00  0.00     0.338 C 
ATOM     35  O   UNL A   1      44.223  23.335  24.289  1.00  0.00    -0.246 OA
BRANCH  34  36
ATOM     36  C   UNL A   1      42.446  23.932  25.814  1.00  0.00     0.060 A 
ATOM     37  C   UNL A   1      42.029  25.171  25.290  1.00  0.00     0.016 A 
ATOM     38  C   UNL A   1      42.171  23.737  27.118  1.00  0.00     0.016 A 
ATOM     39  C   UNL A   1      41.624  26.297  26.146  1.00  0.00     0.010 A 
ATOM     40  C   UNL A   1      42.086  24.906  27.875  1.00  0.00     0.010 A 
ATOM     41  C   UNL A   1      41.779  26.285  27.538  1.00  0.00    -0.014 A 
BRANCH  41  42
ATOM     42  C   UNL A   1      41.631  27.698  28.640  1.00  0.00     0.031 A 
ATOM     43  C   UNL A   1      40.397  28.989  28.825  1.00  0.00     0.074 A 
ATOM     44  C   UNL A   1      42.618  27.931  29.540  1.00  0.00     0.049 A 
ATOM     45  N   UNL A   1      40.276  29.803  29.865  1.00  0.00    -0.248 NA
ATOM     46  C   UNL A   1      39.188  29.323  27.971  1.00  0.00     0.031 C 
ATOM     47  C   UNL A   1      42.522  28.697  30.787  1.00  0.00     0.029 A 
ATOM     48  N   UNL A   1      43.946  27.500  29.551  1.00  0.00    -0.354 N 
ATOM     49  C   UNL A   1      39.067  30.509  29.801  1.00  0.00     0.074 A 
ATOM     50  C   UNL A   1      38.316  29.889  28.787  1.00  0.00     0.031 C 
ATOM     51  C   UNL A   1      43.750  28.990  31.225  1.00  0.00     0.029 A 
ATOM     52  C   UNL A   1      44.661  28.526  30.215  1.00  0.00     0.049 A 
ATOM     53  H   UNL A   1      44.307  26.664  29.178  1.00  0.00     0.167 HD
ATOM     54  C   UNL A   1      38.724  31.664  30.441  1.00  0.00     0.037 A 
ATOM     55  C   UNL A   1      45.584  29.260  29.543  1.00  0.00     0.037 A 
ATOM     56  C   UNL A   1      39.845  32.200  31.177  1.00  0.00     0.049 A 
ATOM     57  C   UNL A   1      45.236  30.743  29.509  1.00  0.00     0.074 A 
ATOM     58  C   UNL A   1      40.589  31.730  32.239  1.00  0.00     0.029 A 
ATOM     59  N   UNL A   1      40.636  33.150  30.565  1.00  0.00    -0.354 N 
ATOM     60  N   UNL A   1      44.292  31.345  30.197  1.00  0.00    -0.248 NA
ATOM     61  C   UNL A   1      45.905  31.646  28.579  1.00  0.00     0.031 C 
ATOM     62  C   UNL A   1      41.935  32.170  32.024  1.00  0.00     0.029 A 
ATOM     63  C   UNL A   1      41.982  32.959  30.879  1.00  0.00     0.049 A 
ATOM     64  H   UNL A   1      40.296  33.869  29.984  1.00  0.00     0.167 HD
ATOM     65  C   UNL A   1      44.103  32.614  29.694  1.00  0.00     0.074 A 
ATOM     66  C   UNL A   1      45.168  32.757  28.705  1.00  0.00     0.031 C 
ATOM     67  C   UNL A   1      43.056  33.460  29.999  1.00  0.00     0.037 A 
BRANCH  54  68
ATOM     68  C   UNL A   1      37.308  32.256  30.365  1.00  0.00     0.064 A 
ATOM     69  C   UNL A   1      37.018  33.243  29.410  1.00  0.00     0.173 A 
ATOM     70  C   UNL A   1      36.246  31.996  31.269  1.00  0.00     0.173 A 
ATOM     71  F   UNL A   1      37.884  33.500  28.421  1.00  0.00    -0.203 F 
ATOM     72  C   UNL A   1      35.839  34.008  29.453  1.00  0.00     0.198 A 
ATOM     73  C   UNL A   1      35.118  32.823  31.379  1.00  0.00     0.198 A 
ATOM     74  F   UNL A   1      36.256  30.916  32.066  1.00  0.00    -0.203 F 
ATOM     75  F   UNL A   1      35.608  34.933  28.511  1.00  0.00    -0.200 F 
ATOM     76  C   UNL A   1      34.921  33.842  30.474  1.00  0.00     0.200 A 
ATOM     77  F   UNL A   1      34.239  32.634  32.376  1.00  0.00    -0.200 F 
ATOM     78  F   UNL A   1      33.843  34.636  30.568  1.00  0.00    -0.200 F 
ENDBRANCH  54  68
BRANCH  55  79
ATOM     79  C   UNL A   1      46.238  28.409  28.487  1.00  0.00     0.064 A 
ATOM     80  C   UNL A   1      47.245  27.507  28.928  1.00  0.00     0.173 A 
ATOM     81  C   UNL A   1      45.619  28.109  27.267  1.00  0.00     0.173 A 
ATOM     82  F   UNL A   1      47.869  27.720  30.099  1.00  0.00    -0.203 F 
ATOM     83  C   UNL A   1      47.473  26.290  28.286  1.00  0.00     0.198 A 
ATOM     84  C   UNL A   1      45.907  26.919  26.587  1.00  0.00     0.198 A 
ATOM     85  F   UNL A   1      44.634  28.881  26.790  1.00  0.00    -0.203 F 
ATOM     86  F   UNL A   1      48.261  25.367  28.857  1.00  0.00    -0.200 F 
ATOM     87  C   UNL A   1      46.787  25.989  27.125  1.00  0.00     0.200 A 
ATOM     88  F   UNL A   1      45.197  26.587  25.498  1.00  0.00    -0.200 F 
ATOM     89  F   UNL A   1      46.899  24.770  26.577  1.00  0.00    -0.200 F 
ENDBRANCH  55  79
BRANCH  67  90
ATOM     90  C   UNL A   1      43.010  34.823  29.324  1.00  0.00     0.064 A 
ATOM     91  C   UNL A   1      43.164  35.999  30.083  1.00  0.00     0.173 A 
ATOM     92  C   UNL A   1      42.820  35.027  27.941  1.00  0.00     0.173 A 
ATOM     93  F   UNL A   1      43.267  35.936  31.419  1.00  0.00    -0.203 F 
ATOM     94  C   UNL A   1      43.245  37.262  29.492  1.00  0.00     0.198 A 
ATOM     95  C   UNL A   1      42.842  36.294  27.357  1.00  0.00     0.198 A 
ATOM     96  F   UNL A   1      42.620  34.010  27.093  1.00  0.00    -0.203 F 
ATOM     97  F   UNL A   1      43.498  38.335  30.253  1.00  0.00    -0.200 F 
ATOM     98  C   UNL A   1      43.082  37.410  28.129  1.00  0.00     0.200 A 
ATOM     99  F   UNL A   1      42.638  36.417  26.037  1.00  0.00    -0.200 F 
ATOM    100  F   UNL A   1      43.147  38.621  27.562  1.00  0.00    -0.200 F 
ENDBRANCH  67  90
ENDBRANCH  41  42
ENDBRANCH  34  36
ENDBRANCH  33  34
ENDBRANCH  32  33
ENDBRANCH  31  32
ENDBRANCH  30  31
ENDBRANCH  29  30
ENDBRANCH   1  29
TORSDOF 22
ENDMDL
MODEL 3
REMARK VINA RESULT:     -12.1      3.904     10.225
REMARK SMILES Cc1ccc(S(=O)(=O)N[C@@H](Cc2cccc(F)c2)C(=O)OCCOCCOCCOC(=O)c2ccc(-c3c4nc(c(-c5c(F)c(F)c(F)c(F)c5F)c5ccc([nH]5)c(-c5c(F)c(F)c(F)c(F)c5F)c5nc(c(-c6c(F)c(F)c(F)c(F)c6F)c6ccc3[nH]6)C=C5)C=C4)cc2)cc1
REMARK SMILES IDX 25 1 24 2 23 3 22 4 21 5 19 6 20 7 10 8 9 9 6 11 7 12 8 13
REMARK SMILES IDX 5 14 1 15 2 16 3 17 97 18 4 19 96 20 11 21 12 22 13 23 18 24
REMARK SMILES IDX 14 25 16 26 15 27 17 28 26 29 27 30 28 31 29 32 30 33 31 34
REMARK SMILES IDX 32 35 33 36 34 37 95 38 35 39 94 40 36 41 37 42 38 43 88 44
REMARK SMILES IDX 39 45 93 46 87 47 89 48 40 49 92 50 86 51 85 52 41 54 73 55
REMARK SMILES IDX 53 56 72 57 54 58 57 59 71 60 90 61 55 62 56 63 70 65 91 66
REMARK SMILES IDX 58 67 42 68 43 69 51 70 44 71 45 72 49 73 52 74 46 75 47 76
REMARK SMILES IDX 50 77 48 78 74 79 75 80 83 81 76 82 77 83 81 84 84 85 78 86
REMARK SMILES IDX 79 87 82 88 80 89 59 90 60 91 68 92 61 93 62 94 66 95 69 96
REMARK SMILES IDX 63 97 64 98 67 99 65 100
REMARK H PARENT 9 10 89 53 57 64
REMARK Flexibility Score: inf
ROOT
ATOM      1  C   UNL A   1      31.850  28.831  23.886  1.00  0.00     0.188 C 
ENDROOT
BRANCH   1   2
ATOM      2  O   UNL A   1      30.734  27.986  23.510  1.00  0.00    -0.376 OA
BRANCH   2   3
ATOM      3  C   UNL A   1      30.256  26.727  24.071  1.00  0.00     0.202 C 
BRANCH   3   4
ATOM      4  C   UNL A   1      30.351  24.974  23.622  1.00  0.00     0.261 C 
BRANCH   4   5
ATOM      5  O   UNL A   1      31.527  23.960  22.762  1.00  0.00    -0.462 OA
BRANCH   5   6
ATOM      6  C   UNL A   1      32.067  22.616  22.865  1.00  0.00     0.324 C 
ATOM      7  O   UNL A   1      31.953  21.741  22.004  1.00  0.00    -0.250 OA
BRANCH   6   8
ATOM      8  C   UNL A   1      32.830  22.016  24.024  1.00  0.00     0.184 C 
BRANCH   8   9
ATOM      9  N   UNL A   1      33.576  22.961  24.826  1.00  0.00    -0.197 NA
ATOM     10  H   UNL A   1      32.915  23.679  25.121  1.00  0.00     0.142 HD
BRANCH   9  11
ATOM     11  S   UNL A   1      34.894  23.759  24.189  1.00  0.00     0.241 S 
ATOM     12  O   UNL A   1      34.785  25.131  24.622  1.00  0.00    -0.207 OA
ATOM     13  O   UNL A   1      34.895  23.406  22.783  1.00  0.00    -0.207 OA
BRANCH  11  14
ATOM     14  C   UNL A   1      36.408  23.111  24.887  1.00  0.00     0.082 A 
ATOM     15  C   UNL A   1      40.114  21.916  26.762  1.00  0.00     0.044 C 
ATOM     16  C   UNL A   1      38.810  22.303  26.124  1.00  0.00    -0.051 A 
ATOM     17  C   UNL A   1      38.275  23.571  26.373  1.00  0.00     0.005 A 
ATOM     18  C   UNL A   1      38.131  21.441  25.255  1.00  0.00     0.005 A 
ATOM     19  C   UNL A   1      37.075  23.963  25.777  1.00  0.00     0.022 A 
ATOM     20  C   UNL A   1      36.952  21.853  24.610  1.00  0.00     0.022 A 
ENDBRANCH  11  14
ENDBRANCH   9  11
ENDBRANCH   8   9
BRANCH   8  21
ATOM     21  C   UNL A   1      32.189  20.778  24.776  1.00  0.00     0.067 C 
BRANCH  21  22
ATOM     22  C   UNL A   1      32.809  19.392  24.609  1.00  0.00    -0.043 A 
ATOM     23  C   UNL A   1      32.153  18.441  23.812  1.00  0.00     0.004 A 
ATOM     24  C   UNL A   1      34.089  19.090  25.084  1.00  0.00     0.043 A 
ATOM     25  C   UNL A   1      32.878  17.418  23.211  1.00  0.00     0.003 A 
ATOM     26  C   UNL A   1      34.831  18.142  24.407  1.00  0.00     0.123 A 
ATOM     27  C   UNL A   1      34.245  17.356  23.435  1.00  0.00     0.039 A 
ATOM     28  F   UNL A   1      36.154  18.099  24.586  1.00  0.00    -0.207 F 
ENDBRANCH  21  22
ENDBRANCH   8  21
ENDBRANCH   6   8
ENDBRANCH   5   6
ENDBRANCH   4   5
ENDBRANCH   3   4
ENDBRANCH   2   3
ENDBRANCH   1   2
BRANCH   1  29
ATOM     29  C   UNL A   1      32.532  28.749  25.235  1.00  0.00     0.188 C 
BRANCH  29  30
ATOM     30  O   UNL A   1      31.720  29.427  26.155  1.00  0.00    -0.376 OA
BRANCH  30  31
ATOM     31  C   UNL A   1      32.296  30.556  26.764  1.00  0.00     0.202 C 
BRANCH  31  32
ATOM     32  C   UNL A   1      33.662  30.242  27.388  1.00  0.00     0.261 C 
BRANCH  32  33
ATOM     33  O   UNL A   1      34.335  31.469  27.782  1.00  0.00    -0.460 OA
BRANCH  33  34
ATOM     34  C   UNL A   1      35.214  31.405  28.842  1.00  0.00     0.338 C 
ATOM     35  O   UNL A   1      35.429  32.318  29.617  1.00  0.00    -0.246 OA
BRANCH  34  36
ATOM     36  C   UNL A   1      36.056  30.153  28.745  1.00  0.00     0.060 A 
ATOM     37  C   UNL A   1      36.472  29.347  29.822  1.00  0.00     0.016 A 
ATOM     38  C   UNL A   1      36.807  30.058  27.631  1.00  0.00     0.016 A 
ATOM     39  C   UNL A   1      37.794  28.703  29.863  1.00  0.00     0.010 A 
ATOM     40  C   UNL A   1      38.135  29.697  27.856  1.00  0.00     0.010 A 
ATOM     41  C   UNL A   1      38.798  28.970  28.925  1.00  0.00    -0.014 A 
BRANCH  41  42
ATOM     42  C   UNL A   1      40.530  28.506  29.054  1.00  0.00     0.031 A 
ATOM     43  C   UNL A   1      41.458  27.062  28.527  1.00  0.00     0.074 A 
ATOM     44  C   UNL A   1      41.387  29.349  29.680  1.00  0.00     0.049 A 
ATOM     45  N   UNL A   1      42.779  26.979  28.437  1.00  0.00    -0.248 NA
ATOM     46  C   UNL A   1      40.980  25.743  27.949  1.00  0.00     0.031 C 
ATOM     47  C   UNL A   1      42.844  29.417  29.521  1.00  0.00     0.029 A 
ATOM     48  N   UNL A   1      41.136  30.372  30.597  1.00  0.00    -0.354 N 
ATOM     49  C   UNL A   1      43.155  25.812  27.759  1.00  0.00     0.074 A 
ATOM     50  C   UNL A   1      41.972  25.299  27.197  1.00  0.00     0.031 C 
ATOM     51  C   UNL A   1      43.370  30.119  30.529  1.00  0.00     0.029 A 
ATOM     52  C   UNL A   1      42.285  30.419  31.421  1.00  0.00     0.049 A 
ATOM     53  H   UNL A   1      40.333  30.938  30.655  1.00  0.00     0.167 HD
ATOM     54  C   UNL A   1      44.363  25.179  27.765  1.00  0.00     0.037 A 
ATOM     55  C   UNL A   1      42.194  30.100  32.738  1.00  0.00     0.037 A 
ATOM     56  C   UNL A   1      45.273  25.811  28.691  1.00  0.00     0.049 A 
ATOM     57  C   UNL A   1      43.064  28.905  33.109  1.00  0.00     0.074 A 
ATOM     58  C   UNL A   1      45.835  27.070  28.753  1.00  0.00     0.029 A 
ATOM     59  N   UNL A   1      45.361  25.305  29.973  1.00  0.00    -0.354 N 
ATOM     60  N   UNL A   1      43.975  28.333  32.356  1.00  0.00    -0.248 NA
ATOM     61  C   UNL A   1      42.869  28.204  34.373  1.00  0.00     0.031 C 
ATOM     62  C   UNL A   1      45.929  27.410  30.142  1.00  0.00     0.029 A 
ATOM     63  C   UNL A   1      45.495  26.333  30.908  1.00  0.00     0.049 A 
ATOM     64  H   UNL A   1      45.333  24.347  30.197  1.00  0.00     0.167 HD
ATOM     65  C   UNL A   1      44.343  27.131  32.921  1.00  0.00     0.074 A 
ATOM     66  C   UNL A   1      43.641  27.123  34.202  1.00  0.00     0.031 C 
ATOM     67  C   UNL A   1      45.097  26.146  32.317  1.00  0.00     0.037 A 
BRANCH  54  68
ATOM     68  C   UNL A   1      44.661  23.967  26.869  1.00  0.00     0.064 A 
ATOM     69  C   UNL A   1      45.595  24.086  25.827  1.00  0.00     0.173 A 
ATOM     70  C   UNL A   1      43.980  22.723  26.895  1.00  0.00     0.173 A 
ATOM     71  F   UNL A   1      46.395  25.158  25.758  1.00  0.00    -0.203 F 
ATOM     72  C   UNL A   1      45.723  23.116  24.817  1.00  0.00     0.198 A 
ATOM     73  C   UNL A   1      44.029  21.803  25.837  1.00  0.00     0.198 A 
ATOM     74  F   UNL A   1      43.257  22.346  27.961  1.00  0.00    -0.203 F 
ATOM     75  F   UNL A   1      46.638  23.275  23.851  1.00  0.00    -0.200 F 
ATOM     76  C   UNL A   1      44.895  22.008  24.787  1.00  0.00     0.200 A 
ATOM     77  F   UNL A   1      43.220  20.732  25.838  1.00  0.00    -0.200 F 
ATOM     78  F   UNL A   1      44.954  21.132  23.772  1.00  0.00    -0.200 F 
ENDBRANCH  54  68
BRANCH  55  79
ATOM     79  C   UNL A   1      40.838  30.492  33.262  1.00  0.00     0.064 A 
ATOM     80  C   UNL A   1      40.562  31.885  33.339  1.00  0.00     0.173 A 
ATOM     81  C   UNL A   1      39.731  29.636  33.211  1.00  0.00     0.173 A 
ATOM     82  F   UNL A   1      41.575  32.767  33.371  1.00  0.00    -0.203 F 
ATOM     83  C   UNL A   1      39.272  32.388  33.178  1.00  0.00     0.198 A 
ATOM     84  C   UNL A   1      38.429  30.147  33.126  1.00  0.00     0.198 A 
ATOM     85  F   UNL A   1      39.892  28.311  33.101  1.00  0.00    -0.203 F 
ATOM     86  F   UNL A   1      39.079  33.707  33.024  1.00  0.00    -0.200 F 
ATOM     87  C   UNL A   1      38.208  31.516  33.051  1.00  0.00     0.200 A 
ATOM     88  F   UNL A   1      37.398  29.311  32.932  1.00  0.00    -0.200 F 
ATOM     89  F   UNL A   1      36.986  31.987  32.761  1.00  0.00    -0.200 F 
ENDBRANCH  55  79
BRANCH  67  90
ATOM     90  C   UNL A   1      45.384  24.874  33.100  1.00  0.00     0.064 A 
ATOM     91  C   UNL A   1      46.681  24.611  33.581  1.00  0.00     0.173 A 
ATOM     92  C   UNL A   1      44.424  23.886  33.406  1.00  0.00     0.173 A 
ATOM     93  F   UNL A   1      47.696  25.436  33.283  1.00  0.00    -0.203 F 
ATOM     94  C   UNL A   1      46.964  23.517  34.403  1.00  0.00     0.198 A 
ATOM     95  C   UNL A   1      44.720  22.761  34.178  1.00  0.00     0.198 A 
ATOM     96  F   UNL A   1      43.155  23.973  32.985  1.00  0.00    -0.203 F 
ATOM     97  F   UNL A   1      48.192  23.375  34.919  1.00  0.00    -0.200 F 
ATOM     98  C   UNL A   1      45.983  22.591  34.699  1.00  0.00     0.200 A 
ATOM     99  F   UNL A   1      43.762  21.854  34.416  1.00  0.00    -0.200 F 
ATOM    100  F   UNL A   1      46.255  21.535  35.477  1.00  0.00    -0.200 F 
ENDBRANCH  67  90
ENDBRANCH  41  42
ENDBRANCH  34  36
ENDBRANCH  33  34
ENDBRANCH  32  33
ENDBRANCH  31  32
ENDBRANCH  30  31
ENDBRANCH  29  30
ENDBRANCH   1  29
TORSDOF 22
ENDMDL
