MODEL 1
REMARK VINA RESULT:     -11.6      0.000      0.000
REMARK SMILES Cc1ncc(CC(=O)N2CCc3c(c(C(=O)OCCOCCOCCOC(=O)c4ccc(-c5c6nc(c(-c7c(F)c(F)c(F)c(F)c7F)c7ccc([nH]7)c(-c7c(F)c(F)c(F)c(F)c7F)c7nc(c(-c8c(F)c(F)c(F)c(F)c8F)c8ccc5[nH]8)C=C7)C=C6)cc4)nn3CC3CC3)C2)c(=O)[nH]1
REMARK SMILES IDX 21 1 20 2 19 3 18 4 17 5 15 6 16 7 14 8 9 9 10 10 98 11
REMARK SMILES IDX 11 12 13 13 12 14 93 15 92 16 7 17 8 18 6 19 5 20 1 21 2 22
REMARK SMILES IDX 3 23 101 24 4 25 99 26 100 28 94 29 95 30 96 31 97 32 22 33
REMARK SMILES IDX 23 34 24 35 25 36 26 37 27 38 28 39 29 40 30 41 91 42 31 43
REMARK SMILES IDX 90 44 32 45 33 46 34 47 84 48 35 49 89 50 83 51 85 52 36 53
REMARK SMILES IDX 88 54 82 55 81 56 37 58 69 59 49 60 68 61 50 62 53 63 67 64
REMARK SMILES IDX 86 65 51 66 52 67 66 69 87 70 54 71 38 72 39 73 47 74 40 75
REMARK SMILES IDX 41 76 45 77 48 78 42 79 43 80 46 81 44 82 70 83 71 84 79 85
REMARK SMILES IDX 72 86 73 87 77 88 80 89 74 90 75 91 78 92 76 93 55 94 56 95
REMARK SMILES IDX 64 96 57 97 58 98 62 99 65 100 59 101 60 102 63 103 61 104
REMARK H PARENT 101 27 85 57 53 68
REMARK Flexibility Score: inf
ROOT
ATOM      1  C   UNL A   1      34.921  33.326  28.128  1.00  0.00     0.188 C 
ENDROOT
BRANCH   1   2
ATOM      2  O   UNL A   1      34.130  32.150  28.183  1.00  0.00    -0.376 OA
BRANCH   2   3
ATOM      3  C   UNL A   1      34.611  30.917  27.669  1.00  0.00     0.202 C 
BRANCH   3   4
ATOM      4  C   UNL A   1      33.705  29.876  26.980  1.00  0.00     0.261 C 
BRANCH   4   5
ATOM      5  O   UNL A   1      33.737  28.544  27.493  1.00  0.00    -0.458 OA
BRANCH   5   6
ATOM      6  C   UNL A   1      32.613  27.792  27.275  1.00  0.00     0.359 C 
ATOM      7  O   UNL A   1      31.560  27.944  27.865  1.00  0.00    -0.244 OA
BRANCH   6   8
ATOM      8  C   UNL A   1      32.752  26.894  26.114  1.00  0.00     0.175 A 
ATOM      9  N   UNL A   1      30.089  27.174  23.470  1.00  0.00    -0.338 N 
ATOM     10  C   UNL A   1      30.913  26.652  22.362  1.00  0.00     0.126 C 
ATOM     11  C   UNL A   1      30.828  27.844  24.550  1.00  0.00     0.159 C 
ATOM     12  C   UNL A   1      31.862  25.527  22.828  1.00  0.00     0.078 C 
ATOM     13  C   UNL A   1      31.951  26.937  24.941  1.00  0.00     0.028 A 
ATOM     14  C   UNL A   1      32.438  25.924  24.140  1.00  0.00     0.046 A 
ATOM     15  N   UNL A   1      33.472  25.351  24.813  1.00  0.00    -0.268 N 
ATOM     16  N   UNL A   1      33.696  25.935  26.013  1.00  0.00    -0.165 NA
BRANCH   9  17
ATOM     17  C   UNL A   1      28.708  27.244  23.508  1.00  0.00     0.227 C 
ATOM     18  O   UNL A   1      28.049  26.327  24.010  1.00  0.00    -0.275 OA
BRANCH  17  19
ATOM     19  C   UNL A   1      27.991  28.277  22.629  1.00  0.00     0.143 C 
BRANCH  19  20
ATOM     20  C   UNL A   1      28.285  29.722  22.824  1.00  0.00     0.045 A 
ATOM     21  C   UNL A   1      29.036  33.869  23.137  1.00  0.00     0.087 C 
ATOM     22  C   UNL A   1      28.760  32.397  23.086  1.00  0.00     0.105 A 
ATOM     23  N   UNL A   1      27.822  31.871  23.807  1.00  0.00    -0.243 NA
ATOM     24  N   UNL A   1      29.542  31.675  22.230  1.00  0.00    -0.311 N 
ATOM     25  C   UNL A   1      27.625  30.523  23.672  1.00  0.00     0.123 A 
ATOM     26  C   UNL A   1      29.376  30.335  22.041  1.00  0.00     0.254 A 
ATOM     27  H   UNL A   1      30.251  32.141  21.730  1.00  0.00     0.171 HD
ATOM     28  O   UNL A   1      30.063  29.696  21.255  1.00  0.00    -0.269 OA
ENDBRANCH  19  20
ENDBRANCH  17  19
ENDBRANCH   9  17
BRANCH  15  29
ATOM     29  C   UNL A   1      34.226  24.162  24.425  1.00  0.00     0.148 C 
BRANCH  29  30
ATOM     30  C   UNL A   1      35.667  24.132  24.854  1.00  0.00     0.011 C 
ATOM     31  C   UNL A   1      36.214  23.358  26.033  1.00  0.00     0.006 C 
ATOM     32  C   UNL A   1      36.467  22.868  24.637  1.00  0.00     0.006 C 
ENDBRANCH  29  30
ENDBRANCH  15  29
ENDBRANCH   6   8
ENDBRANCH   5   6
ENDBRANCH   4   5
ENDBRANCH   3   4
ENDBRANCH   2   3
ENDBRANCH   1   2
BRANCH   1  33
ATOM     33  C   UNL A   1      34.339  34.649  27.588  1.00  0.00     0.188 C 
BRANCH  33  34
ATOM     34  O   UNL A   1      34.607  35.785  28.375  1.00  0.00    -0.376 OA
BRANCH  34  35
ATOM     35  C   UNL A   1      33.581  36.563  28.962  1.00  0.00     0.202 C 
BRANCH  35  36
ATOM     36  C   UNL A   1      32.911  36.266  30.302  1.00  0.00     0.261 C 
BRANCH  36  37
ATOM     37  O   UNL A   1      33.185  35.017  30.898  1.00  0.00    -0.460 OA
BRANCH  37  38
ATOM     38  C   UNL A   1      33.187  35.043  32.245  1.00  0.00     0.338 C 
ATOM     39  O   UNL A   1      32.379  35.582  32.981  1.00  0.00    -0.246 OA
BRANCH  38  40
ATOM     40  C   UNL A   1      34.398  34.376  32.712  1.00  0.00     0.060 A 
ATOM     41  C   UNL A   1      35.542  35.158  32.879  1.00  0.00     0.016 A 
ATOM     42  C   UNL A   1      34.438  32.974  32.684  1.00  0.00     0.016 A 
ATOM     43  C   UNL A   1      36.767  34.534  32.826  1.00  0.00     0.010 A 
ATOM     44  C   UNL A   1      35.660  32.356  32.606  1.00  0.00     0.010 A 
ATOM     45  C   UNL A   1      36.801  33.155  32.595  1.00  0.00    -0.014 A 
BRANCH  45  46
ATOM     46  C   UNL A   1      38.085  32.549  32.323  1.00  0.00     0.031 A 
ATOM     47  C   UNL A   1      38.957  32.424  33.509  1.00  0.00     0.074 A 
ATOM     48  C   UNL A   1      38.369  32.049  31.107  1.00  0.00     0.049 A 
ATOM     49  N   UNL A   1      40.129  32.933  33.692  1.00  0.00    -0.248 NA
ATOM     50  C   UNL A   1      38.401  31.741  34.688  1.00  0.00     0.031 C 
ATOM     51  C   UNL A   1      37.452  31.865  29.976  1.00  0.00     0.029 A 
ATOM     52  N   UNL A   1      39.525  31.488  30.661  1.00  0.00    -0.354 N 
ATOM     53  C   UNL A   1      40.537  32.483  34.943  1.00  0.00     0.074 A 
ATOM     54  C   UNL A   1      39.382  31.905  35.574  1.00  0.00     0.031 C 
ATOM     55  C   UNL A   1      38.025  31.039  29.072  1.00  0.00     0.029 A 
ATOM     56  C   UNL A   1      39.381  30.738  29.504  1.00  0.00     0.049 A 
ATOM     57  H   UNL A   1      40.387  31.604  31.121  1.00  0.00     0.167 HD
ATOM     58  C   UNL A   1      41.856  32.382  35.253  1.00  0.00     0.037 A 
ATOM     59  C   UNL A   1      40.286  29.865  29.000  1.00  0.00     0.037 A 
ATOM     60  C   UNL A   1      42.659  33.220  34.402  1.00  0.00     0.049 A 
ATOM     61  C   UNL A   1      41.598  30.167  29.627  1.00  0.00     0.074 A 
ATOM     62  C   UNL A   1      42.719  34.578  34.156  1.00  0.00     0.029 A 
ATOM     63  N   UNL A   1      43.353  32.624  33.379  1.00  0.00    -0.354 N 
ATOM     64  N   UNL A   1      42.298  31.240  29.388  1.00  0.00    -0.248 NA
ATOM     65  C   UNL A   1      41.945  29.459  30.851  1.00  0.00     0.031 C 
ATOM     66  C   UNL A   1      43.045  34.695  32.772  1.00  0.00     0.029 A 
ATOM     67  C   UNL A   1      43.204  33.405  32.264  1.00  0.00     0.049 A 
ATOM     68  H   UNL A   1      43.865  31.785  33.436  1.00  0.00     0.167 HD
ATOM     69  C   UNL A   1      42.857  31.577  30.612  1.00  0.00     0.074 A 
ATOM     70  C   UNL A   1      42.700  30.387  31.443  1.00  0.00     0.031 C 
ATOM     71  C   UNL A   1      43.129  32.878  30.922  1.00  0.00     0.037 A 
BRANCH  58  72
ATOM     72  C   UNL A   1      42.433  31.235  36.046  1.00  0.00     0.064 A 
ATOM     73  C   UNL A   1      43.300  31.518  37.119  1.00  0.00     0.173 A 
ATOM     74  C   UNL A   1      42.420  29.888  35.615  1.00  0.00     0.173 A 
ATOM     75  F   UNL A   1      43.409  32.767  37.597  1.00  0.00    -0.203 F 
ATOM     76  C   UNL A   1      44.151  30.549  37.654  1.00  0.00     0.198 A 
ATOM     77  C   UNL A   1      43.228  28.912  36.192  1.00  0.00     0.198 A 
ATOM     78  F   UNL A   1      41.723  29.481  34.548  1.00  0.00    -0.203 F 
ATOM     79  F   UNL A   1      45.058  30.899  38.577  1.00  0.00    -0.200 F 
ATOM     80  C   UNL A   1      44.120  29.248  37.186  1.00  0.00     0.200 A 
ATOM     81  F   UNL A   1      43.195  27.661  35.709  1.00  0.00    -0.200 F 
ATOM     82  F   UNL A   1      44.981  28.335  37.650  1.00  0.00    -0.200 F 
ENDBRANCH  58  72
BRANCH  59  83
ATOM     83  C   UNL A   1      40.036  28.605  28.262  1.00  0.00     0.064 A 
ATOM     84  C   UNL A   1      40.663  28.354  27.031  1.00  0.00     0.173 A 
ATOM     85  C   UNL A   1      39.393  27.509  28.870  1.00  0.00     0.173 A 
ATOM     86  F   UNL A   1      41.337  29.330  26.405  1.00  0.00    -0.203 F 
ATOM     87  C   UNL A   1      40.669  27.078  26.457  1.00  0.00     0.198 A 
ATOM     88  C   UNL A   1      39.389  26.239  28.292  1.00  0.00     0.198 A 
ATOM     89  F   UNL A   1      38.838  27.623  30.086  1.00  0.00    -0.203 F 
ATOM     90  F   UNL A   1      41.335  26.863  25.314  1.00  0.00    -0.200 F 
ATOM     91  C   UNL A   1      40.039  26.021  27.093  1.00  0.00     0.200 A 
ATOM     92  F   UNL A   1      38.806  25.219  28.936  1.00  0.00    -0.200 F 
ATOM     93  F   UNL A   1      40.096  24.786  26.575  1.00  0.00    -0.200 F 
ENDBRANCH  59  83
BRANCH  71  94
ATOM     94  C   UNL A   1      43.106  33.876  29.800  1.00  0.00     0.064 A 
ATOM     95  C   UNL A   1      44.200  34.137  28.955  1.00  0.00     0.173 A 
ATOM     96  C   UNL A   1      41.889  34.497  29.489  1.00  0.00     0.173 A 
ATOM     97  F   UNL A   1      45.367  33.502  29.123  1.00  0.00    -0.203 F 
ATOM     98  C   UNL A   1      44.088  35.020  27.883  1.00  0.00     0.198 A 
ATOM     99  C   UNL A   1      41.771  35.347  28.394  1.00  0.00     0.198 A 
ATOM    100  F   UNL A   1      40.796  34.241  30.226  1.00  0.00    -0.203 F 
ATOM    101  F   UNL A   1      45.151  35.267  27.102  1.00  0.00    -0.200 F 
ATOM    102  C   UNL A   1      42.872  35.618  27.599  1.00  0.00     0.200 A 
ATOM    103  F   UNL A   1      40.579  35.883  28.093  1.00  0.00    -0.200 F 
ATOM    104  F   UNL A   1      42.754  36.435  26.544  1.00  0.00    -0.200 F 
ENDBRANCH  71  94
ENDBRANCH  45  46
ENDBRANCH  38  40
ENDBRANCH  37  38
ENDBRANCH  36  37
ENDBRANCH  35  36
ENDBRANCH  34  35
ENDBRANCH  33  34
ENDBRANCH   1  33
TORSDOF 22
ENDMDL
MODEL 2
REMARK VINA RESULT:     -11.3      1.675      4.272
REMARK SMILES Cc1ncc(CC(=O)N2CCc3c(c(C(=O)OCCOCCOCCOC(=O)c4ccc(-c5c6nc(c(-c7c(F)c(F)c(F)c(F)c7F)c7ccc([nH]7)c(-c7c(F)c(F)c(F)c(F)c7F)c7nc(c(-c8c(F)c(F)c(F)c(F)c8F)c8ccc5[nH]8)C=C7)C=C6)cc4)nn3CC3CC3)C2)c(=O)[nH]1
REMARK SMILES IDX 21 1 20 2 19 3 18 4 17 5 15 6 16 7 14 8 9 9 10 10 98 11
REMARK SMILES IDX 11 12 13 13 12 14 93 15 92 16 7 17 8 18 6 19 5 20 1 21 2 22
REMARK SMILES IDX 3 23 101 24 4 25 99 26 100 28 94 29 95 30 96 31 97 32 22 33
REMARK SMILES IDX 23 34 24 35 25 36 26 37 27 38 28 39 29 40 30 41 91 42 31 43
REMARK SMILES IDX 90 44 32 45 33 46 34 47 84 48 35 49 89 50 83 51 85 52 36 53
REMARK SMILES IDX 88 54 82 55 81 56 37 58 69 59 49 60 68 61 50 62 53 63 67 64
REMARK SMILES IDX 86 65 51 66 52 67 66 69 87 70 54 71 38 72 39 73 47 74 40 75
REMARK SMILES IDX 41 76 45 77 48 78 42 79 43 80 46 81 44 82 70 83 71 84 79 85
REMARK SMILES IDX 72 86 73 87 77 88 80 89 74 90 75 91 78 92 76 93 55 94 56 95
REMARK SMILES IDX 64 96 57 97 58 98 62 99 65 100 59 101 60 102 63 103 61 104
REMARK H PARENT 101 27 85 57 53 68
REMARK Flexibility Score: inf
ROOT
ATOM      1  C   UNL A   1      34.680  33.768  28.028  1.00  0.00     0.188 C 
ENDROOT
BRANCH   1   2
ATOM      2  O   UNL A   1      33.889  32.596  27.923  1.00  0.00    -0.376 OA
BRANCH   2   3
ATOM      3  C   UNL A   1      34.386  31.334  28.343  1.00  0.00     0.202 C 
BRANCH   3   4
ATOM      4  C   UNL A   1      34.012  30.005  27.654  1.00  0.00     0.261 C 
BRANCH   4   5
ATOM      5  O   UNL A   1      33.364  30.091  26.384  1.00  0.00    -0.458 OA
BRANCH   5   6
ATOM      6  C   UNL A   1      33.588  29.045  25.528  1.00  0.00     0.359 C 
ATOM      7  O   UNL A   1      34.659  28.483  25.396  1.00  0.00    -0.244 OA
BRANCH   6   8
ATOM      8  C   UNL A   1      32.346  28.543  24.913  1.00  0.00     0.175 A 
ATOM      9  N   UNL A   1      31.032  25.279  26.246  1.00  0.00    -0.338 N 
ATOM     10  C   UNL A   1      29.625  25.508  25.861  1.00  0.00     0.126 C 
ATOM     11  C   UNL A   1      31.822  26.490  26.512  1.00  0.00     0.159 C 
ATOM     12  C   UNL A   1      29.509  26.252  24.514  1.00  0.00     0.078 C 
ATOM     13  C   UNL A   1      31.602  27.419  25.361  1.00  0.00     0.028 A 
ATOM     14  C   UNL A   1      30.532  27.330  24.492  1.00  0.00     0.046 A 
ATOM     15  N   UNL A   1      30.653  28.360  23.611  1.00  0.00    -0.268 N 
ATOM     16  N   UNL A   1      31.741  29.125  23.855  1.00  0.00    -0.165 NA
BRANCH   9  17
ATOM     17  C   UNL A   1      31.618  24.061  26.540  1.00  0.00     0.227 C 
ATOM     18  O   UNL A   1      31.436  23.529  27.640  1.00  0.00    -0.275 OA
BRANCH  17  19
ATOM     19  C   UNL A   1      32.757  23.550  25.648  1.00  0.00     0.143 C 
BRANCH  19  20
ATOM     20  C   UNL A   1      32.856  22.094  25.365  1.00  0.00     0.045 A 
ATOM     21  C   UNL A   1      32.995  17.911  24.770  1.00  0.00     0.087 C 
ATOM     22  C   UNL A   1      32.950  19.402  24.920  1.00  0.00     0.105 A 
ATOM     23  N   UNL A   1      32.290  20.135  24.083  1.00  0.00    -0.243 NA
ATOM     24  N   UNL A   1      33.626  19.911  25.993  1.00  0.00    -0.311 N 
ATOM     25  C   UNL A   1      32.283  21.484  24.317  1.00  0.00     0.123 A 
ATOM     26  C   UNL A   1      33.635  21.243  26.286  1.00  0.00     0.254 A 
ATOM     27  H   UNL A   1      34.124  19.293  26.575  1.00  0.00     0.171 HD
ATOM     28  O   UNL A   1      34.223  21.693  27.261  1.00  0.00    -0.269 OA
ENDBRANCH  19  20
ENDBRANCH  17  19
ENDBRANCH   9  17
BRANCH  15  29
ATOM     29  C   UNL A   1      29.828  28.613  22.433  1.00  0.00     0.148 C 
BRANCH  29  30
ATOM     30  C   UNL A   1      29.124  29.942  22.401  1.00  0.00     0.011 C 
ATOM     31  C   UNL A   1      28.058  30.343  21.405  1.00  0.00     0.006 C 
ATOM     32  C   UNL A   1      27.673  30.010  22.817  1.00  0.00     0.006 C 
ENDBRANCH  29  30
ENDBRANCH  15  29
ENDBRANCH   6   8
ENDBRANCH   5   6
ENDBRANCH   4   5
ENDBRANCH   3   4
ENDBRANCH   2   3
ENDBRANCH   1   2
BRANCH   1  33
ATOM     33  C   UNL A   1      34.226  35.092  27.379  1.00  0.00     0.188 C 
BRANCH  33  34
ATOM     34  O   UNL A   1      34.404  36.240  28.175  1.00  0.00    -0.376 OA
BRANCH  34  35
ATOM     35  C   UNL A   1      33.384  36.754  29.008  1.00  0.00     0.202 C 
BRANCH  35  36
ATOM     36  C   UNL A   1      33.220  36.438  30.494  1.00  0.00     0.261 C 
BRANCH  36  37
ATOM     37  O   UNL A   1      33.277  35.080  30.874  1.00  0.00    -0.460 OA
BRANCH  37  38
ATOM     38  C   UNL A   1      33.156  34.880  32.201  1.00  0.00     0.338 C 
ATOM     39  O   UNL A   1      32.234  35.214  32.924  1.00  0.00    -0.246 OA
BRANCH  38  40
ATOM     40  C   UNL A   1      34.383  34.253  32.682  1.00  0.00     0.060 A 
ATOM     41  C   UNL A   1      35.511  35.063  32.817  1.00  0.00     0.016 A 
ATOM     42  C   UNL A   1      34.452  32.852  32.698  1.00  0.00     0.016 A 
ATOM     43  C   UNL A   1      36.749  34.463  32.776  1.00  0.00     0.010 A 
ATOM     44  C   UNL A   1      35.686  32.258  32.632  1.00  0.00     0.010 A 
ATOM     45  C   UNL A   1      36.810  33.079  32.588  1.00  0.00    -0.014 A 
BRANCH  45  46
ATOM     46  C   UNL A   1      38.105  32.491  32.328  1.00  0.00     0.031 A 
ATOM     47  C   UNL A   1      38.975  32.396  33.518  1.00  0.00     0.074 A 
ATOM     48  C   UNL A   1      38.402  31.982  31.119  1.00  0.00     0.049 A 
ATOM     49  N   UNL A   1      40.138  32.926  33.698  1.00  0.00    -0.248 NA
ATOM     50  C   UNL A   1      38.427  31.717  34.703  1.00  0.00     0.031 C 
ATOM     51  C   UNL A   1      37.492  31.768  29.988  1.00  0.00     0.029 A 
ATOM     52  N   UNL A   1      39.568  31.435  30.683  1.00  0.00    -0.354 N 
ATOM     53  C   UNL A   1      40.549  32.498  34.956  1.00  0.00     0.074 A 
ATOM     54  C   UNL A   1      39.402  31.909  35.591  1.00  0.00     0.031 C 
ATOM     55  C   UNL A   1      38.081  30.941  29.096  1.00  0.00     0.029 A 
ATOM     56  C   UNL A   1      39.440  30.668  29.536  1.00  0.00     0.049 A 
ATOM     57  H   UNL A   1      40.427  31.571  31.144  1.00  0.00     0.167 HD
ATOM     58  C   UNL A   1      41.868  32.423  35.271  1.00  0.00     0.037 A 
ATOM     59  C   UNL A   1      40.361  29.804  29.044  1.00  0.00     0.037 A 
ATOM     60  C   UNL A   1      42.660  33.264  34.413  1.00  0.00     0.049 A 
ATOM     61  C   UNL A   1      41.666  30.136  29.672  1.00  0.00     0.074 A 
ATOM     62  C   UNL A   1      42.698  34.620  34.150  1.00  0.00     0.029 A 
ATOM     63  N   UNL A   1      43.367  32.668  33.399  1.00  0.00    -0.354 N 
ATOM     64  N   UNL A   1      42.348  31.217  29.422  1.00  0.00    -0.248 NA
ATOM     65  C   UNL A   1      42.021  29.449  30.906  1.00  0.00     0.031 C 
ATOM     66  C   UNL A   1      43.027  34.725  32.766  1.00  0.00     0.029 A 
ATOM     67  C   UNL A   1      43.209  33.433  32.274  1.00  0.00     0.049 A 
ATOM     68  H   UNL A   1      43.893  31.838  33.468  1.00  0.00     0.167 HD
ATOM     69  C   UNL A   1      42.898  31.578  30.644  1.00  0.00     0.074 A 
ATOM     70  C   UNL A   1      42.759  30.397  31.488  1.00  0.00     0.031 C 
ATOM     71  C   UNL A   1      43.147  32.888  30.938  1.00  0.00     0.037 A 
BRANCH  58  72
ATOM     72  C   UNL A   1      42.462  31.295  36.080  1.00  0.00     0.064 A 
ATOM     73  C   UNL A   1      43.327  31.606  37.147  1.00  0.00     0.173 A 
ATOM     74  C   UNL A   1      42.466  29.942  35.669  1.00  0.00     0.173 A 
ATOM     75  F   UNL A   1      43.420  32.864  37.606  1.00  0.00    -0.203 F 
ATOM     76  C   UNL A   1      44.192  30.656  37.695  1.00  0.00     0.198 A 
ATOM     77  C   UNL A   1      43.289  28.986  36.258  1.00  0.00     0.198 A 
ATOM     78  F   UNL A   1      41.773  29.510  34.609  1.00  0.00    -0.203 F 
ATOM     79  F   UNL A   1      45.095  31.032  38.611  1.00  0.00    -0.200 F 
ATOM     80  C   UNL A   1      44.177  29.348  37.246  1.00  0.00     0.200 A 
ATOM     81  F   UNL A   1      43.271  27.728  35.794  1.00  0.00    -0.200 F 
ATOM     82  F   UNL A   1      45.051  28.454  37.722  1.00  0.00    -0.200 F 
ENDBRANCH  58  72
BRANCH  59  83
ATOM     83  C   UNL A   1      40.135  28.532  28.321  1.00  0.00     0.064 A 
ATOM     84  C   UNL A   1      40.738  28.293  27.076  1.00  0.00     0.173 A 
ATOM     85  C   UNL A   1      39.546  27.419  28.953  1.00  0.00     0.173 A 
ATOM     86  F   UNL A   1      41.361  29.287  26.427  1.00  0.00    -0.203 F 
ATOM     87  C   UNL A   1      40.772  27.013  26.510  1.00  0.00     0.198 A 
ATOM     88  C   UNL A   1      39.569  26.146  28.383  1.00  0.00     0.198 A 
ATOM     89  F   UNL A   1      39.019  27.522  30.182  1.00  0.00    -0.203 F 
ATOM     90  F   UNL A   1      41.415  26.813  25.351  1.00  0.00    -0.200 F 
ATOM     91  C   UNL A   1      40.195  25.941  27.169  1.00  0.00     0.200 A 
ATOM     92  F   UNL A   1      39.038  25.111  29.048  1.00  0.00    -0.200 F 
ATOM     93  F   UNL A   1      40.280  24.705  26.657  1.00  0.00    -0.200 F 
ENDBRANCH  59  83
BRANCH  71  94
ATOM     94  C   UNL A   1      43.111  33.871  29.804  1.00  0.00     0.064 A 
ATOM     95  C   UNL A   1      44.204  34.143  28.962  1.00  0.00     0.173 A 
ATOM     96  C   UNL A   1      41.884  34.465  29.479  1.00  0.00     0.173 A 
ATOM     97  F   UNL A   1      45.383  33.533  29.144  1.00  0.00    -0.203 F 
ATOM     98  C   UNL A   1      44.082  35.011  27.879  1.00  0.00     0.198 A 
ATOM     99  C   UNL A   1      41.756  35.299  28.374  1.00  0.00     0.198 A 
ATOM    100  F   UNL A   1      40.792  34.196  30.214  1.00  0.00    -0.203 F 
ATOM    101  F   UNL A   1      45.144  35.269  27.101  1.00  0.00    -0.200 F 
ATOM    102  C   UNL A   1      42.856  35.582  27.581  1.00  0.00     0.200 A 
ATOM    103  F   UNL A   1      40.556  35.808  28.059  1.00  0.00    -0.200 F 
ATOM    104  F   UNL A   1      42.728  36.384  26.515  1.00  0.00    -0.200 F 
ENDBRANCH  71  94
ENDBRANCH  45  46
ENDBRANCH  38  40
ENDBRANCH  37  38
ENDBRANCH  36  37
ENDBRANCH  35  36
ENDBRANCH  34  35
ENDBRANCH  33  34
ENDBRANCH   1  33
TORSDOF 22
ENDMDL
MODEL 3
REMARK VINA RESULT:     -11.0      3.422      8.754
REMARK SMILES Cc1ncc(CC(=O)N2CCc3c(c(C(=O)OCCOCCOCCOC(=O)c4ccc(-c5c6nc(c(-c7c(F)c(F)c(F)c(F)c7F)c7ccc([nH]7)c(-c7c(F)c(F)c(F)c(F)c7F)c7nc(c(-c8c(F)c(F)c(F)c(F)c8F)c8ccc5[nH]8)C=C7)C=C6)cc4)nn3CC3CC3)C2)c(=O)[nH]1
REMARK SMILES IDX 21 1 20 2 19 3 18 4 17 5 15 6 16 7 14 8 9 9 10 10 98 11
REMARK SMILES IDX 11 12 13 13 12 14 93 15 92 16 7 17 8 18 6 19 5 20 1 21 2 22
REMARK SMILES IDX 3 23 101 24 4 25 99 26 100 28 94 29 95 30 96 31 97 32 22 33
REMARK SMILES IDX 23 34 24 35 25 36 26 37 27 38 28 39 29 40 30 41 91 42 31 43
REMARK SMILES IDX 90 44 32 45 33 46 34 47 84 48 35 49 89 50 83 51 85 52 36 53
REMARK SMILES IDX 88 54 82 55 81 56 37 58 69 59 49 60 68 61 50 62 53 63 67 64
REMARK SMILES IDX 86 65 51 66 52 67 66 69 87 70 54 71 38 72 39 73 47 74 40 75
REMARK SMILES IDX 41 76 45 77 48 78 42 79 43 80 46 81 44 82 70 83 71 84 79 85
REMARK SMILES IDX 72 86 73 87 77 88 80 89 74 90 75 91 78 92 76 93 55 94 56 95
REMARK SMILES IDX 64 96 57 97 58 98 62 99 65 100 59 101 60 102 63 103 61 104
REMARK H PARENT 101 27 85 57 53 68
REMARK Flexibility Score: inf
ROOT
ATOM      1  C   UNL A   1      37.145  23.023  25.830  1.00  0.00     0.188 C 
ENDROOT
BRANCH   1   2
ATOM      2  O   UNL A   1      36.494  22.296  24.801  1.00  0.00    -0.376 OA
BRANCH   2   3
ATOM      3  C   UNL A   1      36.292  22.862  23.515  1.00  0.00     0.202 C 
BRANCH   3   4
ATOM      4  C   UNL A   1      35.140  23.835  23.189  1.00  0.00     0.261 C 
BRANCH   4   5
ATOM      5  O   UNL A   1      34.268  23.474  22.117  1.00  0.00    -0.458 OA
BRANCH   5   6
ATOM      6  C   UNL A   1      33.274  24.372  21.828  1.00  0.00     0.359 C 
ATOM      7  O   UNL A   1      33.156  24.945  20.762  1.00  0.00    -0.244 OA
BRANCH   6   8
ATOM      8  C   UNL A   1      32.247  24.435  22.883  1.00  0.00     0.175 A 
ATOM      9  N   UNL A   1      30.209  27.594  23.032  1.00  0.00    -0.338 N 
ATOM     10  C   UNL A   1      29.036  26.993  23.698  1.00  0.00     0.126 C 
ATOM     11  C   UNL A   1      31.005  26.680  22.201  1.00  0.00     0.159 C 
ATOM     12  C   UNL A   1      29.444  25.919  24.728  1.00  0.00     0.078 C 
ATOM     13  C   UNL A   1      31.274  25.461  23.024  1.00  0.00     0.028 A 
ATOM     14  C   UNL A   1      30.537  25.104  24.136  1.00  0.00     0.046 A 
ATOM     15  N   UNL A   1      31.052  23.928  24.589  1.00  0.00    -0.268 N 
ATOM     16  N   UNL A   1      32.084  23.489  23.833  1.00  0.00    -0.165 NA
BRANCH   9  17
ATOM     17  C   UNL A   1      30.526  28.940  22.978  1.00  0.00     0.227 C 
ATOM     18  O   UNL A   1      30.952  29.441  21.932  1.00  0.00    -0.275 OA
BRANCH  17  19
ATOM     19  C   UNL A   1      30.680  29.720  24.291  1.00  0.00     0.143 C 
BRANCH  19  20
ATOM     20  C   UNL A   1      31.927  29.561  25.085  1.00  0.00     0.045 A 
ATOM     21  C   UNL A   1      35.324  29.038  27.545  1.00  0.00     0.087 C 
ATOM     22  C   UNL A   1      34.153  29.209  26.624  1.00  0.00     0.105 A 
ATOM     23  N   UNL A   1      33.965  28.401  25.632  1.00  0.00    -0.243 NA
ATOM     24  N   UNL A   1      33.313  30.245  26.918  1.00  0.00    -0.311 N 
ATOM     25  C   UNL A   1      32.854  28.618  24.863  1.00  0.00     0.123 A 
ATOM     26  C   UNL A   1      32.181  30.496  26.200  1.00  0.00     0.254 A 
ATOM     27  H   UNL A   1      33.533  30.832  27.678  1.00  0.00     0.171 HD
ATOM     28  O   UNL A   1      31.419  31.411  26.480  1.00  0.00    -0.269 OA
ENDBRANCH  19  20
ENDBRANCH  17  19
ENDBRANCH   9  17
BRANCH  15  29
ATOM     29  C   UNL A   1      30.684  23.218  25.810  1.00  0.00     0.148 C 
BRANCH  29  30
ATOM     30  C   UNL A   1      31.677  23.295  26.937  1.00  0.00     0.011 C 
ATOM     31  C   UNL A   1      33.052  22.665  26.936  1.00  0.00     0.006 C 
ATOM     32  C   UNL A   1      32.911  24.149  26.765  1.00  0.00     0.006 C 
ENDBRANCH  29  30
ENDBRANCH  15  29
ENDBRANCH   6   8
ENDBRANCH   5   6
ENDBRANCH   4   5
ENDBRANCH   3   4
ENDBRANCH   2   3
ENDBRANCH   1   2
BRANCH   1  33
ATOM     33  C   UNL A   1      38.644  22.813  26.124  1.00  0.00     0.188 C 
BRANCH  33  34
ATOM     34  O   UNL A   1      39.161  21.563  25.731  1.00  0.00    -0.376 OA
BRANCH  34  35
ATOM     35  C   UNL A   1      40.195  20.911  26.441  1.00  0.00     0.202 C 
BRANCH  35  36
ATOM     36  C   UNL A   1      41.685  21.016  26.118  1.00  0.00     0.261 C 
BRANCH  36  37
ATOM     37  O   UNL A   1      42.078  22.022  25.210  1.00  0.00    -0.460 OA
BRANCH  37  38
ATOM     38  C   UNL A   1      42.991  22.879  25.706  1.00  0.00     0.338 C 
ATOM     39  O   UNL A   1      44.202  22.836  25.577  1.00  0.00    -0.246 OA
BRANCH  38  40
ATOM     40  C   UNL A   1      42.295  23.861  26.532  1.00  0.00     0.060 A 
ATOM     41  C   UNL A   1      41.647  24.910  25.879  1.00  0.00     0.016 A 
ATOM     42  C   UNL A   1      42.553  23.873  27.910  1.00  0.00     0.016 A 
ATOM     43  C   UNL A   1      41.426  26.073  26.581  1.00  0.00     0.010 A 
ATOM     44  C   UNL A   1      42.355  25.041  28.603  1.00  0.00     0.010 A 
ATOM     45  C   UNL A   1      41.872  26.145  27.905  1.00  0.00    -0.014 A 
BRANCH  45  46
ATOM     46  C   UNL A   1      41.833  27.433  28.560  1.00  0.00     0.031 A 
ATOM     47  C   UNL A   1      42.982  28.306  28.243  1.00  0.00     0.074 A 
ATOM     48  C   UNL A   1      40.765  27.805  29.289  1.00  0.00     0.049 A 
ATOM     49  N   UNL A   1      43.848  28.809  29.058  1.00  0.00    -0.248 NA
ATOM     50  C   UNL A   1      43.269  28.557  26.822  1.00  0.00     0.031 C 
ATOM     51  C   UNL A   1      39.472  27.122  29.397  1.00  0.00     0.029 A 
ATOM     52  N   UNL A   1      40.573  28.946  30.003  1.00  0.00    -0.354 N 
ATOM     53  C   UNL A   1      44.688  29.588  28.271  1.00  0.00     0.074 A 
ATOM     54  C   UNL A   1      44.395  29.263  26.901  1.00  0.00     0.031 C 
ATOM     55  C   UNL A   1      38.569  27.968  29.941  1.00  0.00     0.029 A 
ATOM     56  C   UNL A   1      39.247  29.197  30.322  1.00  0.00     0.049 A 
ATOM     57  H   UNL A   1      41.310  29.541  30.269  1.00  0.00     0.167 HD
ATOM     58  C   UNL A   1      45.371  30.635  28.803  1.00  0.00     0.037 A 
ATOM     59  C   UNL A   1      38.743  30.369  30.779  1.00  0.00     0.037 A 
ATOM     60  C   UNL A   1      45.508  30.499  30.230  1.00  0.00     0.049 A 
ATOM     61  C   UNL A   1      39.880  31.177  31.290  1.00  0.00     0.074 A 
ATOM     62  C   UNL A   1      46.091  29.565  31.064  1.00  0.00     0.029 A 
ATOM     63  N   UNL A   1      44.689  31.255  31.031  1.00  0.00    -0.354 N 
ATOM     64  N   UNL A   1      40.560  30.893  32.364  1.00  0.00    -0.248 NA
ATOM     65  C   UNL A   1      40.535  32.089  30.363  1.00  0.00     0.031 C 
ATOM     66  C   UNL A   1      45.253  29.516  32.216  1.00  0.00     0.029 A 
ATOM     67  C   UNL A   1      44.231  30.448  32.039  1.00  0.00     0.049 A 
ATOM     68  H   UNL A   1      44.469  32.206  30.904  1.00  0.00     0.167 HD
ATOM     69  C   UNL A   1      41.869  31.231  32.054  1.00  0.00     0.074 A 
ATOM     70  C   UNL A   1      41.774  32.065  30.860  1.00  0.00     0.031 C 
ATOM     71  C   UNL A   1      42.916  30.567  32.624  1.00  0.00     0.037 A 
BRANCH  58  72
ATOM     72  C   UNL A   1      45.555  31.952  28.088  1.00  0.00     0.064 A 
ATOM     73  C   UNL A   1      44.414  32.688  27.716  1.00  0.00     0.173 A 
ATOM     74  C   UNL A   1      46.767  32.364  27.488  1.00  0.00     0.173 A 
ATOM     75  F   UNL A   1      43.206  32.372  28.208  1.00  0.00    -0.203 F 
ATOM     76  C   UNL A   1      44.470  33.697  26.752  1.00  0.00     0.198 A 
ATOM     77  C   UNL A   1      46.827  33.410  26.571  1.00  0.00     0.198 A 
ATOM     78  F   UNL A   1      47.918  31.706  27.665  1.00  0.00    -0.203 F 
ATOM     79  F   UNL A   1      43.337  34.273  26.328  1.00  0.00    -0.200 F 
ATOM     80  C   UNL A   1      45.676  34.053  26.175  1.00  0.00     0.200 A 
ATOM     81  F   UNL A   1      48.004  33.725  26.010  1.00  0.00    -0.200 F 
ATOM     82  F   UNL A   1      45.722  34.971  25.203  1.00  0.00    -0.200 F 
ENDBRANCH  58  72
BRANCH  59  83
ATOM     83  C   UNL A   1      37.409  30.958  30.522  1.00  0.00     0.064 A 
ATOM     84  C   UNL A   1      36.536  31.257  31.581  1.00  0.00     0.173 A 
ATOM     85  C   UNL A   1      37.068  31.491  29.263  1.00  0.00     0.173 A 
ATOM     86  F   UNL A   1      36.809  30.827  32.821  1.00  0.00    -0.203 F 
ATOM     87  C   UNL A   1      35.406  32.061  31.396  1.00  0.00     0.198 A 
ATOM     88  C   UNL A   1      35.935  32.283  29.077  1.00  0.00     0.198 A 
ATOM     89  F   UNL A   1      37.879  31.337  28.207  1.00  0.00    -0.203 F 
ATOM     90  F   UNL A   1      34.634  32.377  32.445  1.00  0.00    -0.200 F 
ATOM     91  C   UNL A   1      35.112  32.580  30.146  1.00  0.00     0.200 A 
ATOM     92  F   UNL A   1      35.682  32.807  27.870  1.00  0.00    -0.200 F 
ATOM     93  F   UNL A   1      34.064  33.398  29.981  1.00  0.00    -0.200 F 
ENDBRANCH  59  83
BRANCH  71  94
ATOM     94  C   UNL A   1      42.620  29.698  33.812  1.00  0.00     0.064 A 
ATOM     95  C   UNL A   1      42.181  28.365  33.723  1.00  0.00     0.173 A 
ATOM     96  C   UNL A   1      42.916  30.195  35.089  1.00  0.00     0.173 A 
ATOM     97  F   UNL A   1      41.978  27.784  32.533  1.00  0.00    -0.203 F 
ATOM     98  C   UNL A   1      41.998  27.587  34.865  1.00  0.00     0.198 A 
ATOM     99  C   UNL A   1      42.771  29.403  36.223  1.00  0.00     0.198 A 
ATOM    100  F   UNL A   1      43.394  31.442  35.230  1.00  0.00    -0.203 F 
ATOM    101  F   UNL A   1      41.562  26.324  34.755  1.00  0.00    -0.200 F 
ATOM    102  C   UNL A   1      42.301  28.105  36.113  1.00  0.00     0.200 A 
ATOM    103  F   UNL A   1      43.114  29.891  37.424  1.00  0.00    -0.200 F 
ATOM    104  F   UNL A   1      42.165  27.344  37.208  1.00  0.00    -0.200 F 
ENDBRANCH  71  94
ENDBRANCH  45  46
ENDBRANCH  38  40
ENDBRANCH  37  38
ENDBRANCH  36  37
ENDBRANCH  35  36
ENDBRANCH  34  35
ENDBRANCH  33  34
ENDBRANCH   1  33
TORSDOF 22
ENDMDL
