MODEL 1
REMARK VINA RESULT:     -11.7      0.000      0.000
REMARK SMILES CNc1nc(C(=O)N2C[C@@H](C(=O)OCCOCCOCCOC(=O)c3ccc(-c4c5nc(c(-c6c(F)c(F)c(F)c(F)c6F)c6ccc([nH]6)c(-c6c(F)c(F)c(F)c(F)c6F)c6nc(c(-c7c(F)c(F)c(F)c(F)c7F)c7ccc4[nH]7)C=C6)C=C5)cc3)[C@H](c3ccccc3C)C2)cs1
REMARK SMILES IDX 17 1 16 2 15 3 14 4 13 5 11 6 12 7 10 8 8 9 9 10 96 11 88 12
REMARK SMILES IDX 6 13 7 14 5 15 3 16 4 17 98 18 97 19 2 20 1 21 89 23 90 24
REMARK SMILES IDX 94 25 91 26 93 27 95 28 92 29 18 30 19 31 20 32 21 33 22 34
REMARK SMILES IDX 23 35 24 36 25 37 26 38 87 39 27 40 86 41 28 42 29 43 30 44
REMARK SMILES IDX 80 45 31 46 85 47 79 48 81 49 32 50 84 51 78 52 77 53 33 55
REMARK SMILES IDX 65 56 45 57 64 58 46 59 49 60 63 61 82 62 47 63 48 64 62 66
REMARK SMILES IDX 83 67 50 68 34 69 35 70 43 71 36 72 37 73 41 74 44 75 38 76
REMARK SMILES IDX 39 77 42 78 40 79 66 80 67 81 75 82 68 83 69 84 73 85 76 86
REMARK SMILES IDX 70 87 71 88 74 89 72 90 51 91 52 92 60 93 53 94 54 95 58 96
REMARK SMILES IDX 61 97 55 98 56 99 59 100 57 101
REMARK H PARENT 2 22 81 54 49 65
REMARK Flexibility Score: inf
ROOT
ATOM      1  C   UNL A   1      34.935  33.177  28.074  1.00  0.00     0.188 C 
ENDROOT
BRANCH   1   2
ATOM      2  O   UNL A   1      35.331  31.952  27.480  1.00  0.00    -0.376 OA
BRANCH   2   3
ATOM      3  C   UNL A   1      34.313  30.973  27.305  1.00  0.00     0.202 C 
BRANCH   3   4
ATOM      4  C   UNL A   1      34.651  29.592  27.867  1.00  0.00     0.261 C 
BRANCH   4   5
ATOM      5  O   UNL A   1      34.274  28.540  26.959  1.00  0.00    -0.463 OA
BRANCH   5   6
ATOM      6  C   UNL A   1      32.992  28.098  26.954  1.00  0.00     0.311 C 
ATOM      7  O   UNL A   1      32.207  28.253  27.879  1.00  0.00    -0.252 OA
BRANCH   6   8
ATOM      8  C   UNL A   1      32.645  27.420  25.645  1.00  0.00     0.128 C 
ATOM      9  N   UNL A   1      31.019  27.197  24.003  1.00  0.00    -0.336 N 
ATOM     10  C   UNL A   1      31.505  28.161  24.964  1.00  0.00     0.136 C 
ATOM     11  C   UNL A   1      31.067  25.868  24.578  1.00  0.00     0.129 C 
ATOM     12  C   UNL A   1      32.131  25.954  25.728  1.00  0.00     0.055 C 
BRANCH   9  13
ATOM     13  C   UNL A   1      30.630  27.442  22.696  1.00  0.00     0.273 C 
ATOM     14  O   UNL A   1      31.123  26.838  21.744  1.00  0.00    -0.267 OA
BRANCH  13  15
ATOM     15  C   UNL A   1      29.656  28.524  22.511  1.00  0.00     0.141 A 
ATOM     16  C   UNL A   1      28.986  30.481  21.662  1.00  0.00     0.183 A 
ATOM     17  N   UNL A   1      29.963  29.616  21.702  1.00  0.00    -0.215 NA
ATOM     18  S   UNL A   1      27.586  30.008  22.541  1.00  0.00    -0.105 S 
ATOM     19  C   UNL A   1      28.366  28.546  23.004  1.00  0.00     0.102 A 
BRANCH  16  20
ATOM     20  N   UNL A   1      29.053  31.644  20.989  1.00  0.00    -0.365 N 
ATOM     21  C   UNL A   1      27.901  32.139  20.272  1.00  0.00     0.142 C 
ATOM     22  H   UNL A   1      29.891  32.161  20.986  1.00  0.00     0.162 HD
ENDBRANCH  16  20
ENDBRANCH  13  15
ENDBRANCH   9  13
BRANCH  12  23
ATOM     23  C   UNL A   1      33.250  24.907  25.737  1.00  0.00    -0.039 A 
ATOM     24  C   UNL A   1      34.459  25.145  25.052  1.00  0.00     0.004 A 
ATOM     25  C   UNL A   1      33.132  23.667  26.418  1.00  0.00    -0.048 A 
ATOM     26  C   UNL A   1      35.486  24.194  25.002  1.00  0.00     0.000 A 
ATOM     27  C   UNL A   1      34.191  22.735  26.381  1.00  0.00     0.004 A 
ATOM     28  C   UNL A   1      31.945  23.228  27.230  1.00  0.00     0.044 C 
ATOM     29  C   UNL A   1      35.355  22.989  25.671  1.00  0.00     0.000 A 
ENDBRANCH  12  23
ENDBRANCH   6   8
ENDBRANCH   5   6
ENDBRANCH   4   5
ENDBRANCH   3   4
ENDBRANCH   2   3
ENDBRANCH   1   2
BRANCH   1  30
ATOM     30  C   UNL A   1      34.289  33.044  29.467  1.00  0.00     0.188 C 
BRANCH  30  31
ATOM     31  O   UNL A   1      33.945  34.208  30.199  1.00  0.00    -0.376 OA
BRANCH  31  32
ATOM     32  C   UNL A   1      34.540  34.396  31.476  1.00  0.00     0.202 C 
BRANCH  32  33
ATOM     33  C   UNL A   1      34.082  33.500  32.639  1.00  0.00     0.261 C 
BRANCH  33  34
ATOM     34  O   UNL A   1      34.780  32.243  32.753  1.00  0.00    -0.460 OA
BRANCH  34  35
ATOM     35  C   UNL A   1      36.044  32.316  33.241  1.00  0.00     0.338 C 
ATOM     36  O   UNL A   1      36.402  32.821  34.292  1.00  0.00    -0.246 OA
BRANCH  35  37
ATOM     37  C   UNL A   1      36.974  31.530  32.399  1.00  0.00     0.060 A 
ATOM     38  C   UNL A   1      37.942  30.744  33.040  1.00  0.00     0.016 A 
ATOM     39  C   UNL A   1      36.975  31.645  31.007  1.00  0.00     0.016 A 
ATOM     40  C   UNL A   1      38.930  30.094  32.298  1.00  0.00     0.010 A 
ATOM     41  C   UNL A   1      37.985  31.015  30.266  1.00  0.00     0.010 A 
ATOM     42  C   UNL A   1      38.987  30.263  30.909  1.00  0.00    -0.014 A 
BRANCH  42  43
ATOM     43  C   UNL A   1      40.191  29.802  30.167  1.00  0.00     0.031 A 
ATOM     44  C   UNL A   1      41.329  30.767  29.959  1.00  0.00     0.074 A 
ATOM     45  C   UNL A   1      40.301  28.535  29.729  1.00  0.00     0.049 A 
ATOM     46  N   UNL A   1      42.463  30.595  29.325  1.00  0.00    -0.248 NA
ATOM     47  C   UNL A   1      41.170  32.104  30.553  1.00  0.00     0.031 C 
ATOM     48  C   UNL A   1      39.305  27.483  29.916  1.00  0.00     0.029 A 
ATOM     49  N   UNL A   1      41.312  27.922  29.029  1.00  0.00    -0.354 N 
ATOM     50  C   UNL A   1      43.154  31.793  29.455  1.00  0.00     0.074 A 
ATOM     51  C   UNL A   1      42.301  32.697  30.196  1.00  0.00     0.031 C 
ATOM     52  C   UNL A   1      39.744  26.358  29.327  1.00  0.00     0.029 A 
ATOM     53  C   UNL A   1      41.040  26.616  28.699  1.00  0.00     0.049 A 
ATOM     54  H   UNL A   1      42.152  28.374  28.787  1.00  0.00     0.167 HD
ATOM     55  C   UNL A   1      44.394  32.109  29.010  1.00  0.00     0.037 A 
ATOM     56  C   UNL A   1      41.746  25.742  27.956  1.00  0.00     0.037 A 
ATOM     57  C   UNL A   1      45.246  31.222  28.262  1.00  0.00     0.049 A 
ATOM     58  C   UNL A   1      43.084  26.154  27.388  1.00  0.00     0.074 A 
ATOM     59  C   UNL A   1      46.511  31.462  27.755  1.00  0.00     0.029 A 
ATOM     60  N   UNL A   1      44.917  29.922  27.913  1.00  0.00    -0.354 N 
ATOM     61  N   UNL A   1      43.732  27.284  27.524  1.00  0.00    -0.248 NA
ATOM     62  C   UNL A   1      43.790  25.158  26.566  1.00  0.00     0.031 C 
ATOM     63  C   UNL A   1      46.931  30.321  27.063  1.00  0.00     0.029 A 
ATOM     64  C   UNL A   1      45.948  29.354  27.181  1.00  0.00     0.049 A 
ATOM     65  H   UNL A   1      44.075  29.469  28.149  1.00  0.00     0.167 HD
ATOM     66  C   UNL A   1      44.930  27.124  26.836  1.00  0.00     0.074 A 
ATOM     67  C   UNL A   1      44.927  25.781  26.299  1.00  0.00     0.031 C 
ATOM     68  C   UNL A   1      45.941  28.011  26.663  1.00  0.00     0.037 A 
BRANCH  55  69
ATOM     69  C   UNL A   1      44.910  33.485  29.310  1.00  0.00     0.064 A 
ATOM     70  C   UNL A   1      44.729  34.546  28.411  1.00  0.00     0.173 A 
ATOM     71  C   UNL A   1      45.537  33.761  30.536  1.00  0.00     0.173 A 
ATOM     72  F   UNL A   1      44.148  34.330  27.222  1.00  0.00    -0.203 F 
ATOM     73  C   UNL A   1      45.166  35.831  28.723  1.00  0.00     0.198 A 
ATOM     74  C   UNL A   1      45.949  35.052  30.854  1.00  0.00     0.198 A 
ATOM     75  F   UNL A   1      45.730  32.781  31.432  1.00  0.00    -0.203 F 
ATOM     76  F   UNL A   1      45.008  36.825  27.837  1.00  0.00    -0.200 F 
ATOM     77  C   UNL A   1      45.766  36.085  29.947  1.00  0.00     0.200 A 
ATOM     78  F   UNL A   1      46.519  35.298  32.043  1.00  0.00    -0.200 F 
ATOM     79  F   UNL A   1      46.172  37.325  30.252  1.00  0.00    -0.200 F 
ENDBRANCH  55  69
BRANCH  56  80
ATOM     80  C   UNL A   1      41.201  24.388  27.669  1.00  0.00     0.064 A 
ATOM     81  C   UNL A   1      41.768  23.240  28.240  1.00  0.00     0.173 A 
ATOM     82  C   UNL A   1      40.147  24.212  26.761  1.00  0.00     0.173 A 
ATOM     83  F   UNL A   1      42.800  23.353  29.089  1.00  0.00    -0.203 F 
ATOM     84  C   UNL A   1      41.323  21.967  27.888  1.00  0.00     0.198 A 
ATOM     85  C   UNL A   1      39.683  22.940  26.433  1.00  0.00     0.198 A 
ATOM     86  F   UNL A   1      39.574  25.276  26.180  1.00  0.00    -0.203 F 
ATOM     87  F   UNL A   1      41.927  20.884  28.397  1.00  0.00    -0.200 F 
ATOM     88  C   UNL A   1      40.279  21.818  26.988  1.00  0.00     0.200 A 
ATOM     89  F   UNL A   1      38.668  22.801  25.569  1.00  0.00    -0.200 F 
ATOM     90  F   UNL A   1      39.859  20.594  26.642  1.00  0.00    -0.200 F 
ENDBRANCH  56  80
BRANCH  68  91
ATOM     91  C   UNL A   1      47.146  27.545  25.896  1.00  0.00     0.064 A 
ATOM     92  C   UNL A   1      48.244  26.953  26.538  1.00  0.00     0.173 A 
ATOM     93  C   UNL A   1      47.193  27.672  24.499  1.00  0.00     0.173 A 
ATOM     94  F   UNL A   1      48.256  26.820  27.873  1.00  0.00    -0.203 F 
ATOM     95  C   UNL A   1      49.359  26.538  25.812  1.00  0.00     0.198 A 
ATOM     96  C   UNL A   1      48.295  27.228  23.774  1.00  0.00     0.198 A 
ATOM     97  F   UNL A   1      46.166  28.222  23.835  1.00  0.00    -0.203 F 
ATOM     98  F   UNL A   1      50.420  26.025  26.452  1.00  0.00    -0.200 F 
ATOM     99  C   UNL A   1      49.381  26.670  24.432  1.00  0.00     0.200 A 
ATOM    100  F   UNL A   1      48.309  27.343  22.439  1.00  0.00    -0.200 F 
ATOM    101  F   UNL A   1      50.453  26.268  23.735  1.00  0.00    -0.200 F 
ENDBRANCH  68  91
ENDBRANCH  42  43
ENDBRANCH  35  37
ENDBRANCH  34  35
ENDBRANCH  33  34
ENDBRANCH  32  33
ENDBRANCH  31  32
ENDBRANCH  30  31
ENDBRANCH   1  30
TORSDOF 21
ENDMDL
MODEL 2
REMARK VINA RESULT:     -11.0      5.051      7.941
REMARK SMILES CNc1nc(C(=O)N2C[C@@H](C(=O)OCCOCCOCCOC(=O)c3ccc(-c4c5nc(c(-c6c(F)c(F)c(F)c(F)c6F)c6ccc([nH]6)c(-c6c(F)c(F)c(F)c(F)c6F)c6nc(c(-c7c(F)c(F)c(F)c(F)c7F)c7ccc4[nH]7)C=C6)C=C5)cc3)[C@H](c3ccccc3C)C2)cs1
REMARK SMILES IDX 17 1 16 2 15 3 14 4 13 5 11 6 12 7 10 8 8 9 9 10 96 11 88 12
REMARK SMILES IDX 6 13 7 14 5 15 3 16 4 17 98 18 97 19 2 20 1 21 89 23 90 24
REMARK SMILES IDX 94 25 91 26 93 27 95 28 92 29 18 30 19 31 20 32 21 33 22 34
REMARK SMILES IDX 23 35 24 36 25 37 26 38 87 39 27 40 86 41 28 42 29 43 30 44
REMARK SMILES IDX 80 45 31 46 85 47 79 48 81 49 32 50 84 51 78 52 77 53 33 55
REMARK SMILES IDX 65 56 45 57 64 58 46 59 49 60 63 61 82 62 47 63 48 64 62 66
REMARK SMILES IDX 83 67 50 68 34 69 35 70 43 71 36 72 37 73 41 74 44 75 38 76
REMARK SMILES IDX 39 77 42 78 40 79 66 80 67 81 75 82 68 83 69 84 73 85 76 86
REMARK SMILES IDX 70 87 71 88 74 89 72 90 51 91 52 92 60 93 53 94 54 95 58 96
REMARK SMILES IDX 61 97 55 98 56 99 59 100 57 101
REMARK H PARENT 2 22 81 54 49 65
REMARK Flexibility Score: inf
ROOT
ATOM      1  C   UNL A   1      31.384  28.462  25.637  1.00  0.00     0.188 C 
ENDROOT
BRANCH   1   2
ATOM      2  O   UNL A   1      30.570  27.900  24.622  1.00  0.00    -0.376 OA
BRANCH   2   3
ATOM      3  C   UNL A   1      30.199  26.535  24.788  1.00  0.00     0.202 C 
BRANCH   3   4
ATOM      4  C   UNL A   1      30.541  25.943  26.155  1.00  0.00     0.261 C 
BRANCH   4   5
ATOM      5  O   UNL A   1      30.209  24.543  26.228  1.00  0.00    -0.463 OA
BRANCH   5   6
ATOM      6  C   UNL A   1      31.189  23.643  26.485  1.00  0.00     0.311 C 
ATOM      7  O   UNL A   1      31.595  23.368  27.605  1.00  0.00    -0.252 OA
BRANCH   6   8
ATOM      8  C   UNL A   1      31.692  22.993  25.213  1.00  0.00     0.128 C 
ATOM      9  N   UNL A   1      32.625  21.068  24.314  1.00  0.00    -0.336 N 
ATOM     10  C   UNL A   1      31.760  21.485  25.393  1.00  0.00     0.136 C 
ATOM     11  C   UNL A   1      33.681  22.042  24.129  1.00  0.00     0.129 C 
ATOM     12  C   UNL A   1      33.128  23.372  24.751  1.00  0.00     0.055 C 
BRANCH   9  13
ATOM     13  C   UNL A   1      32.470  19.959  23.498  1.00  0.00     0.273 C 
ATOM     14  O   UNL A   1      31.883  20.019  22.417  1.00  0.00    -0.267 OA
BRANCH  13  15
ATOM     15  C   UNL A   1      32.973  18.690  24.039  1.00  0.00     0.141 A 
ATOM     16  C   UNL A   1      32.856  16.911  25.388  1.00  0.00     0.183 A 
ATOM     17  N   UNL A   1      32.254  18.011  25.020  1.00  0.00    -0.215 NA
ATOM     18  S   UNL A   1      34.303  16.574  24.524  1.00  0.00    -0.105 S 
ATOM     19  C   UNL A   1      34.095  18.013  23.605  1.00  0.00     0.102 A 
BRANCH  16  20
ATOM     20  N   UNL A   1      32.391  16.100  26.356  1.00  0.00    -0.365 N 
ATOM     21  C   UNL A   1      32.166  14.699  26.087  1.00  0.00     0.142 C 
ATOM     22  H   UNL A   1      32.204  16.463  27.252  1.00  0.00     0.162 HD
ENDBRANCH  16  20
ENDBRANCH  13  15
ENDBRANCH   9  13
BRANCH  12  23
ATOM     23  C   UNL A   1      33.184  24.636  23.885  1.00  0.00    -0.039 A 
ATOM     24  C   UNL A   1      32.716  24.614  22.554  1.00  0.00     0.004 A 
ATOM     25  C   UNL A   1      33.701  25.868  24.362  1.00  0.00    -0.048 A 
ATOM     26  C   UNL A   1      32.792  25.736  21.720  1.00  0.00     0.000 A 
ATOM     27  C   UNL A   1      33.740  26.996  23.515  1.00  0.00     0.004 A 
ATOM     28  C   UNL A   1      34.222  26.116  25.751  1.00  0.00     0.044 C 
ATOM     29  C   UNL A   1      33.300  26.930  22.201  1.00  0.00     0.000 A 
ENDBRANCH  12  23
ENDBRANCH   6   8
ENDBRANCH   5   6
ENDBRANCH   4   5
ENDBRANCH   3   4
ENDBRANCH   2   3
ENDBRANCH   1   2
BRANCH   1  30
ATOM     30  C   UNL A   1      31.799  29.927  25.398  1.00  0.00     0.188 C 
BRANCH  30  31
ATOM     31  O   UNL A   1      32.955  30.446  26.034  1.00  0.00    -0.376 OA
BRANCH  31  32
ATOM     32  C   UNL A   1      32.791  31.124  27.272  1.00  0.00     0.202 C 
BRANCH  32  33
ATOM     33  C   UNL A   1      32.232  32.557  27.255  1.00  0.00     0.261 C 
BRANCH  33  34
ATOM     34  O   UNL A   1      33.228  33.601  27.236  1.00  0.00    -0.460 OA
BRANCH  34  35
ATOM     35  C   UNL A   1      33.301  34.362  28.356  1.00  0.00     0.338 C 
ATOM     36  O   UNL A   1      32.518  35.225  28.715  1.00  0.00    -0.246 OA
BRANCH  35  37
ATOM     37  C   UNL A   1      34.402  33.898  29.231  1.00  0.00     0.060 A 
ATOM     38  C   UNL A   1      35.718  34.212  28.861  1.00  0.00     0.016 A 
ATOM     39  C   UNL A   1      34.162  33.074  30.332  1.00  0.00     0.016 A 
ATOM     40  C   UNL A   1      36.797  33.682  29.570  1.00  0.00     0.010 A 
ATOM     41  C   UNL A   1      35.248  32.519  31.026  1.00  0.00     0.010 A 
ATOM     42  C   UNL A   1      36.570  32.794  30.629  1.00  0.00    -0.014 A 
BRANCH  42  43
ATOM     43  C   UNL A   1      37.712  32.026  31.192  1.00  0.00     0.031 A 
ATOM     44  C   UNL A   1      38.186  32.346  32.586  1.00  0.00     0.074 A 
ATOM     45  C   UNL A   1      38.289  31.024  30.505  1.00  0.00     0.049 A 
ATOM     46  N   UNL A   1      39.174  31.826  33.272  1.00  0.00    -0.248 NA
ATOM     47  C   UNL A   1      37.439  33.390  33.307  1.00  0.00     0.031 C 
ATOM     48  C   UNL A   1      37.892  30.567  29.176  1.00  0.00     0.029 A 
ATOM     49  N   UNL A   1      39.344  30.208  30.841  1.00  0.00    -0.354 N 
ATOM     50  C   UNL A   1      39.158  32.469  34.504  1.00  0.00     0.074 A 
ATOM     51  C   UNL A   1      38.088  33.441  34.462  1.00  0.00     0.031 C 
ATOM     52  C   UNL A   1      38.705  29.566  28.798  1.00  0.00     0.029 A 
ATOM     53  C   UNL A   1      39.697  29.328  29.846  1.00  0.00     0.049 A 
ATOM     54  H   UNL A   1      39.803  30.251  31.710  1.00  0.00     0.167 HD
ATOM     55  C   UNL A   1      39.954  32.258  35.580  1.00  0.00     0.037 A 
ATOM     56  C   UNL A   1      40.718  28.451  29.785  1.00  0.00     0.037 A 
ATOM     57  C   UNL A   1      41.029  31.301  35.629  1.00  0.00     0.049 A 
ATOM     58  C   UNL A   1      41.651  28.307  30.963  1.00  0.00     0.074 A 
ATOM     59  C   UNL A   1      41.899  31.031  36.670  1.00  0.00     0.029 A 
ATOM     60  N   UNL A   1      41.381  30.458  34.586  1.00  0.00    -0.354 N 
ATOM     61  N   UNL A   1      41.623  28.911  32.124  1.00  0.00    -0.248 NA
ATOM     62  C   UNL A   1      42.759  27.348  30.817  1.00  0.00     0.031 C 
ATOM     63  C   UNL A   1      42.804  30.053  36.244  1.00  0.00     0.029 A 
ATOM     64  C   UNL A   1      42.467  29.680  34.955  1.00  0.00     0.049 A 
ATOM     65  H   UNL A   1      40.927  30.418  33.713  1.00  0.00     0.167 HD
ATOM     66  C   UNL A   1      42.682  28.383  32.857  1.00  0.00     0.074 A 
ATOM     67  C   UNL A   1      43.322  27.397  32.015  1.00  0.00     0.031 C 
ATOM     68  C   UNL A   1      43.088  28.691  34.113  1.00  0.00     0.037 A 
BRANCH  55  69
ATOM     69  C   UNL A   1      39.702  33.088  36.804  1.00  0.00     0.064 A 
ATOM     70  C   UNL A   1      40.400  34.284  37.031  1.00  0.00     0.173 A 
ATOM     71  C   UNL A   1      38.711  32.719  37.725  1.00  0.00     0.173 A 
ATOM     72  F   UNL A   1      41.366  34.672  36.186  1.00  0.00    -0.203 F 
ATOM     73  C   UNL A   1      40.121  35.074  38.144  1.00  0.00     0.198 A 
ATOM     74  C   UNL A   1      38.418  33.524  38.822  1.00  0.00     0.198 A 
ATOM     75  F   UNL A   1      38.013  31.587  37.550  1.00  0.00    -0.203 F 
ATOM     76  F   UNL A   1      40.820  36.198  38.358  1.00  0.00    -0.200 F 
ATOM     77  C   UNL A   1      39.125  34.699  39.032  1.00  0.00     0.200 A 
ATOM     78  F   UNL A   1      37.446  33.167  39.674  1.00  0.00    -0.200 F 
ATOM     79  F   UNL A   1      38.847  35.468  40.094  1.00  0.00    -0.200 F 
ENDBRANCH  55  69
BRANCH  56  80
ATOM     80  C   UNL A   1      40.945  27.649  28.553  1.00  0.00     0.064 A 
ATOM     81  C   UNL A   1      41.799  28.102  27.537  1.00  0.00     0.173 A 
ATOM     82  C   UNL A   1      40.255  26.447  28.337  1.00  0.00     0.173 A 
ATOM     83  F   UNL A   1      42.455  29.262  27.682  1.00  0.00    -0.203 F 
ATOM     84  C   UNL A   1      41.929  27.400  26.340  1.00  0.00     0.198 A 
ATOM     85  C   UNL A   1      40.410  25.730  27.151  1.00  0.00     0.198 A 
ATOM     86  F   UNL A   1      39.420  25.972  29.271  1.00  0.00    -0.203 F 
ATOM     87  F   UNL A   1      42.699  27.891  25.359  1.00  0.00    -0.200 F 
ATOM     88  C   UNL A   1      41.237  26.214  26.149  1.00  0.00     0.200 A 
ATOM     89  F   UNL A   1      39.745  24.580  26.975  1.00  0.00    -0.200 F 
ATOM     90  F   UNL A   1      41.353  25.546  24.994  1.00  0.00    -0.200 F 
ENDBRANCH  56  80
BRANCH  68  91
ATOM     91  C   UNL A   1      44.254  27.924  34.670  1.00  0.00     0.064 A 
ATOM     92  C   UNL A   1      44.076  26.757  35.428  1.00  0.00     0.173 A 
ATOM     93  C   UNL A   1      45.569  28.350  34.422  1.00  0.00     0.173 A 
ATOM     94  F   UNL A   1      42.840  26.315  35.706  1.00  0.00    -0.203 F 
ATOM     95  C   UNL A   1      45.169  26.066  35.947  1.00  0.00     0.198 A 
ATOM     96  C   UNL A   1      46.659  27.639  34.915  1.00  0.00     0.198 A 
ATOM     97  F   UNL A   1      45.796  29.453  33.694  1.00  0.00    -0.203 F 
ATOM     98  F   UNL A   1      44.972  24.985  36.715  1.00  0.00    -0.200 F 
ATOM     99  C   UNL A   1      46.458  26.503  35.685  1.00  0.00     0.200 A 
ATOM    100  F   UNL A   1      47.905  28.055  34.650  1.00  0.00    -0.200 F 
ATOM    101  F   UNL A   1      47.508  25.836  36.183  1.00  0.00    -0.200 F 
ENDBRANCH  68  91
ENDBRANCH  42  43
ENDBRANCH  35  37
ENDBRANCH  34  35
ENDBRANCH  33  34
ENDBRANCH  32  33
ENDBRANCH  31  32
ENDBRANCH  30  31
ENDBRANCH   1  30
TORSDOF 21
ENDMDL
MODEL 3
REMARK VINA RESULT:     -11.0      5.174      9.895
REMARK SMILES CNc1nc(C(=O)N2C[C@@H](C(=O)OCCOCCOCCOC(=O)c3ccc(-c4c5nc(c(-c6c(F)c(F)c(F)c(F)c6F)c6ccc([nH]6)c(-c6c(F)c(F)c(F)c(F)c6F)c6nc(c(-c7c(F)c(F)c(F)c(F)c7F)c7ccc4[nH]7)C=C6)C=C5)cc3)[C@H](c3ccccc3C)C2)cs1
REMARK SMILES IDX 17 1 16 2 15 3 14 4 13 5 11 6 12 7 10 8 8 9 9 10 96 11 88 12
REMARK SMILES IDX 6 13 7 14 5 15 3 16 4 17 98 18 97 19 2 20 1 21 89 23 90 24
REMARK SMILES IDX 94 25 91 26 93 27 95 28 92 29 18 30 19 31 20 32 21 33 22 34
REMARK SMILES IDX 23 35 24 36 25 37 26 38 87 39 27 40 86 41 28 42 29 43 30 44
REMARK SMILES IDX 80 45 31 46 85 47 79 48 81 49 32 50 84 51 78 52 77 53 33 55
REMARK SMILES IDX 65 56 45 57 64 58 46 59 49 60 63 61 82 62 47 63 48 64 62 66
REMARK SMILES IDX 83 67 50 68 34 69 35 70 43 71 36 72 37 73 41 74 44 75 38 76
REMARK SMILES IDX 39 77 42 78 40 79 66 80 67 81 75 82 68 83 69 84 73 85 76 86
REMARK SMILES IDX 70 87 71 88 74 89 72 90 51 91 52 92 60 93 53 94 54 95 58 96
REMARK SMILES IDX 61 97 55 98 56 99 59 100 57 101
REMARK H PARENT 2 22 81 54 49 65
REMARK Flexibility Score: inf
ROOT
ATOM      1  C   UNL A   1      31.383  28.360  25.584  1.00  0.00     0.188 C 
ENDROOT
BRANCH   1   2
ATOM      2  O   UNL A   1      30.506  27.796  24.623  1.00  0.00    -0.376 OA
BRANCH   2   3
ATOM      3  C   UNL A   1      30.259  26.398  24.732  1.00  0.00     0.202 C 
BRANCH   3   4
ATOM      4  C   UNL A   1      30.372  25.838  26.150  1.00  0.00     0.261 C 
BRANCH   4   5
ATOM      5  O   UNL A   1      30.206  24.408  26.174  1.00  0.00    -0.463 OA
BRANCH   5   6
ATOM      6  C   UNL A   1      31.282  23.621  26.418  1.00  0.00     0.311 C 
ATOM      7  O   UNL A   1      31.777  23.454  27.523  1.00  0.00    -0.252 OA
BRANCH   6   8
ATOM      8  C   UNL A   1      31.771  22.944  25.154  1.00  0.00     0.128 C 
ATOM      9  N   UNL A   1      32.695  21.000  24.285  1.00  0.00    -0.336 N 
ATOM     10  C   UNL A   1      31.841  21.440  25.365  1.00  0.00     0.136 C 
ATOM     11  C   UNL A   1      33.748  21.971  24.069  1.00  0.00     0.129 C 
ATOM     12  C   UNL A   1      33.201  23.313  24.668  1.00  0.00     0.055 C 
BRANCH   9  13
ATOM     13  C   UNL A   1      32.530  19.874  23.495  1.00  0.00     0.273 C 
ATOM     14  O   UNL A   1      31.967  19.920  22.401  1.00  0.00    -0.267 OA
BRANCH  13  15
ATOM     15  C   UNL A   1      32.993  18.610  24.079  1.00  0.00     0.141 A 
ATOM     16  C   UNL A   1      32.668  16.566  24.924  1.00  0.00     0.183 A 
ATOM     17  N   UNL A   1      32.079  17.612  24.409  1.00  0.00    -0.215 NA
ATOM     18  S   UNL A   1      34.382  16.675  24.981  1.00  0.00    -0.105 S 
ATOM     19  C   UNL A   1      34.310  18.240  24.270  1.00  0.00     0.102 A 
BRANCH  16  20
ATOM     20  N   UNL A   1      32.001  15.486  25.371  1.00  0.00    -0.365 N 
ATOM     21  C   UNL A   1      32.518  14.716  26.479  1.00  0.00     0.142 C 
ATOM     22  H   UNL A   1      31.157  15.218  24.940  1.00  0.00     0.162 HD
ENDBRANCH  16  20
ENDBRANCH  13  15
ENDBRANCH   9  13
BRANCH  12  23
ATOM     23  C   UNL A   1      33.248  24.559  23.775  1.00  0.00    -0.039 A 
ATOM     24  C   UNL A   1      32.831  24.491  22.430  1.00  0.00     0.004 A 
ATOM     25  C   UNL A   1      33.706  25.818  24.242  1.00  0.00    -0.048 A 
ATOM     26  C   UNL A   1      32.900  25.596  21.573  1.00  0.00     0.000 A 
ATOM     27  C   UNL A   1      33.739  26.928  23.370  1.00  0.00     0.004 A 
ATOM     28  C   UNL A   1      34.167  26.115  25.642  1.00  0.00     0.044 C 
ATOM     29  C   UNL A   1      33.350  26.818  22.043  1.00  0.00     0.000 A 
ENDBRANCH  12  23
ENDBRANCH   6   8
ENDBRANCH   5   6
ENDBRANCH   4   5
ENDBRANCH   3   4
ENDBRANCH   2   3
ENDBRANCH   1   2
BRANCH   1  30
ATOM     30  C   UNL A   1      31.969  29.732  25.200  1.00  0.00     0.188 C 
BRANCH  30  31
ATOM     31  O   UNL A   1      33.095  30.239  25.897  1.00  0.00    -0.376 OA
BRANCH  31  32
ATOM     32  C   UNL A   1      32.884  30.819  27.177  1.00  0.00     0.202 C 
BRANCH  32  33
ATOM     33  C   UNL A   1      32.299  32.240  27.251  1.00  0.00     0.261 C 
BRANCH  33  34
ATOM     34  O   UNL A   1      33.268  33.305  27.158  1.00  0.00    -0.460 OA
BRANCH  34  35
ATOM     35  C   UNL A   1      33.256  34.200  28.178  1.00  0.00     0.338 C 
ATOM     36  O   UNL A   1      32.428  35.071  28.385  1.00  0.00    -0.246 OA
BRANCH  35  37
ATOM     37  C   UNL A   1      34.318  33.885  29.160  1.00  0.00     0.060 A 
ATOM     38  C   UNL A   1      35.638  34.233  28.840  1.00  0.00     0.016 A 
ATOM     39  C   UNL A   1      34.047  33.163  30.323  1.00  0.00     0.016 A 
ATOM     40  C   UNL A   1      36.693  33.836  29.663  1.00  0.00     0.010 A 
ATOM     41  C   UNL A   1      35.111  32.740  31.134  1.00  0.00     0.010 A 
ATOM     42  C   UNL A   1      36.442  33.046  30.792  1.00  0.00    -0.014 A 
BRANCH  42  43
ATOM     43  C   UNL A   1      37.580  32.402  31.498  1.00  0.00     0.031 A 
ATOM     44  C   UNL A   1      38.303  31.264  30.824  1.00  0.00     0.074 A 
ATOM     45  C   UNL A   1      38.004  32.846  32.695  1.00  0.00     0.049 A 
ATOM     46  N   UNL A   1      39.304  30.539  31.258  1.00  0.00    -0.248 NA
ATOM     47  C   UNL A   1      37.839  30.902  29.475  1.00  0.00     0.031 C 
ATOM     48  C   UNL A   1      37.437  33.974  33.431  1.00  0.00     0.029 A 
ATOM     49  N   UNL A   1      39.018  32.391  33.504  1.00  0.00    -0.354 N 
ATOM     50  C   UNL A   1      39.596  29.647  30.233  1.00  0.00     0.074 A 
ATOM     51  C   UNL A   1      38.646  29.896  29.171  1.00  0.00     0.031 C 
ATOM     52  C   UNL A   1      38.098  34.112  34.593  1.00  0.00     0.029 A 
ATOM     53  C   UNL A   1      39.116  33.066  34.696  1.00  0.00     0.049 A 
ATOM     54  H   UNL A   1      39.617  31.652  33.253  1.00  0.00     0.167 HD
ATOM     55  C   UNL A   1      40.576  28.713  30.175  1.00  0.00     0.037 A 
ATOM     56  C   UNL A   1      39.920  32.848  35.755  1.00  0.00     0.037 A 
ATOM     57  C   UNL A   1      41.519  28.450  31.230  1.00  0.00     0.049 A 
ATOM     58  C   UNL A   1      40.939  31.734  35.703  1.00  0.00     0.074 A 
ATOM     59  C   UNL A   1      42.536  27.512  31.267  1.00  0.00     0.029 A 
ATOM     60  N   UNL A   1      41.558  29.127  32.439  1.00  0.00    -0.354 N 
ATOM     61  N   UNL A   1      41.212  30.903  34.728  1.00  0.00    -0.248 NA
ATOM     62  C   UNL A   1      41.766  31.536  36.903  1.00  0.00     0.031 C 
ATOM     63  C   UNL A   1      43.164  27.593  32.514  1.00  0.00     0.029 A 
ATOM     64  C   UNL A   1      42.571  28.615  33.235  1.00  0.00     0.049 A 
ATOM     65  H   UNL A   1      40.956  29.863  32.694  1.00  0.00     0.167 HD
ATOM     66  C   UNL A   1      42.261  30.111  35.182  1.00  0.00     0.074 A 
ATOM     67  C   UNL A   1      42.586  30.572  36.514  1.00  0.00     0.031 C 
ATOM     68  C   UNL A   1      42.896  29.091  34.554  1.00  0.00     0.037 A 
BRANCH  55  69
ATOM     69  C   UNL A   1      40.678  27.890  28.925  1.00  0.00     0.064 A 
ATOM     70  C   UNL A   1      39.884  26.749  28.735  1.00  0.00     0.173 A 
ATOM     71  C   UNL A   1      41.532  28.280  27.882  1.00  0.00     0.173 A 
ATOM     72  F   UNL A   1      39.063  26.329  29.708  1.00  0.00    -0.203 F 
ATOM     73  C   UNL A   1      39.950  26.022  27.549  1.00  0.00     0.198 A 
ATOM     74  C   UNL A   1      41.576  27.565  26.688  1.00  0.00     0.198 A 
ATOM     75  F   UNL A   1      42.308  29.366  28.013  1.00  0.00    -0.203 F 
ATOM     76  F   UNL A   1      39.204  24.919  27.399  1.00  0.00    -0.200 F 
ATOM     77  C   UNL A   1      40.787  26.436  26.523  1.00  0.00     0.200 A 
ATOM     78  F   UNL A   1      42.376  27.973  25.693  1.00  0.00    -0.200 F 
ATOM     79  F   UNL A   1      40.837  25.745  25.377  1.00  0.00    -0.200 F 
ENDBRANCH  55  69
BRANCH  56  80
ATOM     80  C   UNL A   1      39.786  33.676  36.983  1.00  0.00     0.064 A 
ATOM     81  C   UNL A   1      38.903  33.316  38.011  1.00  0.00     0.173 A 
ATOM     82  C   UNL A   1      40.488  34.883  37.119  1.00  0.00     0.173 A 
ATOM     83  F   UNL A   1      38.185  32.188  37.913  1.00  0.00    -0.203 F 
ATOM     84  C   UNL A   1      38.703  34.148  39.112  1.00  0.00     0.198 A 
ATOM     85  C   UNL A   1      40.309  35.699  38.235  1.00  0.00     0.198 A 
ATOM     86  F   UNL A   1      41.338  35.279  36.161  1.00  0.00    -0.203 F 
ATOM     87  F   UNL A   1      37.803  33.813  40.047  1.00  0.00    -0.200 F 
ATOM     88  C   UNL A   1      39.408  35.337  39.224  1.00  0.00     0.200 A 
ATOM     89  F   UNL A   1      40.998  36.843  38.343  1.00  0.00    -0.200 F 
ATOM     90  F   UNL A   1      39.206  36.141  40.276  1.00  0.00    -0.200 F 
ENDBRANCH  56  80
BRANCH  68  91
ATOM     91  C   UNL A   1      44.033  28.431  35.281  1.00  0.00     0.064 A 
ATOM     92  C   UNL A   1      45.358  28.865  35.127  1.00  0.00     0.173 A 
ATOM     93  C   UNL A   1      43.790  27.364  36.161  1.00  0.00     0.173 A 
ATOM     94  F   UNL A   1      45.646  29.871  34.288  1.00  0.00    -0.203 F 
ATOM     95  C   UNL A   1      46.401  28.232  35.800  1.00  0.00     0.198 A 
ATOM     96  C   UNL A   1      44.831  26.756  36.856  1.00  0.00     0.198 A 
ATOM     97  F   UNL A   1      42.540  26.916  36.353  1.00  0.00    -0.203 F 
ATOM     98  F   UNL A   1      47.666  28.628  35.595  1.00  0.00    -0.200 F 
ATOM     99  C   UNL A   1      46.137  27.184  36.668  1.00  0.00     0.200 A 
ATOM    100  F   UNL A   1      44.573  25.752  37.705  1.00  0.00    -0.200 F 
ATOM    101  F   UNL A   1      47.142  26.578  37.316  1.00  0.00    -0.200 F 
ENDBRANCH  68  91
ENDBRANCH  42  43
ENDBRANCH  35  37
ENDBRANCH  34  35
ENDBRANCH  33  34
ENDBRANCH  32  33
ENDBRANCH  31  32
ENDBRANCH  30  31
ENDBRANCH   1  30
TORSDOF 21
ENDMDL
