MODEL 1
REMARK VINA RESULT:     -10.9      0.000      0.000
REMARK SMILES C[C@H]1[NH2+]CC[C@H]1C(=O)N1CCC(C(=O)OCCOCCOCCOC(=O)c2ccc(-c3c4nc(c(-c5c(F)c(F)c(F)c(F)c5F)c5ccc([nH]5)c(-c5c(F)c(F)c(F)c(F)c5F)c5nc(c(-c6c(F)c(F)c(F)c(F)c6F)c6ccc3[nH]6)C=C5)C=C4)cc2)CC1
REMARK SMILES IDX 20 1 19 2 18 3 17 4 16 5 15 6 13 7 14 8 12 9 7 10 8 11 9 12
REMARK SMILES IDX 10 13 91 14 11 15 90 16 6 17 1 18 2 19 3 20 4 21 5 24 21 25
REMARK SMILES IDX 22 26 23 27 24 28 25 29 26 30 27 31 28 32 89 33 29 34 88 35
REMARK SMILES IDX 30 36 31 37 32 38 82 39 33 40 87 41 81 42 83 43 34 44 86 45
REMARK SMILES IDX 80 46 79 47 35 49 67 50 47 51 66 52 48 53 51 54 65 55 84 56
REMARK SMILES IDX 49 57 50 58 64 60 85 61 52 62 36 63 37 64 45 65 38 66 39 67
REMARK SMILES IDX 43 68 46 69 40 70 41 71 44 72 42 73 68 74 69 75 77 76 70 77
REMARK SMILES IDX 71 78 75 79 78 80 72 81 73 82 76 83 74 84 53 85 54 86 62 87
REMARK SMILES IDX 55 88 56 89 60 90 63 91 57 92 58 93 61 94 59 95
REMARK H PARENT 3 22 3 23 83 48 51 59
REMARK Flexibility Score: inf
ROOT
ATOM      1  C   UNL A   1      44.758  19.746  24.568  1.00  0.00     0.188 C 
ENDROOT
BRANCH   1   2
ATOM      2  C   UNL A   1      43.800  18.870  25.379  1.00  0.00     0.188 C 
BRANCH   2   3
ATOM      3  O   UNL A   1      42.417  19.186  25.278  1.00  0.00    -0.376 OA
BRANCH   3   4
ATOM      4  C   UNL A   1      41.899  20.165  26.182  1.00  0.00     0.202 C 
BRANCH   4   5
ATOM      5  C   UNL A   1      40.396  20.109  26.503  1.00  0.00     0.261 C 
BRANCH   5   6
ATOM      6  O   UNL A   1      39.609  21.160  25.900  1.00  0.00    -0.463 OA
BRANCH   6   7
ATOM      7  C   UNL A   1      38.376  20.792  25.472  1.00  0.00     0.309 C 
ATOM      8  O   UNL A   1      38.108  19.688  25.005  1.00  0.00    -0.252 OA
BRANCH   7   9
ATOM      9  C   UNL A   1      37.281  21.811  25.753  1.00  0.00     0.103 C 
ATOM     10  C   UNL A   1      34.519  23.584  23.681  1.00  0.00     0.231 C 
ATOM     11  O   UNL A   1      35.314  23.709  22.748  1.00  0.00    -0.274 OA
ATOM     12  N   UNL A   1      34.974  23.391  24.982  1.00  0.00    -0.342 N 
ATOM     13  C   UNL A   1      36.190  24.081  25.405  1.00  0.00     0.120 C 
ATOM     14  C   UNL A   1      34.801  22.104  25.626  1.00  0.00     0.120 C 
ATOM     15  C   UNL A   1      37.456  23.234  25.198  1.00  0.00     0.037 C 
ATOM     16  C   UNL A   1      35.965  21.201  25.253  1.00  0.00     0.037 C 
BRANCH  10  17
ATOM     17  C   UNL A   1      33.019  23.809  23.452  1.00  0.00     0.142 C 
ATOM     18  C   UNL A   1      32.242  21.309  23.071  1.00  0.00     0.076 C 
ATOM     19  C   UNL A   1      32.116  22.791  22.752  1.00  0.00     0.192 C 
ATOM     20  N   UNL A   1      30.740  23.221  23.096  1.00  0.00    -0.343 N 
ATOM     21  C   UNL A   1      30.792  24.126  24.246  1.00  0.00     0.261 C 
ATOM     22  H   UNL A   1      30.176  22.405  23.330  1.00  0.00     0.346 HD
ATOM     23  H   UNL A   1      30.323  23.704  22.300  1.00  0.00     0.346 HD
ATOM     24  C   UNL A   1      32.240  24.236  24.682  1.00  0.00     0.081 C 
ENDBRANCH  10  17
ENDBRANCH   7   9
ENDBRANCH   6   7
ENDBRANCH   5   6
ENDBRANCH   4   5
ENDBRANCH   3   4
ENDBRANCH   2   3
ENDBRANCH   1   2
BRANCH   1  25
ATOM     25  O   UNL A   1      45.459  20.719  25.319  1.00  0.00    -0.376 OA
BRANCH  25  26
ATOM     26  C   UNL A   1      46.111  21.779  24.620  1.00  0.00     0.202 C 
BRANCH  26  27
ATOM     27  C   UNL A   1      45.970  23.209  25.190  1.00  0.00     0.261 C 
BRANCH  27  28
ATOM     28  O   UNL A   1      44.955  24.040  24.585  1.00  0.00    -0.460 OA
BRANCH  28  29
ATOM     29  C   UNL A   1      43.683  23.878  25.012  1.00  0.00     0.338 C 
ATOM     30  O   UNL A   1      42.893  23.031  24.626  1.00  0.00    -0.246 OA
BRANCH  29  31
ATOM     31  C   UNL A   1      43.464  24.712  26.228  1.00  0.00     0.060 A 
ATOM     32  C   UNL A   1      42.766  24.130  27.296  1.00  0.00     0.016 A 
ATOM     33  C   UNL A   1      43.972  26.009  26.366  1.00  0.00     0.016 A 
ATOM     34  C   UNL A   1      42.510  24.857  28.462  1.00  0.00     0.010 A 
ATOM     35  C   UNL A   1      43.705  26.744  27.532  1.00  0.00     0.010 A 
ATOM     36  C   UNL A   1      42.927  26.190  28.566  1.00  0.00    -0.014 A 
BRANCH  36  37
ATOM     37  C   UNL A   1      42.325  27.056  29.618  1.00  0.00     0.031 A 
ATOM     38  C   UNL A   1      43.002  27.101  30.966  1.00  0.00     0.074 A 
ATOM     39  C   UNL A   1      41.256  27.843  29.391  1.00  0.00     0.049 A 
ATOM     40  N   UNL A   1      42.692  27.788  32.038  1.00  0.00    -0.248 NA
ATOM     41  C   UNL A   1      44.195  26.254  31.121  1.00  0.00     0.031 C 
ATOM     42  C   UNL A   1      40.525  27.941  28.132  1.00  0.00     0.029 A 
ATOM     43  N   UNL A   1      40.602  28.718  30.229  1.00  0.00    -0.354 N 
ATOM     44  C   UNL A   1      43.648  27.452  32.989  1.00  0.00     0.074 A 
ATOM     45  C   UNL A   1      44.523  26.472  32.384  1.00  0.00     0.031 C 
ATOM     46  C   UNL A   1      39.518  28.822  28.281  1.00  0.00     0.029 A 
ATOM     47  C   UNL A   1      39.518  29.334  29.652  1.00  0.00     0.049 A 
ATOM     48  H   UNL A   1      40.885  28.886  31.157  1.00  0.00     0.167 HD
ATOM     49  C   UNL A   1      43.799  27.924  34.249  1.00  0.00     0.037 A 
ATOM     50  C   UNL A   1      38.624  30.199  30.174  1.00  0.00     0.037 A 
ATOM     51  C   UNL A   1      42.936  28.897  34.865  1.00  0.00     0.049 A 
ATOM     52  C   UNL A   1      38.770  30.656  31.607  1.00  0.00     0.074 A 
ATOM     53  C   UNL A   1      43.017  29.439  36.136  1.00  0.00     0.029 A 
ATOM     54  N   UNL A   1      41.828  29.466  34.258  1.00  0.00    -0.354 N 
ATOM     55  N   UNL A   1      39.691  30.353  32.488  1.00  0.00    -0.248 NA
ATOM     56  C   UNL A   1      37.749  31.588  32.112  1.00  0.00     0.031 C 
ATOM     57  C   UNL A   1      41.925  30.294  36.318  1.00  0.00     0.029 A 
ATOM     58  C   UNL A   1      41.204  30.338  35.136  1.00  0.00     0.049 A 
ATOM     59  H   UNL A   1      41.529  29.280  33.338  1.00  0.00     0.167 HD
ATOM     60  C   UNL A   1      39.386  31.085  33.632  1.00  0.00     0.074 A 
ATOM     61  C   UNL A   1      38.201  31.857  33.328  1.00  0.00     0.031 C 
ATOM     62  C   UNL A   1      40.032  31.117  34.825  1.00  0.00     0.037 A 
BRANCH  49  63
ATOM     63  C   UNL A   1      44.933  27.366  35.062  1.00  0.00     0.064 A 
ATOM     64  C   UNL A   1      46.190  27.990  35.104  1.00  0.00     0.173 A 
ATOM     65  C   UNL A   1      44.752  26.203  35.825  1.00  0.00     0.173 A 
ATOM     66  F   UNL A   1      46.421  29.094  34.379  1.00  0.00    -0.203 F 
ATOM     67  C   UNL A   1      47.231  27.452  35.858  1.00  0.00     0.198 A 
ATOM     68  C   UNL A   1      45.785  25.689  36.604  1.00  0.00     0.198 A 
ATOM     69  F   UNL A   1      43.570  25.568  35.822  1.00  0.00    -0.203 F 
ATOM     70  F   UNL A   1      48.438  28.033  35.838  1.00  0.00    -0.200 F 
ATOM     71  C   UNL A   1      47.025  26.308  36.613  1.00  0.00     0.200 A 
ATOM     72  F   UNL A   1      45.580  24.590  37.343  1.00  0.00    -0.200 F 
ATOM     73  F   UNL A   1      48.025  25.795  37.342  1.00  0.00    -0.200 F 
ENDBRANCH  49  63
BRANCH  50  74
ATOM     74  C   UNL A   1      37.493  30.699  29.345  1.00  0.00     0.064 A 
ATOM     75  C   UNL A   1      37.457  32.025  28.888  1.00  0.00     0.173 A 
ATOM     76  C   UNL A   1      36.399  29.877  29.039  1.00  0.00     0.173 A 
ATOM     77  F   UNL A   1      38.463  32.863  29.183  1.00  0.00    -0.203 F 
ATOM     78  C   UNL A   1      36.361  32.515  28.178  1.00  0.00     0.198 A 
ATOM     79  C   UNL A   1      35.318  30.359  28.301  1.00  0.00     0.198 A 
ATOM     80  F   UNL A   1      36.375  28.605  29.459  1.00  0.00    -0.203 F 
ATOM     81  F   UNL A   1      36.327  33.802  27.807  1.00  0.00    -0.200 F 
ATOM     82  C   UNL A   1      35.296  31.679  27.880  1.00  0.00     0.200 A 
ATOM     83  F   UNL A   1      34.293  29.546  28.009  1.00  0.00    -0.200 F 
ATOM     84  F   UNL A   1      34.242  32.150  27.199  1.00  0.00    -0.200 F 
ENDBRANCH  50  74
BRANCH  62  85
ATOM     85  C   UNL A   1      39.513  32.061  35.875  1.00  0.00     0.064 A 
ATOM     86  C   UNL A   1      38.482  31.703  36.757  1.00  0.00     0.173 A 
ATOM     87  C   UNL A   1      40.076  33.341  36.016  1.00  0.00     0.173 A 
ATOM     88  F   UNL A   1      37.901  30.497  36.664  1.00  0.00    -0.203 F 
ATOM     89  C   UNL A   1      38.006  32.602  37.710  1.00  0.00     0.198 A 
ATOM     90  C   UNL A   1      39.623  34.223  36.993  1.00  0.00     0.198 A 
ATOM     91  F   UNL A   1      41.073  33.733  35.209  1.00  0.00    -0.203 F 
ATOM     92  F   UNL A   1      36.977  32.260  38.497  1.00  0.00    -0.200 F 
ATOM     93  C   UNL A   1      38.580  33.859  37.831  1.00  0.00     0.200 A 
ATOM     94  F   UNL A   1      40.193  35.430  37.120  1.00  0.00    -0.200 F 
ATOM     95  F   UNL A   1      38.122  34.722  38.747  1.00  0.00    -0.200 F 
ENDBRANCH  62  85
ENDBRANCH  36  37
ENDBRANCH  29  31
ENDBRANCH  28  29
ENDBRANCH  27  28
ENDBRANCH  26  27
ENDBRANCH  25  26
ENDBRANCH   1  25
TORSDOF 18
ENDMDL
MODEL 2
REMARK VINA RESULT:     -10.8      6.084     11.695
REMARK SMILES C[C@H]1[NH2+]CC[C@H]1C(=O)N1CCC(C(=O)OCCOCCOCCOC(=O)c2ccc(-c3c4nc(c(-c5c(F)c(F)c(F)c(F)c5F)c5ccc([nH]5)c(-c5c(F)c(F)c(F)c(F)c5F)c5nc(c(-c6c(F)c(F)c(F)c(F)c6F)c6ccc3[nH]6)C=C5)C=C4)cc2)CC1
REMARK SMILES IDX 20 1 19 2 18 3 17 4 16 5 15 6 13 7 14 8 12 9 7 10 8 11 9 12
REMARK SMILES IDX 10 13 91 14 11 15 90 16 6 17 1 18 2 19 3 20 4 21 5 24 21 25
REMARK SMILES IDX 22 26 23 27 24 28 25 29 26 30 27 31 28 32 89 33 29 34 88 35
REMARK SMILES IDX 30 36 31 37 32 38 82 39 33 40 87 41 81 42 83 43 34 44 86 45
REMARK SMILES IDX 80 46 79 47 35 49 67 50 47 51 66 52 48 53 51 54 65 55 84 56
REMARK SMILES IDX 49 57 50 58 64 60 85 61 52 62 36 63 37 64 45 65 38 66 39 67
REMARK SMILES IDX 43 68 46 69 40 70 41 71 44 72 42 73 68 74 69 75 77 76 70 77
REMARK SMILES IDX 71 78 75 79 78 80 72 81 73 82 76 83 74 84 53 85 54 86 62 87
REMARK SMILES IDX 55 88 56 89 60 90 63 91 57 92 58 93 61 94 59 95
REMARK H PARENT 3 22 3 23 83 48 51 59
REMARK Flexibility Score: inf
ROOT
ATOM      1  C   UNL A   1      33.193  35.638  32.449  1.00  0.00     0.188 C 
ENDROOT
BRANCH   1   2
ATOM      2  C   UNL A   1      32.862  35.871  30.973  1.00  0.00     0.188 C 
BRANCH   2   3
ATOM      3  O   UNL A   1      32.972  34.742  30.115  1.00  0.00    -0.376 OA
BRANCH   3   4
ATOM      4  C   UNL A   1      33.336  34.986  28.754  1.00  0.00     0.202 C 
BRANCH   4   5
ATOM      5  C   UNL A   1      34.158  33.902  28.035  1.00  0.00     0.261 C 
BRANCH   5   6
ATOM      6  O   UNL A   1      33.415  32.715  27.678  1.00  0.00    -0.463 OA
BRANCH   6   7
ATOM      7  C   UNL A   1      34.146  31.576  27.586  1.00  0.00     0.309 C 
ATOM      8  O   UNL A   1      35.349  31.507  27.822  1.00  0.00    -0.252 OA
BRANCH   7   9
ATOM      9  C   UNL A   1      33.328  30.324  27.309  1.00  0.00     0.103 C 
ATOM     10  C   UNL A   1      32.807  27.940  24.290  1.00  0.00     0.231 C 
ATOM     11  O   UNL A   1      32.799  28.915  23.535  1.00  0.00    -0.274 OA
ATOM     12  N   UNL A   1      32.525  28.088  25.645  1.00  0.00    -0.342 N 
ATOM     13  C   UNL A   1      31.516  29.065  26.045  1.00  0.00     0.120 C 
ATOM     14  C   UNL A   1      33.582  27.932  26.624  1.00  0.00     0.120 C 
ATOM     15  C   UNL A   1      32.118  30.443  26.368  1.00  0.00     0.037 C 
ATOM     16  C   UNL A   1      34.304  29.259  26.793  1.00  0.00     0.037 C 
BRANCH  10  17
ATOM     17  C   UNL A   1      32.960  26.525  23.720  1.00  0.00     0.142 C 
ATOM     18  C   UNL A   1      30.424  25.774  23.696  1.00  0.00     0.076 C 
ATOM     19  C   UNL A   1      31.896  25.438  23.881  1.00  0.00     0.192 C 
ATOM     20  N   UNL A   1      32.263  24.411  22.877  1.00  0.00    -0.343 N 
ATOM     21  C   UNL A   1      33.179  25.000  21.898  1.00  0.00     0.261 C 
ATOM     22  H   UNL A   1      31.424  24.081  22.403  1.00  0.00     0.346 HD
ATOM     23  H   UNL A   1      32.720  23.625  23.342  1.00  0.00     0.346 HD
ATOM     24  C   UNL A   1      33.359  26.462  22.258  1.00  0.00     0.081 C 
ENDBRANCH  10  17
ENDBRANCH   7   9
ENDBRANCH   6   7
ENDBRANCH   5   6
ENDBRANCH   4   5
ENDBRANCH   3   4
ENDBRANCH   2   3
ENDBRANCH   1   2
BRANCH   1  25
ATOM     25  O   UNL A   1      34.565  35.745  32.779  1.00  0.00    -0.376 OA
BRANCH  25  26
ATOM     26  C   UNL A   1      35.372  34.570  32.718  1.00  0.00     0.202 C 
BRANCH  26  27
ATOM     27  C   UNL A   1      34.656  33.202  32.790  1.00  0.00     0.261 C 
BRANCH  27  28
ATOM     28  O   UNL A   1      35.457  32.045  32.464  1.00  0.00    -0.460 OA
BRANCH  28  29
ATOM     29  C   UNL A   1      36.631  31.898  33.116  1.00  0.00     0.338 C 
ATOM     30  O   UNL A   1      36.812  32.024  34.317  1.00  0.00    -0.246 OA
BRANCH  29  31
ATOM     31  C   UNL A   1      37.630  31.286  32.193  1.00  0.00     0.060 A 
ATOM     32  C   UNL A   1      38.579  30.416  32.751  1.00  0.00     0.016 A 
ATOM     33  C   UNL A   1      37.620  31.495  30.810  1.00  0.00     0.016 A 
ATOM     34  C   UNL A   1      39.555  29.817  31.950  1.00  0.00     0.010 A 
ATOM     35  C   UNL A   1      38.608  30.904  30.006  1.00  0.00     0.010 A 
ATOM     36  C   UNL A   1      39.614  30.103  30.580  1.00  0.00    -0.014 A 
BRANCH  36  37
ATOM     37  C   UNL A   1      40.860  29.783  29.828  1.00  0.00     0.031 A 
ATOM     38  C   UNL A   1      40.982  28.408  29.220  1.00  0.00     0.074 A 
ATOM     39  C   UNL A   1      41.833  30.688  29.613  1.00  0.00     0.049 A 
ATOM     40  N   UNL A   1      41.949  27.889  28.504  1.00  0.00    -0.248 NA
ATOM     41  C   UNL A   1      39.854  27.493  29.455  1.00  0.00     0.031 C 
ATOM     42  C   UNL A   1      41.837  32.065  30.096  1.00  0.00     0.029 A 
ATOM     43  N   UNL A   1      43.018  30.571  28.920  1.00  0.00    -0.354 N 
ATOM     44  C   UNL A   1      41.545  26.593  28.208  1.00  0.00     0.074 A 
ATOM     45  C   UNL A   1      40.268  26.389  28.854  1.00  0.00     0.031 C 
ATOM     46  C   UNL A   1      42.971  32.666  29.690  1.00  0.00     0.029 A 
ATOM     47  C   UNL A   1      43.785  31.710  28.938  1.00  0.00     0.049 A 
ATOM     48  H   UNL A   1      43.288  29.747  28.454  1.00  0.00     0.167 HD
ATOM     49  C   UNL A   1      42.169  25.658  27.454  1.00  0.00     0.037 A 
ATOM     50  C   UNL A   1      45.009  31.948  28.420  1.00  0.00     0.037 A 
ATOM     51  C   UNL A   1      43.441  25.846  26.807  1.00  0.00     0.049 A 
ATOM     52  C   UNL A   1      45.720  30.863  27.644  1.00  0.00     0.074 A 
ATOM     53  C   UNL A   1      44.147  24.955  26.018  1.00  0.00     0.029 A 
ATOM     54  N   UNL A   1      44.202  27.001  26.883  1.00  0.00    -0.354 N 
ATOM     55  N   UNL A   1      45.318  29.651  27.348  1.00  0.00    -0.248 NA
ATOM     56  C   UNL A   1      47.056  31.190  27.122  1.00  0.00     0.031 C 
ATOM     57  C   UNL A   1      45.361  25.550  25.663  1.00  0.00     0.029 A 
ATOM     58  C   UNL A   1      45.381  26.839  26.173  1.00  0.00     0.049 A 
ATOM     59  H   UNL A   1      43.944  27.818  27.370  1.00  0.00     0.167 HD
ATOM     60  C   UNL A   1      46.329  29.089  26.574  1.00  0.00     0.074 A 
ATOM     61  C   UNL A   1      47.357  30.097  26.436  1.00  0.00     0.031 C 
ATOM     62  C   UNL A   1      46.396  27.850  26.024  1.00  0.00     0.037 A 
BRANCH  49  63
ATOM     63  C   UNL A   1      41.492  24.324  27.312  1.00  0.00     0.064 A 
ATOM     64  C   UNL A   1      40.327  24.163  26.546  1.00  0.00     0.173 A 
ATOM     65  C   UNL A   1      42.029  23.187  27.935  1.00  0.00     0.173 A 
ATOM     66  F   UNL A   1      39.762  25.221  25.945  1.00  0.00    -0.203 F 
ATOM     67  C   UNL A   1      39.710  22.920  26.434  1.00  0.00     0.198 A 
ATOM     68  C   UNL A   1      41.428  21.940  27.792  1.00  0.00     0.198 A 
ATOM     69  F   UNL A   1      43.142  23.285  28.678  1.00  0.00    -0.203 F 
ATOM     70  F   UNL A   1      38.567  22.802  25.744  1.00  0.00    -0.200 F 
ATOM     71  C   UNL A   1      40.265  21.809  27.050  1.00  0.00     0.200 A 
ATOM     72  F   UNL A   1      41.974  20.865  28.377  1.00  0.00    -0.200 F 
ATOM     73  F   UNL A   1      39.673  20.612  26.935  1.00  0.00    -0.200 F 
ENDBRANCH  49  63
BRANCH  50  74
ATOM     74  C   UNL A   1      45.661  33.272  28.615  1.00  0.00     0.064 A 
ATOM     75  C   UNL A   1      45.477  34.316  27.696  1.00  0.00     0.173 A 
ATOM     76  C   UNL A   1      46.524  33.504  29.696  1.00  0.00     0.173 A 
ATOM     77  F   UNL A   1      44.688  34.135  26.626  1.00  0.00    -0.203 F 
ATOM     78  C   UNL A   1      46.149  35.530  27.837  1.00  0.00     0.198 A 
ATOM     79  C   UNL A   1      47.171  34.729  29.854  1.00  0.00     0.198 A 
ATOM     80  F   UNL A   1      46.745  32.537  30.599  1.00  0.00    -0.203 F 
ATOM     81  F   UNL A   1      46.002  36.487  26.911  1.00  0.00    -0.200 F 
ATOM     82  C   UNL A   1      46.990  35.737  28.920  1.00  0.00     0.200 A 
ATOM     83  F   UNL A   1      47.978  34.927  30.906  1.00  0.00    -0.200 F 
ATOM     84  F   UNL A   1      47.638  36.902  29.055  1.00  0.00    -0.200 F 
ENDBRANCH  50  74
BRANCH  62  85
ATOM     85  C   UNL A   1      47.592  27.530  25.169  1.00  0.00     0.064 A 
ATOM     86  C   UNL A   1      48.761  26.965  25.702  1.00  0.00     0.173 A 
ATOM     87  C   UNL A   1      47.557  27.772  23.786  1.00  0.00     0.173 A 
ATOM     88  F   UNL A   1      48.854  26.719  27.018  1.00  0.00    -0.203 F 
ATOM     89  C   UNL A   1      49.862  26.694  24.892  1.00  0.00     0.198 A 
ATOM     90  C   UNL A   1      48.646  27.466  22.973  1.00  0.00     0.198 A 
ATOM     91  F   UNL A   1      46.461  28.298  23.219  1.00  0.00    -0.203 F 
ATOM     92  F   UNL A   1      50.990  26.216  25.434  1.00  0.00    -0.200 F 
ATOM     93  C   UNL A   1      49.802  26.939  23.528  1.00  0.00     0.200 A 
ATOM     94  F   UNL A   1      48.577  27.687  21.653  1.00  0.00    -0.200 F 
ATOM     95  F   UNL A   1      50.861  26.678  22.750  1.00  0.00    -0.200 F 
ENDBRANCH  62  85
ENDBRANCH  36  37
ENDBRANCH  29  31
ENDBRANCH  28  29
ENDBRANCH  27  28
ENDBRANCH  26  27
ENDBRANCH  25  26
ENDBRANCH   1  25
TORSDOF 18
ENDMDL
MODEL 3
REMARK VINA RESULT:     -10.7      4.587      7.356
REMARK SMILES C[C@H]1[NH2+]CC[C@H]1C(=O)N1CCC(C(=O)OCCOCCOCCOC(=O)c2ccc(-c3c4nc(c(-c5c(F)c(F)c(F)c(F)c5F)c5ccc([nH]5)c(-c5c(F)c(F)c(F)c(F)c5F)c5nc(c(-c6c(F)c(F)c(F)c(F)c6F)c6ccc3[nH]6)C=C5)C=C4)cc2)CC1
REMARK SMILES IDX 20 1 19 2 18 3 17 4 16 5 15 6 13 7 14 8 12 9 7 10 8 11 9 12
REMARK SMILES IDX 10 13 91 14 11 15 90 16 6 17 1 18 2 19 3 20 4 21 5 24 21 25
REMARK SMILES IDX 22 26 23 27 24 28 25 29 26 30 27 31 28 32 89 33 29 34 88 35
REMARK SMILES IDX 30 36 31 37 32 38 82 39 33 40 87 41 81 42 83 43 34 44 86 45
REMARK SMILES IDX 80 46 79 47 35 49 67 50 47 51 66 52 48 53 51 54 65 55 84 56
REMARK SMILES IDX 49 57 50 58 64 60 85 61 52 62 36 63 37 64 45 65 38 66 39 67
REMARK SMILES IDX 43 68 46 69 40 70 41 71 44 72 42 73 68 74 69 75 77 76 70 77
REMARK SMILES IDX 71 78 75 79 78 80 72 81 73 82 76 83 74 84 53 85 54 86 62 87
REMARK SMILES IDX 55 88 56 89 60 90 63 91 57 92 58 93 61 94 59 95
REMARK H PARENT 3 22 3 23 83 48 51 59
REMARK Flexibility Score: inf
ROOT
ATOM      1  C   UNL A   1      38.131  21.588  25.384  1.00  0.00     0.188 C 
ENDROOT
BRANCH   1   2
ATOM      2  C   UNL A   1      36.943  22.511  25.667  1.00  0.00     0.188 C 
BRANCH   2   3
ATOM      3  O   UNL A   1      36.378  23.178  24.545  1.00  0.00    -0.376 OA
BRANCH   3   4
ATOM      4  C   UNL A   1      35.111  22.710  24.074  1.00  0.00     0.202 C 
BRANCH   4   5
ATOM      5  C   UNL A   1      34.496  21.494  24.785  1.00  0.00     0.261 C 
BRANCH   5   6
ATOM      6  O   UNL A   1      33.418  21.806  25.696  1.00  0.00    -0.463 OA
BRANCH   6   7
ATOM      7  C   UNL A   1      32.173  21.502  25.252  1.00  0.00     0.309 C 
ATOM      8  O   UNL A   1      31.779  20.360  25.030  1.00  0.00    -0.252 OA
BRANCH   7   9
ATOM      9  C   UNL A   1      31.220  22.686  25.189  1.00  0.00     0.103 C 
ATOM     10  C   UNL A   1      31.575  26.542  24.917  1.00  0.00     0.231 C 
ATOM     11  O   UNL A   1      32.525  26.500  25.700  1.00  0.00    -0.274 OA
ATOM     12  N   UNL A   1      30.641  25.511  24.875  1.00  0.00    -0.342 N 
ATOM     13  C   UNL A   1      30.273  24.852  26.126  1.00  0.00     0.120 C 
ATOM     14  C   UNL A   1      30.596  24.621  23.733  1.00  0.00     0.120 C 
ATOM     15  C   UNL A   1      31.130  23.608  26.416  1.00  0.00     0.037 C 
ATOM     16  C   UNL A   1      31.595  23.494  23.940  1.00  0.00     0.037 C 
BRANCH  10  17
ATOM     17  C   UNL A   1      31.309  27.809  24.095  1.00  0.00     0.142 C 
ATOM     18  C   UNL A   1      33.219  27.578  22.280  1.00  0.00     0.076 C 
ATOM     19  C   UNL A   1      32.353  28.449  23.179  1.00  0.00     0.192 C 
ATOM     20  N   UNL A   1      31.574  29.368  22.316  1.00  0.00    -0.343 N 
ATOM     21  C   UNL A   1      30.158  29.005  22.381  1.00  0.00     0.261 C 
ATOM     22  H   UNL A   1      31.902  29.294  21.354  1.00  0.00     0.346 HD
ATOM     23  H   UNL A   1      31.696  30.328  22.641  1.00  0.00     0.346 HD
ATOM     24  C   UNL A   1      30.035  27.783  23.271  1.00  0.00     0.081 C 
ENDBRANCH  10  17
ENDBRANCH   7   9
ENDBRANCH   6   7
ENDBRANCH   5   6
ENDBRANCH   4   5
ENDBRANCH   3   4
ENDBRANCH   2   3
ENDBRANCH   1   2
BRANCH   1  25
ATOM     25  O   UNL A   1      37.785  20.279  24.974  1.00  0.00    -0.376 OA
BRANCH  25  26
ATOM     26  C   UNL A   1      38.643  19.202  25.346  1.00  0.00     0.202 C 
BRANCH  26  27
ATOM     27  C   UNL A   1      39.922  19.545  26.143  1.00  0.00     0.261 C 
BRANCH  27  28
ATOM     28  O   UNL A   1      41.176  19.370  25.445  1.00  0.00    -0.460 OA
BRANCH  28  29
ATOM     29  C   UNL A   1      42.310  19.638  26.129  1.00  0.00     0.338 C 
ATOM     30  O   UNL A   1      43.310  18.938  26.174  1.00  0.00    -0.246 OA
BRANCH  29  31
ATOM     31  C   UNL A   1      42.274  21.051  26.603  1.00  0.00     0.060 A 
ATOM     32  C   UNL A   1      41.939  22.040  25.666  1.00  0.00     0.016 A 
ATOM     33  C   UNL A   1      42.497  21.415  27.936  1.00  0.00     0.016 A 
ATOM     34  C   UNL A   1      41.900  23.388  26.035  1.00  0.00     0.010 A 
ATOM     35  C   UNL A   1      42.469  22.770  28.304  1.00  0.00     0.010 A 
ATOM     36  C   UNL A   1      42.222  23.768  27.343  1.00  0.00    -0.014 A 
BRANCH  36  37
ATOM     37  C   UNL A   1      42.554  25.195  27.620  1.00  0.00     0.031 A 
ATOM     38  C   UNL A   1      43.897  25.707  27.162  1.00  0.00     0.074 A 
ATOM     39  C   UNL A   1      41.682  26.048  28.190  1.00  0.00     0.049 A 
ATOM     40  N   UNL A   1      44.416  26.906  27.262  1.00  0.00    -0.248 NA
ATOM     41  C   UNL A   1      44.773  24.728  26.500  1.00  0.00     0.031 C 
ATOM     42  C   UNL A   1      40.336  25.712  28.643  1.00  0.00     0.029 A 
ATOM     43  N   UNL A   1      41.812  27.387  28.483  1.00  0.00    -0.354 N 
ATOM     44  C   UNL A   1      45.675  26.821  26.679  1.00  0.00     0.074 A 
ATOM     45  C   UNL A   1      45.858  25.447  26.265  1.00  0.00     0.031 C 
ATOM     46  C   UNL A   1      39.764  26.815  29.162  1.00  0.00     0.029 A 
ATOM     47  C   UNL A   1      40.711  27.929  29.100  1.00  0.00     0.049 A 
ATOM     48  H   UNL A   1      42.619  27.908  28.269  1.00  0.00     0.167 HD
ATOM     49  C   UNL A   1      46.593  27.797  26.487  1.00  0.00     0.037 A 
ATOM     50  C   UNL A   1      40.498  29.175  29.572  1.00  0.00     0.037 A 
ATOM     51  C   UNL A   1      46.425  29.167  26.894  1.00  0.00     0.049 A 
ATOM     52  C   UNL A   1      41.568  30.231  29.413  1.00  0.00     0.074 A 
ATOM     53  C   UNL A   1      47.300  30.227  26.736  1.00  0.00     0.029 A 
ATOM     54  N   UNL A   1      45.310  29.664  27.551  1.00  0.00    -0.354 N 
ATOM     55  N   UNL A   1      42.742  30.147  28.837  1.00  0.00    -0.248 NA
ATOM     56  C   UNL A   1      41.271  31.563  29.966  1.00  0.00     0.031 C 
ATOM     57  C   UNL A   1      46.740  31.354  27.346  1.00  0.00     0.029 A 
ATOM     58  C   UNL A   1      45.484  31.013  27.823  1.00  0.00     0.049 A 
ATOM     59  H   UNL A   1      44.512  29.139  27.787  1.00  0.00     0.167 HD
ATOM     60  C   UNL A   1      43.304  31.418  28.921  1.00  0.00     0.074 A 
ATOM     61  C   UNL A   1      42.336  32.257  29.592  1.00  0.00     0.031 C 
ATOM     62  C   UNL A   1      44.512  31.850  28.478  1.00  0.00     0.037 A 
BRANCH  49  63
ATOM     63  C   UNL A   1      47.885  27.407  25.828  1.00  0.00     0.064 A 
ATOM     64  C   UNL A   1      48.049  27.455  24.435  1.00  0.00     0.173 A 
ATOM     65  C   UNL A   1      48.981  27.000  26.603  1.00  0.00     0.173 A 
ATOM     66  F   UNL A   1      47.027  27.819  23.646  1.00  0.00    -0.203 F 
ATOM     67  C   UNL A   1      49.253  27.081  23.842  1.00  0.00     0.198 A 
ATOM     68  C   UNL A   1      50.194  26.660  26.009  1.00  0.00     0.198 A 
ATOM     69  F   UNL A   1      48.879  26.938  27.939  1.00  0.00    -0.203 F 
ATOM     70  F   UNL A   1      49.368  27.080  22.507  1.00  0.00    -0.200 F 
ATOM     71  C   UNL A   1      50.326  26.692  24.630  1.00  0.00     0.200 A 
ATOM     72  F   UNL A   1      51.233  26.298  26.773  1.00  0.00    -0.200 F 
ATOM     73  F   UNL A   1      51.486  26.339  24.059  1.00  0.00    -0.200 F 
ENDBRANCH  49  63
BRANCH  50  74
ATOM     74  C   UNL A   1      39.217  29.511  30.253  1.00  0.00     0.064 A 
ATOM     75  C   UNL A   1      38.127  30.029  29.537  1.00  0.00     0.173 A 
ATOM     76  C   UNL A   1      39.074  29.371  31.641  1.00  0.00     0.173 A 
ATOM     77  F   UNL A   1      38.224  30.216  28.212  1.00  0.00    -0.203 F 
ATOM     78  C   UNL A   1      36.956  30.417  30.186  1.00  0.00     0.198 A 
ATOM     79  C   UNL A   1      37.890  29.728  32.285  1.00  0.00     0.198 A 
ATOM     80  F   UNL A   1      40.087  28.890  32.375  1.00  0.00    -0.203 F 
ATOM     81  F   UNL A   1      35.954  30.966  29.485  1.00  0.00    -0.200 F 
ATOM     82  C   UNL A   1      36.836  30.259  31.558  1.00  0.00     0.200 A 
ATOM     83  F   UNL A   1      37.776  29.567  33.610  1.00  0.00    -0.200 F 
ATOM     84  F   UNL A   1      35.711  30.633  32.182  1.00  0.00    -0.200 F 
ENDBRANCH  50  74
BRANCH  62  85
ATOM     85  C   UNL A   1      44.836  33.309  28.646  1.00  0.00     0.064 A 
ATOM     86  C   UNL A   1      44.499  34.264  27.675  1.00  0.00     0.173 A 
ATOM     87  C   UNL A   1      45.474  33.763  29.812  1.00  0.00     0.173 A 
ATOM     88  F   UNL A   1      43.896  33.888  26.537  1.00  0.00    -0.203 F 
ATOM     89  C   UNL A   1      44.827  35.609  27.845  1.00  0.00     0.198 A 
ATOM     90  C   UNL A   1      45.766  35.111  29.995  1.00  0.00     0.198 A 
ATOM     91  F   UNL A   1      45.808  32.897  30.781  1.00  0.00    -0.203 F 
ATOM     92  F   UNL A   1      44.553  36.491  26.875  1.00  0.00    -0.200 F 
ATOM     93  C   UNL A   1      45.455  36.032  29.007  1.00  0.00     0.200 A 
ATOM     94  F   UNL A   1      46.356  35.520  31.128  1.00  0.00    -0.200 F 
ATOM     95  F   UNL A   1      45.768  37.325  29.169  1.00  0.00    -0.200 F 
ENDBRANCH  62  85
ENDBRANCH  36  37
ENDBRANCH  29  31
ENDBRANCH  28  29
ENDBRANCH  27  28
ENDBRANCH  26  27
ENDBRANCH  25  26
ENDBRANCH   1  25
TORSDOF 18
ENDMDL
