MODEL 1
REMARK VINA RESULT:     -11.1      0.000      0.000
REMARK SMILES CCc1nc(C)c(C(=O)OCCOCCOCCOC(=O)c2ccc(-c3c4nc(c(-c5c(F)c(F)c(F)c(F)c5F)c5ccc([nH]5)c(-c5c(F)c(F)c(F)c(F)c5F)c5nc(c(-c6c(F)c(F)c(F)c(F)c6F)c6ccc3[nH]6)C=C5)C=C4)cc2)c(SCc2cnc(Cl)s2)n1
REMARK SMILES IDX 14 1 13 2 12 3 11 4 10 5 8 6 9 7 7 8 3 9 4 10 94 11 5 12
REMARK SMILES IDX 85 13 6 14 2 15 1 16 86 17 87 18 88 19 89 20 93 21 90 22
REMARK SMILES IDX 91 23 92 24 15 25 16 26 17 27 18 28 19 29 20 30 21 31 22 32
REMARK SMILES IDX 23 33 84 34 24 35 83 36 25 37 26 38 27 39 77 40 28 41 82 42
REMARK SMILES IDX 76 43 78 44 29 45 81 46 75 47 74 48 30 50 62 51 42 52 61 53
REMARK SMILES IDX 43 54 46 55 60 56 79 57 44 58 45 59 59 61 80 62 47 63 31 64
REMARK SMILES IDX 32 65 40 66 33 67 34 68 38 69 41 70 35 71 36 72 39 73 37 74
REMARK SMILES IDX 63 75 64 76 72 77 65 78 66 79 70 80 73 81 67 82 68 83 71 84
REMARK SMILES IDX 69 85 48 86 49 87 57 88 50 89 51 90 55 91 58 92 52 93 53 94
REMARK SMILES IDX 56 95 54 96
REMARK H PARENT 78 49 46 60
REMARK Flexibility Score: inf
ROOT
ATOM      1  C   UNL A   1      33.556  26.191  22.674  1.00  0.00     0.188 C 
ENDROOT
BRANCH   1   2
ATOM      2  O   UNL A   1      32.715  25.077  22.432  1.00  0.00    -0.376 OA
BRANCH   2   3
ATOM      3  C   UNL A   1      31.335  25.206  22.752  1.00  0.00     0.202 C 
BRANCH   3   4
ATOM      4  C   UNL A   1      30.653  24.024  23.450  1.00  0.00     0.261 C 
BRANCH   4   5
ATOM      5  O   UNL A   1      30.427  24.307  24.841  1.00  0.00    -0.460 OA
BRANCH   5   6
ATOM      6  C   UNL A   1      30.931  23.543  25.820  1.00  0.00     0.342 C 
ATOM      7  O   UNL A   1      30.321  22.997  26.723  1.00  0.00    -0.246 OA
BRANCH   6   8
ATOM      8  C   UNL A   1      32.382  23.537  25.642  1.00  0.00     0.113 A 
ATOM      9  C   UNL A   1      35.096  23.700  25.552  1.00  0.00     0.129 A 
ATOM     10  N   UNL A   1      34.429  24.780  25.958  1.00  0.00    -0.237 NA
ATOM     11  N   UNL A   1      34.499  22.586  25.115  1.00  0.00    -0.226 NA
ATOM     12  C   UNL A   1      33.082  24.699  26.003  1.00  0.00     0.057 A 
ATOM     13  C   UNL A   1      33.141  22.477  25.157  1.00  0.00     0.115 A 
ATOM     14  C   UNL A   1      32.437  25.943  26.553  1.00  0.00     0.068 C 
BRANCH   9  15
ATOM     15  C   UNL A   1      36.595  23.703  25.669  1.00  0.00     0.074 C 
ATOM     16  C   UNL A   1      37.182  22.352  25.280  1.00  0.00     0.012 C 
ENDBRANCH   9  15
BRANCH  13  17
ATOM     17  S   UNL A   1      32.785  20.829  24.582  1.00  0.00    -0.100 SA
BRANCH  17  18
ATOM     18  C   UNL A   1      34.233  19.733  24.626  1.00  0.00     0.125 C 
BRANCH  18  19
ATOM     19  C   UNL A   1      33.883  18.299  24.473  1.00  0.00     0.036 A 
ATOM     20  C   UNL A   1      34.404  17.325  23.636  1.00  0.00     0.129 A 
ATOM     21  S   UNL A   1      32.623  17.590  25.405  1.00  0.00    -0.107 S 
ATOM     22  N   UNL A   1      33.978  16.034  23.877  1.00  0.00    -0.233 NA
ATOM     23  C   UNL A   1      33.129  16.062  24.873  1.00  0.00     0.183 A 
ATOM     24  Cl  UNL A   1      32.526  14.653  25.635  1.00  0.00    -0.051 Cl
ENDBRANCH  18  19
ENDBRANCH  17  18
ENDBRANCH  13  17
ENDBRANCH   6   8
ENDBRANCH   5   6
ENDBRANCH   4   5
ENDBRANCH   3   4
ENDBRANCH   2   3
ENDBRANCH   1   2
BRANCH   1  25
ATOM     25  C   UNL A   1      32.824  27.452  23.178  1.00  0.00     0.188 C 
BRANCH  25  26
ATOM     26  O   UNL A   1      33.315  28.127  24.324  1.00  0.00    -0.376 OA
BRANCH  26  27
ATOM     27  C   UNL A   1      32.913  29.474  24.539  1.00  0.00     0.202 C 
BRANCH  27  28
ATOM     28  C   UNL A   1      31.870  29.787  25.628  1.00  0.00     0.261 C 
BRANCH  28  29
ATOM     29  O   UNL A   1      32.377  29.970  26.967  1.00  0.00    -0.460 OA
BRANCH  29  30
ATOM     30  C   UNL A   1      33.009  31.147  27.206  1.00  0.00     0.338 C 
ATOM     31  O   UNL A   1      32.513  32.260  27.221  1.00  0.00    -0.246 OA
BRANCH  30  32
ATOM     32  C   UNL A   1      34.410  30.911  27.625  1.00  0.00     0.060 A 
ATOM     33  C   UNL A   1      34.866  29.589  27.751  1.00  0.00     0.016 A 
ATOM     34  C   UNL A   1      35.231  31.973  28.001  1.00  0.00     0.016 A 
ATOM     35  C   UNL A   1      36.127  29.323  28.292  1.00  0.00     0.010 A 
ATOM     36  C   UNL A   1      36.484  31.705  28.569  1.00  0.00     0.010 A 
ATOM     37  C   UNL A   1      36.921  30.378  28.755  1.00  0.00    -0.014 A 
BRANCH  37  38
ATOM     38  C   UNL A   1      38.093  30.104  29.627  1.00  0.00     0.031 A 
ATOM     39  C   UNL A   1      39.153  29.159  29.123  1.00  0.00     0.074 A 
ATOM     40  C   UNL A   1      38.225  30.671  30.838  1.00  0.00     0.049 A 
ATOM     41  N   UNL A   1      40.204  28.677  29.737  1.00  0.00    -0.248 NA
ATOM     42  C   UNL A   1      39.000  28.692  27.736  1.00  0.00     0.031 C 
ATOM     43  C   UNL A   1      37.310  31.649  31.420  1.00  0.00     0.029 A 
ATOM     44  N   UNL A   1      39.183  30.487  31.806  1.00  0.00    -0.354 N 
ATOM     45  C   UNL A   1      40.826  27.841  28.818  1.00  0.00     0.074 A 
ATOM     46  C   UNL A   1      40.023  27.861  27.614  1.00  0.00     0.031 C 
ATOM     47  C   UNL A   1      37.735  31.959  32.657  1.00  0.00     0.029 A 
ATOM     48  C   UNL A   1      38.931  31.175  32.967  1.00  0.00     0.049 A 
ATOM     49  H   UNL A   1      39.974  29.915  31.679  1.00  0.00     0.167 HD
ATOM     50  C   UNL A   1      41.966  27.124  28.962  1.00  0.00     0.037 A 
ATOM     51  C   UNL A   1      39.573  31.149  34.152  1.00  0.00     0.037 A 
ATOM     52  C   UNL A   1      42.765  27.103  30.159  1.00  0.00     0.049 A 
ATOM     53  C   UNL A   1      40.793  30.273  34.319  1.00  0.00     0.074 A 
ATOM     54  C   UNL A   1      43.942  26.417  30.399  1.00  0.00     0.029 A 
ATOM     55  N   UNL A   1      42.461  27.793  31.323  1.00  0.00    -0.354 N 
ATOM     56  N   UNL A   1      41.383  29.496  33.444  1.00  0.00    -0.248 NA
ATOM     57  C   UNL A   1      41.435  30.275  35.642  1.00  0.00     0.031 C 
ATOM     58  C   UNL A   1      44.320  26.645  31.725  1.00  0.00     0.029 A 
ATOM     59  C   UNL A   1      43.414  27.527  32.293  1.00  0.00     0.049 A 
ATOM     60  H   UNL A   1      41.682  28.384  31.442  1.00  0.00     0.167 HD
ATOM     61  C   UNL A   1      42.484  28.951  34.095  1.00  0.00     0.074 A 
ATOM     62  C   UNL A   1      42.484  29.490  35.439  1.00  0.00     0.031 C 
ATOM     63  C   UNL A   1      43.414  28.084  33.622  1.00  0.00     0.037 A 
BRANCH  50  64
ATOM     64  C   UNL A   1      42.402  26.273  27.804  1.00  0.00     0.064 A 
ATOM     65  C   UNL A   1      41.845  25.008  27.563  1.00  0.00     0.173 A 
ATOM     66  C   UNL A   1      43.370  26.745  26.904  1.00  0.00     0.173 A 
ATOM     67  F   UNL A   1      40.926  24.504  28.400  1.00  0.00    -0.203 F 
ATOM     68  C   UNL A   1      42.262  24.237  26.480  1.00  0.00     0.198 A 
ATOM     69  C   UNL A   1      43.760  25.985  25.805  1.00  0.00     0.198 A 
ATOM     70  F   UNL A   1      43.932  27.950  27.085  1.00  0.00    -0.203 F 
ATOM     71  F   UNL A   1      41.753  23.010  26.299  1.00  0.00    -0.200 F 
ATOM     72  C   UNL A   1      43.213  24.729  25.598  1.00  0.00     0.200 A 
ATOM     73  F   UNL A   1      44.669  26.469  24.946  1.00  0.00    -0.200 F 
ATOM     74  F   UNL A   1      43.607  23.988  24.553  1.00  0.00    -0.200 F 
ENDBRANCH  50  64
BRANCH  51  75
ATOM     75  C   UNL A   1      39.069  31.961  35.292  1.00  0.00     0.064 A 
ATOM     76  C   UNL A   1      39.378  33.324  35.404  1.00  0.00     0.173 A 
ATOM     77  C   UNL A   1      38.299  31.384  36.312  1.00  0.00     0.173 A 
ATOM     78  F   UNL A   1      40.138  33.915  34.471  1.00  0.00    -0.203 F 
ATOM     79  C   UNL A   1      38.954  34.072  36.500  1.00  0.00     0.198 A 
ATOM     80  C   UNL A   1      37.848  32.140  37.393  1.00  0.00     0.198 A 
ATOM     81  F   UNL A   1      37.979  30.082  36.258  1.00  0.00    -0.203 F 
ATOM     82  F   UNL A   1      39.311  35.359  36.608  1.00  0.00    -0.200 F 
ATOM     83  C   UNL A   1      38.185  33.481  37.491  1.00  0.00     0.200 A 
ATOM     84  F   UNL A   1      37.096  31.566  38.342  1.00  0.00    -0.200 F 
ATOM     85  F   UNL A   1      37.777  34.201  38.545  1.00  0.00    -0.200 F 
ENDBRANCH  51  75
BRANCH  63  86
ATOM     86  C   UNL A   1      44.546  27.705  34.536  1.00  0.00     0.064 A 
ATOM     87  C   UNL A   1      44.488  26.575  35.363  1.00  0.00     0.173 A 
ATOM     88  C   UNL A   1      45.731  28.460  34.541  1.00  0.00     0.173 A 
ATOM     89  F   UNL A   1      43.376  25.826  35.406  1.00  0.00    -0.203 F 
ATOM     90  C   UNL A   1      45.563  26.229  36.181  1.00  0.00     0.198 A 
ATOM     91  C   UNL A   1      46.815  28.092  35.334  1.00  0.00     0.198 A 
ATOM     92  F   UNL A   1      45.845  29.546  33.761  1.00  0.00    -0.203 F 
ATOM     93  F   UNL A   1      45.465  25.172  36.998  1.00  0.00    -0.200 F 
ATOM     94  C   UNL A   1      46.727  26.982  36.159  1.00  0.00     0.200 A 
ATOM     95  F   UNL A   1      47.946  28.811  35.297  1.00  0.00    -0.200 F 
ATOM     96  F   UNL A   1      47.763  26.639  36.937  1.00  0.00    -0.200 F 
ENDBRANCH  63  86
ENDBRANCH  37  38
ENDBRANCH  30  32
ENDBRANCH  29  30
ENDBRANCH  28  29
ENDBRANCH  27  28
ENDBRANCH  26  27
ENDBRANCH  25  26
ENDBRANCH   1  25
TORSDOF 21
ENDMDL
MODEL 2
REMARK VINA RESULT:     -10.5      5.053     10.199
REMARK SMILES CCc1nc(C)c(C(=O)OCCOCCOCCOC(=O)c2ccc(-c3c4nc(c(-c5c(F)c(F)c(F)c(F)c5F)c5ccc([nH]5)c(-c5c(F)c(F)c(F)c(F)c5F)c5nc(c(-c6c(F)c(F)c(F)c(F)c6F)c6ccc3[nH]6)C=C5)C=C4)cc2)c(SCc2cnc(Cl)s2)n1
REMARK SMILES IDX 14 1 13 2 12 3 11 4 10 5 8 6 9 7 7 8 3 9 4 10 94 11 5 12
REMARK SMILES IDX 85 13 6 14 2 15 1 16 86 17 87 18 88 19 89 20 93 21 90 22
REMARK SMILES IDX 91 23 92 24 15 25 16 26 17 27 18 28 19 29 20 30 21 31 22 32
REMARK SMILES IDX 23 33 84 34 24 35 83 36 25 37 26 38 27 39 77 40 28 41 82 42
REMARK SMILES IDX 76 43 78 44 29 45 81 46 75 47 74 48 30 50 62 51 42 52 61 53
REMARK SMILES IDX 43 54 46 55 60 56 79 57 44 58 45 59 59 61 80 62 47 63 31 64
REMARK SMILES IDX 32 65 40 66 33 67 34 68 38 69 41 70 35 71 36 72 39 73 37 74
REMARK SMILES IDX 63 75 64 76 72 77 65 78 66 79 70 80 73 81 67 82 68 83 71 84
REMARK SMILES IDX 69 85 48 86 49 87 57 88 50 89 51 90 55 91 58 92 52 93 53 94
REMARK SMILES IDX 56 95 54 96
REMARK H PARENT 78 49 46 60
REMARK Flexibility Score: inf
ROOT
ATOM      1  C   UNL A   1      37.428  23.286  25.702  1.00  0.00     0.188 C 
ENDROOT
BRANCH   1   2
ATOM      2  O   UNL A   1      36.120  23.115  26.218  1.00  0.00    -0.376 OA
BRANCH   2   3
ATOM      3  C   UNL A   1      35.555  21.811  26.170  1.00  0.00     0.202 C 
BRANCH   3   4
ATOM      4  C   UNL A   1      34.463  21.547  25.127  1.00  0.00     0.261 C 
BRANCH   4   5
ATOM      5  O   UNL A   1      33.175  21.961  25.613  1.00  0.00    -0.460 OA
BRANCH   5   6
ATOM      6  C   UNL A   1      32.242  22.490  24.810  1.00  0.00     0.342 C 
ATOM      7  O   UNL A   1      31.708  21.966  23.846  1.00  0.00    -0.246 OA
BRANCH   6   8
ATOM      8  C   UNL A   1      32.025  23.862  25.267  1.00  0.00     0.113 A 
ATOM      9  C   UNL A   1      31.548  26.298  26.379  1.00  0.00     0.129 A 
ATOM     10  N   UNL A   1      30.772  25.284  26.764  1.00  0.00    -0.237 NA
ATOM     11  N   UNL A   1      32.480  26.192  25.425  1.00  0.00    -0.226 NA
ATOM     12  C   UNL A   1      31.009  24.076  26.212  1.00  0.00     0.057 A 
ATOM     13  C   UNL A   1      32.742  24.982  24.858  1.00  0.00     0.115 A 
ATOM     14  C   UNL A   1      30.133  22.990  26.778  1.00  0.00     0.068 C 
BRANCH   9  15
ATOM     15  C   UNL A   1      31.426  27.605  27.112  1.00  0.00     0.074 C 
ATOM     16  C   UNL A   1      32.678  28.455  26.936  1.00  0.00     0.012 C 
ENDBRANCH   9  15
BRANCH  13  17
ATOM     17  S   UNL A   1      34.090  25.275  23.731  1.00  0.00    -0.100 SA
BRANCH  17  18
ATOM     18  C   UNL A   1      33.558  26.039  22.171  1.00  0.00     0.125 C 
BRANCH  18  19
ATOM     19  C   UNL A   1      32.393  26.943  22.332  1.00  0.00     0.036 A 
ATOM     20  C   UNL A   1      31.047  26.738  22.079  1.00  0.00     0.129 A 
ATOM     21  S   UNL A   1      32.596  28.557  22.892  1.00  0.00    -0.107 S 
ATOM     22  N   UNL A   1      30.193  27.732  22.517  1.00  0.00    -0.233 NA
ATOM     23  C   UNL A   1      30.914  28.676  23.066  1.00  0.00     0.183 A 
ATOM     24  Cl  UNL A   1      30.239  29.991  23.931  1.00  0.00    -0.051 Cl
ENDBRANCH  18  19
ENDBRANCH  17  18
ENDBRANCH  13  17
ENDBRANCH   6   8
ENDBRANCH   5   6
ENDBRANCH   4   5
ENDBRANCH   3   4
ENDBRANCH   2   3
ENDBRANCH   1   2
BRANCH   1  25
ATOM     25  C   UNL A   1      38.315  22.026  25.764  1.00  0.00     0.188 C 
BRANCH  25  26
ATOM     26  O   UNL A   1      38.165  21.021  24.776  1.00  0.00    -0.376 OA
BRANCH  26  27
ATOM     27  C   UNL A   1      38.613  19.705  25.075  1.00  0.00     0.202 C 
BRANCH  27  28
ATOM     28  C   UNL A   1      39.777  19.510  26.065  1.00  0.00     0.261 C 
BRANCH  28  29
ATOM     29  O   UNL A   1      40.969  18.891  25.537  1.00  0.00    -0.460 OA
BRANCH  29  30
ATOM     30  C   UNL A   1      42.121  19.162  26.202  1.00  0.00     0.338 C 
ATOM     31  O   UNL A   1      43.062  18.409  26.384  1.00  0.00    -0.246 OA
BRANCH  30  32
ATOM     32  C   UNL A   1      42.188  20.597  26.565  1.00  0.00     0.060 A 
ATOM     33  C   UNL A   1      42.262  21.553  25.540  1.00  0.00     0.016 A 
ATOM     34  C   UNL A   1      42.292  20.991  27.898  1.00  0.00     0.016 A 
ATOM     35  C   UNL A   1      42.484  22.900  25.841  1.00  0.00     0.010 A 
ATOM     36  C   UNL A   1      42.541  22.337  28.199  1.00  0.00     0.010 A 
ATOM     37  C   UNL A   1      42.679  23.290  27.171  1.00  0.00    -0.014 A 
BRANCH  37  38
ATOM     38  C   UNL A   1      43.242  24.631  27.480  1.00  0.00     0.031 A 
ATOM     39  C   UNL A   1      42.321  25.681  28.044  1.00  0.00     0.074 A 
ATOM     40  C   UNL A   1      44.537  24.923  27.267  1.00  0.00     0.049 A 
ATOM     41  N   UNL A   1      42.545  26.948  28.287  1.00  0.00    -0.248 NA
ATOM     42  C   UNL A   1      40.957  25.238  28.374  1.00  0.00     0.031 C 
ATOM     43  C   UNL A   1      45.549  23.986  26.787  1.00  0.00     0.029 A 
ATOM     44  N   UNL A   1      45.217  26.108  27.415  1.00  0.00    -0.354 N 
ATOM     45  C   UNL A   1      41.350  27.453  28.782  1.00  0.00     0.074 A 
ATOM     46  C   UNL A   1      40.396  26.365  28.782  1.00  0.00     0.031 C 
ATOM     47  C   UNL A   1      46.716  24.639  26.654  1.00  0.00     0.029 A 
ATOM     48  C   UNL A   1      46.525  26.047  27.003  1.00  0.00     0.049 A 
ATOM     49  H   UNL A   1      44.804  26.924  27.781  1.00  0.00     0.167 HD
ATOM     50  C   UNL A   1      41.072  28.710  29.204  1.00  0.00     0.037 A 
ATOM     51  C   UNL A   1      47.450  27.022  26.892  1.00  0.00     0.037 A 
ATOM     52  C   UNL A   1      42.020  29.794  29.204  1.00  0.00     0.049 A 
ATOM     53  C   UNL A   1      47.092  28.436  27.285  1.00  0.00     0.074 A 
ATOM     54  C   UNL A   1      41.838  31.100  29.622  1.00  0.00     0.029 A 
ATOM     55  N   UNL A   1      43.329  29.697  28.754  1.00  0.00    -0.354 N 
ATOM     56  N   UNL A   1      45.965  28.905  27.764  1.00  0.00    -0.248 NA
ATOM     57  C   UNL A   1      48.139  29.456  27.121  1.00  0.00     0.031 C 
ATOM     58  C   UNL A   1      43.017  31.808  29.371  1.00  0.00     0.029 A 
ATOM     59  C   UNL A   1      43.957  30.928  28.859  1.00  0.00     0.049 A 
ATOM     60  H   UNL A   1      43.749  28.875  28.410  1.00  0.00     0.167 HD
ATOM     61  C   UNL A   1      46.181  30.259  27.996  1.00  0.00     0.074 A 
ATOM     62  C   UNL A   1      47.548  30.537  27.609  1.00  0.00     0.031 C 
ATOM     63  C   UNL A   1      45.324  31.189  28.488  1.00  0.00     0.037 A 
BRANCH  50  64
ATOM     64  C   UNL A   1      39.674  28.993  29.670  1.00  0.00     0.064 A 
ATOM     65  C   UNL A   1      38.685  29.476  28.800  1.00  0.00     0.173 A 
ATOM     66  C   UNL A   1      39.308  28.747  31.003  1.00  0.00     0.173 A 
ATOM     67  F   UNL A   1      38.984  29.740  27.519  1.00  0.00    -0.203 F 
ATOM     68  C   UNL A   1      37.392  29.728  29.253  1.00  0.00     0.198 A 
ATOM     69  C   UNL A   1      38.007  28.969  31.444  1.00  0.00     0.198 A 
ATOM     70  F   UNL A   1      40.214  28.280  31.877  1.00  0.00    -0.203 F 
ATOM     71  F   UNL A   1      36.478  30.238  28.415  1.00  0.00    -0.200 F 
ATOM     72  C   UNL A   1      37.053  29.467  30.572  1.00  0.00     0.200 A 
ATOM     73  F   UNL A   1      37.678  28.703  32.717  1.00  0.00    -0.200 F 
ATOM     74  F   UNL A   1      35.806  29.704  31.005  1.00  0.00    -0.200 F 
ENDBRANCH  50  64
BRANCH  51  75
ATOM     75  C   UNL A   1      48.805  26.708  26.366  1.00  0.00     0.064 A 
ATOM     76  C   UNL A   1      49.131  26.936  25.022  1.00  0.00     0.173 A 
ATOM     77  C   UNL A   1      49.791  26.140  27.186  1.00  0.00     0.173 A 
ATOM     78  F   UNL A   1      48.213  27.449  24.189  1.00  0.00    -0.203 F 
ATOM     79  C   UNL A   1      50.382  26.590  24.514  1.00  0.00     0.198 A 
ATOM     80  C   UNL A   1      51.052  25.823  26.686  1.00  0.00     0.198 A 
ATOM     81  F   UNL A   1      49.531  25.895  28.479  1.00  0.00    -0.203 F 
ATOM     82  F   UNL A   1      50.647  26.769  23.212  1.00  0.00    -0.200 F 
ATOM     83  C   UNL A   1      51.344  26.039  25.347  1.00  0.00     0.200 A 
ATOM     84  F   UNL A   1      51.982  25.301  27.498  1.00  0.00    -0.200 F 
ATOM     85  F   UNL A   1      52.546  25.707  24.859  1.00  0.00    -0.200 F 
ENDBRANCH  51  75
BRANCH  63  86
ATOM     86  C   UNL A   1      45.849  32.582  28.696  1.00  0.00     0.064 A 
ATOM     87  C   UNL A   1      46.559  32.945  29.849  1.00  0.00     0.173 A 
ATOM     88  C   UNL A   1      45.682  33.555  27.697  1.00  0.00     0.173 A 
ATOM     89  F   UNL A   1      46.737  32.058  30.840  1.00  0.00    -0.203 F 
ATOM     90  C   UNL A   1      47.060  34.236  30.006  1.00  0.00     0.198 A 
ATOM     91  C   UNL A   1      46.213  34.834  27.843  1.00  0.00     0.198 A 
ATOM     92  F   UNL A   1      45.019  33.260  26.569  1.00  0.00    -0.203 F 
ATOM     93  F   UNL A   1      47.694  34.573  31.138  1.00  0.00    -0.200 F 
ATOM     94  C   UNL A   1      46.894  35.176  29.001  1.00  0.00     0.200 A 
ATOM     95  F   UNL A   1      46.067  35.735  26.861  1.00  0.00    -0.200 F 
ATOM     96  F   UNL A   1      47.388  36.413  29.149  1.00  0.00    -0.200 F 
ENDBRANCH  63  86
ENDBRANCH  37  38
ENDBRANCH  30  32
ENDBRANCH  29  30
ENDBRANCH  28  29
ENDBRANCH  27  28
ENDBRANCH  26  27
ENDBRANCH  25  26
ENDBRANCH   1  25
TORSDOF 21
ENDMDL
MODEL 3
REMARK VINA RESULT:     -10.2      5.246      8.878
REMARK SMILES CCc1nc(C)c(C(=O)OCCOCCOCCOC(=O)c2ccc(-c3c4nc(c(-c5c(F)c(F)c(F)c(F)c5F)c5ccc([nH]5)c(-c5c(F)c(F)c(F)c(F)c5F)c5nc(c(-c6c(F)c(F)c(F)c(F)c6F)c6ccc3[nH]6)C=C5)C=C4)cc2)c(SCc2cnc(Cl)s2)n1
REMARK SMILES IDX 14 1 13 2 12 3 11 4 10 5 8 6 9 7 7 8 3 9 4 10 94 11 5 12
REMARK SMILES IDX 85 13 6 14 2 15 1 16 86 17 87 18 88 19 89 20 93 21 90 22
REMARK SMILES IDX 91 23 92 24 15 25 16 26 17 27 18 28 19 29 20 30 21 31 22 32
REMARK SMILES IDX 23 33 84 34 24 35 83 36 25 37 26 38 27 39 77 40 28 41 82 42
REMARK SMILES IDX 76 43 78 44 29 45 81 46 75 47 74 48 30 50 62 51 42 52 61 53
REMARK SMILES IDX 43 54 46 55 60 56 79 57 44 58 45 59 59 61 80 62 47 63 31 64
REMARK SMILES IDX 32 65 40 66 33 67 34 68 38 69 41 70 35 71 36 72 39 73 37 74
REMARK SMILES IDX 63 75 64 76 72 77 65 78 66 79 70 80 73 81 67 82 68 83 71 84
REMARK SMILES IDX 69 85 48 86 49 87 57 88 50 89 51 90 55 91 58 92 52 93 53 94
REMARK SMILES IDX 56 95 54 96
REMARK H PARENT 78 49 46 60
REMARK Flexibility Score: inf
ROOT
ATOM      1  C   UNL A   1      37.145  23.028  24.844  1.00  0.00     0.188 C 
ENDROOT
BRANCH   1   2
ATOM      2  O   UNL A   1      35.747  22.991  25.075  1.00  0.00    -0.376 OA
BRANCH   2   3
ATOM      3  C   UNL A   1      35.285  22.300  26.229  1.00  0.00     0.202 C 
BRANCH   3   4
ATOM      4  C   UNL A   1      34.016  21.452  26.090  1.00  0.00     0.261 C 
BRANCH   4   5
ATOM      5  O   UNL A   1      32.848  22.210  26.449  1.00  0.00    -0.460 OA
BRANCH   5   6
ATOM      6  C   UNL A   1      31.805  22.355  25.620  1.00  0.00     0.342 C 
ATOM      7  O   UNL A   1      30.742  21.759  25.654  1.00  0.00    -0.246 OA
BRANCH   6   8
ATOM      8  C   UNL A   1      32.207  23.330  24.607  1.00  0.00     0.113 A 
ATOM      9  C   UNL A   1      32.799  24.982  22.529  1.00  0.00     0.129 A 
ATOM     10  N   UNL A   1      32.698  23.679  22.268  1.00  0.00    -0.237 NA
ATOM     11  N   UNL A   1      32.706  25.497  23.760  1.00  0.00    -0.226 NA
ATOM     12  C   UNL A   1      32.404  22.859  23.299  1.00  0.00     0.057 A 
ATOM     13  C   UNL A   1      32.404  24.691  24.816  1.00  0.00     0.115 A 
ATOM     14  C   UNL A   1      32.233  21.424  22.878  1.00  0.00     0.068 C 
BRANCH   9  15
ATOM     15  C   UNL A   1      32.941  25.931  21.371  1.00  0.00     0.074 C 
ATOM     16  C   UNL A   1      32.625  25.241  20.050  1.00  0.00     0.012 C 
ENDBRANCH   9  15
BRANCH  13  17
ATOM     17  S   UNL A   1      32.289  25.782  26.219  1.00  0.00    -0.100 SA
BRANCH  17  18
ATOM     18  C   UNL A   1      33.447  27.179  26.131  1.00  0.00     0.125 C 
BRANCH  18  19
ATOM     19  C   UNL A   1      32.777  28.476  25.871  1.00  0.00     0.036 A 
ATOM     20  C   UNL A   1      31.818  28.827  24.934  1.00  0.00     0.129 A 
ATOM     21  S   UNL A   1      33.171  29.877  26.788  1.00  0.00    -0.107 S 
ATOM     22  N   UNL A   1      31.264  30.084  25.081  1.00  0.00    -0.233 NA
ATOM     23  C   UNL A   1      31.832  30.663  26.108  1.00  0.00     0.183 A 
ATOM     24  Cl  UNL A   1      31.288  32.145  26.771  1.00  0.00    -0.051 Cl
ENDBRANCH  18  19
ENDBRANCH  17  18
ENDBRANCH  13  17
ENDBRANCH   6   8
ENDBRANCH   5   6
ENDBRANCH   4   5
ENDBRANCH   3   4
ENDBRANCH   2   3
ENDBRANCH   1   2
BRANCH   1  25
ATOM     25  C   UNL A   1      37.908  21.771  25.307  1.00  0.00     0.188 C 
BRANCH  25  26
ATOM     26  O   UNL A   1      37.612  20.519  24.710  1.00  0.00    -0.376 OA
BRANCH  26  27
ATOM     27  C   UNL A   1      38.347  19.378  25.133  1.00  0.00     0.202 C 
BRANCH  27  28
ATOM     28  C   UNL A   1      39.624  19.569  25.972  1.00  0.00     0.261 C 
BRANCH  28  29
ATOM     29  O   UNL A   1      40.878  19.409  25.275  1.00  0.00    -0.460 OA
BRANCH  29  30
ATOM     30  C   UNL A   1      41.968  19.201  26.056  1.00  0.00     0.338 C 
ATOM     31  O   UNL A   1      42.439  18.128  26.393  1.00  0.00    -0.246 OA
BRANCH  30  32
ATOM     32  C   UNL A   1      42.658  20.480  26.341  1.00  0.00     0.060 A 
ATOM     33  C   UNL A   1      42.596  21.008  27.641  1.00  0.00     0.016 A 
ATOM     34  C   UNL A   1      43.262  21.209  25.318  1.00  0.00     0.016 A 
ATOM     35  C   UNL A   1      43.099  22.284  27.912  1.00  0.00     0.010 A 
ATOM     36  C   UNL A   1      43.740  22.499  25.584  1.00  0.00     0.010 A 
ATOM     37  C   UNL A   1      43.624  23.059  26.871  1.00  0.00    -0.014 A 
BRANCH  37  38
ATOM     38  C   UNL A   1      43.847  24.516  27.065  1.00  0.00     0.031 A 
ATOM     39  C   UNL A   1      45.233  25.062  26.843  1.00  0.00     0.074 A 
ATOM     40  C   UNL A   1      42.853  25.343  27.430  1.00  0.00     0.049 A 
ATOM     41  N   UNL A   1      45.701  26.267  27.056  1.00  0.00    -0.248 NA
ATOM     42  C   UNL A   1      46.228  24.116  26.313  1.00  0.00     0.031 C 
ATOM     43  C   UNL A   1      41.457  24.960  27.615  1.00  0.00     0.029 A 
ATOM     44  N   UNL A   1      42.877  26.685  27.727  1.00  0.00    -0.354 N 
ATOM     45  C   UNL A   1      47.043  26.217  26.701  1.00  0.00     0.074 A 
ATOM     46  C   UNL A   1      47.322  24.860  26.283  1.00  0.00     0.031 C 
ATOM     47  C   UNL A   1      40.761  26.036  28.022  1.00  0.00     0.029 A 
ATOM     48  C   UNL A   1      41.669  27.174  28.160  1.00  0.00     0.049 A 
ATOM     49  H   UNL A   1      43.684  27.242  27.639  1.00  0.00     0.167 HD
ATOM     50  C   UNL A   1      47.961  27.213  26.717  1.00  0.00     0.037 A 
ATOM     51  C   UNL A   1      41.345  28.390  28.643  1.00  0.00     0.037 A 
ATOM     52  C   UNL A   1      47.685  28.563  27.133  1.00  0.00     0.049 A 
ATOM     53  C   UNL A   1      42.406  29.462  28.735  1.00  0.00     0.074 A 
ATOM     54  C   UNL A   1      48.545  29.647  27.174  1.00  0.00     0.029 A 
ATOM     55  N   UNL A   1      46.455  29.013  27.590  1.00  0.00    -0.354 N 
ATOM     56  N   UNL A   1      43.668  29.413  28.386  1.00  0.00    -0.248 NA
ATOM     57  C   UNL A   1      41.991  30.760  29.289  1.00  0.00     0.031 C 
ATOM     58  C   UNL A   1      47.851  30.736  27.711  1.00  0.00     0.029 A 
ATOM     59  C   UNL A   1      46.540  30.350  27.941  1.00  0.00     0.049 A 
ATOM     60  H   UNL A   1      45.641  28.461  27.656  1.00  0.00     0.167 HD
ATOM     61  C   UNL A   1      44.186  30.679  28.639  1.00  0.00     0.074 A 
ATOM     62  C   UNL A   1      43.099  31.477  29.166  1.00  0.00     0.031 C 
ATOM     63  C   UNL A   1      45.447  31.140  28.448  1.00  0.00     0.037 A 
BRANCH  50  64
ATOM     64  C   UNL A   1      49.363  26.872  26.303  1.00  0.00     0.064 A 
ATOM     65  C   UNL A   1      49.800  27.012  24.977  1.00  0.00     0.173 A 
ATOM     66  C   UNL A   1      50.294  26.427  27.255  1.00  0.00     0.173 A 
ATOM     67  F   UNL A   1      48.948  27.421  24.025  1.00  0.00    -0.203 F 
ATOM     68  C   UNL A   1      51.107  26.692  24.616  1.00  0.00     0.198 A 
ATOM     69  C   UNL A   1      51.607  26.140  26.897  1.00  0.00     0.198 A 
ATOM     70  F   UNL A   1      49.930  26.279  28.539  1.00  0.00    -0.203 F 
ATOM     71  F   UNL A   1      51.487  26.785  23.334  1.00  0.00    -0.200 F 
ATOM     72  C   UNL A   1      52.011  26.264  25.577  1.00  0.00     0.200 A 
ATOM     73  F   UNL A   1      52.483  25.739  27.830  1.00  0.00    -0.200 F 
ATOM     74  F   UNL A   1      53.270  25.964  25.229  1.00  0.00    -0.200 F 
ENDBRANCH  50  64
BRANCH  51  75
ATOM     75  C   UNL A   1      39.957  28.665  29.100  1.00  0.00     0.064 A 
ATOM     76  C   UNL A   1      39.551  28.361  30.407  1.00  0.00     0.173 A 
ATOM     77  C   UNL A   1      38.997  29.204  28.231  1.00  0.00     0.173 A 
ATOM     78  F   UNL A   1      40.422  27.815  31.268  1.00  0.00    -0.203 F 
ATOM     79  C   UNL A   1      38.236  28.566  30.820  1.00  0.00     0.198 A 
ATOM     80  C   UNL A   1      37.690  29.438  28.654  1.00  0.00     0.198 A 
ATOM     81  F   UNL A   1      39.330  29.509  26.968  1.00  0.00    -0.203 F 
ATOM     82  F   UNL A   1      37.862  28.214  32.058  1.00  0.00    -0.200 F 
ATOM     83  C   UNL A   1      37.307  29.109  29.945  1.00  0.00     0.200 A 
ATOM     84  F   UNL A   1      36.800  29.974  27.807  1.00  0.00    -0.200 F 
ATOM     85  F   UNL A   1      36.043  29.306  30.342  1.00  0.00    -0.200 F 
ENDBRANCH  51  75
BRANCH  63  86
ATOM     86  C   UNL A   1      45.716  32.588  28.752  1.00  0.00     0.064 A 
ATOM     87  C   UNL A   1      45.598  33.587  27.776  1.00  0.00     0.173 A 
ATOM     88  C   UNL A   1      46.046  32.985  30.058  1.00  0.00     0.173 A 
ATOM     89  F   UNL A   1      45.297  33.262  26.510  1.00  0.00    -0.203 F 
ATOM     90  C   UNL A   1      45.824  34.926  28.089  1.00  0.00     0.198 A 
ATOM     91  C   UNL A   1      46.239  34.327  30.375  1.00  0.00     0.198 A 
ATOM     92  F   UNL A   1      46.162  32.072  31.034  1.00  0.00    -0.203 F 
ATOM     93  F   UNL A   1      45.752  35.857  27.128  1.00  0.00    -0.200 F 
ATOM     94  C   UNL A   1      46.136  35.295  29.388  1.00  0.00     0.200 A 
ATOM     95  F   UNL A   1      46.521  34.683  31.636  1.00  0.00    -0.200 F 
ATOM     96  F   UNL A   1      46.341  36.585  29.690  1.00  0.00    -0.200 F 
ENDBRANCH  63  86
ENDBRANCH  37  38
ENDBRANCH  30  32
ENDBRANCH  29  30
ENDBRANCH  28  29
ENDBRANCH  27  28
ENDBRANCH  26  27
ENDBRANCH  25  26
ENDBRANCH   1  25
TORSDOF 21
ENDMDL
