MODEL 1
REMARK VINA RESULT:     -10.8      0.000      0.000
REMARK SMILES COc1cc(C[N@@H+]2CCO[C@@H](CC(=O)OCCOCCOCCOC(=O)c3ccc(-c4c5nc(c(-c6c(F)c(F)c(F)c(F)c6F)c6ccc([nH]6)c(-c6c(F)c(F)c(F)c(F)c6F)c6nc(c(-c7c(F)c(F)c(F)c(F)c7F)c7ccc4[nH]7)C=C6)C=C5)cc3)C2)ccc1O
REMARK SMILES IDX 19 1 18 2 17 3 16 4 15 5 13 6 14 7 12 8 11 9 7 10 8 11 90 12
REMARK SMILES IDX 9 14 10 15 6 16 5 17 3 18 4 19 93 20 92 21 91 22 2 23 1 24
REMARK SMILES IDX 94 25 20 27 21 28 22 29 23 30 24 31 25 32 26 33 27 34 28 35
REMARK SMILES IDX 89 36 29 37 88 38 30 39 31 40 32 41 82 42 33 43 87 44 81 45
REMARK SMILES IDX 83 46 34 47 86 48 80 49 79 50 35 52 67 53 47 54 66 55 48 56
REMARK SMILES IDX 51 57 65 58 84 59 49 60 50 61 64 63 85 64 52 65 36 66 37 67
REMARK SMILES IDX 45 68 38 69 39 70 43 71 46 72 40 73 41 74 44 75 42 76 68 77
REMARK SMILES IDX 69 78 77 79 70 80 71 81 75 82 78 83 72 84 73 85 76 86 74 87
REMARK SMILES IDX 53 88 54 89 62 90 55 91 56 92 60 93 63 94 57 95 58 96 61 97
REMARK SMILES IDX 59 98
REMARK H PARENT 7 13 94 26 83 51 51 62
REMARK Flexibility Score: inf
ROOT
ATOM      1  C   UNL A   1      33.620  27.033  24.596  1.00  0.00     0.188 C 
ENDROOT
BRANCH   1   2
ATOM      2  O   UNL A   1      33.049  25.997  25.382  1.00  0.00    -0.376 OA
BRANCH   2   3
ATOM      3  C   UNL A   1      31.818  26.224  26.054  1.00  0.00     0.202 C 
BRANCH   3   4
ATOM      4  C   UNL A   1      30.571  25.557  25.475  1.00  0.00     0.261 C 
BRANCH   4   5
ATOM      5  O   UNL A   1      30.626  24.115  25.436  1.00  0.00    -0.463 OA
BRANCH   5   6
ATOM      6  C   UNL A   1      30.573  23.491  26.641  1.00  0.00     0.308 C 
ATOM      7  O   UNL A   1      29.630  23.551  27.420  1.00  0.00    -0.252 OA
BRANCH   6   8
ATOM      8  C   UNL A   1      31.872  22.829  26.998  1.00  0.00     0.160 C 
BRANCH   8   9
ATOM      9  C   UNL A   1      32.703  22.120  25.930  1.00  0.00     0.184 C 
ATOM     10  N   UNL A   1      34.649  20.536  25.504  1.00  0.00    -0.327 N 
ATOM     11  C   UNL A   1      33.677  19.575  24.995  1.00  0.00     0.291 C 
ATOM     12  C   UNL A   1      34.039  21.504  26.424  1.00  0.00     0.295 C 
ATOM     13  H   UNL A   1      35.275  20.010  26.114  1.00  0.00     0.348 HD
ATOM     14  C   UNL A   1      32.372  20.222  24.510  1.00  0.00     0.222 C 
ATOM     15  O   UNL A   1      31.803  21.063  25.507  1.00  0.00    -0.366 OA
BRANCH  10  16
ATOM     16  C   UNL A   1      35.758  20.933  24.635  1.00  0.00     0.299 C 
BRANCH  16  17
ATOM     17  C   UNL A   1      37.183  20.874  25.152  1.00  0.00     0.010 A 
ATOM     18  C   UNL A   1      39.116  21.912  26.278  1.00  0.00     0.160 A 
ATOM     19  C   UNL A   1      37.838  21.986  25.696  1.00  0.00     0.060 A 
ATOM     20  C   UNL A   1      39.813  20.714  26.172  1.00  0.00     0.157 A 
ATOM     21  C   UNL A   1      39.272  19.664  25.440  1.00  0.00     0.051 A 
ATOM     22  C   UNL A   1      37.959  19.729  24.964  1.00  0.00     0.013 A 
BRANCH  18  23
ATOM     23  O   UNL A   1      39.489  23.090  26.856  1.00  0.00    -0.493 OA
ATOM     24  C   UNL A   1      38.807  24.284  26.521  1.00  0.00     0.278 C 
ENDBRANCH  18  23
BRANCH  20  25
ATOM     25  O   UNL A   1      41.029  20.463  26.737  1.00  0.00    -0.504 OA
ATOM     26  H   UNL A   1      41.121  19.772  27.362  1.00  0.00     0.293 HD
ENDBRANCH  20  25
ENDBRANCH  16  17
ENDBRANCH  10  16
ENDBRANCH   8   9
ENDBRANCH   6   8
ENDBRANCH   5   6
ENDBRANCH   4   5
ENDBRANCH   3   4
ENDBRANCH   2   3
ENDBRANCH   1   2
BRANCH   1  27
ATOM     27  C   UNL A   1      32.696  27.925  23.756  1.00  0.00     0.188 C 
BRANCH  27  28
ATOM     28  O   UNL A   1      32.611  29.278  24.165  1.00  0.00    -0.376 OA
BRANCH  28  29
ATOM     29  C   UNL A   1      31.443  29.631  24.900  1.00  0.00     0.202 C 
BRANCH  29  30
ATOM     30  C   UNL A   1      31.733  30.451  26.158  1.00  0.00     0.261 C 
BRANCH  30  31
ATOM     31  O   UNL A   1      33.130  30.458  26.506  1.00  0.00    -0.460 OA
BRANCH  31  32
ATOM     32  C   UNL A   1      33.550  31.494  27.263  1.00  0.00     0.338 C 
ATOM     33  O   UNL A   1      32.939  32.511  27.532  1.00  0.00    -0.246 OA
BRANCH  32  34
ATOM     34  C   UNL A   1      34.882  31.167  27.798  1.00  0.00     0.060 A 
ATOM     35  C   UNL A   1      35.163  29.861  28.212  1.00  0.00     0.016 A 
ATOM     36  C   UNL A   1      35.816  32.183  27.989  1.00  0.00     0.016 A 
ATOM     37  C   UNL A   1      36.352  29.572  28.871  1.00  0.00     0.010 A 
ATOM     38  C   UNL A   1      37.028  31.883  28.617  1.00  0.00     0.010 A 
ATOM     39  C   UNL A   1      37.289  30.584  29.089  1.00  0.00    -0.014 A 
BRANCH  39  40
ATOM     40  C   UNL A   1      38.496  30.315  29.904  1.00  0.00     0.031 A 
ATOM     41  C   UNL A   1      39.588  29.462  29.328  1.00  0.00     0.074 A 
ATOM     42  C   UNL A   1      38.628  30.839  31.135  1.00  0.00     0.049 A 
ATOM     43  N   UNL A   1      40.604  28.899  29.927  1.00  0.00    -0.248 NA
ATOM     44  C   UNL A   1      39.523  29.209  27.879  1.00  0.00     0.031 C 
ATOM     45  C   UNL A   1      37.690  31.764  31.768  1.00  0.00     0.029 A 
ATOM     46  N   UNL A   1      39.608  30.655  32.079  1.00  0.00    -0.354 N 
ATOM     47  C   UNL A   1      41.264  28.175  28.944  1.00  0.00     0.074 A 
ATOM     48  C   UNL A   1      40.546  28.385  27.705  1.00  0.00     0.031 C 
ATOM     49  C   UNL A   1      38.135  32.064  32.999  1.00  0.00     0.029 A 
ATOM     50  C   UNL A   1      39.344  31.291  33.266  1.00  0.00     0.049 A 
ATOM     51  H   UNL A   1      40.417  30.119  31.920  1.00  0.00     0.167 HD
ATOM     52  C   UNL A   1      42.363  27.396  29.075  1.00  0.00     0.037 A 
ATOM     53  C   UNL A   1      39.977  31.212  34.452  1.00  0.00     0.037 A 
ATOM     54  C   UNL A   1      43.094  27.233  30.303  1.00  0.00     0.049 A 
ATOM     55  C   UNL A   1      41.165  30.298  34.590  1.00  0.00     0.074 A 
ATOM     56  C   UNL A   1      44.216  26.461  30.548  1.00  0.00     0.029 A 
ATOM     57  N   UNL A   1      42.780  27.872  31.495  1.00  0.00    -0.354 N 
ATOM     58  N   UNL A   1      41.735  29.541  33.684  1.00  0.00    -0.248 NA
ATOM     59  C   UNL A   1      41.782  30.212  35.921  1.00  0.00     0.031 C 
ATOM     60  C   UNL A   1      44.566  26.613  31.895  1.00  0.00     0.029 A 
ATOM     61  C   UNL A   1      43.683  27.508  32.479  1.00  0.00     0.049 A 
ATOM     62  H   UNL A   1      42.025  28.493  31.621  1.00  0.00     0.167 HD
ATOM     63  C   UNL A   1      42.780  28.897  34.330  1.00  0.00     0.074 A 
ATOM     64  C   UNL A   1      42.777  29.364  35.700  1.00  0.00     0.031 C 
ATOM     65  C   UNL A   1      43.660  27.993  33.835  1.00  0.00     0.037 A 
BRANCH  52  66
ATOM     66  C   UNL A   1      42.812  26.624  27.872  1.00  0.00     0.064 A 
ATOM     67  C   UNL A   1      43.654  27.183  26.902  1.00  0.00     0.173 A 
ATOM     68  C   UNL A   1      42.409  25.290  27.705  1.00  0.00     0.173 A 
ATOM     69  F   UNL A   1      44.051  28.461  27.007  1.00  0.00    -0.203 F 
ATOM     70  C   UNL A   1      44.064  26.439  25.798  1.00  0.00     0.198 A 
ATOM     71  C   UNL A   1      42.840  24.541  26.614  1.00  0.00     0.198 A 
ATOM     72  F   UNL A   1      41.603  24.709  28.608  1.00  0.00    -0.203 F 
ATOM     73  F   UNL A   1      44.840  27.004  24.861  1.00  0.00    -0.200 F 
ATOM     74  C   UNL A   1      43.663  25.118  25.658  1.00  0.00     0.200 A 
ATOM     75  F   UNL A   1      42.457  23.263  26.486  1.00  0.00    -0.200 F 
ATOM     76  F   UNL A   1      44.063  24.402  24.599  1.00  0.00    -0.200 F 
ENDBRANCH  52  66
BRANCH  53  77
ATOM     77  C   UNL A   1      39.459  31.974  35.616  1.00  0.00     0.064 A 
ATOM     78  C   UNL A   1      38.528  31.405  36.495  1.00  0.00     0.173 A 
ATOM     79  C   UNL A   1      39.887  33.285  35.876  1.00  0.00     0.173 A 
ATOM     80  F   UNL A   1      38.068  30.165  36.271  1.00  0.00    -0.203 F 
ATOM     81  C   UNL A   1      38.041  32.120  37.588  1.00  0.00     0.198 A 
ATOM     82  C   UNL A   1      39.420  33.989  36.982  1.00  0.00     0.198 A 
ATOM     83  F   UNL A   1      40.772  33.876  35.061  1.00  0.00    -0.203 F 
ATOM     84  F   UNL A   1      37.124  31.567  38.392  1.00  0.00    -0.200 F 
ATOM     85  C   UNL A   1      38.493  33.408  37.835  1.00  0.00     0.200 A 
ATOM     86  F   UNL A   1      39.867  35.229  37.223  1.00  0.00    -0.200 F 
ATOM     87  F   UNL A   1      38.030  34.092  38.890  1.00  0.00    -0.200 F 
ENDBRANCH  53  77
BRANCH  65  88
ATOM     88  C   UNL A   1      44.709  27.476  34.773  1.00  0.00     0.064 A 
ATOM     89  C   UNL A   1      45.910  28.169  34.981  1.00  0.00     0.173 A 
ATOM     90  C   UNL A   1      44.491  26.296  35.499  1.00  0.00     0.173 A 
ATOM     91  F   UNL A   1      46.168  29.293  34.296  1.00  0.00    -0.203 F 
ATOM     92  C   UNL A   1      46.865  27.687  35.870  1.00  0.00     0.198 A 
ATOM     93  C   UNL A   1      45.439  25.829  36.405  1.00  0.00     0.198 A 
ATOM     94  F   UNL A   1      43.355  25.602  35.337  1.00  0.00    -0.203 F 
ATOM     95  F   UNL A   1      48.023  28.344  36.028  1.00  0.00    -0.200 F 
ATOM     96  C   UNL A   1      46.627  26.522  36.586  1.00  0.00     0.200 A 
ATOM     97  F   UNL A   1      45.205  24.709  37.100  1.00  0.00    -0.200 F 
ATOM     98  F   UNL A   1      47.547  26.062  37.445  1.00  0.00    -0.200 F 
ENDBRANCH  65  88
ENDBRANCH  39  40
ENDBRANCH  32  34
ENDBRANCH  31  32
ENDBRANCH  30  31
ENDBRANCH  29  30
ENDBRANCH  28  29
ENDBRANCH  27  28
ENDBRANCH   1  27
TORSDOF 22
ENDMDL
MODEL 2
REMARK VINA RESULT:     -10.3      1.894      4.873
REMARK SMILES COc1cc(C[N@@H+]2CCO[C@@H](CC(=O)OCCOCCOCCOC(=O)c3ccc(-c4c5nc(c(-c6c(F)c(F)c(F)c(F)c6F)c6ccc([nH]6)c(-c6c(F)c(F)c(F)c(F)c6F)c6nc(c(-c7c(F)c(F)c(F)c(F)c7F)c7ccc4[nH]7)C=C6)C=C5)cc3)C2)ccc1O
REMARK SMILES IDX 19 1 18 2 17 3 16 4 15 5 13 6 14 7 12 8 11 9 7 10 8 11 90 12
REMARK SMILES IDX 9 14 10 15 6 16 5 17 3 18 4 19 93 20 92 21 91 22 2 23 1 24
REMARK SMILES IDX 94 25 20 27 21 28 22 29 23 30 24 31 25 32 26 33 27 34 28 35
REMARK SMILES IDX 89 36 29 37 88 38 30 39 31 40 32 41 82 42 33 43 87 44 81 45
REMARK SMILES IDX 83 46 34 47 86 48 80 49 79 50 35 52 67 53 47 54 66 55 48 56
REMARK SMILES IDX 51 57 65 58 84 59 49 60 50 61 64 63 85 64 52 65 36 66 37 67
REMARK SMILES IDX 45 68 38 69 39 70 43 71 46 72 40 73 41 74 44 75 42 76 68 77
REMARK SMILES IDX 69 78 77 79 70 80 71 81 75 82 78 83 72 84 73 85 76 86 74 87
REMARK SMILES IDX 53 88 54 89 62 90 55 91 56 92 60 93 63 94 57 95 58 96 61 97
REMARK SMILES IDX 59 98
REMARK H PARENT 7 13 94 26 83 51 51 62
REMARK Flexibility Score: inf
ROOT
ATOM      1  C   UNL A   1      31.660  25.773  26.512  1.00  0.00     0.188 C 
ENDROOT
BRANCH   1   2
ATOM      2  O   UNL A   1      31.717  24.506  25.873  1.00  0.00    -0.376 OA
BRANCH   2   3
ATOM      3  C   UNL A   1      32.279  23.397  26.563  1.00  0.00     0.202 C 
BRANCH   3   4
ATOM      4  C   UNL A   1      33.801  23.342  26.676  1.00  0.00     0.261 C 
BRANCH   4   5
ATOM      5  O   UNL A   1      34.472  22.828  25.506  1.00  0.00    -0.463 OA
BRANCH   5   6
ATOM      6  C   UNL A   1      35.304  23.697  24.875  1.00  0.00     0.308 C 
ATOM      7  O   UNL A   1      36.270  24.244  25.395  1.00  0.00    -0.252 OA
BRANCH   6   8
ATOM      8  C   UNL A   1      34.827  24.046  23.496  1.00  0.00     0.160 C 
BRANCH   8   9
ATOM      9  C   UNL A   1      33.626  24.971  23.299  1.00  0.00     0.184 C 
ATOM     10  N   UNL A   1      32.710  26.960  22.003  1.00  0.00    -0.327 N 
ATOM     11  C   UNL A   1      31.757  26.044  21.387  1.00  0.00     0.291 C 
ATOM     12  C   UNL A   1      33.908  26.265  22.491  1.00  0.00     0.295 C 
ATOM     13  H   UNL A   1      33.078  27.538  21.246  1.00  0.00     0.348 HD
ATOM     14  C   UNL A   1      31.500  24.778  22.217  1.00  0.00     0.222 C 
ATOM     15  O   UNL A   1      32.715  24.119  22.556  1.00  0.00    -0.366 OA
BRANCH  10  16
ATOM     16  C   UNL A   1      32.192  28.134  22.707  1.00  0.00     0.299 C 
BRANCH  16  17
ATOM     17  C   UNL A   1      30.697  28.396  22.741  1.00  0.00     0.010 A 
ATOM     18  C   UNL A   1      28.717  29.701  22.067  1.00  0.00     0.160 A 
ATOM     19  C   UNL A   1      30.109  29.511  22.134  1.00  0.00     0.060 A 
ATOM     20  C   UNL A   1      27.904  28.816  22.765  1.00  0.00     0.157 A 
ATOM     21  C   UNL A   1      28.479  27.831  23.560  1.00  0.00     0.051 A 
ATOM     22  C   UNL A   1      29.857  27.601  23.523  1.00  0.00     0.013 A 
BRANCH  18  23
ATOM     23  O   UNL A   1      28.380  30.787  21.313  1.00  0.00    -0.493 OA
ATOM     24  C   UNL A   1      28.384  32.076  21.897  1.00  0.00     0.278 C 
ENDBRANCH  18  23
BRANCH  20  25
ATOM     25  O   UNL A   1      26.540  28.826  22.747  1.00  0.00    -0.504 OA
ATOM     26  H   UNL A   1      26.071  28.099  22.389  1.00  0.00     0.293 HD
ENDBRANCH  20  25
ENDBRANCH  16  17
ENDBRANCH  10  16
ENDBRANCH   8   9
ENDBRANCH   6   8
ENDBRANCH   5   6
ENDBRANCH   4   5
ENDBRANCH   3   4
ENDBRANCH   2   3
ENDBRANCH   1   2
BRANCH   1  27
ATOM     27  C   UNL A   1      32.735  26.819  26.190  1.00  0.00     0.188 C 
BRANCH  27  28
ATOM     28  O   UNL A   1      32.593  28.067  26.847  1.00  0.00    -0.376 OA
BRANCH  28  29
ATOM     29  C   UNL A   1      31.713  28.998  26.224  1.00  0.00     0.202 C 
BRANCH  29  30
ATOM     30  C   UNL A   1      32.234  30.436  26.235  1.00  0.00     0.261 C 
BRANCH  30  31
ATOM     31  O   UNL A   1      32.765  30.825  27.516  1.00  0.00    -0.460 OA
BRANCH  31  32
ATOM     32  C   UNL A   1      33.573  31.906  27.523  1.00  0.00     0.338 C 
ATOM     33  O   UNL A   1      33.281  33.052  27.239  1.00  0.00    -0.246 OA
BRANCH  32  34
ATOM     34  C   UNL A   1      34.897  31.492  28.017  1.00  0.00     0.060 A 
ATOM     35  C   UNL A   1      35.100  30.172  28.435  1.00  0.00     0.016 A 
ATOM     36  C   UNL A   1      35.905  32.441  28.167  1.00  0.00     0.016 A 
ATOM     37  C   UNL A   1      36.288  29.806  29.057  1.00  0.00     0.010 A 
ATOM     38  C   UNL A   1      37.114  32.062  28.757  1.00  0.00     0.010 A 
ATOM     39  C   UNL A   1      37.300  30.752  29.233  1.00  0.00    -0.014 A 
BRANCH  39  40
ATOM     40  C   UNL A   1      38.512  30.406  30.010  1.00  0.00     0.031 A 
ATOM     41  C   UNL A   1      39.525  29.479  29.405  1.00  0.00     0.074 A 
ATOM     42  C   UNL A   1      38.719  30.926  31.233  1.00  0.00     0.049 A 
ATOM     43  N   UNL A   1      40.521  28.852  29.974  1.00  0.00    -0.248 NA
ATOM     44  C   UNL A   1      39.396  29.225  27.960  1.00  0.00     0.031 C 
ATOM     45  C   UNL A   1      37.867  31.914  31.890  1.00  0.00     0.029 A 
ATOM     46  N   UNL A   1      39.715  30.680  32.146  1.00  0.00    -0.354 N 
ATOM     47  C   UNL A   1      41.097  28.081  28.975  1.00  0.00     0.074 A 
ATOM     48  C   UNL A   1      40.355  28.333  27.758  1.00  0.00     0.031 C 
ATOM     49  C   UNL A   1      38.371  32.189  33.104  1.00  0.00     0.029 A 
ATOM     50  C   UNL A   1      39.534  31.338  33.337  1.00  0.00     0.049 A 
ATOM     51  H   UNL A   1      40.481  30.090  31.964  1.00  0.00     0.167 HD
ATOM     52  C   UNL A   1      42.146  27.231  29.075  1.00  0.00     0.037 A 
ATOM     53  C   UNL A   1      40.199  31.221  34.502  1.00  0.00     0.037 A 
ATOM     54  C   UNL A   1      42.904  27.024  30.279  1.00  0.00     0.049 A 
ATOM     55  C   UNL A   1      41.326  30.230  34.607  1.00  0.00     0.074 A 
ATOM     56  C   UNL A   1      43.979  26.180  30.492  1.00  0.00     0.029 A 
ATOM     57  N   UNL A   1      42.673  27.688  31.476  1.00  0.00    -0.354 N 
ATOM     58  N   UNL A   1      41.815  29.433  33.688  1.00  0.00    -0.248 NA
ATOM     59  C   UNL A   1      41.980  30.108  35.918  1.00  0.00     0.031 C 
ATOM     60  C   UNL A   1      44.383  26.314  31.827  1.00  0.00     0.029 A 
ATOM     61  C   UNL A   1      43.581  27.268  32.433  1.00  0.00     0.049 A 
ATOM     62  H   UNL A   1      41.966  28.359  31.623  1.00  0.00     0.167 HD
ATOM     63  C   UNL A   1      42.835  28.722  34.303  1.00  0.00     0.074 A 
ATOM     64  C   UNL A   1      42.909  29.195  35.670  1.00  0.00     0.031 C 
ATOM     65  C   UNL A   1      43.636  27.759  33.786  1.00  0.00     0.037 A 
BRANCH  52  66
ATOM     66  C   UNL A   1      42.502  26.425  27.862  1.00  0.00     0.064 A 
ATOM     67  C   UNL A   1      41.849  25.226  27.550  1.00  0.00     0.173 A 
ATOM     68  C   UNL A   1      43.498  26.881  26.985  1.00  0.00     0.173 A 
ATOM     69  F   UNL A   1      40.903  24.739  28.368  1.00  0.00    -0.203 F 
ATOM     70  C   UNL A   1      42.193  24.501  26.411  1.00  0.00     0.198 A 
ATOM     71  C   UNL A   1      43.823  26.168  25.835  1.00  0.00     0.198 A 
ATOM     72  F   UNL A   1      44.152  28.025  27.240  1.00  0.00    -0.203 F 
ATOM     73  F   UNL A   1      41.582  23.336  26.150  1.00  0.00    -0.200 F 
ATOM     74  C   UNL A   1      43.173  24.975  25.552  1.00  0.00     0.200 A 
ATOM     75  F   UNL A   1      44.764  26.633  25.003  1.00  0.00    -0.200 F 
ATOM     76  F   UNL A   1      43.498  24.280  24.454  1.00  0.00    -0.200 F 
ENDBRANCH  52  66
BRANCH  53  77
ATOM     77  C   UNL A   1      39.772  32.021  35.677  1.00  0.00     0.064 A 
ATOM     78  C   UNL A   1      38.734  31.583  36.511  1.00  0.00     0.173 A 
ATOM     79  C   UNL A   1      40.394  33.238  35.993  1.00  0.00     0.173 A 
ATOM     80  F   UNL A   1      38.090  30.440  36.231  1.00  0.00    -0.203 F 
ATOM     81  C   UNL A   1      38.332  32.334  37.614  1.00  0.00     0.198 A 
ATOM     82  C   UNL A   1      40.010  33.974  37.111  1.00  0.00     0.198 A 
ATOM     83  F   UNL A   1      41.388  33.704  35.223  1.00  0.00    -0.203 F 
ATOM     84  F   UNL A   1      37.313  31.911  38.373  1.00  0.00    -0.200 F 
ATOM     85  C   UNL A   1      38.975  33.524  37.917  1.00  0.00     0.200 A 
ATOM     86  F   UNL A   1      40.641  35.119  37.406  1.00  0.00    -0.200 F 
ATOM     87  F   UNL A   1      38.593  34.243  38.982  1.00  0.00    -0.200 F 
ENDBRANCH  53  77
BRANCH  65  88
ATOM     88  C   UNL A   1      44.678  27.178  34.692  1.00  0.00     0.064 A 
ATOM     89  C   UNL A   1      45.928  27.790  34.859  1.00  0.00     0.173 A 
ATOM     90  C   UNL A   1      44.406  26.016  35.431  1.00  0.00     0.173 A 
ATOM     91  F   UNL A   1      46.237  28.893  34.161  1.00  0.00    -0.203 F 
ATOM     92  C   UNL A   1      46.878  27.249  35.720  1.00  0.00     0.198 A 
ATOM     93  C   UNL A   1      45.351  25.491  36.308  1.00  0.00     0.198 A 
ATOM     94  F   UNL A   1      43.223  25.397  35.308  1.00  0.00    -0.203 F 
ATOM     95  F   UNL A   1      48.080  27.829  35.837  1.00  0.00    -0.200 F 
ATOM     96  C   UNL A   1      46.586  26.105  36.448  1.00  0.00     0.200 A 
ATOM     97  F   UNL A   1      45.066  24.390  37.016  1.00  0.00    -0.200 F 
ATOM     98  F   UNL A   1      47.501  25.587  37.280  1.00  0.00    -0.200 F 
ENDBRANCH  65  88
ENDBRANCH  39  40
ENDBRANCH  32  34
ENDBRANCH  31  32
ENDBRANCH  30  31
ENDBRANCH  29  30
ENDBRANCH  28  29
ENDBRANCH  27  28
ENDBRANCH   1  27
TORSDOF 22
ENDMDL
MODEL 3
REMARK VINA RESULT:     -10.1      1.586      3.945
REMARK SMILES COc1cc(C[N@@H+]2CCO[C@@H](CC(=O)OCCOCCOCCOC(=O)c3ccc(-c4c5nc(c(-c6c(F)c(F)c(F)c(F)c6F)c6ccc([nH]6)c(-c6c(F)c(F)c(F)c(F)c6F)c6nc(c(-c7c(F)c(F)c(F)c(F)c7F)c7ccc4[nH]7)C=C6)C=C5)cc3)C2)ccc1O
REMARK SMILES IDX 19 1 18 2 17 3 16 4 15 5 13 6 14 7 12 8 11 9 7 10 8 11 90 12
REMARK SMILES IDX 9 14 10 15 6 16 5 17 3 18 4 19 93 20 92 21 91 22 2 23 1 24
REMARK SMILES IDX 94 25 20 27 21 28 22 29 23 30 24 31 25 32 26 33 27 34 28 35
REMARK SMILES IDX 89 36 29 37 88 38 30 39 31 40 32 41 82 42 33 43 87 44 81 45
REMARK SMILES IDX 83 46 34 47 86 48 80 49 79 50 35 52 67 53 47 54 66 55 48 56
REMARK SMILES IDX 51 57 65 58 84 59 49 60 50 61 64 63 85 64 52 65 36 66 37 67
REMARK SMILES IDX 45 68 38 69 39 70 43 71 46 72 40 73 41 74 44 75 42 76 68 77
REMARK SMILES IDX 69 78 77 79 70 80 71 81 75 82 78 83 72 84 73 85 76 86 74 87
REMARK SMILES IDX 53 88 54 89 62 90 55 91 56 92 60 93 63 94 57 95 58 96 61 97
REMARK SMILES IDX 59 98
REMARK H PARENT 7 13 94 26 83 51 51 62
REMARK Flexibility Score: inf
ROOT
ATOM      1  C   UNL A   1      31.892  25.066  26.020  1.00  0.00     0.188 C 
ENDROOT
BRANCH   1   2
ATOM      2  O   UNL A   1      32.378  24.373  27.161  1.00  0.00    -0.376 OA
BRANCH   2   3
ATOM      3  C   UNL A   1      32.398  22.952  27.162  1.00  0.00     0.202 C 
BRANCH   3   4
ATOM      4  C   UNL A   1      33.504  22.269  27.966  1.00  0.00     0.261 C 
BRANCH   4   5
ATOM      5  O   UNL A   1      34.389  21.440  27.183  1.00  0.00    -0.463 OA
BRANCH   5   6
ATOM      6  C   UNL A   1      35.173  22.096  26.289  1.00  0.00     0.308 C 
ATOM      7  O   UNL A   1      35.924  23.024  26.565  1.00  0.00    -0.252 OA
BRANCH   6   8
ATOM      8  C   UNL A   1      34.912  21.664  24.875  1.00  0.00     0.160 C 
BRANCH   8   9
ATOM      9  C   UNL A   1      33.626  22.079  24.161  1.00  0.00     0.184 C 
ATOM     10  N   UNL A   1      32.652  23.325  22.167  1.00  0.00    -0.327 N 
ATOM     11  C   UNL A   1      32.190  22.036  21.663  1.00  0.00     0.291 C 
ATOM     12  C   UNL A   1      33.790  23.184  23.084  1.00  0.00     0.295 C 
ATOM     13  H   UNL A   1      33.064  23.810  21.370  1.00  0.00     0.348 HD
ATOM     14  C   UNL A   1      32.036  20.970  22.758  1.00  0.00     0.222 C 
ATOM     15  O   UNL A   1      33.224  20.836  23.529  1.00  0.00    -0.366 OA
BRANCH  10  16
ATOM     16  C   UNL A   1      31.666  24.389  22.362  1.00  0.00     0.299 C 
BRANCH  16  17
ATOM     17  C   UNL A   1      32.125  25.828  22.507  1.00  0.00     0.010 A 
ATOM     18  C   UNL A   1      31.648  28.226  22.825  1.00  0.00     0.160 A 
ATOM     19  C   UNL A   1      31.234  26.905  22.580  1.00  0.00     0.060 A 
ATOM     20  C   UNL A   1      33.013  28.489  22.847  1.00  0.00     0.157 A 
ATOM     21  C   UNL A   1      33.916  27.472  22.555  1.00  0.00     0.051 A 
ATOM     22  C   UNL A   1      33.481  26.151  22.420  1.00  0.00     0.013 A 
BRANCH  18  23
ATOM     23  O   UNL A   1      30.594  29.077  22.984  1.00  0.00    -0.493 OA
ATOM     24  C   UNL A   1      29.273  28.601  22.798  1.00  0.00     0.278 C 
ENDBRANCH  18  23
BRANCH  20  25
ATOM     25  O   UNL A   1      33.572  29.698  23.136  1.00  0.00    -0.504 OA
ATOM     26  H   UNL A   1      34.406  29.739  23.562  1.00  0.00     0.293 HD
ENDBRANCH  20  25
ENDBRANCH  16  17
ENDBRANCH  10  16
ENDBRANCH   8   9
ENDBRANCH   6   8
ENDBRANCH   5   6
ENDBRANCH   4   5
ENDBRANCH   3   4
ENDBRANCH   2   3
ENDBRANCH   1   2
BRANCH   1  27
ATOM     27  C   UNL A   1      30.661  25.969  26.165  1.00  0.00     0.188 C 
BRANCH  27  28
ATOM     28  O   UNL A   1      30.882  27.206  26.819  1.00  0.00    -0.376 OA
BRANCH  28  29
ATOM     29  C   UNL A   1      32.034  27.932  26.401  1.00  0.00     0.202 C 
BRANCH  29  30
ATOM     30  C   UNL A   1      31.808  29.442  26.307  1.00  0.00     0.261 C 
BRANCH  30  31
ATOM     31  O   UNL A   1      33.029  30.173  26.083  1.00  0.00    -0.460 OA
BRANCH  31  32
ATOM     32  C   UNL A   1      33.319  31.138  26.981  1.00  0.00     0.338 C 
ATOM     33  O   UNL A   1      32.596  32.040  27.360  1.00  0.00    -0.246 OA
BRANCH  32  34
ATOM     34  C   UNL A   1      34.668  30.886  27.513  1.00  0.00     0.060 A 
ATOM     35  C   UNL A   1      35.059  29.579  27.823  1.00  0.00     0.016 A 
ATOM     36  C   UNL A   1      35.505  31.960  27.806  1.00  0.00     0.016 A 
ATOM     37  C   UNL A   1      36.261  29.340  28.479  1.00  0.00     0.010 A 
ATOM     38  C   UNL A   1      36.731  31.715  28.430  1.00  0.00     0.010 A 
ATOM     39  C   UNL A   1      37.102  30.409  28.798  1.00  0.00    -0.014 A 
BRANCH  39  40
ATOM     40  C   UNL A   1      38.318  30.179  29.611  1.00  0.00     0.031 A 
ATOM     41  C   UNL A   1      39.405  29.302  29.063  1.00  0.00     0.074 A 
ATOM     42  C   UNL A   1      38.462  30.759  30.816  1.00  0.00     0.049 A 
ATOM     43  N   UNL A   1      40.429  28.768  29.676  1.00  0.00    -0.248 NA
ATOM     44  C   UNL A   1      39.325  28.983  27.628  1.00  0.00     0.031 C 
ATOM     45  C   UNL A   1      37.529  31.711  31.416  1.00  0.00     0.029 A 
ATOM     46  N   UNL A   1      39.452  30.619  31.757  1.00  0.00    -0.354 N 
ATOM     47  C   UNL A   1      41.079  28.001  28.720  1.00  0.00     0.074 A 
ATOM     48  C   UNL A   1      40.347  28.153  27.480  1.00  0.00     0.031 C 
ATOM     49  C   UNL A   1      37.987  32.067  32.627  1.00  0.00     0.029 A 
ATOM     50  C   UNL A   1      39.201  31.309  32.916  1.00  0.00     0.049 A 
ATOM     51  H   UNL A   1      40.261  30.078  31.613  1.00  0.00     0.167 HD
ATOM     52  C   UNL A   1      42.181  27.231  28.874  1.00  0.00     0.037 A 
ATOM     53  C   UNL A   1      39.846  31.284  34.097  1.00  0.00     0.037 A 
ATOM     54  C   UNL A   1      42.926  27.125  30.100  1.00  0.00     0.049 A 
ATOM     55  C   UNL A   1      41.037  30.379  34.264  1.00  0.00     0.074 A 
ATOM     56  C   UNL A   1      44.052  26.366  30.367  1.00  0.00     0.029 A 
ATOM     57  N   UNL A   1      42.623  27.817  31.265  1.00  0.00    -0.354 N 
ATOM     58  N   UNL A   1      41.599  29.583  33.388  1.00  0.00    -0.248 NA
ATOM     59  C   UNL A   1      41.669  30.354  35.591  1.00  0.00     0.031 C 
ATOM     60  C   UNL A   1      44.416  26.580  31.703  1.00  0.00     0.029 A 
ATOM     61  C   UNL A   1      43.537  27.499  32.255  1.00  0.00     0.049 A 
ATOM     62  H   UNL A   1      41.869  28.442  31.371  1.00  0.00     0.167 HD
ATOM     63  C   UNL A   1      42.652  28.969  34.050  1.00  0.00     0.074 A 
ATOM     64  C   UNL A   1      42.663  29.499  35.398  1.00  0.00     0.031 C 
ATOM     65  C   UNL A   1      43.529  28.045  33.587  1.00  0.00     0.037 A 
BRANCH  52  66
ATOM     66  C   UNL A   1      42.618  26.405  27.702  1.00  0.00     0.064 A 
ATOM     67  C   UNL A   1      42.074  25.141  27.440  1.00  0.00     0.173 A 
ATOM     68  C   UNL A   1      43.581  26.905  26.812  1.00  0.00     0.173 A 
ATOM     69  F   UNL A   1      41.163  24.613  28.272  1.00  0.00    -0.203 F 
ATOM     70  C   UNL A   1      42.490  24.399  26.338  1.00  0.00     0.198 A 
ATOM     71  C   UNL A   1      43.979  26.171  25.699  1.00  0.00     0.198 A 
ATOM     72  F   UNL A   1      44.133  28.111  27.020  1.00  0.00    -0.203 F 
ATOM     73  F   UNL A   1      41.984  23.176  26.125  1.00  0.00    -0.200 F 
ATOM     74  C   UNL A   1      43.437  24.916  25.465  1.00  0.00     0.200 A 
ATOM     75  F   UNL A   1      44.887  26.678  24.853  1.00  0.00    -0.200 F 
ATOM     76  F   UNL A   1      43.832  24.203  24.402  1.00  0.00    -0.200 F 
ENDBRANCH  52  66
BRANCH  53  77
ATOM     77  C   UNL A   1      39.340  32.098  35.232  1.00  0.00     0.064 A 
ATOM     78  C   UNL A   1      38.511  31.534  36.211  1.00  0.00     0.173 A 
ATOM     79  C   UNL A   1      39.676  33.453  35.360  1.00  0.00     0.173 A 
ATOM     80  F   UNL A   1      38.139  30.249  36.114  1.00  0.00    -0.203 F 
ATOM     81  C   UNL A   1      38.034  32.297  37.275  1.00  0.00     0.198 A 
ATOM     82  C   UNL A   1      39.220  34.209  36.438  1.00  0.00     0.198 A 
ATOM     83  F   UNL A   1      40.460  34.041  34.446  1.00  0.00    -0.203 F 
ATOM     84  F   UNL A   1      37.215  31.744  38.178  1.00  0.00    -0.200 F 
ATOM     85  C   UNL A   1      38.396  33.631  37.392  1.00  0.00     0.200 A 
ATOM     86  F   UNL A   1      39.581  35.495  36.553  1.00  0.00    -0.200 F 
ATOM     87  F   UNL A   1      37.943  34.363  38.419  1.00  0.00    -0.200 F 
ENDBRANCH  53  77
BRANCH  65  88
ATOM     88  C   UNL A   1      44.588  27.574  34.536  1.00  0.00     0.064 A 
ATOM     89  C   UNL A   1      44.421  26.411  35.301  1.00  0.00     0.173 A 
ATOM     90  C   UNL A   1      45.799  28.273  34.652  1.00  0.00     0.173 A 
ATOM     91  F   UNL A   1      43.273  25.720  35.235  1.00  0.00    -0.203 F 
ATOM     92  C   UNL A   1      45.421  25.974  36.164  1.00  0.00     0.198 A 
ATOM     93  C   UNL A   1      46.807  27.821  35.499  1.00  0.00     0.198 A 
ATOM     94  F   UNL A   1      46.007  29.388  33.937  1.00  0.00    -0.203 F 
ATOM     95  F   UNL A   1      45.227  24.881  36.914  1.00  0.00    -0.200 F 
ATOM     96  C   UNL A   1      46.615  26.675  36.257  1.00  0.00     0.200 A 
ATOM     97  F   UNL A   1      47.962  28.494  35.582  1.00  0.00    -0.200 F 
ATOM     98  F   UNL A   1      47.580  26.251  37.086  1.00  0.00    -0.200 F 
ENDBRANCH  65  88
ENDBRANCH  39  40
ENDBRANCH  32  34
ENDBRANCH  31  32
ENDBRANCH  30  31
ENDBRANCH  29  30
ENDBRANCH  28  29
ENDBRANCH  27  28
ENDBRANCH   1  27
TORSDOF 22
ENDMDL
