MODEL 1
REMARK VINA RESULT:     -10.7      0.000      0.000
REMARK SMILES C[C@H]1SC[C@H](C(=O)OCCOCCOCCOC(=O)c2ccc(-c3c4nc(c(-c5c(F)c(F)c(F)c(F)c5F)c5ccc([nH]5)c(-c5c(F)c(F)c(F)c(F)c5F)c5nc(c(-c6c(F)c(F)c(F)c(F)c6F)c6ccc3[nH]6)C=C5)C=C4)cc2)N1C(=O)[C@@H]1CSc2ccccc21
REMARK SMILES IDX 12 1 11 2 10 3 9 4 8 5 6 6 7 7 5 8 1 9 2 10 3 11 83 12 4 13
REMARK SMILES IDX 84 14 85 15 86 16 87 17 94 18 88 19 89 20 93 21 90 22 92 23
REMARK SMILES IDX 91 24 13 25 14 26 15 27 16 28 17 29 18 30 19 31 20 32 21 33
REMARK SMILES IDX 82 34 22 35 81 36 23 37 24 38 25 39 75 40 26 41 80 42 74 43
REMARK SMILES IDX 76 44 27 45 79 46 73 47 72 48 28 50 60 51 40 52 59 53 41 54
REMARK SMILES IDX 44 55 58 56 77 57 42 58 43 59 57 61 78 62 45 63 29 64 30 65
REMARK SMILES IDX 38 66 31 67 32 68 36 69 39 70 33 71 34 72 37 73 35 74 61 75
REMARK SMILES IDX 62 76 70 77 63 78 64 79 68 80 71 81 65 82 66 83 69 84 67 85
REMARK SMILES IDX 46 86 47 87 55 88 48 89 49 90 53 91 56 92 50 93 51 94 54 95
REMARK SMILES IDX 52 96
REMARK H PARENT 76 49 44 60
REMARK Flexibility Score: inf
ROOT
ATOM      1  C   UNL A   1      35.447  32.153  28.045  1.00  0.00     0.188 C 
ENDROOT
BRANCH   1   2
ATOM      2  O   UNL A   1      34.610  31.122  27.542  1.00  0.00    -0.376 OA
BRANCH   2   3
ATOM      3  C   UNL A   1      35.095  29.788  27.437  1.00  0.00     0.202 C 
BRANCH   3   4
ATOM      4  C   UNL A   1      34.097  28.634  27.246  1.00  0.00     0.261 C 
BRANCH   4   5
ATOM      5  O   UNL A   1      33.469  28.574  25.953  1.00  0.00    -0.462 OA
BRANCH   5   6
ATOM      6  C   UNL A   1      32.211  29.083  25.863  1.00  0.00     0.329 C 
ATOM      7  O   UNL A   1      31.698  29.837  26.686  1.00  0.00    -0.250 OA
BRANCH   6   8
ATOM      8  C   UNL A   1      31.465  28.617  24.594  1.00  0.00     0.206 C 
ATOM      9  C   UNL A   1      28.764  28.220  23.128  1.00  0.00     0.043 C 
ATOM     10  C   UNL A   1      29.892  27.233  23.423  1.00  0.00     0.141 C 
ATOM     11  S   UNL A   1      31.216  27.439  22.190  1.00  0.00    -0.135 SA
ATOM     12  N   UNL A   1      30.560  27.465  24.701  1.00  0.00    -0.316 N 
ATOM     13  C   UNL A   1      32.233  28.477  23.276  1.00  0.00     0.109 C 
BRANCH  12  14
ATOM     14  C   UNL A   1      30.793  26.505  25.677  1.00  0.00     0.232 C 
ATOM     15  O   UNL A   1      30.805  26.803  26.877  1.00  0.00    -0.274 OA
BRANCH  14  16
ATOM     16  C   UNL A   1      31.090  25.051  25.326  1.00  0.00     0.120 C 
ATOM     17  C   UNL A   1      30.279  24.135  26.254  1.00  0.00     0.093 C 
ATOM     18  C   UNL A   1      32.544  24.669  25.369  1.00  0.00    -0.021 A 
ATOM     19  S   UNL A   1      31.390  22.850  26.910  1.00  0.00    -0.125 SA
ATOM     20  C   UNL A   1      32.833  23.597  26.215  1.00  0.00     0.011 A 
ATOM     21  C   UNL A   1      33.564  25.339  24.699  1.00  0.00     0.006 A 
ATOM     22  C   UNL A   1      34.146  23.264  26.506  1.00  0.00     0.015 A 
ATOM     23  C   UNL A   1      34.887  24.986  24.963  1.00  0.00     0.000 A 
ATOM     24  C   UNL A   1      35.176  23.974  25.887  1.00  0.00     0.001 A 
ENDBRANCH  14  16
ENDBRANCH  12  14
ENDBRANCH   6   8
ENDBRANCH   5   6
ENDBRANCH   4   5
ENDBRANCH   3   4
ENDBRANCH   2   3
ENDBRANCH   1   2
BRANCH   1  25
ATOM     25  C   UNL A   1      34.934  33.074  29.158  1.00  0.00     0.188 C 
BRANCH  25  26
ATOM     26  O   UNL A   1      35.084  34.450  28.928  1.00  0.00    -0.376 OA
BRANCH  26  27
ATOM     27  C   UNL A   1      33.985  35.176  28.411  1.00  0.00     0.202 C 
BRANCH  27  28
ATOM     28  C   UNL A   1      33.043  35.958  29.346  1.00  0.00     0.261 C 
BRANCH  28  29
ATOM     29  O   UNL A   1      32.454  35.242  30.446  1.00  0.00    -0.460 OA
BRANCH  29  30
ATOM     30  C   UNL A   1      32.656  35.723  31.694  1.00  0.00     0.338 C 
ATOM     31  O   UNL A   1      31.914  36.462  32.325  1.00  0.00    -0.246 OA
BRANCH  30  32
ATOM     32  C   UNL A   1      33.816  35.003  32.276  1.00  0.00     0.060 A 
ATOM     33  C   UNL A   1      35.083  35.609  32.246  1.00  0.00     0.016 A 
ATOM     34  C   UNL A   1      33.653  33.751  32.871  1.00  0.00     0.016 A 
ATOM     35  C   UNL A   1      36.192  34.953  32.789  1.00  0.00     0.010 A 
ATOM     36  C   UNL A   1      34.770  33.084  33.388  1.00  0.00     0.010 A 
ATOM     37  C   UNL A   1      36.050  33.667  33.325  1.00  0.00    -0.014 A 
BRANCH  37  38
ATOM     38  C   UNL A   1      37.249  32.843  33.632  1.00  0.00     0.031 A 
ATOM     39  C   UNL A   1      37.986  33.113  34.916  1.00  0.00     0.074 A 
ATOM     40  C   UNL A   1      37.686  31.880  32.799  1.00  0.00     0.049 A 
ATOM     41  N   UNL A   1      39.112  32.611  35.355  1.00  0.00    -0.248 NA
ATOM     42  C   UNL A   1      37.367  34.092  35.824  1.00  0.00     0.031 C 
ATOM     43  C   UNL A   1      37.039  31.480  31.553  1.00  0.00     0.029 A 
ATOM     44  N   UNL A   1      38.797  31.076  32.877  1.00  0.00    -0.354 N 
ATOM     45  C   UNL A   1      39.343  33.222  36.581  1.00  0.00     0.074 A 
ATOM     46  C   UNL A   1      38.256  34.152  36.803  1.00  0.00     0.031 C 
ATOM     47  C   UNL A   1      37.778  30.519  30.970  1.00  0.00     0.029 A 
ATOM     48  C   UNL A   1      38.969  30.266  31.781  1.00  0.00     0.049 A 
ATOM     49  H   UNL A   1      39.412  31.079  33.646  1.00  0.00     0.167 HD
ATOM     50  C   UNL A   1      40.365  33.023  37.447  1.00  0.00     0.037 A 
ATOM     51  C   UNL A   1      39.986  29.441  31.457  1.00  0.00     0.037 A 
ATOM     52  C   UNL A   1      41.448  32.102  37.225  1.00  0.00     0.049 A 
ATOM     53  C   UNL A   1      41.161  29.303  32.397  1.00  0.00     0.074 A 
ATOM     54  C   UNL A   1      42.522  31.820  38.051  1.00  0.00     0.029 A 
ATOM     55  N   UNL A   1      41.600  31.321  36.089  1.00  0.00    -0.354 N 
ATOM     56  N   UNL A   1      41.364  29.868  33.563  1.00  0.00    -0.248 NA
ATOM     57  C   UNL A   1      42.249  28.409  31.973  1.00  0.00     0.031 C 
ATOM     58  C   UNL A   1      43.358  30.916  37.387  1.00  0.00     0.029 A 
ATOM     59  C   UNL A   1      42.767  30.578  36.180  1.00  0.00     0.049 A 
ATOM     60  H   UNL A   1      40.972  31.296  35.331  1.00  0.00     0.167 HD
ATOM     61  C   UNL A   1      42.578  29.371  34.025  1.00  0.00     0.074 A 
ATOM     62  C   UNL A   1      43.061  28.450  33.019  1.00  0.00     0.031 C 
ATOM     63  C   UNL A   1      43.233  29.652  35.179  1.00  0.00     0.037 A 
BRANCH  50  64
ATOM     64  C   UNL A   1      40.379  33.846  38.704  1.00  0.00     0.064 A 
ATOM     65  C   UNL A   1      39.687  33.448  39.857  1.00  0.00     0.173 A 
ATOM     66  C   UNL A   1      41.124  35.035  38.764  1.00  0.00     0.173 A 
ATOM     67  F   UNL A   1      38.948  32.328  39.850  1.00  0.00    -0.203 F 
ATOM     68  C   UNL A   1      39.717  34.224  41.014  1.00  0.00     0.198 A 
ATOM     69  C   UNL A   1      41.179  35.789  39.932  1.00  0.00     0.198 A 
ATOM     70  F   UNL A   1      41.807  35.460  37.690  1.00  0.00    -0.203 F 
ATOM     71  F   UNL A   1      39.006  33.850  42.087  1.00  0.00    -0.200 F 
ATOM     72  C   UNL A   1      40.469  35.387  41.054  1.00  0.00     0.200 A 
ATOM     73  F   UNL A   1      41.919  36.905  39.973  1.00  0.00    -0.200 F 
ATOM     74  F   UNL A   1      40.505  36.127  42.171  1.00  0.00    -0.200 F 
ENDBRANCH  50  64
BRANCH  51  75
ATOM     75  C   UNL A   1      39.961  28.690  30.172  1.00  0.00     0.064 A 
ATOM     76  C   UNL A   1      39.381  27.416  30.089  1.00  0.00     0.173 A 
ATOM     77  C   UNL A   1      40.554  29.211  29.012  1.00  0.00     0.173 A 
ATOM     78  F   UNL A   1      38.829  26.860  31.177  1.00  0.00    -0.203 F 
ATOM     79  C   UNL A   1      39.413  26.685  28.903  1.00  0.00     0.198 A 
ATOM     80  C   UNL A   1      40.556  28.491  27.818  1.00  0.00     0.198 A 
ATOM     81  F   UNL A   1      41.132  30.420  29.037  1.00  0.00    -0.203 F 
ATOM     82  F   UNL A   1      38.903  25.446  28.870  1.00  0.00    -0.200 F 
ATOM     83  C   UNL A   1      39.995  27.225  27.767  1.00  0.00     0.200 A 
ATOM     84  F   UNL A   1      41.112  29.023  26.720  1.00  0.00    -0.200 F 
ATOM     85  F   UNL A   1      40.027  26.520  26.628  1.00  0.00    -0.200 F 
ENDBRANCH  51  75
BRANCH  63  86
ATOM     86  C   UNL A   1      44.517  28.916  35.452  1.00  0.00     0.064 A 
ATOM     87  C   UNL A   1      45.761  29.415  35.037  1.00  0.00     0.173 A 
ATOM     88  C   UNL A   1      44.504  27.718  36.183  1.00  0.00     0.173 A 
ATOM     89  F   UNL A   1      45.832  30.550  34.327  1.00  0.00    -0.203 F 
ATOM     90  C   UNL A   1      46.939  28.724  35.318  1.00  0.00     0.198 A 
ATOM     91  C   UNL A   1      45.686  27.050  36.492  1.00  0.00     0.198 A 
ATOM     92  F   UNL A   1      43.343  27.200  36.612  1.00  0.00    -0.203 F 
ATOM     93  F   UNL A   1      48.110  29.192  34.866  1.00  0.00    -0.200 F 
ATOM     94  C   UNL A   1      46.901  27.549  36.052  1.00  0.00     0.200 A 
ATOM     95  F   UNL A   1      45.646  25.924  37.219  1.00  0.00    -0.200 F 
ATOM     96  F   UNL A   1      48.036  26.892  36.330  1.00  0.00    -0.200 F 
ENDBRANCH  63  86
ENDBRANCH  37  38
ENDBRANCH  30  32
ENDBRANCH  29  30
ENDBRANCH  28  29
ENDBRANCH  27  28
ENDBRANCH  26  27
ENDBRANCH  25  26
ENDBRANCH   1  25
TORSDOF 19
ENDMDL
MODEL 2
REMARK VINA RESULT:     -10.6      5.211     10.524
REMARK SMILES C[C@H]1SC[C@H](C(=O)OCCOCCOCCOC(=O)c2ccc(-c3c4nc(c(-c5c(F)c(F)c(F)c(F)c5F)c5ccc([nH]5)c(-c5c(F)c(F)c(F)c(F)c5F)c5nc(c(-c6c(F)c(F)c(F)c(F)c6F)c6ccc3[nH]6)C=C5)C=C4)cc2)N1C(=O)[C@@H]1CSc2ccccc21
REMARK SMILES IDX 12 1 11 2 10 3 9 4 8 5 6 6 7 7 5 8 1 9 2 10 3 11 83 12 4 13
REMARK SMILES IDX 84 14 85 15 86 16 87 17 94 18 88 19 89 20 93 21 90 22 92 23
REMARK SMILES IDX 91 24 13 25 14 26 15 27 16 28 17 29 18 30 19 31 20 32 21 33
REMARK SMILES IDX 82 34 22 35 81 36 23 37 24 38 25 39 75 40 26 41 80 42 74 43
REMARK SMILES IDX 76 44 27 45 79 46 73 47 72 48 28 50 60 51 40 52 59 53 41 54
REMARK SMILES IDX 44 55 58 56 77 57 42 58 43 59 57 61 78 62 45 63 29 64 30 65
REMARK SMILES IDX 38 66 31 67 32 68 36 69 39 70 33 71 34 72 37 73 35 74 61 75
REMARK SMILES IDX 62 76 70 77 63 78 64 79 68 80 71 81 65 82 66 83 69 84 67 85
REMARK SMILES IDX 46 86 47 87 55 88 48 89 49 90 53 91 56 92 50 93 51 94 54 95
REMARK SMILES IDX 52 96
REMARK H PARENT 76 49 44 60
REMARK Flexibility Score: inf
ROOT
ATOM      1  C   UNL A   1      33.219  22.064  27.363  1.00  0.00     0.188 C 
ENDROOT
BRANCH   1   2
ATOM      2  O   UNL A   1      32.198  22.946  27.804  1.00  0.00    -0.376 OA
BRANCH   2   3
ATOM      3  C   UNL A   1      31.301  23.535  26.869  1.00  0.00     0.202 C 
BRANCH   3   4
ATOM      4  C   UNL A   1      31.361  25.050  26.614  1.00  0.00     0.261 C 
BRANCH   4   5
ATOM      5  O   UNL A   1      30.167  25.627  26.057  1.00  0.00    -0.462 OA
BRANCH   5   6
ATOM      6  C   UNL A   1      30.269  26.145  24.803  1.00  0.00     0.329 C 
ATOM      7  O   UNL A   1      29.409  26.827  24.253  1.00  0.00    -0.250 OA
BRANCH   6   8
ATOM      8  C   UNL A   1      31.605  25.790  24.117  1.00  0.00     0.206 C 
ATOM      9  C   UNL A   1      34.621  25.139  24.409  1.00  0.00     0.043 C 
ATOM     10  C   UNL A   1      33.908  26.200  23.573  1.00  0.00     0.141 C 
ATOM     11  S   UNL A   1      33.280  25.441  22.041  1.00  0.00    -0.135 SA
ATOM     12  N   UNL A   1      32.714  26.749  24.211  1.00  0.00    -0.316 N 
ATOM     13  C   UNL A   1      31.597  25.237  22.688  1.00  0.00     0.109 C 
BRANCH  12  14
ATOM     14  C   UNL A   1      32.433  28.100  24.371  1.00  0.00     0.232 C 
ATOM     15  O   UNL A   1      32.515  28.888  23.421  1.00  0.00    -0.274 OA
BRANCH  14  16
ATOM     16  C   UNL A   1      32.054  28.691  25.725  1.00  0.00     0.120 C 
ATOM     17  C   UNL A   1      31.027  29.812  25.513  1.00  0.00     0.093 C 
ATOM     18  C   UNL A   1      33.207  29.200  26.544  1.00  0.00    -0.021 A 
ATOM     19  S   UNL A   1      31.551  31.265  26.479  1.00  0.00    -0.125 SA
ATOM     20  C   UNL A   1      33.099  30.538  26.924  1.00  0.00     0.011 A 
ATOM     21  C   UNL A   1      34.345  28.462  26.863  1.00  0.00     0.006 A 
ATOM     22  C   UNL A   1      34.171  31.193  27.508  1.00  0.00     0.015 A 
ATOM     23  C   UNL A   1      35.415  29.109  27.480  1.00  0.00     0.000 A 
ATOM     24  C   UNL A   1      35.339  30.476  27.772  1.00  0.00     0.001 A 
ENDBRANCH  14  16
ENDBRANCH  12  14
ENDBRANCH   6   8
ENDBRANCH   5   6
ENDBRANCH   4   5
ENDBRANCH   3   4
ENDBRANCH   2   3
ENDBRANCH   1   2
BRANCH   1  25
ATOM     25  C   UNL A   1      33.263  21.625  25.894  1.00  0.00     0.188 C 
BRANCH  25  26
ATOM     26  O   UNL A   1      34.421  20.940  25.496  1.00  0.00    -0.376 OA
BRANCH  26  27
ATOM     27  C   UNL A   1      35.683  21.508  25.795  1.00  0.00     0.202 C 
BRANCH  27  28
ATOM     28  C   UNL A   1      36.984  20.838  25.317  1.00  0.00     0.261 C 
BRANCH  28  29
ATOM     29  O   UNL A   1      38.162  21.660  25.226  1.00  0.00    -0.460 OA
BRANCH  29  30
ATOM     30  C   UNL A   1      39.150  21.449  26.125  1.00  0.00     0.338 C 
ATOM     31  O   UNL A   1      39.738  20.398  26.337  1.00  0.00    -0.246 OA
BRANCH  30  32
ATOM     32  C   UNL A   1      39.583  22.771  26.643  1.00  0.00     0.060 A 
ATOM     33  C   UNL A   1      38.900  23.925  26.228  1.00  0.00     0.016 A 
ATOM     34  C   UNL A   1      40.638  22.871  27.551  1.00  0.00     0.016 A 
ATOM     35  C   UNL A   1      39.286  25.183  26.701  1.00  0.00     0.010 A 
ATOM     36  C   UNL A   1      41.042  24.133  28.001  1.00  0.00     0.010 A 
ATOM     37  C   UNL A   1      40.389  25.299  27.557  1.00  0.00    -0.014 A 
BRANCH  37  38
ATOM     38  C   UNL A   1      40.992  26.629  27.832  1.00  0.00     0.031 A 
ATOM     39  C   UNL A   1      42.431  26.848  27.450  1.00  0.00     0.074 A 
ATOM     40  C   UNL A   1      40.294  27.624  28.409  1.00  0.00     0.049 A 
ATOM     41  N   UNL A   1      43.212  27.873  27.682  1.00  0.00    -0.248 NA
ATOM     42  C   UNL A   1      43.079  25.754  26.709  1.00  0.00     0.031 C 
ATOM     43  C   UNL A   1      38.884  27.565  28.781  1.00  0.00     0.029 A 
ATOM     44  N   UNL A   1      40.695  28.879  28.801  1.00  0.00    -0.354 N 
ATOM     45  C   UNL A   1      44.442  27.542  27.130  1.00  0.00     0.074 A 
ATOM     46  C   UNL A   1      44.314  26.211  26.577  1.00  0.00     0.031 C 
ATOM     47  C   UNL A   1      38.541  28.725  29.368  1.00  0.00     0.029 A 
ATOM     48  C   UNL A   1      39.716  29.593  29.449  1.00  0.00     0.049 A 
ATOM     49  H   UNL A   1      41.598  29.234  28.632  1.00  0.00     0.167 HD
ATOM     50  C   UNL A   1      45.576  28.281  27.084  1.00  0.00     0.037 A 
ATOM     51  C   UNL A   1      39.775  30.791  30.065  1.00  0.00     0.037 A 
ATOM     52  C   UNL A   1      45.706  29.603  27.637  1.00  0.00     0.049 A 
ATOM     53  C   UNL A   1      41.076  31.559  30.078  1.00  0.00     0.074 A 
ATOM     54  C   UNL A   1      46.809  30.437  27.626  1.00  0.00     0.029 A 
ATOM     55  N   UNL A   1      44.699  30.279  28.311  1.00  0.00    -0.354 N 
ATOM     56  N   UNL A   1      42.230  31.249  29.538  1.00  0.00    -0.248 NA
ATOM     57  C   UNL A   1      41.079  32.847  30.789  1.00  0.00     0.031 C 
ATOM     58  C   UNL A   1      46.492  31.592  28.348  1.00  0.00     0.029 A 
ATOM     59  C   UNL A   1      45.167  31.509  28.746  1.00  0.00     0.049 A 
ATOM     60  H   UNL A   1      43.788  29.936  28.457  1.00  0.00     0.167 HD
ATOM     61  C   UNL A   1      43.081  32.315  29.811  1.00  0.00     0.074 A 
ATOM     62  C   UNL A   1      42.307  33.286  30.555  1.00  0.00     0.031 C 
ATOM     63  C   UNL A   1      44.385  32.476  29.474  1.00  0.00     0.037 A 
BRANCH  50  64
ATOM     64  C   UNL A   1      46.783  27.660  26.438  1.00  0.00     0.064 A 
ATOM     65  C   UNL A   1      47.715  26.913  27.173  1.00  0.00     0.173 A 
ATOM     66  C   UNL A   1      46.991  27.789  25.056  1.00  0.00     0.173 A 
ATOM     67  F   UNL A   1      47.571  26.770  28.500  1.00  0.00    -0.203 F 
ATOM     68  C   UNL A   1      48.825  26.342  26.554  1.00  0.00     0.198 A 
ATOM     69  C   UNL A   1      48.082  27.189  24.434  1.00  0.00     0.198 A 
ATOM     70  F   UNL A   1      46.128  28.491  24.304  1.00  0.00    -0.203 F 
ATOM     71  F   UNL A   1      49.729  25.677  27.286  1.00  0.00    -0.200 F 
ATOM     72  C   UNL A   1      49.002  26.473  25.185  1.00  0.00     0.200 A 
ATOM     73  F   UNL A   1      48.244  27.304  23.110  1.00  0.00    -0.200 F 
ATOM     74  F   UNL A   1      50.065  25.915  24.589  1.00  0.00    -0.200 F 
ENDBRANCH  50  64
BRANCH  51  75
ATOM     75  C   UNL A   1      38.571  31.343  30.746  1.00  0.00     0.064 A 
ATOM     76  C   UNL A   1      37.650  32.142  30.052  1.00  0.00     0.173 A 
ATOM     77  C   UNL A   1      38.338  31.118  32.110  1.00  0.00     0.173 A 
ATOM     78  F   UNL A   1      37.844  32.413  28.753  1.00  0.00    -0.203 F 
ATOM     79  C   UNL A   1      36.558  32.713  30.703  1.00  0.00     0.198 A 
ATOM     80  C   UNL A   1      37.226  31.663  32.751  1.00  0.00     0.198 A 
ATOM     81  F   UNL A   1      39.191  30.370  32.824  1.00  0.00    -0.203 F 
ATOM     82  F   UNL A   1      35.727  33.520  30.028  1.00  0.00    -0.200 F 
ATOM     83  C   UNL A   1      36.343  32.467  32.050  1.00  0.00     0.200 A 
ATOM     84  F   UNL A   1      37.018  31.415  34.053  1.00  0.00    -0.200 F 
ATOM     85  F   UNL A   1      35.292  33.017  32.674  1.00  0.00    -0.200 F 
ENDBRANCH  51  75
BRANCH  63  86
ATOM     86  C   UNL A   1      45.051  33.770  29.854  1.00  0.00     0.064 A 
ATOM     87  C   UNL A   1      45.725  33.929  31.074  1.00  0.00     0.173 A 
ATOM     88  C   UNL A   1      45.056  34.852  28.959  1.00  0.00     0.173 A 
ATOM     89  F   UNL A   1      45.744  32.932  31.971  1.00  0.00    -0.203 F 
ATOM     90  C   UNL A   1      46.351  35.132  31.395  1.00  0.00     0.198 A 
ATOM     91  C   UNL A   1      45.713  36.040  29.269  1.00  0.00     0.198 A 
ATOM     92  F   UNL A   1      44.435  34.752  27.774  1.00  0.00    -0.203 F 
ATOM     93  F   UNL A   1      46.943  35.278  32.588  1.00  0.00    -0.200 F 
ATOM     94  C   UNL A   1      46.352  36.182  30.490  1.00  0.00     0.200 A 
ATOM     95  F   UNL A   1      45.729  37.046  28.382  1.00  0.00    -0.200 F 
ATOM     96  F   UNL A   1      46.965  37.334  30.796  1.00  0.00    -0.200 F 
ENDBRANCH  63  86
ENDBRANCH  37  38
ENDBRANCH  30  32
ENDBRANCH  29  30
ENDBRANCH  28  29
ENDBRANCH  27  28
ENDBRANCH  26  27
ENDBRANCH  25  26
ENDBRANCH   1  25
TORSDOF 19
ENDMDL
MODEL 3
REMARK VINA RESULT:     -10.5      1.189      2.602
REMARK SMILES C[C@H]1SC[C@H](C(=O)OCCOCCOCCOC(=O)c2ccc(-c3c4nc(c(-c5c(F)c(F)c(F)c(F)c5F)c5ccc([nH]5)c(-c5c(F)c(F)c(F)c(F)c5F)c5nc(c(-c6c(F)c(F)c(F)c(F)c6F)c6ccc3[nH]6)C=C5)C=C4)cc2)N1C(=O)[C@@H]1CSc2ccccc21
REMARK SMILES IDX 12 1 11 2 10 3 9 4 8 5 6 6 7 7 5 8 1 9 2 10 3 11 83 12 4 13
REMARK SMILES IDX 84 14 85 15 86 16 87 17 94 18 88 19 89 20 93 21 90 22 92 23
REMARK SMILES IDX 91 24 13 25 14 26 15 27 16 28 17 29 18 30 19 31 20 32 21 33
REMARK SMILES IDX 82 34 22 35 81 36 23 37 24 38 25 39 75 40 26 41 80 42 74 43
REMARK SMILES IDX 76 44 27 45 79 46 73 47 72 48 28 50 60 51 40 52 59 53 41 54
REMARK SMILES IDX 44 55 58 56 77 57 42 58 43 59 57 61 78 62 45 63 29 64 30 65
REMARK SMILES IDX 38 66 31 67 32 68 36 69 39 70 33 71 34 72 37 73 35 74 61 75
REMARK SMILES IDX 62 76 70 77 63 78 64 79 68 80 71 81 65 82 66 83 69 84 67 85
REMARK SMILES IDX 46 86 47 87 55 88 48 89 49 90 53 91 56 92 50 93 51 94 54 95
REMARK SMILES IDX 52 96
REMARK H PARENT 76 49 44 60
REMARK Flexibility Score: inf
ROOT
ATOM      1  C   UNL A   1      33.688  30.858  27.745  1.00  0.00     0.188 C 
ENDROOT
BRANCH   1   2
ATOM      2  O   UNL A   1      33.730  30.234  26.471  1.00  0.00    -0.376 OA
BRANCH   2   3
ATOM      3  C   UNL A   1      34.094  28.863  26.352  1.00  0.00     0.202 C 
BRANCH   3   4
ATOM      4  C   UNL A   1      33.001  27.783  26.405  1.00  0.00     0.261 C 
BRANCH   4   5
ATOM      5  O   UNL A   1      33.346  26.529  25.791  1.00  0.00    -0.462 OA
BRANCH   5   6
ATOM      6  C   UNL A   1      32.709  25.424  26.264  1.00  0.00     0.329 C 
ATOM      7  O   UNL A   1      31.616  25.429  26.824  1.00  0.00    -0.250 OA
BRANCH   6   8
ATOM      8  C   UNL A   1      33.506  24.124  26.022  1.00  0.00     0.206 C 
ATOM      9  C   UNL A   1      35.629  22.615  24.344  1.00  0.00     0.043 C 
ATOM     10  C   UNL A   1      34.187  22.248  24.688  1.00  0.00     0.141 C 
ATOM     11  S   UNL A   1      34.128  21.530  26.361  1.00  0.00    -0.135 SA
ATOM     12  N   UNL A   1      33.288  23.397  24.764  1.00  0.00    -0.316 N 
ATOM     13  C   UNL A   1      33.612  23.084  27.142  1.00  0.00     0.109 C 
BRANCH  12  14
ATOM     14  C   UNL A   1      32.064  23.510  24.116  1.00  0.00     0.232 C 
ATOM     15  O   UNL A   1      31.071  22.888  24.511  1.00  0.00    -0.274 OA
BRANCH  14  16
ATOM     16  C   UNL A   1      31.889  24.365  22.865  1.00  0.00     0.120 C 
ATOM     17  C   UNL A   1      33.274  24.725  22.307  1.00  0.00     0.093 C 
ATOM     18  C   UNL A   1      31.072  25.613  23.055  1.00  0.00    -0.021 A 
ATOM     19  S   UNL A   1      33.305  26.511  21.949  1.00  0.00    -0.125 SA
ATOM     20  C   UNL A   1      31.725  26.791  22.692  1.00  0.00     0.011 A 
ATOM     21  C   UNL A   1      29.794  25.652  23.609  1.00  0.00     0.006 A 
ATOM     22  C   UNL A   1      31.174  28.025  22.995  1.00  0.00     0.015 A 
ATOM     23  C   UNL A   1      29.220  26.891  23.887  1.00  0.00     0.000 A 
ATOM     24  C   UNL A   1      29.921  28.072  23.609  1.00  0.00     0.001 A 
ENDBRANCH  14  16
ENDBRANCH  12  14
ENDBRANCH   6   8
ENDBRANCH   5   6
ENDBRANCH   4   5
ENDBRANCH   3   4
ENDBRANCH   2   3
ENDBRANCH   1   2
BRANCH   1  25
ATOM     25  C   UNL A   1      34.745  31.907  28.112  1.00  0.00     0.188 C 
BRANCH  25  26
ATOM     26  O   UNL A   1      34.482  33.216  27.678  1.00  0.00    -0.376 OA
BRANCH  26  27
ATOM     27  C   UNL A   1      33.274  33.835  28.080  1.00  0.00     0.202 C 
BRANCH  27  28
ATOM     28  C   UNL A   1      33.286  35.050  29.027  1.00  0.00     0.261 C 
BRANCH  28  29
ATOM     29  O   UNL A   1      32.467  34.981  30.208  1.00  0.00    -0.460 OA
BRANCH  29  30
ATOM     30  C   UNL A   1      32.879  35.659  31.303  1.00  0.00     0.338 C 
ATOM     31  O   UNL A   1      32.316  36.605  31.836  1.00  0.00    -0.246 OA
BRANCH  30  32
ATOM     32  C   UNL A   1      34.005  34.904  31.908  1.00  0.00     0.060 A 
ATOM     33  C   UNL A   1      35.263  35.518  32.011  1.00  0.00     0.016 A 
ATOM     34  C   UNL A   1      33.816  33.610  32.395  1.00  0.00     0.016 A 
ATOM     35  C   UNL A   1      36.341  34.830  32.578  1.00  0.00     0.010 A 
ATOM     36  C   UNL A   1      34.903  32.912  32.936  1.00  0.00     0.010 A 
ATOM     37  C   UNL A   1      36.177  33.506  33.004  1.00  0.00    -0.014 A 
BRANCH  37  38
ATOM     38  C   UNL A   1      37.362  32.669  33.329  1.00  0.00     0.031 A 
ATOM     39  C   UNL A   1      38.090  32.940  34.618  1.00  0.00     0.074 A 
ATOM     40  C   UNL A   1      37.794  31.694  32.509  1.00  0.00     0.049 A 
ATOM     41  N   UNL A   1      39.205  32.427  35.073  1.00  0.00    -0.248 NA
ATOM     42  C   UNL A   1      37.476  33.934  35.512  1.00  0.00     0.031 C 
ATOM     43  C   UNL A   1      37.154  31.292  31.260  1.00  0.00     0.029 A 
ATOM     44  N   UNL A   1      38.894  30.875  32.605  1.00  0.00    -0.354 N 
ATOM     45  C   UNL A   1      39.432  33.045  36.296  1.00  0.00     0.074 A 
ATOM     46  C   UNL A   1      38.356  33.991  36.499  1.00  0.00     0.031 C 
ATOM     47  C   UNL A   1      37.886  30.316  30.692  1.00  0.00     0.029 A 
ATOM     48  C   UNL A   1      39.065  30.054  31.517  1.00  0.00     0.049 A 
ATOM     49  H   UNL A   1      39.501  30.876  33.380  1.00  0.00     0.167 HD
ATOM     50  C   UNL A   1      40.443  32.840  37.173  1.00  0.00     0.037 A 
ATOM     51  C   UNL A   1      40.074  29.213  31.210  1.00  0.00     0.037 A 
ATOM     52  C   UNL A   1      41.516  31.902  36.970  1.00  0.00     0.049 A 
ATOM     53  C   UNL A   1      41.238  29.067  32.163  1.00  0.00     0.074 A 
ATOM     54  C   UNL A   1      42.578  31.613  37.808  1.00  0.00     0.029 A 
ATOM     55  N   UNL A   1      41.668  31.109  35.842  1.00  0.00    -0.354 N 
ATOM     56  N   UNL A   1      41.437  29.639  33.326  1.00  0.00    -0.248 NA
ATOM     57  C   UNL A   1      42.318  28.155  31.756  1.00  0.00     0.031 C 
ATOM     58  C   UNL A   1      43.408  30.692  37.161  1.00  0.00     0.029 A 
ATOM     59  C   UNL A   1      42.824  30.352  35.951  1.00  0.00     0.049 A 
ATOM     60  H   UNL A   1      41.047  31.087  35.078  1.00  0.00     0.167 HD
ATOM     61  C   UNL A   1      42.640  29.130  33.804  1.00  0.00     0.074 A 
ATOM     62  C   UNL A   1      43.120  28.194  32.810  1.00  0.00     0.031 C 
ATOM     63  C   UNL A   1      43.288  29.411  34.962  1.00  0.00     0.037 A 
BRANCH  50  64
ATOM     64  C   UNL A   1      40.456  33.672  38.424  1.00  0.00     0.064 A 
ATOM     65  C   UNL A   1      39.704  33.323  39.555  1.00  0.00     0.173 A 
ATOM     66  C   UNL A   1      41.259  34.821  38.501  1.00  0.00     0.173 A 
ATOM     67  F   UNL A   1      38.908  32.242  39.529  1.00  0.00    -0.203 F 
ATOM     68  C   UNL A   1      39.733  34.107  40.706  1.00  0.00     0.198 A 
ATOM     69  C   UNL A   1      41.313  35.583  39.665  1.00  0.00     0.198 A 
ATOM     70  F   UNL A   1      42.002  35.200  37.449  1.00  0.00    -0.203 F 
ATOM     71  F   UNL A   1      38.965  33.781  41.755  1.00  0.00    -0.200 F 
ATOM     72  C   UNL A   1      40.544  35.230  40.763  1.00  0.00     0.200 A 
ATOM     73  F   UNL A   1      42.109  36.659  39.723  1.00  0.00    -0.200 F 
ATOM     74  F   UNL A   1      40.579  35.977  41.875  1.00  0.00    -0.200 F 
ENDBRANCH  50  64
BRANCH  51  75
ATOM     75  C   UNL A   1      40.052  28.452  29.931  1.00  0.00     0.064 A 
ATOM     76  C   UNL A   1      39.432  27.197  29.846  1.00  0.00     0.173 A 
ATOM     77  C   UNL A   1      40.685  28.943  28.779  1.00  0.00     0.173 A 
ATOM     78  F   UNL A   1      38.840  26.669  30.927  1.00  0.00    -0.203 F 
ATOM     79  C   UNL A   1      39.466  26.454  28.668  1.00  0.00     0.198 A 
ATOM     80  C   UNL A   1      40.689  28.212  27.592  1.00  0.00     0.198 A 
ATOM     81  F   UNL A   1      41.303  30.132  28.807  1.00  0.00    -0.203 F 
ATOM     82  F   UNL A   1      38.916  25.232  28.633  1.00  0.00    -0.200 F 
ATOM     83  C   UNL A   1      40.089  26.965  27.539  1.00  0.00     0.200 A 
ATOM     84  F   UNL A   1      41.286  28.715  26.501  1.00  0.00    -0.200 F 
ATOM     85  F   UNL A   1      40.122  26.249  26.407  1.00  0.00    -0.200 F 
ENDBRANCH  51  75
BRANCH  63  86
ATOM     86  C   UNL A   1      44.558  28.661  35.253  1.00  0.00     0.064 A 
ATOM     87  C   UNL A   1      45.817  29.165  34.894  1.00  0.00     0.173 A 
ATOM     88  C   UNL A   1      44.517  27.442  35.948  1.00  0.00     0.173 A 
ATOM     89  F   UNL A   1      45.916  30.320  34.220  1.00  0.00    -0.203 F 
ATOM     90  C   UNL A   1      46.983  28.460  35.191  1.00  0.00     0.198 A 
ATOM     91  C   UNL A   1      45.685  26.758  36.275  1.00  0.00     0.198 A 
ATOM     92  F   UNL A   1      43.340  26.918  36.325  1.00  0.00    -0.203 F 
ATOM     93  F   UNL A   1      48.170  28.935  34.791  1.00  0.00    -0.200 F 
ATOM     94  C   UNL A   1      46.916  27.263  35.888  1.00  0.00     0.200 A 
ATOM     95  F   UNL A   1      45.618  25.612  36.966  1.00  0.00    -0.200 F 
ATOM     96  F   UNL A   1      48.039  26.593  36.183  1.00  0.00    -0.200 F 
ENDBRANCH  63  86
ENDBRANCH  37  38
ENDBRANCH  30  32
ENDBRANCH  29  30
ENDBRANCH  28  29
ENDBRANCH  27  28
ENDBRANCH  26  27
ENDBRANCH  25  26
ENDBRANCH   1  25
TORSDOF 19
ENDMDL
