MODEL 1
REMARK VINA RESULT:     -11.8      0.000      0.000
REMARK SMILES O=C(OCCOCCOCCOC(=O)c1ccc(N2C(=O)N=C(O)/C(=C\c3cccs3)C2=O)cc1)c1ccc(-c2c3nc(c(-c4c(F)c(F)c(F)c(F)c4F)c4ccc([nH]4)c(-c4c(F)c(F)c(F)c(F)c4F)c4nc(c(-c5c(F)c(F)c(F)c(F)c5F)c5ccc2[nH]5)C=C4)C=C3)cc1
REMARK SMILES IDX 7 1 6 2 5 3 4 4 3 5 2 6 1 7 36 8 37 9 98 10 38 11 97 12
REMARK SMILES IDX 39 13 40 14 41 15 91 16 42 17 96 18 90 19 92 20 43 21 95 22
REMARK SMILES IDX 89 23 88 24 44 26 76 27 56 28 75 29 57 30 60 31 74 32 93 33
REMARK SMILES IDX 58 34 59 35 73 37 94 38 61 39 45 40 46 41 54 42 47 43 48 44
REMARK SMILES IDX 52 45 55 46 49 47 50 48 53 49 51 50 77 51 78 52 86 53 79 54
REMARK SMILES IDX 80 55 84 56 87 57 81 58 82 59 85 60 83 61 62 62 63 63 71 64
REMARK SMILES IDX 64 65 65 66 69 67 72 68 66 69 67 70 70 71 68 72 8 73 9 74
REMARK SMILES IDX 10 75 11 76 12 77 13 78 14 79 15 80 16 81 35 82 17 83 34 84
REMARK SMILES IDX 18 85 19 86 20 87 32 88 21 89 22 90 25 91 33 92 23 93 26 94
REMARK SMILES IDX 24 95 27 97 28 98 31 99 29 100 30 101
REMARK H PARENT 92 25 60 36 24 96
REMARK Flexibility Score: inf
ROOT
ATOM      1  C   UNL A   1      34.598  32.436  28.691  1.00  0.00     0.188 C 
ENDROOT
BRANCH   1   2
ATOM      2  O   UNL A   1      34.072  33.516  29.459  1.00  0.00    -0.376 OA
BRANCH   2   3
ATOM      3  C   UNL A   1      33.898  34.750  28.754  1.00  0.00     0.202 C 
BRANCH   3   4
ATOM      4  C   UNL A   1      32.962  35.807  29.383  1.00  0.00     0.261 C 
BRANCH   4   5
ATOM      5  O   UNL A   1      32.328  35.415  30.620  1.00  0.00    -0.460 OA
BRANCH   5   6
ATOM      6  C   UNL A   1      32.742  35.627  31.898  1.00  0.00     0.338 C 
ATOM      7  O   UNL A   1      32.101  36.375  32.630  1.00  0.00    -0.246 OA
BRANCH   6   8
ATOM      8  C   UNL A   1      33.964  34.981  32.444  1.00  0.00     0.060 A 
ATOM      9  C   UNL A   1      35.201  35.603  32.430  1.00  0.00     0.016 A 
ATOM     10  C   UNL A   1      33.872  33.725  33.059  1.00  0.00     0.016 A 
ATOM     11  C   UNL A   1      36.353  34.946  32.783  1.00  0.00     0.010 A 
ATOM     12  C   UNL A   1      35.023  33.098  33.560  1.00  0.00     0.010 A 
ATOM     13  C   UNL A   1      36.278  33.691  33.369  1.00  0.00    -0.014 A 
BRANCH  13  14
ATOM     14  C   UNL A   1      37.564  33.029  33.644  1.00  0.00     0.031 A 
ATOM     15  C   UNL A   1      38.198  33.238  34.984  1.00  0.00     0.074 A 
ATOM     16  C   UNL A   1      38.004  32.082  32.791  1.00  0.00     0.049 A 
ATOM     17  N   UNL A   1      39.300  32.730  35.465  1.00  0.00    -0.248 NA
ATOM     18  C   UNL A   1      37.484  34.121  35.923  1.00  0.00     0.031 C 
ATOM     19  C   UNL A   1      37.350  31.716  31.528  1.00  0.00     0.029 A 
ATOM     20  N   UNL A   1      39.054  31.209  32.881  1.00  0.00    -0.354 N 
ATOM     21  C   UNL A   1      39.423  33.254  36.745  1.00  0.00     0.074 A 
ATOM     22  C   UNL A   1      38.297  34.128  36.967  1.00  0.00     0.031 C 
ATOM     23  C   UNL A   1      37.981  30.660  30.995  1.00  0.00     0.029 A 
ATOM     24  C   UNL A   1      39.147  30.354  31.809  1.00  0.00     0.049 A 
ATOM     25  H   UNL A   1      39.681  31.194  33.640  1.00  0.00     0.167 HD
ATOM     26  C   UNL A   1      40.401  33.015  37.648  1.00  0.00     0.037 A 
ATOM     27  C   UNL A   1      40.104  29.461  31.500  1.00  0.00     0.037 A 
ATOM     28  C   UNL A   1      41.507  32.135  37.389  1.00  0.00     0.049 A 
ATOM     29  C   UNL A   1      41.243  29.311  32.470  1.00  0.00     0.074 A 
ATOM     30  C   UNL A   1      42.612  31.875  38.175  1.00  0.00     0.029 A 
ATOM     31  N   UNL A   1      41.637  31.363  36.240  1.00  0.00    -0.354 N 
ATOM     32  N   UNL A   1      41.412  29.879  33.641  1.00  0.00    -0.248 NA
ATOM     33  C   UNL A   1      42.330  28.409  32.076  1.00  0.00     0.031 C 
ATOM     34  C   UNL A   1      43.435  30.983  37.481  1.00  0.00     0.029 A 
ATOM     35  C   UNL A   1      42.814  30.636  36.290  1.00  0.00     0.049 A 
ATOM     36  H   UNL A   1      40.989  31.338  35.500  1.00  0.00     0.167 HD
ATOM     37  C   UNL A   1      42.615  29.399  34.131  1.00  0.00     0.074 A 
ATOM     38  C   UNL A   1      43.113  28.459  33.144  1.00  0.00     0.031 C 
ATOM     39  C   UNL A   1      43.265  29.709  35.281  1.00  0.00     0.037 A 
BRANCH  26  40
ATOM     40  C   UNL A   1      40.338  33.768  38.943  1.00  0.00     0.064 A 
ATOM     41  C   UNL A   1      39.585  33.309  40.035  1.00  0.00     0.173 A 
ATOM     42  C   UNL A   1      41.023  34.983  39.084  1.00  0.00     0.173 A 
ATOM     43  F   UNL A   1      38.882  32.170  39.942  1.00  0.00    -0.203 F 
ATOM     44  C   UNL A   1      39.504  34.052  41.211  1.00  0.00     0.198 A 
ATOM     45  C   UNL A   1      40.963  35.709  40.271  1.00  0.00     0.198 A 
ATOM     46  F   UNL A   1      41.747  35.474  38.066  1.00  0.00    -0.203 F 
ATOM     47  F   UNL A   1      38.733  33.623  42.221  1.00  0.00    -0.200 F 
ATOM     48  C   UNL A   1      40.198  35.246  41.331  1.00  0.00     0.200 A 
ATOM     49  F   UNL A   1      41.637  36.861  40.385  1.00  0.00    -0.200 F 
ATOM     50  F   UNL A   1      40.118  35.960  42.463  1.00  0.00    -0.200 F 
ENDBRANCH  26  40
BRANCH  27  51
ATOM     51  C   UNL A   1      40.075  28.734  30.199  1.00  0.00     0.064 A 
ATOM     52  C   UNL A   1      39.439  27.493  30.061  1.00  0.00     0.173 A 
ATOM     53  C   UNL A   1      40.730  29.251  29.067  1.00  0.00     0.173 A 
ATOM     54  F   UNL A   1      38.807  26.943  31.109  1.00  0.00    -0.203 F 
ATOM     55  C   UNL A   1      39.493  26.782  28.862  1.00  0.00     0.198 A 
ATOM     56  C   UNL A   1      40.748  28.560  27.858  1.00  0.00     0.198 A 
ATOM     57  F   UNL A   1      41.353  30.437  29.126  1.00  0.00    -0.203 F 
ATOM     58  F   UNL A   1      38.937  25.566  28.781  1.00  0.00    -0.200 F 
ATOM     59  C   UNL A   1      40.145  27.317  27.761  1.00  0.00     0.200 A 
ATOM     60  F   UNL A   1      41.359  29.098  26.793  1.00  0.00    -0.200 F 
ATOM     61  F   UNL A   1      40.204  26.630  26.612  1.00  0.00    -0.200 F 
ENDBRANCH  27  51
BRANCH  39  62
ATOM     62  C   UNL A   1      44.558  28.994  35.531  1.00  0.00     0.064 A 
ATOM     63  C   UNL A   1      45.784  29.518  35.098  1.00  0.00     0.173 A 
ATOM     64  C   UNL A   1      44.567  27.777  36.228  1.00  0.00     0.173 A 
ATOM     65  F   UNL A   1      45.823  30.670  34.412  1.00  0.00    -0.203 F 
ATOM     66  C   UNL A   1      46.971  28.825  35.317  1.00  0.00     0.198 A 
ATOM     67  C   UNL A   1      45.759  27.108  36.481  1.00  0.00     0.198 A 
ATOM     68  F   UNL A   1      43.419  27.240  36.670  1.00  0.00    -0.203 F 
ATOM     69  F   UNL A   1      48.123  29.308  34.833  1.00  0.00    -0.200 F 
ATOM     70  C   UNL A   1      46.959  27.626  36.015  1.00  0.00     0.200 A 
ATOM     71  F   UNL A   1      45.748  25.959  37.170  1.00  0.00    -0.200 F 
ATOM     72  F   UNL A   1      48.103  26.963  36.227  1.00  0.00    -0.200 F 
ENDBRANCH  39  62
ENDBRANCH  13  14
ENDBRANCH   6   8
ENDBRANCH   5   6
ENDBRANCH   4   5
ENDBRANCH   3   4
ENDBRANCH   2   3
ENDBRANCH   1   2
BRANCH   1  73
ATOM     73  C   UNL A   1      33.600  31.893  27.668  1.00  0.00     0.188 C 
BRANCH  73  74
ATOM     74  O   UNL A   1      33.637  30.491  27.427  1.00  0.00    -0.376 OA
BRANCH  74  75
ATOM     75  C   UNL A   1      32.413  29.866  27.058  1.00  0.00     0.202 C 
BRANCH  75  76
ATOM     76  C   UNL A   1      31.852  30.136  25.650  1.00  0.00     0.261 C 
BRANCH  76  77
ATOM     77  O   UNL A   1      32.334  29.291  24.585  1.00  0.00    -0.460 OA
BRANCH  77  78
ATOM     78  C   UNL A   1      31.793  28.051  24.580  1.00  0.00     0.338 C 
ATOM     79  O   UNL A   1      30.607  27.764  24.518  1.00  0.00    -0.246 OA
BRANCH  78  80
ATOM     80  C   UNL A   1      32.809  26.997  24.751  1.00  0.00     0.060 A 
ATOM     81  C   UNL A   1      33.494  26.464  23.655  1.00  0.00     0.018 A 
ATOM     82  C   UNL A   1      32.829  26.340  25.981  1.00  0.00     0.018 A 
ATOM     83  C   UNL A   1      34.143  25.225  23.776  1.00  0.00     0.028 A 
ATOM     84  C   UNL A   1      33.453  25.097  26.090  1.00  0.00     0.028 A 
ATOM     85  C   UNL A   1      34.068  24.499  24.977  1.00  0.00     0.054 A 
BRANCH  85  86
ATOM     86  N   UNL A   1      34.461  23.116  25.034  1.00  0.00    -0.226 N 
ATOM     87  C   UNL A   1      35.713  22.783  25.572  1.00  0.00     0.358 C 
ATOM     88  C   UNL A   1      33.584  22.183  24.480  1.00  0.00     0.272 C 
ATOM     89  O   UNL A   1      36.447  23.631  26.070  1.00  0.00    -0.245 OA
ATOM     90  N   UNL A   1      36.118  21.476  25.557  1.00  0.00    -0.156 NA
ATOM     91  C   UNL A   1      34.013  20.757  24.564  1.00  0.00     0.104 C 
ATOM     92  O   UNL A   1      32.527  22.471  23.915  1.00  0.00    -0.268 OA
ATOM     93  C   UNL A   1      35.363  20.553  25.096  1.00  0.00     0.228 C 
ATOM     94  C   UNL A   1      33.086  19.868  24.148  1.00  0.00     0.038 C 
BRANCH  93  95
ATOM     95  O   UNL A   1      35.896  19.323  25.065  1.00  0.00    -0.493 OA
ATOM     96  H   UNL A   1      35.365  18.578  25.270  1.00  0.00     0.295 HD
ENDBRANCH  93  95
BRANCH  94  97
ATOM     97  C   UNL A   1      33.191  18.458  24.230  1.00  0.00     0.028 A 
ATOM     98  C   UNL A   1      33.702  17.565  23.306  1.00  0.00     0.020 A 
ATOM     99  S   UNL A   1      32.678  17.643  25.653  1.00  0.00    -0.144 S 
ATOM    100  C   UNL A   1      33.627  16.213  23.748  1.00  0.00     0.012 A 
ATOM    101  C   UNL A   1      33.087  16.114  25.010  1.00  0.00     0.065 A 
ENDBRANCH  94  97
ENDBRANCH  85  86
ENDBRANCH  78  80
ENDBRANCH  77  78
ENDBRANCH  76  77
ENDBRANCH  75  76
ENDBRANCH  74  75
ENDBRANCH  73  74
ENDBRANCH   1  73
TORSDOF 20
ENDMDL
MODEL 2
REMARK VINA RESULT:     -10.8      1.882      3.219
REMARK SMILES O=C(OCCOCCOCCOC(=O)c1ccc(N2C(=O)N=C(O)/C(=C\c3cccs3)C2=O)cc1)c1ccc(-c2c3nc(c(-c4c(F)c(F)c(F)c(F)c4F)c4ccc([nH]4)c(-c4c(F)c(F)c(F)c(F)c4F)c4nc(c(-c5c(F)c(F)c(F)c(F)c5F)c5ccc2[nH]5)C=C4)C=C3)cc1
REMARK SMILES IDX 7 1 6 2 5 3 4 4 3 5 2 6 1 7 36 8 37 9 98 10 38 11 97 12
REMARK SMILES IDX 39 13 40 14 41 15 91 16 42 17 96 18 90 19 92 20 43 21 95 22
REMARK SMILES IDX 89 23 88 24 44 26 76 27 56 28 75 29 57 30 60 31 74 32 93 33
REMARK SMILES IDX 58 34 59 35 73 37 94 38 61 39 45 40 46 41 54 42 47 43 48 44
REMARK SMILES IDX 52 45 55 46 49 47 50 48 53 49 51 50 77 51 78 52 86 53 79 54
REMARK SMILES IDX 80 55 84 56 87 57 81 58 82 59 85 60 83 61 62 62 63 63 71 64
REMARK SMILES IDX 64 65 65 66 69 67 72 68 66 69 67 70 70 71 68 72 8 73 9 74
REMARK SMILES IDX 10 75 11 76 12 77 13 78 14 79 15 80 16 81 35 82 17 83 34 84
REMARK SMILES IDX 18 85 19 86 20 87 32 88 21 89 22 90 25 91 33 92 23 93 26 94
REMARK SMILES IDX 24 95 27 97 28 98 31 99 29 100 30 101
REMARK H PARENT 92 25 60 36 24 96
REMARK Flexibility Score: inf
ROOT
ATOM      1  C   UNL A   1      34.402  32.348  28.352  1.00  0.00     0.188 C 
ENDROOT
BRANCH   1   2
ATOM      2  O   UNL A   1      33.692  33.351  29.075  1.00  0.00    -0.376 OA
BRANCH   2   3
ATOM      3  C   UNL A   1      33.747  34.670  28.521  1.00  0.00     0.202 C 
BRANCH   3   4
ATOM      4  C   UNL A   1      32.918  35.773  29.217  1.00  0.00     0.261 C 
BRANCH   4   5
ATOM      5  O   UNL A   1      32.290  35.386  30.458  1.00  0.00    -0.460 OA
BRANCH   5   6
ATOM      6  C   UNL A   1      32.702  35.618  31.734  1.00  0.00     0.338 C 
ATOM      7  O   UNL A   1      32.064  36.384  32.450  1.00  0.00    -0.246 OA
BRANCH   6   8
ATOM      8  C   UNL A   1      33.918  34.975  32.295  1.00  0.00     0.060 A 
ATOM      9  C   UNL A   1      35.154  35.599  32.295  1.00  0.00     0.016 A 
ATOM     10  C   UNL A   1      33.821  33.720  32.911  1.00  0.00     0.016 A 
ATOM     11  C   UNL A   1      36.303  34.943  32.663  1.00  0.00     0.010 A 
ATOM     12  C   UNL A   1      34.966  33.095  33.426  1.00  0.00     0.010 A 
ATOM     13  C   UNL A   1      36.222  33.689  33.249  1.00  0.00    -0.014 A 
BRANCH  13  14
ATOM     14  C   UNL A   1      37.506  33.029  33.540  1.00  0.00     0.031 A 
ATOM     15  C   UNL A   1      38.129  33.249  34.884  1.00  0.00     0.074 A 
ATOM     16  C   UNL A   1      37.952  32.074  32.700  1.00  0.00     0.049 A 
ATOM     17  N   UNL A   1      39.227  32.745  35.378  1.00  0.00    -0.248 NA
ATOM     18  C   UNL A   1      37.408  34.142  35.809  1.00  0.00     0.031 C 
ATOM     19  C   UNL A   1      37.309  31.697  31.435  1.00  0.00     0.029 A 
ATOM     20  N   UNL A   1      39.001  31.202  32.806  1.00  0.00    -0.354 N 
ATOM     21  C   UNL A   1      39.340  33.281  36.654  1.00  0.00     0.074 A 
ATOM     22  C   UNL A   1      38.213  34.158  36.859  1.00  0.00     0.031 C 
ATOM     23  C   UNL A   1      37.943  30.636  30.916  1.00  0.00     0.029 A 
ATOM     24  C   UNL A   1      39.102  30.337  31.743  1.00  0.00     0.049 A 
ATOM     25  H   UNL A   1      39.622  31.194  33.570  1.00  0.00     0.167 HD
ATOM     26  C   UNL A   1      40.310  33.050  37.567  1.00  0.00     0.037 A 
ATOM     27  C   UNL A   1      40.061  29.441  31.449  1.00  0.00     0.037 A 
ATOM     28  C   UNL A   1      41.419  32.167  37.326  1.00  0.00     0.049 A 
ATOM     29  C   UNL A   1      41.192  29.299  32.429  1.00  0.00     0.074 A 
ATOM     30  C   UNL A   1      42.517  31.913  38.123  1.00  0.00     0.029 A 
ATOM     31  N   UNL A   1      41.557  31.385  36.185  1.00  0.00    -0.354 N 
ATOM     32  N   UNL A   1      41.353  29.878  33.597  1.00  0.00    -0.248 NA
ATOM     33  C   UNL A   1      42.282  28.394  32.053  1.00  0.00     0.031 C 
ATOM     34  C   UNL A   1      43.345  31.015  37.443  1.00  0.00     0.029 A 
ATOM     35  C   UNL A   1      42.733  30.658  36.250  1.00  0.00     0.049 A 
ATOM     36  H   UNL A   1      40.915  31.353  35.439  1.00  0.00     0.167 HD
ATOM     37  C   UNL A   1      42.552  29.402  34.101  1.00  0.00     0.074 A 
ATOM     38  C   UNL A   1      43.056  28.453  33.126  1.00  0.00     0.031 C 
ATOM     39  C   UNL A   1      43.192  29.722  35.253  1.00  0.00     0.037 A 
BRANCH  26  40
ATOM     40  C   UNL A   1      40.237  33.814  38.855  1.00  0.00     0.064 A 
ATOM     41  C   UNL A   1      39.474  33.366  39.945  1.00  0.00     0.173 A 
ATOM     42  C   UNL A   1      40.923  35.030  38.992  1.00  0.00     0.173 A 
ATOM     43  F   UNL A   1      38.771  32.227  39.855  1.00  0.00    -0.203 F 
ATOM     44  C   UNL A   1      39.384  34.119  41.114  1.00  0.00     0.198 A 
ATOM     45  C   UNL A   1      40.854  35.766  40.171  1.00  0.00     0.198 A 
ATOM     46  F   UNL A   1      41.656  35.510  37.976  1.00  0.00    -0.203 F 
ATOM     47  F   UNL A   1      38.603  33.701  42.120  1.00  0.00    -0.200 F 
ATOM     48  C   UNL A   1      40.079  35.314  41.229  1.00  0.00     0.200 A 
ATOM     49  F   UNL A   1      41.528  36.918  40.281  1.00  0.00    -0.200 F 
ATOM     50  F   UNL A   1      39.990  36.037  42.354  1.00  0.00    -0.200 F 
ENDBRANCH  26  40
BRANCH  27  51
ATOM     51  C   UNL A   1      40.043  28.702  30.155  1.00  0.00     0.064 A 
ATOM     52  C   UNL A   1      39.472  27.428  30.041  1.00  0.00     0.173 A 
ATOM     53  C   UNL A   1      40.643  29.244  29.004  1.00  0.00     0.173 A 
ATOM     54  F   UNL A   1      38.894  26.854  31.106  1.00  0.00    -0.203 F 
ATOM     55  C   UNL A   1      39.538  26.710  28.845  1.00  0.00     0.198 A 
ATOM     56  C   UNL A   1      40.672  28.545  27.800  1.00  0.00     0.198 A 
ATOM     57  F   UNL A   1      41.202  30.463  29.040  1.00  0.00    -0.203 F 
ATOM     58  F   UNL A   1      39.047  25.466  28.786  1.00  0.00    -0.200 F 
ATOM     59  C   UNL A   1      40.135  27.271  27.726  1.00  0.00     0.200 A 
ATOM     60  F   UNL A   1      41.228  29.107  26.718  1.00  0.00    -0.200 F 
ATOM     61  F   UNL A   1      40.205  26.578  26.581  1.00  0.00    -0.200 F 
ENDBRANCH  27  51
BRANCH  39  62
ATOM     62  C   UNL A   1      44.483  29.008  35.520  1.00  0.00     0.064 A 
ATOM     63  C   UNL A   1      44.521  27.796  36.223  1.00  0.00     0.173 A 
ATOM     64  C   UNL A   1      45.693  29.541  35.053  1.00  0.00     0.173 A 
ATOM     65  F   UNL A   1      43.391  27.257  36.705  1.00  0.00    -0.203 F 
ATOM     66  C   UNL A   1      45.732  27.163  36.484  1.00  0.00     0.198 A 
ATOM     67  C   UNL A   1      46.897  28.885  35.280  1.00  0.00     0.198 A 
ATOM     68  F   UNL A   1      45.706  30.696  34.368  1.00  0.00    -0.203 F 
ATOM     69  F   UNL A   1      45.753  26.042  37.218  1.00  0.00    -0.200 F 
ATOM     70  C   UNL A   1      46.917  27.703  36.007  1.00  0.00     0.200 A 
ATOM     71  F   UNL A   1      48.038  29.398  34.803  1.00  0.00    -0.200 F 
ATOM     72  F   UNL A   1      48.082  27.090  36.257  1.00  0.00    -0.200 F 
ENDBRANCH  39  62
ENDBRANCH  13  14
ENDBRANCH   6   8
ENDBRANCH   5   6
ENDBRANCH   4   5
ENDBRANCH   3   4
ENDBRANCH   2   3
ENDBRANCH   1   2
BRANCH   1  73
ATOM     73  C   UNL A   1      33.507  31.560  27.395  1.00  0.00     0.188 C 
BRANCH  73  74
ATOM     74  O   UNL A   1      33.599  30.142  27.462  1.00  0.00    -0.376 OA
BRANCH  74  75
ATOM     75  C   UNL A   1      32.391  29.408  27.303  1.00  0.00     0.202 C 
BRANCH  75  76
ATOM     76  C   UNL A   1      32.244  28.505  26.065  1.00  0.00     0.261 C 
BRANCH  76  77
ATOM     77  O   UNL A   1      32.654  27.129  26.213  1.00  0.00    -0.460 OA
BRANCH  77  78
ATOM     78  C   UNL A   1      32.434  26.370  25.114  1.00  0.00     0.338 C 
ATOM     79  O   UNL A   1      31.613  26.569  24.232  1.00  0.00    -0.246 OA
BRANCH  78  80
ATOM     80  C   UNL A   1      33.260  25.149  25.105  1.00  0.00     0.060 A 
ATOM     81  C   UNL A   1      33.419  24.371  26.256  1.00  0.00     0.018 A 
ATOM     82  C   UNL A   1      34.118  24.981  24.018  1.00  0.00     0.018 A 
ATOM     83  C   UNL A   1      34.492  23.469  26.344  1.00  0.00     0.028 A 
ATOM     84  C   UNL A   1      35.197  24.102  24.119  1.00  0.00     0.028 A 
ATOM     85  C   UNL A   1      35.430  23.380  25.301  1.00  0.00     0.054 A 
BRANCH  85  86
ATOM     86  N   UNL A   1      36.683  22.697  25.487  1.00  0.00    -0.226 N 
ATOM     87  C   UNL A   1      36.763  21.326  25.202  1.00  0.00     0.358 C 
ATOM     88  C   UNL A   1      37.740  23.442  26.010  1.00  0.00     0.272 C 
ATOM     89  O   UNL A   1      35.816  20.711  24.723  1.00  0.00    -0.245 OA
ATOM     90  N   UNL A   1      37.933  20.661  25.451  1.00  0.00    -0.156 NA
ATOM     91  C   UNL A   1      39.029  22.711  26.181  1.00  0.00     0.104 C 
ATOM     92  O   UNL A   1      37.656  24.622  26.357  1.00  0.00    -0.268 OA
ATOM     93  C   UNL A   1      38.961  21.274  25.901  1.00  0.00     0.228 C 
ATOM     94  C   UNL A   1      40.068  23.487  26.555  1.00  0.00     0.038 C 
BRANCH  93  95
ATOM     95  O   UNL A   1      40.026  20.506  26.175  1.00  0.00    -0.493 OA
ATOM     96  H   UNL A   1      39.912  19.593  26.349  1.00  0.00     0.295 HD
ENDBRANCH  93  95
BRANCH  94  97
ATOM     97  C   UNL A   1      41.417  23.071  26.674  1.00  0.00     0.028 A 
ATOM     98  C   UNL A   1      42.355  22.857  25.682  1.00  0.00     0.020 A 
ATOM     99  S   UNL A   1      42.095  22.803  28.230  1.00  0.00    -0.144 S 
ATOM    100  C   UNL A   1      43.612  22.430  26.197  1.00  0.00     0.012 A 
ATOM    101  C   UNL A   1      43.607  22.357  27.571  1.00  0.00     0.065 A 
ENDBRANCH  94  97
ENDBRANCH  85  86
ENDBRANCH  78  80
ENDBRANCH  77  78
ENDBRANCH  76  77
ENDBRANCH  75  76
ENDBRANCH  74  75
ENDBRANCH  73  74
ENDBRANCH   1  73
TORSDOF 20
ENDMDL
MODEL 3
REMARK VINA RESULT:     -10.7      1.963      7.715
REMARK SMILES O=C(OCCOCCOCCOC(=O)c1ccc(N2C(=O)N=C(O)/C(=C\c3cccs3)C2=O)cc1)c1ccc(-c2c3nc(c(-c4c(F)c(F)c(F)c(F)c4F)c4ccc([nH]4)c(-c4c(F)c(F)c(F)c(F)c4F)c4nc(c(-c5c(F)c(F)c(F)c(F)c5F)c5ccc2[nH]5)C=C4)C=C3)cc1
REMARK SMILES IDX 7 1 6 2 5 3 4 4 3 5 2 6 1 7 36 8 37 9 98 10 38 11 97 12
REMARK SMILES IDX 39 13 40 14 41 15 91 16 42 17 96 18 90 19 92 20 43 21 95 22
REMARK SMILES IDX 89 23 88 24 44 26 76 27 56 28 75 29 57 30 60 31 74 32 93 33
REMARK SMILES IDX 58 34 59 35 73 37 94 38 61 39 45 40 46 41 54 42 47 43 48 44
REMARK SMILES IDX 52 45 55 46 49 47 50 48 53 49 51 50 77 51 78 52 86 53 79 54
REMARK SMILES IDX 80 55 84 56 87 57 81 58 82 59 85 60 83 61 62 62 63 63 71 64
REMARK SMILES IDX 64 65 65 66 69 67 72 68 66 69 67 70 70 71 68 72 8 73 9 74
REMARK SMILES IDX 10 75 11 76 12 77 13 78 14 79 15 80 16 81 35 82 17 83 34 84
REMARK SMILES IDX 18 85 19 86 20 87 32 88 21 89 22 90 25 91 33 92 23 93 26 94
REMARK SMILES IDX 24 95 27 97 28 98 31 99 29 100 30 101
REMARK H PARENT 92 25 60 36 24 96
REMARK Flexibility Score: inf
ROOT
ATOM      1  C   UNL A   1      34.538  32.018  28.076  1.00  0.00     0.188 C 
ENDROOT
BRANCH   1   2
ATOM      2  O   UNL A   1      34.338  33.167  28.896  1.00  0.00    -0.376 OA
BRANCH   2   3
ATOM      3  C   UNL A   1      34.106  34.394  28.197  1.00  0.00     0.202 C 
BRANCH   3   4
ATOM      4  C   UNL A   1      33.174  35.431  28.864  1.00  0.00     0.261 C 
BRANCH   4   5
ATOM      5  O   UNL A   1      32.612  35.034  30.133  1.00  0.00    -0.460 OA
BRANCH   5   6
ATOM      6  C   UNL A   1      32.973  35.421  31.387  1.00  0.00     0.338 C 
ATOM      7  O   UNL A   1      32.365  36.331  31.941  1.00  0.00    -0.246 OA
BRANCH   6   8
ATOM      8  C   UNL A   1      34.097  34.775  32.114  1.00  0.00     0.060 A 
ATOM      9  C   UNL A   1      35.394  35.257  32.051  1.00  0.00     0.016 A 
ATOM     10  C   UNL A   1      33.847  33.680  32.952  1.00  0.00     0.016 A 
ATOM     11  C   UNL A   1      36.454  34.570  32.588  1.00  0.00     0.010 A 
ATOM     12  C   UNL A   1      34.904  33.052  33.627  1.00  0.00     0.010 A 
ATOM     13  C   UNL A   1      36.221  33.468  33.397  1.00  0.00    -0.014 A 
BRANCH  13  14
ATOM     14  C   UNL A   1      37.418  32.747  33.866  1.00  0.00     0.031 A 
ATOM     15  C   UNL A   1      38.070  31.774  32.934  1.00  0.00     0.074 A 
ATOM     16  C   UNL A   1      38.019  33.154  35.001  1.00  0.00     0.049 A 
ATOM     17  N   UNL A   1      39.147  31.058  33.109  1.00  0.00    -0.248 NA
ATOM     18  C   UNL A   1      37.438  31.595  31.615  1.00  0.00     0.031 C 
ATOM     19  C   UNL A   1      37.517  34.210  35.890  1.00  0.00     0.029 A 
ATOM     20  N   UNL A   1      39.208  32.786  35.570  1.00  0.00    -0.354 N 
ATOM     21  C   UNL A   1      39.303  30.328  31.938  1.00  0.00     0.074 A 
ATOM     22  C   UNL A   1      38.208  30.671  31.063  1.00  0.00     0.031 C 
ATOM     23  C   UNL A   1      38.418  34.441  36.855  1.00  0.00     0.029 A 
ATOM     24  C   UNL A   1      39.497  33.474  36.725  1.00  0.00     0.049 A 
ATOM     25  H   UNL A   1      39.799  32.097  35.190  1.00  0.00     0.167 HD
ATOM     26  C   UNL A   1      40.283  29.448  31.634  1.00  0.00     0.037 A 
ATOM     27  C   UNL A   1      40.498  33.297  37.605  1.00  0.00     0.037 A 
ATOM     28  C   UNL A   1      41.359  29.133  32.533  1.00  0.00     0.049 A 
ATOM     29  C   UNL A   1      41.504  32.223  37.295  1.00  0.00     0.074 A 
ATOM     30  C   UNL A   1      42.364  28.196  32.391  1.00  0.00     0.029 A 
ATOM     31  N   UNL A   1      41.566  29.766  33.753  1.00  0.00    -0.354 N 
ATOM     32  N   UNL A   1      41.599  31.461  36.230  1.00  0.00    -0.248 NA
ATOM     33  C   UNL A   1      42.534  31.972  38.308  1.00  0.00     0.031 C 
ATOM     34  C   UNL A   1      43.149  28.228  33.547  1.00  0.00     0.029 A 
ATOM     35  C   UNL A   1      42.675  29.229  34.383  1.00  0.00     0.049 A 
ATOM     36  H   UNL A   1      41.005  30.489  34.117  1.00  0.00     0.167 HD
ATOM     37  C   UNL A   1      42.701  30.648  36.436  1.00  0.00     0.074 A 
ATOM     38  C   UNL A   1      43.266  31.041  37.713  1.00  0.00     0.031 C 
ATOM     39  C   UNL A   1      43.200  29.657  35.656  1.00  0.00     0.037 A 
BRANCH  26  40
ATOM     40  C   UNL A   1      40.181  28.734  30.319  1.00  0.00     0.064 A 
ATOM     41  C   UNL A   1      39.505  27.511  30.187  1.00  0.00     0.173 A 
ATOM     42  C   UNL A   1      40.794  29.271  29.177  1.00  0.00     0.173 A 
ATOM     43  F   UNL A   1      38.931  26.936  31.255  1.00  0.00    -0.203 F 
ATOM     44  C   UNL A   1      39.466  26.844  28.964  1.00  0.00     0.198 A 
ATOM     45  C   UNL A   1      40.728  28.615  27.951  1.00  0.00     0.198 A 
ATOM     46  F   UNL A   1      41.464  30.430  29.252  1.00  0.00    -0.203 F 
ATOM     47  F   UNL A   1      38.863  25.649  28.874  1.00  0.00    -0.200 F 
ATOM     48  C   UNL A   1      40.071  27.398  27.847  1.00  0.00     0.200 A 
ATOM     49  F   UNL A   1      41.311  29.154  26.872  1.00  0.00    -0.200 F 
ATOM     50  F   UNL A   1      40.033  26.754  26.672  1.00  0.00    -0.200 F 
ENDBRANCH  26  40
BRANCH  27  51
ATOM     51  C   UNL A   1      40.539  34.071  38.878  1.00  0.00     0.064 A 
ATOM     52  C   UNL A   1      41.282  35.252  39.000  1.00  0.00     0.173 A 
ATOM     53  C   UNL A   1      39.863  33.614  40.024  1.00  0.00     0.173 A 
ATOM     54  F   UNL A   1      41.958  35.732  37.946  1.00  0.00    -0.203 F 
ATOM     55  C   UNL A   1      41.382  35.921  40.222  1.00  0.00     0.198 A 
ATOM     56  C   UNL A   1      39.929  34.304  41.231  1.00  0.00     0.198 A 
ATOM     57  F   UNL A   1      39.126  32.494  39.975  1.00  0.00    -0.203 F 
ATOM     58  F   UNL A   1      42.158  37.007  40.326  1.00  0.00    -0.200 F 
ATOM     59  C   UNL A   1      40.703  35.448  41.335  1.00  0.00     0.200 A 
ATOM     60  F   UNL A   1      39.248  33.853  42.294  1.00  0.00    -0.200 F 
ATOM     61  F   UNL A   1      40.806  36.085  42.509  1.00  0.00    -0.200 F 
ENDBRANCH  27  51
BRANCH  39  62
ATOM     62  C   UNL A   1      44.432  28.967  36.160  1.00  0.00     0.064 A 
ATOM     63  C   UNL A   1      45.712  29.496  35.944  1.00  0.00     0.173 A 
ATOM     64  C   UNL A   1      44.325  27.769  36.881  1.00  0.00     0.173 A 
ATOM     65  F   UNL A   1      45.865  30.631  35.244  1.00  0.00    -0.203 F 
ATOM     66  C   UNL A   1      46.845  28.827  36.396  1.00  0.00     0.198 A 
ATOM     67  C   UNL A   1      45.456  27.124  37.367  1.00  0.00     0.198 A 
ATOM     68  F   UNL A   1      43.120  27.227  37.120  1.00  0.00    -0.203 F 
ATOM     69  F   UNL A   1      48.062  29.313  36.116  1.00  0.00    -0.200 F 
ATOM     70  C   UNL A   1      46.716  27.647  37.113  1.00  0.00     0.200 A 
ATOM     71  F   UNL A   1      45.329  25.994  38.075  1.00  0.00    -0.200 F 
ATOM     72  F   UNL A   1      47.808  27.006  37.550  1.00  0.00    -0.200 F 
ENDBRANCH  39  62
ENDBRANCH  13  14
ENDBRANCH   6   8
ENDBRANCH   5   6
ENDBRANCH   4   5
ENDBRANCH   3   4
ENDBRANCH   2   3
ENDBRANCH   1   2
BRANCH   1  73
ATOM     73  C   UNL A   1      33.230  31.432  27.545  1.00  0.00     0.188 C 
BRANCH  73  74
ATOM     74  O   UNL A   1      33.319  30.176  26.883  1.00  0.00    -0.376 OA
BRANCH  74  75
ATOM     75  C   UNL A   1      32.447  29.145  27.332  1.00  0.00     0.202 C 
BRANCH  75  76
ATOM     76  C   UNL A   1      31.994  28.079  26.318  1.00  0.00     0.261 C 
BRANCH  76  77
ATOM     77  O   UNL A   1      32.699  26.821  26.340  1.00  0.00    -0.460 OA
BRANCH  77  78
ATOM     78  C   UNL A   1      32.543  26.084  25.215  1.00  0.00     0.338 C 
ATOM     79  O   UNL A   1      31.737  26.270  24.317  1.00  0.00    -0.246 OA
BRANCH  78  80
ATOM     80  C   UNL A   1      33.427  24.905  25.193  1.00  0.00     0.060 A 
ATOM     81  C   UNL A   1      33.614  24.116  26.332  1.00  0.00     0.018 A 
ATOM     82  C   UNL A   1      34.302  24.797  24.112  1.00  0.00     0.018 A 
ATOM     83  C   UNL A   1      34.728  23.265  26.415  1.00  0.00     0.028 A 
ATOM     84  C   UNL A   1      35.421  23.970  24.209  1.00  0.00     0.028 A 
ATOM     85  C   UNL A   1      35.678  23.239  25.380  1.00  0.00     0.054 A 
BRANCH  85  86
ATOM     86  N   UNL A   1      36.960  22.614  25.566  1.00  0.00    -0.226 N 
ATOM     87  C   UNL A   1      37.129  21.274  25.188  1.00  0.00     0.358 C 
ATOM     88  C   UNL A   1      37.954  23.375  26.184  1.00  0.00     0.272 C 
ATOM     89  O   UNL A   1      36.238  20.645  24.628  1.00  0.00    -0.245 OA
ATOM     90  N   UNL A   1      38.327  20.658  25.435  1.00  0.00    -0.156 NA
ATOM     91  C   UNL A   1      39.275  22.705  26.353  1.00  0.00     0.104 C 
ATOM     92  O   UNL A   1      37.790  24.520  26.611  1.00  0.00    -0.268 OA
ATOM     93  C   UNL A   1      39.300  21.292  25.969  1.00  0.00     0.228 C 
ATOM     94  C   UNL A   1      40.254  23.508  26.824  1.00  0.00     0.038 C 
BRANCH  93  95
ATOM     95  O   UNL A   1      40.397  20.565  26.230  1.00  0.00    -0.493 OA
ATOM     96  H   UNL A   1      40.330  19.636  26.333  1.00  0.00     0.295 HD
ENDBRANCH  93  95
BRANCH  94  97
ATOM     97  C   UNL A   1      41.620  23.158  26.966  1.00  0.00     0.028 A 
ATOM     98  C   UNL A   1      42.331  22.869  28.116  1.00  0.00     0.020 A 
ATOM     99  S   UNL A   1      42.613  23.003  25.573  1.00  0.00    -0.144 S 
ATOM    100  C   UNL A   1      43.699  22.568  27.855  1.00  0.00     0.012 A 
ATOM    101  C   UNL A   1      43.986  22.609  26.510  1.00  0.00     0.065 A 
ENDBRANCH  94  97
ENDBRANCH  85  86
ENDBRANCH  78  80
ENDBRANCH  77  78
ENDBRANCH  76  77
ENDBRANCH  75  76
ENDBRANCH  74  75
ENDBRANCH  73  74
ENDBRANCH   1  73
TORSDOF 20
ENDMDL
