MODEL 1
REMARK VINA RESULT:     -11.3      0.000      0.000
REMARK SMILES O=C(OCCOCCOCCOC(=O)c1oc2cccc3c2c1CCC3)c1ccc(-c2c3nc(c(-c4c(F)c(F)c(F)c(F)c4F)c4ccc([nH]4)c(-c4c(F)c(F)c(F)c(F)c4F)c4nc(c(-c5c(F)c(F)c(F)c(F)c5F)c5ccc2[nH]5)C=C4)C=C3)cc1
REMARK SMILES IDX 7 1 6 2 5 3 4 4 3 5 2 6 1 7 27 8 28 9 89 10 29 11 88 12
REMARK SMILES IDX 30 13 31 14 32 15 82 16 33 17 87 18 81 19 83 20 34 21 86 22
REMARK SMILES IDX 80 23 79 24 35 26 67 27 47 28 66 29 48 30 51 31 65 32 84 33
REMARK SMILES IDX 49 34 50 35 64 37 85 38 52 39 36 40 37 41 45 42 38 43 39 44
REMARK SMILES IDX 43 45 46 46 40 47 41 48 44 49 42 50 68 51 69 52 77 53 70 54
REMARK SMILES IDX 71 55 75 56 78 57 72 58 73 59 76 60 74 61 53 62 54 63 62 64
REMARK SMILES IDX 55 65 56 66 60 67 63 68 57 69 58 70 61 71 59 72 8 73 9 74
REMARK SMILES IDX 10 75 11 76 12 77 13 78 14 79 15 80 16 81 23 82 17 83 22 84
REMARK SMILES IDX 24 85 18 86 21 87 25 88 19 89 20 90 26 91
REMARK H PARENT 83 25 51 36
REMARK Flexibility Score: inf
ROOT
ATOM      1  C   UNL A   1      40.462  21.383  27.211  1.00  0.00     0.188 C 
ENDROOT
BRANCH   1   2
ATOM      2  O   UNL A   1      40.787  20.148  26.583  1.00  0.00    -0.376 OA
BRANCH   2   3
ATOM      3  C   UNL A   1      41.921  19.470  27.092  1.00  0.00     0.202 C 
BRANCH   3   4
ATOM      4  C   UNL A   1      42.661  18.648  26.035  1.00  0.00     0.261 C 
BRANCH   4   5
ATOM      5  O   UNL A   1      43.328  19.402  25.003  1.00  0.00    -0.460 OA
BRANCH   5   6
ATOM      6  C   UNL A   1      44.422  20.185  24.976  1.00  0.00     0.338 C 
ATOM      7  O   UNL A   1      45.511  19.673  24.724  1.00  0.00    -0.246 OA
BRANCH   6   8
ATOM      8  C   UNL A   1      44.413  21.624  25.345  1.00  0.00     0.060 A 
ATOM      9  C   UNL A   1      45.273  22.216  26.266  1.00  0.00     0.016 A 
ATOM     10  C   UNL A   1      43.401  22.414  24.760  1.00  0.00     0.016 A 
ATOM     11  C   UNL A   1      45.125  23.553  26.608  1.00  0.00     0.010 A 
ATOM     12  C   UNL A   1      43.220  23.744  25.130  1.00  0.00     0.010 A 
ATOM     13  C   UNL A   1      44.067  24.298  26.083  1.00  0.00    -0.014 A 
BRANCH  13  14
ATOM     14  C   UNL A   1      43.829  25.593  26.708  1.00  0.00     0.031 A 
ATOM     15  C   UNL A   1      44.832  26.673  26.530  1.00  0.00     0.074 A 
ATOM     16  C   UNL A   1      42.745  25.802  27.477  1.00  0.00     0.049 A 
ATOM     17  N   UNL A   1      45.511  27.292  27.446  1.00  0.00    -0.248 NA
ATOM     18  C   UNL A   1      45.105  27.134  25.164  1.00  0.00     0.031 C 
ATOM     19  C   UNL A   1      41.535  24.982  27.569  1.00  0.00     0.029 A 
ATOM     20  N   UNL A   1      42.479  26.861  28.297  1.00  0.00    -0.354 N 
ATOM     21  C   UNL A   1      46.181  28.326  26.797  1.00  0.00     0.074 A 
ATOM     22  C   UNL A   1      45.947  28.144  25.386  1.00  0.00     0.031 C 
ATOM     23  C   UNL A   1      40.590  25.669  28.248  1.00  0.00     0.029 A 
ATOM     24  C   UNL A   1      41.171  26.907  28.740  1.00  0.00     0.049 A 
ATOM     25  H   UNL A   1      43.157  27.529  28.549  1.00  0.00     0.167 HD
ATOM     26  C   UNL A   1      46.754  29.360  27.472  1.00  0.00     0.037 A 
ATOM     27  C   UNL A   1      40.582  27.924  29.406  1.00  0.00     0.037 A 
ATOM     28  C   UNL A   1      47.040  29.033  28.840  1.00  0.00     0.049 A 
ATOM     29  C   UNL A   1      41.642  28.731  30.058  1.00  0.00     0.074 A 
ATOM     30  C   UNL A   1      47.823  28.084  29.471  1.00  0.00     0.029 A 
ATOM     31  N   UNL A   1      46.288  29.600  29.836  1.00  0.00    -0.354 N 
ATOM     32  N   UNL A   1      42.361  28.337  31.071  1.00  0.00    -0.248 NA
ATOM     33  C   UNL A   1      42.134  29.914  29.367  1.00  0.00     0.031 C 
ATOM     34  C   UNL A   1      47.168  27.814  30.708  1.00  0.00     0.029 A 
ATOM     35  C   UNL A   1      46.022  28.607  30.743  1.00  0.00     0.049 A 
ATOM     36  H   UNL A   1      45.995  30.538  29.889  1.00  0.00     0.167 HD
ATOM     37  C   UNL A   1      43.580  28.975  30.911  1.00  0.00     0.074 A 
ATOM     38  C   UNL A   1      43.334  30.027  29.936  1.00  0.00     0.031 C 
ATOM     39  C   UNL A   1      44.737  28.417  31.371  1.00  0.00     0.037 A 
BRANCH  26  40
ATOM     40  C   UNL A   1      46.820  30.773  26.951  1.00  0.00     0.064 A 
ATOM     41  C   UNL A   1      48.049  31.462  26.928  1.00  0.00     0.173 A 
ATOM     42  C   UNL A   1      45.671  31.565  26.735  1.00  0.00     0.173 A 
ATOM     43  F   UNL A   1      49.199  30.815  27.166  1.00  0.00    -0.203 F 
ATOM     44  C   UNL A   1      48.118  32.846  26.743  1.00  0.00     0.198 A 
ATOM     45  C   UNL A   1      45.748  32.937  26.500  1.00  0.00     0.198 A 
ATOM     46  F   UNL A   1      44.438  31.057  26.848  1.00  0.00    -0.203 F 
ATOM     47  F   UNL A   1      49.299  33.472  26.835  1.00  0.00    -0.200 F 
ATOM     48  C   UNL A   1      46.968  33.582  26.528  1.00  0.00     0.200 A 
ATOM     49  F   UNL A   1      44.620  33.639  26.318  1.00  0.00    -0.200 F 
ATOM     50  F   UNL A   1      47.027  34.914  26.398  1.00  0.00    -0.200 F 
ENDBRANCH  26  40
BRANCH  27  51
ATOM     51  C   UNL A   1      39.178  28.374  29.293  1.00  0.00     0.064 A 
ATOM     52  C   UNL A   1      38.367  28.513  30.429  1.00  0.00     0.173 A 
ATOM     53  C   UNL A   1      38.676  28.917  28.092  1.00  0.00     0.173 A 
ATOM     54  F   UNL A   1      38.794  28.075  31.622  1.00  0.00    -0.203 F 
ATOM     55  C   UNL A   1      37.130  29.164  30.368  1.00  0.00     0.198 A 
ATOM     56  C   UNL A   1      37.436  29.550  28.029  1.00  0.00     0.198 A 
ATOM     57  F   UNL A   1      39.416  28.927  26.975  1.00  0.00    -0.203 F 
ATOM     58  F   UNL A   1      36.411  29.332  31.486  1.00  0.00    -0.200 F 
ATOM     59  C   UNL A   1      36.668  29.685  29.170  1.00  0.00     0.200 A 
ATOM     60  F   UNL A   1      37.018  30.079  26.871  1.00  0.00    -0.200 F 
ATOM     61  F   UNL A   1      35.507  30.350  29.122  1.00  0.00    -0.200 F 
ENDBRANCH  27  51
BRANCH  39  62
ATOM     62  C   UNL A   1      44.629  27.293  32.357  1.00  0.00     0.064 A 
ATOM     63  C   UNL A   1      44.507  27.493  33.741  1.00  0.00     0.173 A 
ATOM     64  C   UNL A   1      44.485  25.985  31.872  1.00  0.00     0.173 A 
ATOM     65  F   UNL A   1      44.524  28.728  34.261  1.00  0.00    -0.203 F 
ATOM     66  C   UNL A   1      44.295  26.421  34.606  1.00  0.00     0.198 A 
ATOM     67  C   UNL A   1      44.242  24.921  32.736  1.00  0.00     0.198 A 
ATOM     68  F   UNL A   1      44.527  25.747  30.552  1.00  0.00    -0.203 F 
ATOM     69  F   UNL A   1      44.182  26.635  35.926  1.00  0.00    -0.200 F 
ATOM     70  C   UNL A   1      44.157  25.138  34.102  1.00  0.00     0.200 A 
ATOM     71  F   UNL A   1      44.056  23.688  32.241  1.00  0.00    -0.200 F 
ATOM     72  F   UNL A   1      43.907  24.113  34.931  1.00  0.00    -0.200 F 
ENDBRANCH  39  62
ENDBRANCH  13  14
ENDBRANCH   6   8
ENDBRANCH   5   6
ENDBRANCH   4   5
ENDBRANCH   3   4
ENDBRANCH   2   3
ENDBRANCH   1   2
BRANCH   1  73
ATOM     73  C   UNL A   1      39.435  22.230  26.436  1.00  0.00     0.188 C 
BRANCH  73  74
ATOM     74  O   UNL A   1      38.662  21.692  25.367  1.00  0.00    -0.376 OA
BRANCH  74  75
ATOM     75  C   UNL A   1      37.254  21.824  25.343  1.00  0.00     0.202 C 
BRANCH  75  76
ATOM     76  C   UNL A   1      36.683  22.580  24.142  1.00  0.00     0.261 C 
BRANCH  76  77
ATOM     77  O   UNL A   1      35.969  23.774  24.483  1.00  0.00    -0.457 OA
BRANCH  77  78
ATOM     78  C   UNL A   1      34.793  23.955  23.810  1.00  0.00     0.374 C 
ATOM     79  O   UNL A   1      34.467  23.385  22.781  1.00  0.00    -0.242 OA
BRANCH  78  80
ATOM     80  C   UNL A   1      33.991  24.918  24.517  1.00  0.00     0.216 A 
ATOM     81  O   UNL A   1      34.612  26.033  25.058  1.00  0.00    -0.449 OA
ATOM     82  C   UNL A   1      32.646  24.945  24.822  1.00  0.00     0.014 A 
ATOM     83  C   UNL A   1      33.658  26.736  25.742  1.00  0.00     0.135 A 
ATOM     84  C   UNL A   1      32.460  26.074  25.635  1.00  0.00     0.028 A 
ATOM     85  C   UNL A   1      31.490  24.049  24.557  1.00  0.00     0.041 C 
ATOM     86  C   UNL A   1      33.795  27.910  26.470  1.00  0.00     0.048 A 
ATOM     87  C   UNL A   1      31.304  26.485  26.297  1.00  0.00    -0.037 A 
ATOM     88  C   UNL A   1      30.456  24.164  25.717  1.00  0.00     0.010 C 
ATOM     89  C   UNL A   1      32.626  28.363  27.116  1.00  0.00     0.004 A 
ATOM     90  C   UNL A   1      31.403  27.667  27.037  1.00  0.00     0.004 A 
ATOM     91  C   UNL A   1      30.080  25.626  26.127  1.00  0.00     0.036 C 
ENDBRANCH  78  80
ENDBRANCH  77  78
ENDBRANCH  76  77
ENDBRANCH  75  76
ENDBRANCH  74  75
ENDBRANCH  73  74
ENDBRANCH   1  73
TORSDOF 17
ENDMDL
MODEL 2
REMARK VINA RESULT:     -11.1      1.669      2.812
REMARK SMILES O=C(OCCOCCOCCOC(=O)c1oc2cccc3c2c1CCC3)c1ccc(-c2c3nc(c(-c4c(F)c(F)c(F)c(F)c4F)c4ccc([nH]4)c(-c4c(F)c(F)c(F)c(F)c4F)c4nc(c(-c5c(F)c(F)c(F)c(F)c5F)c5ccc2[nH]5)C=C4)C=C3)cc1
REMARK SMILES IDX 7 1 6 2 5 3 4 4 3 5 2 6 1 7 27 8 28 9 89 10 29 11 88 12
REMARK SMILES IDX 30 13 31 14 32 15 82 16 33 17 87 18 81 19 83 20 34 21 86 22
REMARK SMILES IDX 80 23 79 24 35 26 67 27 47 28 66 29 48 30 51 31 65 32 84 33
REMARK SMILES IDX 49 34 50 35 64 37 85 38 52 39 36 40 37 41 45 42 38 43 39 44
REMARK SMILES IDX 43 45 46 46 40 47 41 48 44 49 42 50 68 51 69 52 77 53 70 54
REMARK SMILES IDX 71 55 75 56 78 57 72 58 73 59 76 60 74 61 53 62 54 63 62 64
REMARK SMILES IDX 55 65 56 66 60 67 63 68 57 69 58 70 61 71 59 72 8 73 9 74
REMARK SMILES IDX 10 75 11 76 12 77 13 78 14 79 15 80 16 81 23 82 17 83 22 84
REMARK SMILES IDX 24 85 18 86 21 87 25 88 19 89 20 90 26 91
REMARK H PARENT 83 25 51 36
REMARK Flexibility Score: inf
ROOT
ATOM      1  C   UNL A   1      39.473  19.903  25.725  1.00  0.00     0.188 C 
ENDROOT
BRANCH   1   2
ATOM      2  O   UNL A   1      40.586  19.016  25.738  1.00  0.00    -0.376 OA
BRANCH   2   3
ATOM      3  C   UNL A   1      41.795  19.541  26.255  1.00  0.00     0.202 C 
BRANCH   3   4
ATOM      4  C   UNL A   1      43.040  18.813  25.744  1.00  0.00     0.261 C 
BRANCH   4   5
ATOM      5  O   UNL A   1      43.753  19.461  24.671  1.00  0.00    -0.460 OA
BRANCH   5   6
ATOM      6  C   UNL A   1      44.822  20.276  24.618  1.00  0.00     0.338 C 
ATOM      7  O   UNL A   1      45.910  19.807  24.291  1.00  0.00    -0.246 OA
BRANCH   6   8
ATOM      8  C   UNL A   1      44.792  21.700  25.041  1.00  0.00     0.060 A 
ATOM      9  C   UNL A   1      45.650  22.272  25.977  1.00  0.00     0.016 A 
ATOM     10  C   UNL A   1      43.761  22.495  24.494  1.00  0.00     0.016 A 
ATOM     11  C   UNL A   1      45.482  23.592  26.371  1.00  0.00     0.010 A 
ATOM     12  C   UNL A   1      43.561  23.806  24.916  1.00  0.00     0.010 A 
ATOM     13  C   UNL A   1      44.407  24.339  25.883  1.00  0.00    -0.014 A 
BRANCH  13  14
ATOM     14  C   UNL A   1      44.153  25.604  26.558  1.00  0.00     0.031 A 
ATOM     15  C   UNL A   1      45.137  26.706  26.418  1.00  0.00     0.074 A 
ATOM     16  C   UNL A   1      43.069  25.767  27.339  1.00  0.00     0.049 A 
ATOM     17  N   UNL A   1      45.812  27.299  27.354  1.00  0.00    -0.248 NA
ATOM     18  C   UNL A   1      45.397  27.223  25.069  1.00  0.00     0.031 C 
ATOM     19  C   UNL A   1      41.871  24.926  27.405  1.00  0.00     0.029 A 
ATOM     20  N   UNL A   1      42.791  26.789  28.200  1.00  0.00    -0.354 N 
ATOM     21  C   UNL A   1      46.463  28.367  26.742  1.00  0.00     0.074 A 
ATOM     22  C   UNL A   1      46.225  28.236  25.326  1.00  0.00     0.031 C 
ATOM     23  C   UNL A   1      40.920  25.572  28.113  1.00  0.00     0.029 A 
ATOM     24  C   UNL A   1      41.484  26.798  28.650  1.00  0.00     0.049 A 
ATOM     25  H   UNL A   1      43.460  27.458  28.475  1.00  0.00     0.167 HD
ATOM     26  C   UNL A   1      47.023  29.384  27.454  1.00  0.00     0.037 A 
ATOM     27  C   UNL A   1      40.884  27.781  29.358  1.00  0.00     0.037 A 
ATOM     28  C   UNL A   1      47.321  29.008  28.808  1.00  0.00     0.049 A 
ATOM     29  C   UNL A   1      41.934  28.577  30.036  1.00  0.00     0.074 A 
ATOM     30  C   UNL A   1      48.121  28.049  29.398  1.00  0.00     0.029 A 
ATOM     31  N   UNL A   1      46.565  29.526  29.827  1.00  0.00    -0.354 N 
ATOM     32  N   UNL A   1      42.664  28.156  31.030  1.00  0.00    -0.248 NA
ATOM     33  C   UNL A   1      42.405  29.794  29.389  1.00  0.00     0.031 C 
ATOM     34  C   UNL A   1      47.477  27.721  30.626  1.00  0.00     0.029 A 
ATOM     35  C   UNL A   1      46.319  28.495  30.697  1.00  0.00     0.049 A 
ATOM     36  H   UNL A   1      46.258  30.456  29.918  1.00  0.00     0.167 HD
ATOM     37  C   UNL A   1      43.872  28.818  30.889  1.00  0.00     0.074 A 
ATOM     38  C   UNL A   1      43.606  29.903  29.956  1.00  0.00     0.031 C 
ATOM     39  C   UNL A   1      45.040  28.260  31.323  1.00  0.00     0.037 A 
BRANCH  26  40
ATOM     40  C   UNL A   1      47.066  30.817  26.988  1.00  0.00     0.064 A 
ATOM     41  C   UNL A   1      48.283  31.527  26.994  1.00  0.00     0.173 A 
ATOM     42  C   UNL A   1      45.904  31.595  26.799  1.00  0.00     0.173 A 
ATOM     43  F   UNL A   1      49.444  30.891  27.211  1.00  0.00    -0.203 F 
ATOM     44  C   UNL A   1      48.327  32.918  26.863  1.00  0.00     0.198 A 
ATOM     45  C   UNL A   1      45.956  32.977  26.617  1.00  0.00     0.198 A 
ATOM     46  F   UNL A   1      44.679  31.063  26.889  1.00  0.00    -0.203 F 
ATOM     47  F   UNL A   1      49.497  33.561  26.982  1.00  0.00    -0.200 F 
ATOM     48  C   UNL A   1      47.165  33.641  26.673  1.00  0.00     0.200 A 
ATOM     49  F   UNL A   1      44.817  33.666  26.458  1.00  0.00    -0.200 F 
ATOM     50  F   UNL A   1      47.201  34.978  26.594  1.00  0.00    -0.200 F 
ENDBRANCH  26  40
BRANCH  27  51
ATOM     51  C   UNL A   1      39.473  28.213  29.268  1.00  0.00     0.064 A 
ATOM     52  C   UNL A   1      38.660  28.280  30.409  1.00  0.00     0.173 A 
ATOM     53  C   UNL A   1      38.960  28.809  28.096  1.00  0.00     0.173 A 
ATOM     54  F   UNL A   1      39.095  27.788  31.578  1.00  0.00    -0.203 F 
ATOM     55  C   UNL A   1      37.413  28.913  30.382  1.00  0.00     0.198 A 
ATOM     56  C   UNL A   1      37.710  29.424  28.066  1.00  0.00     0.198 A 
ATOM     57  F   UNL A   1      39.700  28.888  26.981  1.00  0.00    -0.203 F 
ATOM     58  F   UNL A   1      36.692  29.012  31.507  1.00  0.00    -0.200 F 
ATOM     59  C   UNL A   1      36.942  29.487  29.213  1.00  0.00     0.200 A 
ATOM     60  F   UNL A   1      37.283  30.005  26.936  1.00  0.00    -0.200 F 
ATOM     61  F   UNL A   1      35.770  30.136  29.199  1.00  0.00    -0.200 F 
ENDBRANCH  27  51
BRANCH  39  62
ATOM     62  C   UNL A   1      44.953  27.098  32.265  1.00  0.00     0.064 A 
ATOM     63  C   UNL A   1      44.738  25.777  31.839  1.00  0.00     0.173 A 
ATOM     64  C   UNL A   1      45.254  27.305  33.618  1.00  0.00     0.173 A 
ATOM     65  F   UNL A   1      44.554  25.495  30.542  1.00  0.00    -0.203 F 
ATOM     66  C   UNL A   1      44.779  24.716  32.741  1.00  0.00     0.198 A 
ATOM     67  C   UNL A   1      45.326  26.239  34.511  1.00  0.00     0.198 A 
ATOM     68  F   UNL A   1      45.534  28.540  34.065  1.00  0.00    -0.203 F 
ATOM     69  F   UNL A   1      44.570  23.462  32.313  1.00  0.00    -0.200 F 
ATOM     70  C   UNL A   1      45.079  24.948  34.074  1.00  0.00     0.200 A 
ATOM     71  F   UNL A   1      45.668  26.460  35.788  1.00  0.00    -0.200 F 
ATOM     72  F   UNL A   1      45.163  23.920  34.932  1.00  0.00    -0.200 F 
ENDBRANCH  39  62
ENDBRANCH  13  14
ENDBRANCH   6   8
ENDBRANCH   5   6
ENDBRANCH   4   5
ENDBRANCH   3   4
ENDBRANCH   2   3
ENDBRANCH   1   2
BRANCH   1  73
ATOM     73  C   UNL A   1      39.814  21.342  26.157  1.00  0.00     0.188 C 
BRANCH  73  74
ATOM     74  O   UNL A   1      38.809  22.335  26.344  1.00  0.00    -0.376 OA
BRANCH  74  75
ATOM     75  C   UNL A   1      37.756  22.495  25.414  1.00  0.00     0.202 C 
BRANCH  75  76
ATOM     76  C   UNL A   1      36.682  23.512  25.802  1.00  0.00     0.261 C 
BRANCH  76  77
ATOM     77  O   UNL A   1      35.658  22.991  26.657  1.00  0.00    -0.457 OA
BRANCH  77  78
ATOM     78  C   UNL A   1      34.382  23.322  26.297  1.00  0.00     0.374 C 
ATOM     79  O   UNL A   1      33.834  24.390  26.518  1.00  0.00    -0.242 OA
BRANCH  78  80
ATOM     80  C   UNL A   1      33.788  22.212  25.600  1.00  0.00     0.216 A 
ATOM     81  O   UNL A   1      33.911  20.943  26.143  1.00  0.00    -0.449 OA
ATOM     82  C   UNL A   1      33.108  22.138  24.402  1.00  0.00     0.014 A 
ATOM     83  C   UNL A   1      33.344  20.067  25.258  1.00  0.00     0.135 A 
ATOM     84  C   UNL A   1      32.876  20.772  24.178  1.00  0.00     0.028 A 
ATOM     85  C   UNL A   1      32.696  23.120  23.365  1.00  0.00     0.041 C 
ATOM     86  C   UNL A   1      33.240  18.685  25.344  1.00  0.00     0.048 A 
ATOM     87  C   UNL A   1      32.321  20.160  23.054  1.00  0.00    -0.037 A 
ATOM     88  C   UNL A   1      32.661  22.429  21.968  1.00  0.00     0.010 C 
ATOM     89  C   UNL A   1      32.647  18.050  24.233  1.00  0.00     0.004 A 
ATOM     90  C   UNL A   1      32.198  18.768  23.107  1.00  0.00     0.004 A 
ATOM     91  C   UNL A   1      31.902  21.062  21.925  1.00  0.00     0.036 C 
ENDBRANCH  78  80
ENDBRANCH  77  78
ENDBRANCH  76  77
ENDBRANCH  75  76
ENDBRANCH  74  75
ENDBRANCH  73  74
ENDBRANCH   1  73
TORSDOF 17
ENDMDL
MODEL 3
REMARK VINA RESULT:     -11.1      4.688      9.905
REMARK SMILES O=C(OCCOCCOCCOC(=O)c1oc2cccc3c2c1CCC3)c1ccc(-c2c3nc(c(-c4c(F)c(F)c(F)c(F)c4F)c4ccc([nH]4)c(-c4c(F)c(F)c(F)c(F)c4F)c4nc(c(-c5c(F)c(F)c(F)c(F)c5F)c5ccc2[nH]5)C=C4)C=C3)cc1
REMARK SMILES IDX 7 1 6 2 5 3 4 4 3 5 2 6 1 7 27 8 28 9 89 10 29 11 88 12
REMARK SMILES IDX 30 13 31 14 32 15 82 16 33 17 87 18 81 19 83 20 34 21 86 22
REMARK SMILES IDX 80 23 79 24 35 26 67 27 47 28 66 29 48 30 51 31 65 32 84 33
REMARK SMILES IDX 49 34 50 35 64 37 85 38 52 39 36 40 37 41 45 42 38 43 39 44
REMARK SMILES IDX 43 45 46 46 40 47 41 48 44 49 42 50 68 51 69 52 77 53 70 54
REMARK SMILES IDX 71 55 75 56 78 57 72 58 73 59 76 60 74 61 53 62 54 63 62 64
REMARK SMILES IDX 55 65 56 66 60 67 63 68 57 69 58 70 61 71 59 72 8 73 9 74
REMARK SMILES IDX 10 75 11 76 12 77 13 78 14 79 15 80 16 81 23 82 17 83 22 84
REMARK SMILES IDX 24 85 18 86 21 87 25 88 19 89 20 90 26 91
REMARK H PARENT 83 25 51 36
REMARK Flexibility Score: inf
ROOT
ATOM      1  C   UNL A   1      34.167  36.662  33.054  1.00  0.00     0.188 C 
ENDROOT
BRANCH   1   2
ATOM      2  O   UNL A   1      33.751  35.378  32.605  1.00  0.00    -0.376 OA
BRANCH   2   3
ATOM      3  C   UNL A   1      34.783  34.486  32.226  1.00  0.00     0.202 C 
BRANCH   3   4
ATOM      4  C   UNL A   1      34.457  33.021  32.520  1.00  0.00     0.261 C 
BRANCH   4   5
ATOM      5  O   UNL A   1      35.512  32.075  32.254  1.00  0.00    -0.460 OA
BRANCH   5   6
ATOM      6  C   UNL A   1      36.559  31.617  32.965  1.00  0.00     0.338 C 
ATOM      7  O   UNL A   1      36.693  31.991  34.129  1.00  0.00    -0.246 OA
BRANCH   6   8
ATOM      8  C   UNL A   1      37.635  30.768  32.393  1.00  0.00     0.060 A 
ATOM      9  C   UNL A   1      37.553  29.390  32.213  1.00  0.00     0.016 A 
ATOM     10  C   UNL A   1      38.849  31.419  32.084  1.00  0.00     0.016 A 
ATOM     11  C   UNL A   1      38.649  28.674  31.752  1.00  0.00     0.010 A 
ATOM     12  C   UNL A   1      39.965  30.702  31.663  1.00  0.00     0.010 A 
ATOM     13  C   UNL A   1      39.867  29.321  31.532  1.00  0.00    -0.014 A 
BRANCH  13  14
ATOM     14  C   UNL A   1      41.019  28.454  31.324  1.00  0.00     0.031 A 
ATOM     15  C   UNL A   1      41.969  28.238  32.444  1.00  0.00     0.074 A 
ATOM     16  C   UNL A   1      41.255  27.891  30.124  1.00  0.00     0.049 A 
ATOM     17  N   UNL A   1      43.236  28.516  32.482  1.00  0.00    -0.248 NA
ATOM     18  C   UNL A   1      41.450  27.625  33.672  1.00  0.00     0.031 C 
ATOM     19  C   UNL A   1      40.335  27.764  28.993  1.00  0.00     0.029 A 
ATOM     20  N   UNL A   1      42.378  27.241  29.701  1.00  0.00    -0.354 N 
ATOM     21  C   UNL A   1      43.714  27.973  33.672  1.00  0.00     0.074 A 
ATOM     22  C   UNL A   1      42.562  27.493  34.396  1.00  0.00     0.031 C 
ATOM     23  C   UNL A   1      40.867  26.916  28.086  1.00  0.00     0.029 A 
ATOM     24  C   UNL A   1      42.207  26.549  28.516  1.00  0.00     0.049 A 
ATOM     25  H   UNL A   1      43.231  27.262  30.193  1.00  0.00     0.167 HD
ATOM     26  C   UNL A   1      45.043  27.808  33.916  1.00  0.00     0.037 A 
ATOM     27  C   UNL A   1      43.077  25.679  27.959  1.00  0.00     0.037 A 
ATOM     28  C   UNL A   1      45.862  28.670  33.111  1.00  0.00     0.049 A 
ATOM     29  C   UNL A   1      44.431  25.968  28.489  1.00  0.00     0.074 A 
ATOM     30  C   UNL A   1      45.979  30.039  32.961  1.00  0.00     0.029 A 
ATOM     31  N   UNL A   1      46.604  28.130  32.094  1.00  0.00    -0.354 N 
ATOM     32  N   UNL A   1      45.134  27.027  28.199  1.00  0.00    -0.248 NA
ATOM     33  C   UNL A   1      44.908  25.195  29.627  1.00  0.00     0.031 C 
ATOM     34  C   UNL A   1      46.387  30.238  31.610  1.00  0.00     0.029 A 
ATOM     35  C   UNL A   1      46.479  28.977  31.023  1.00  0.00     0.049 A 
ATOM     36  H   UNL A   1      47.125  27.296  32.125  1.00  0.00     0.167 HD
ATOM     37  C   UNL A   1      45.896  27.267  29.330  1.00  0.00     0.074 A 
ATOM     38  C   UNL A   1      45.818  26.041  30.111  1.00  0.00     0.031 C 
ATOM     39  C   UNL A   1      46.290  28.531  29.664  1.00  0.00     0.037 A 
BRANCH  26  40
ATOM     40  C   UNL A   1      45.618  26.665  34.714  1.00  0.00     0.064 A 
ATOM     41  C   UNL A   1      46.440  26.923  35.829  1.00  0.00     0.173 A 
ATOM     42  C   UNL A   1      45.615  25.331  34.252  1.00  0.00     0.173 A 
ATOM     43  F   UNL A   1      46.553  28.166  36.321  1.00  0.00    -0.203 F 
ATOM     44  C   UNL A   1      47.230  25.927  36.411  1.00  0.00     0.198 A 
ATOM     45  C   UNL A   1      46.365  24.330  34.867  1.00  0.00     0.198 A 
ATOM     46  F   UNL A   1      44.971  24.977  33.133  1.00  0.00    -0.203 F 
ATOM     47  F   UNL A   1      48.076  26.243  37.401  1.00  0.00    -0.200 F 
ATOM     48  C   UNL A   1      47.191  24.632  35.931  1.00  0.00     0.200 A 
ATOM     49  F   UNL A   1      46.333  23.083  34.374  1.00  0.00    -0.200 F 
ATOM     50  F   UNL A   1      47.982  23.687  36.458  1.00  0.00    -0.200 F 
ENDBRANCH  26  40
BRANCH  27  51
ATOM     51  C   UNL A   1      42.753  24.456  27.194  1.00  0.00     0.064 A 
ATOM     52  C   UNL A   1      43.340  24.204  25.945  1.00  0.00     0.173 A 
ATOM     53  C   UNL A   1      42.049  23.385  27.784  1.00  0.00     0.173 A 
ATOM     54  F   UNL A   1      44.074  25.150  25.341  1.00  0.00    -0.203 F 
ATOM     55  C   UNL A   1      43.237  22.953  25.328  1.00  0.00     0.198 A 
ATOM     56  C   UNL A   1      41.931  22.145  27.160  1.00  0.00     0.198 A 
ATOM     57  F   UNL A   1      41.539  23.491  29.019  1.00  0.00    -0.203 F 
ATOM     58  F   UNL A   1      43.863  22.730  24.164  1.00  0.00    -0.200 F 
ATOM     59  C   UNL A   1      42.536  21.925  25.937  1.00  0.00     0.200 A 
ATOM     60  F   UNL A   1      41.280  21.150  27.778  1.00  0.00    -0.200 F 
ATOM     61  F   UNL A   1      42.478  20.713  25.369  1.00  0.00    -0.200 F 
ENDBRANCH  27  51
BRANCH  39  62
ATOM     62  C   UNL A   1      46.195  29.595  28.612  1.00  0.00     0.064 A 
ATOM     63  C   UNL A   1      44.990  30.228  28.266  1.00  0.00     0.173 A 
ATOM     64  C   UNL A   1      47.379  30.096  28.054  1.00  0.00     0.173 A 
ATOM     65  F   UNL A   1      43.836  29.872  28.846  1.00  0.00    -0.203 F 
ATOM     66  C   UNL A   1      44.971  31.290  27.364  1.00  0.00     0.198 A 
ATOM     67  C   UNL A   1      47.359  31.178  27.178  1.00  0.00     0.198 A 
ATOM     68  F   UNL A   1      48.564  29.570  28.402  1.00  0.00    -0.203 F 
ATOM     69  F   UNL A   1      43.809  31.880  27.047  1.00  0.00    -0.200 F 
ATOM     70  C   UNL A   1      46.155  31.767  26.826  1.00  0.00     0.200 A 
ATOM     71  F   UNL A   1      48.510  31.671  26.699  1.00  0.00    -0.200 F 
ATOM     72  F   UNL A   1      46.140  32.819  25.993  1.00  0.00    -0.200 F 
ENDBRANCH  39  62
ENDBRANCH  13  14
ENDBRANCH   6   8
ENDBRANCH   5   6
ENDBRANCH   4   5
ENDBRANCH   3   4
ENDBRANCH   2   3
ENDBRANCH   1   2
BRANCH   1  73
ATOM     73  C   UNL A   1      33.479  37.834  32.328  1.00  0.00     0.188 C 
BRANCH  73  74
ATOM     74  O   UNL A   1      32.805  37.664  31.085  1.00  0.00    -0.376 OA
BRANCH  74  75
ATOM     75  C   UNL A   1      33.484  37.182  29.942  1.00  0.00     0.202 C 
BRANCH  75  76
ATOM     76  C   UNL A   1      32.861  35.958  29.271  1.00  0.00     0.261 C 
BRANCH  76  77
ATOM     77  O   UNL A   1      33.812  35.011  28.771  1.00  0.00    -0.457 OA
BRANCH  77  78
ATOM     78  C   UNL A   1      33.270  33.933  28.128  1.00  0.00     0.374 C 
ATOM     79  O   UNL A   1      32.177  33.905  27.584  1.00  0.00    -0.242 OA
BRANCH  78  80
ATOM     80  C   UNL A   1      34.201  32.838  28.181  1.00  0.00     0.216 A 
ATOM     81  O   UNL A   1      35.494  33.084  28.614  1.00  0.00    -0.449 OA
ATOM     82  C   UNL A   1      34.077  31.509  27.829  1.00  0.00     0.014 A 
ATOM     83  C   UNL A   1      36.193  31.914  28.491  1.00  0.00     0.135 A 
ATOM     84  C   UNL A   1      35.355  30.951  27.986  1.00  0.00     0.028 A 
ATOM     85  C   UNL A   1      32.981  30.664  27.285  1.00  0.00     0.041 C 
ATOM     86  C   UNL A   1      37.528  31.661  28.776  1.00  0.00     0.048 A 
ATOM     87  C   UNL A   1      35.786  29.667  27.658  1.00  0.00    -0.037 A 
ATOM     88  C   UNL A   1      33.581  29.524  26.408  1.00  0.00     0.010 C 
ATOM     89  C   UNL A   1      37.974  30.355  28.486  1.00  0.00     0.004 A 
ATOM     90  C   UNL A   1      37.124  29.374  27.935  1.00  0.00     0.004 A 
ATOM     91  C   UNL A   1      34.763  28.736  27.063  1.00  0.00     0.036 C 
ENDBRANCH  78  80
ENDBRANCH  77  78
ENDBRANCH  76  77
ENDBRANCH  75  76
ENDBRANCH  74  75
ENDBRANCH  73  74
ENDBRANCH   1  73
TORSDOF 17
ENDMDL
