MODEL 1
REMARK VINA RESULT:     -11.0      0.000      0.000
REMARK SMILES CCc1ccc(C[NH+]2CCC(Oc3ccccc3OC)(C(=O)OCCOCCOCCOC(=O)c3ccc(-c4c5nc(c(-c6c(F)c(F)c(F)c(F)c6F)c6ccc([nH]6)c(-c6c(F)c(F)c(F)c(F)c6F)c6nc(c(-c7c(F)c(F)c(F)c(F)c7F)c7ccc4[nH]7)C=C6)C=C5)cc3)CC2)nc1
REMARK SMILES IDX 27 1 26 2 25 3 24 4 23 5 21 6 22 7 11 8 8 9 9 10 99 11 10 13
REMARK SMILES IDX 98 14 7 15 6 16 3 17 4 18 101 19 5 20 100 21 2 22 1 23 12 24
REMARK SMILES IDX 13 25 14 26 18 27 15 28 17 29 16 30 19 31 20 32 28 33 29 34
REMARK SMILES IDX 30 35 31 36 32 37 33 38 34 39 35 40 36 41 97 42 37 43 96 44
REMARK SMILES IDX 38 45 39 46 40 47 90 48 41 49 95 50 89 51 91 52 42 53 94 54
REMARK SMILES IDX 88 55 87 56 43 58 75 59 55 60 74 61 56 62 59 63 73 64 92 65
REMARK SMILES IDX 57 66 58 67 72 69 93 70 60 71 44 72 45 73 53 74 46 75 47 76
REMARK SMILES IDX 51 77 54 78 48 79 49 80 52 81 50 82 76 83 77 84 85 85 78 86
REMARK SMILES IDX 79 87 83 88 86 89 80 90 81 91 84 92 82 93 61 94 62 95 70 96
REMARK SMILES IDX 63 97 64 98 68 99 71 100 65 101 66 102 69 103 67 104
REMARK H PARENT 8 12 91 57 59 68
REMARK Flexibility Score: inf
ROOT
ATOM      1  C   UNL A   1      39.591  24.121  26.799  1.00  0.00     0.188 C 
ENDROOT
BRANCH   1   2
ATOM      2  O   UNL A   1      38.205  24.319  26.655  1.00  0.00    -0.376 OA
BRANCH   2   3
ATOM      3  C   UNL A   1      37.652  23.513  25.625  1.00  0.00     0.202 C 
BRANCH   3   4
ATOM      4  C   UNL A   1      36.101  23.544  25.413  1.00  0.00     0.261 C 
BRANCH   4   5
ATOM      5  O   UNL A   1      35.374  24.831  25.452  1.00  0.00    -0.460 OA
BRANCH   5   6
ATOM      6  C   UNL A   1      33.999  24.826  25.584  1.00  0.00     0.351 C 
ATOM      7  O   UNL A   1      33.461  24.699  26.687  1.00  0.00    -0.247 OA
BRANCH   6   8
ATOM      8  C   UNL A   1      33.153  24.933  24.255  1.00  0.00     0.216 C 
ATOM      9  N   UNL A   1      32.191  22.583  22.513  1.00  0.00    -0.330 N 
ATOM     10  C   UNL A   1      31.302  23.138  23.512  1.00  0.00     0.267 C 
ATOM     11  C   UNL A   1      33.609  22.878  22.751  1.00  0.00     0.267 C 
ATOM     12  H   UNL A   1      32.086  23.069  21.622  1.00  0.00     0.348 HD
ATOM     13  C   UNL A   1      31.689  24.486  24.114  1.00  0.00     0.122 C 
ATOM     14  C   UNL A   1      33.933  24.368  23.038  1.00  0.00     0.122 C 
BRANCH   9  15
ATOM     15  C   UNL A   1      31.773  21.165  22.211  1.00  0.00     0.319 C 
BRANCH  15  16
ATOM     16  C   UNL A   1      32.389  20.025  23.057  1.00  0.00     0.095 A 
ATOM     17  C   UNL A   1      33.208  16.914  24.775  1.00  0.00    -0.030 A 
ATOM     18  C   UNL A   1      32.899  18.446  25.714  1.00  0.00     0.007 A 
ATOM     19  C   UNL A   1      33.034  16.964  23.002  1.00  0.00     0.115 A 
ATOM     20  C   UNL A   1      32.357  19.972  24.868  1.00  0.00     0.030 A 
ATOM     21  N   UNL A   1      32.780  18.516  22.171  1.00  0.00    -0.255 NA
BRANCH  17  22
ATOM     22  C   UNL A   1      33.696  15.605  25.347  1.00  0.00     0.034 C 
ATOM     23  C   UNL A   1      32.548  14.695  25.824  1.00  0.00     0.009 C 
ENDBRANCH  17  22
ENDBRANCH  15  16
ENDBRANCH   9  15
BRANCH   8  24
ATOM     24  O   UNL A   1      33.180  26.402  24.431  1.00  0.00    -0.471 OA
BRANCH  24  25
ATOM     25  C   UNL A   1      32.168  27.140  23.914  1.00  0.00     0.162 A 
ATOM     26  C   UNL A   1      31.900  26.922  22.558  1.00  0.00     0.050 A 
ATOM     27  C   UNL A   1      31.475  28.118  24.632  1.00  0.00     0.160 A 
ATOM     28  C   UNL A   1      30.842  27.579  21.941  1.00  0.00     0.004 A 
ATOM     29  C   UNL A   1      30.371  28.715  24.019  1.00  0.00     0.050 A 
ATOM     30  C   UNL A   1      30.053  28.449  22.685  1.00  0.00     0.004 A 
BRANCH  27  31
ATOM     31  O   UNL A   1      31.667  28.541  25.918  1.00  0.00    -0.493 OA
ATOM     32  C   UNL A   1      31.586  29.923  26.251  1.00  0.00     0.278 C 
ENDBRANCH  27  31
ENDBRANCH  24  25
ENDBRANCH   8  24
ENDBRANCH   6   8
ENDBRANCH   5   6
ENDBRANCH   4   5
ENDBRANCH   3   4
ENDBRANCH   2   3
ENDBRANCH   1   2
BRANCH   1  33
ATOM     33  C   UNL A   1      40.029  23.053  27.820  1.00  0.00     0.188 C 
BRANCH  33  34
ATOM     34  O   UNL A   1      40.390  21.809  27.264  1.00  0.00    -0.376 OA
BRANCH  34  35
ATOM     35  C   UNL A   1      41.270  21.897  26.160  1.00  0.00     0.202 C 
BRANCH  35  36
ATOM     36  C   UNL A   1      42.606  21.137  26.256  1.00  0.00     0.261 C 
BRANCH  36  37
ATOM     37  O   UNL A   1      43.739  21.654  25.508  1.00  0.00    -0.460 OA
BRANCH  37  38
ATOM     38  C   UNL A   1      43.924  23.114  25.223  1.00  0.00     0.338 C 
ATOM     39  O   UNL A   1      44.372  23.071  24.040  1.00  0.00    -0.246 OA
BRANCH  38  40
ATOM     40  C   UNL A   1      43.486  24.747  26.557  1.00  0.00     0.060 A 
ATOM     41  C   UNL A   1      43.071  24.632  28.014  1.00  0.00     0.016 A 
ATOM     42  C   UNL A   1      43.528  26.243  26.395  1.00  0.00     0.016 A 
ATOM     43  C   UNL A   1      42.568  25.538  28.895  1.00  0.00     0.010 A 
ATOM     44  C   UNL A   1      43.246  27.227  27.369  1.00  0.00     0.010 A 
ATOM     45  C   UNL A   1      42.756  26.846  28.603  1.00  0.00    -0.014 A 
BRANCH  45  46
ATOM     46  C   UNL A   1      42.265  27.735  29.629  1.00  0.00     0.031 A 
ATOM     47  C   UNL A   1      43.161  27.919  30.789  1.00  0.00     0.074 A 
ATOM     48  C   UNL A   1      41.190  28.486  29.334  1.00  0.00     0.049 A 
ATOM     49  N   UNL A   1      42.902  28.480  31.926  1.00  0.00    -0.248 NA
ATOM     50  C   UNL A   1      44.528  27.371  30.670  1.00  0.00     0.031 C 
ATOM     51  C   UNL A   1      40.451  28.463  28.056  1.00  0.00     0.029 A 
ATOM     52  N   UNL A   1      40.567  29.457  30.050  1.00  0.00    -0.354 N 
ATOM     53  C   UNL A   1      44.039  28.282  32.689  1.00  0.00     0.074 A 
ATOM     54  C   UNL A   1      44.994  27.550  31.894  1.00  0.00     0.031 C 
ATOM     55  C   UNL A   1      39.488  29.393  28.083  1.00  0.00     0.029 A 
ATOM     56  C   UNL A   1      39.450  29.948  29.421  1.00  0.00     0.049 A 
ATOM     57  H   UNL A   1      40.882  29.775  30.927  1.00  0.00     0.167 HD
ATOM     58  C   UNL A   1      44.208  28.685  33.961  1.00  0.00     0.037 A 
ATOM     59  C   UNL A   1      38.456  30.677  29.947  1.00  0.00     0.037 A 
ATOM     60  C   UNL A   1      43.182  29.428  34.637  1.00  0.00     0.049 A 
ATOM     61  C   UNL A   1      38.616  31.013  31.402  1.00  0.00     0.074 A 
ATOM     62  C   UNL A   1      43.123  29.846  35.947  1.00  0.00     0.029 A 
ATOM     63  N   UNL A   1      42.014  29.872  34.012  1.00  0.00    -0.354 N 
ATOM     64  N   UNL A   1      39.609  30.709  32.211  1.00  0.00    -0.248 NA
ATOM     65  C   UNL A   1      37.530  31.759  32.029  1.00  0.00     0.031 C 
ATOM     66  C   UNL A   1      41.897  30.498  36.125  1.00  0.00     0.029 A 
ATOM     67  C   UNL A   1      41.222  30.554  34.910  1.00  0.00     0.049 A 
ATOM     68  H   UNL A   1      41.789  29.718  33.066  1.00  0.00     0.167 HD
ATOM     69  C   UNL A   1      39.284  31.246  33.441  1.00  0.00     0.074 A 
ATOM     70  C   UNL A   1      38.004  31.913  33.257  1.00  0.00     0.031 C 
ATOM     71  C   UNL A   1      39.961  31.200  34.618  1.00  0.00     0.037 A 
BRANCH  58  72
ATOM     72  C   UNL A   1      45.454  28.238  34.659  1.00  0.00     0.064 A 
ATOM     73  C   UNL A   1      45.534  27.014  35.342  1.00  0.00     0.173 A 
ATOM     74  C   UNL A   1      46.565  29.092  34.717  1.00  0.00     0.173 A 
ATOM     75  F   UNL A   1      44.481  26.184  35.368  1.00  0.00    -0.203 F 
ATOM     76  C   UNL A   1      46.669  26.675  36.075  1.00  0.00     0.198 A 
ATOM     77  C   UNL A   1      47.712  28.734  35.421  1.00  0.00     0.198 A 
ATOM     78  F   UNL A   1      46.529  30.291  34.117  1.00  0.00    -0.203 F 
ATOM     79  F   UNL A   1      46.692  25.536  36.784  1.00  0.00    -0.200 F 
ATOM     80  C   UNL A   1      47.761  27.530  36.107  1.00  0.00     0.200 A 
ATOM     81  F   UNL A   1      48.761  29.567  35.456  1.00  0.00    -0.200 F 
ATOM     82  F   UNL A   1      48.850  27.204  36.815  1.00  0.00    -0.200 F 
ENDBRANCH  58  72
BRANCH  59  83
ATOM     83  C   UNL A   1      37.242  30.999  29.152  1.00  0.00     0.064 A 
ATOM     84  C   UNL A   1      36.967  32.307  28.743  1.00  0.00     0.173 A 
ATOM     85  C   UNL A   1      36.324  30.000  28.775  1.00  0.00     0.173 A 
ATOM     86  F   UNL A   1      37.805  33.301  29.072  1.00  0.00    -0.203 F 
ATOM     87  C   UNL A   1      35.811  32.613  28.023  1.00  0.00     0.198 A 
ATOM     88  C   UNL A   1      35.191  30.298  28.022  1.00  0.00     0.198 A 
ATOM     89  F   UNL A   1      36.535  28.721  29.124  1.00  0.00    -0.203 F 
ATOM     90  F   UNL A   1      35.546  33.885  27.696  1.00  0.00    -0.200 F 
ATOM     91  C   UNL A   1      34.927  31.608  27.659  1.00  0.00     0.200 A 
ATOM     92  F   UNL A   1      34.355  29.318  27.653  1.00  0.00    -0.200 F 
ATOM     93  F   UNL A   1      33.816  31.904  26.971  1.00  0.00    -0.200 F 
ENDBRANCH  59  83
BRANCH  71  94
ATOM     94  C   UNL A   1      39.341  31.953  35.748  1.00  0.00     0.064 A 
ATOM     95  C   UNL A   1      38.431  31.350  36.625  1.00  0.00     0.173 A 
ATOM     96  C   UNL A   1      39.714  33.286  35.976  1.00  0.00     0.173 A 
ATOM     97  F   UNL A   1      38.037  30.083  36.426  1.00  0.00    -0.203 F 
ATOM     98  C   UNL A   1      37.889  32.071  37.680  1.00  0.00     0.198 A 
ATOM     99  C   UNL A   1      39.207  33.986  37.060  1.00  0.00     0.198 A 
ATOM    100  F   UNL A   1      40.591  33.893  35.162  1.00  0.00    -0.203 F 
ATOM    101  F   UNL A   1      36.972  31.501  38.473  1.00  0.00    -0.200 F 
ATOM    102  C   UNL A   1      38.287  33.382  37.904  1.00  0.00     0.200 A 
ATOM    103  F   UNL A   1      39.611  35.242  37.290  1.00  0.00    -0.200 F 
ATOM    104  F   UNL A   1      37.776  34.068  38.936  1.00  0.00    -0.200 F 
ENDBRANCH  71  94
ENDBRANCH  45  46
ENDBRANCH  38  40
ENDBRANCH  37  38
ENDBRANCH  36  37
ENDBRANCH  35  36
ENDBRANCH  34  35
ENDBRANCH  33  34
ENDBRANCH   1  33
TORSDOF 23
ENDMDL
MODEL 2
REMARK VINA RESULT:     -10.8      0.942      2.256
REMARK SMILES CCc1ccc(C[NH+]2CCC(Oc3ccccc3OC)(C(=O)OCCOCCOCCOC(=O)c3ccc(-c4c5nc(c(-c6c(F)c(F)c(F)c(F)c6F)c6ccc([nH]6)c(-c6c(F)c(F)c(F)c(F)c6F)c6nc(c(-c7c(F)c(F)c(F)c(F)c7F)c7ccc4[nH]7)C=C6)C=C5)cc3)CC2)nc1
REMARK SMILES IDX 27 1 26 2 25 3 24 4 23 5 21 6 22 7 11 8 8 9 9 10 99 11 10 13
REMARK SMILES IDX 98 14 7 15 6 16 3 17 4 18 101 19 5 20 100 21 2 22 1 23 12 24
REMARK SMILES IDX 13 25 14 26 18 27 15 28 17 29 16 30 19 31 20 32 28 33 29 34
REMARK SMILES IDX 30 35 31 36 32 37 33 38 34 39 35 40 36 41 97 42 37 43 96 44
REMARK SMILES IDX 38 45 39 46 40 47 90 48 41 49 95 50 89 51 91 52 42 53 94 54
REMARK SMILES IDX 88 55 87 56 43 58 75 59 55 60 74 61 56 62 59 63 73 64 92 65
REMARK SMILES IDX 57 66 58 67 72 69 93 70 60 71 44 72 45 73 53 74 46 75 47 76
REMARK SMILES IDX 51 77 54 78 48 79 49 80 52 81 50 82 76 83 77 84 85 85 78 86
REMARK SMILES IDX 79 87 83 88 86 89 80 90 81 91 84 92 82 93 61 94 62 95 70 96
REMARK SMILES IDX 63 97 64 98 68 99 71 100 65 101 66 102 69 103 67 104
REMARK H PARENT 8 12 91 57 59 68
REMARK Flexibility Score: inf
ROOT
ATOM      1  C   UNL A   1      39.648  24.100  26.840  1.00  0.00     0.188 C 
ENDROOT
BRANCH   1   2
ATOM      2  O   UNL A   1      38.255  24.279  26.746  1.00  0.00    -0.376 OA
BRANCH   2   3
ATOM      3  C   UNL A   1      37.677  23.468  25.733  1.00  0.00     0.202 C 
BRANCH   3   4
ATOM      4  C   UNL A   1      36.121  23.504  25.556  1.00  0.00     0.261 C 
BRANCH   4   5
ATOM      5  O   UNL A   1      35.395  24.790  25.645  1.00  0.00    -0.460 OA
BRANCH   5   6
ATOM      6  C   UNL A   1      34.016  24.781  25.728  1.00  0.00     0.351 C 
ATOM      7  O   UNL A   1      33.440  24.625  26.807  1.00  0.00    -0.247 OA
BRANCH   6   8
ATOM      8  C   UNL A   1      33.218  24.924  24.374  1.00  0.00     0.216 C 
ATOM      9  N   UNL A   1      32.245  22.618  22.580  1.00  0.00    -0.330 N 
ATOM     10  C   UNL A   1      31.340  23.191  23.555  1.00  0.00     0.267 C 
ATOM     11  C   UNL A   1      33.662  22.869  22.866  1.00  0.00     0.267 C 
ATOM     12  H   UNL A   1      32.183  23.115  21.691  1.00  0.00     0.348 HD
ATOM     13  C   UNL A   1      31.747  24.522  24.181  1.00  0.00     0.122 C 
ATOM     14  C   UNL A   1      34.020  24.347  23.177  1.00  0.00     0.122 C 
BRANCH   9  15
ATOM     15  C   UNL A   1      31.795  21.216  22.251  1.00  0.00     0.319 C 
BRANCH  15  16
ATOM     16  C   UNL A   1      32.387  20.047  23.076  1.00  0.00     0.095 A 
ATOM     17  C   UNL A   1      33.134  16.889  24.739  1.00  0.00    -0.030 A 
ATOM     18  C   UNL A   1      32.872  18.414  25.704  1.00  0.00     0.007 A 
ATOM     19  C   UNL A   1      32.949  16.971  22.969  1.00  0.00     0.115 A 
ATOM     20  C   UNL A   1      32.366  19.967  24.886  1.00  0.00     0.030 A 
ATOM     21  N   UNL A   1      32.731  18.542  22.163  1.00  0.00    -0.255 NA
BRANCH  17  22
ATOM     22  C   UNL A   1      33.590  15.558  25.287  1.00  0.00     0.034 C 
ATOM     23  C   UNL A   1      32.424  14.684  25.785  1.00  0.00     0.009 C 
ENDBRANCH  17  22
ENDBRANCH  15  16
ENDBRANCH   9  15
BRANCH   8  24
ATOM     24  O   UNL A   1      33.282  26.391  24.564  1.00  0.00    -0.471 OA
BRANCH  24  25
ATOM     25  C   UNL A   1      32.357  27.169  23.952  1.00  0.00     0.162 A 
ATOM     26  C   UNL A   1      31.517  27.889  24.810  1.00  0.00     0.050 A 
ATOM     27  C   UNL A   1      32.171  27.211  22.568  1.00  0.00     0.160 A 
ATOM     28  C   UNL A   1      30.574  28.767  24.289  1.00  0.00     0.004 A 
ATOM     29  C   UNL A   1      31.270  28.150  22.060  1.00  0.00     0.050 A 
ATOM     30  C   UNL A   1      30.478  28.924  22.911  1.00  0.00     0.004 A 
BRANCH  27  31
ATOM     31  O   UNL A   1      32.815  26.504  21.591  1.00  0.00    -0.493 OA
ATOM     32  C   UNL A   1      32.096  25.967  20.485  1.00  0.00     0.278 C 
ENDBRANCH  27  31
ENDBRANCH  24  25
ENDBRANCH   8  24
ENDBRANCH   6   8
ENDBRANCH   5   6
ENDBRANCH   4   5
ENDBRANCH   3   4
ENDBRANCH   2   3
ENDBRANCH   1   2
BRANCH   1  33
ATOM     33  C   UNL A   1      40.138  23.057  27.862  1.00  0.00     0.188 C 
BRANCH  33  34
ATOM     34  O   UNL A   1      40.442  21.790  27.323  1.00  0.00    -0.376 OA
BRANCH  34  35
ATOM     35  C   UNL A   1      41.205  21.831  26.134  1.00  0.00     0.202 C 
BRANCH  35  36
ATOM     36  C   UNL A   1      42.528  21.043  26.113  1.00  0.00     0.261 C 
BRANCH  36  37
ATOM     37  O   UNL A   1      43.578  21.495  25.215  1.00  0.00    -0.460 OA
BRANCH  37  38
ATOM     38  C   UNL A   1      43.743  22.932  24.820  1.00  0.00     0.338 C 
ATOM     39  O   UNL A   1      44.077  22.808  23.605  1.00  0.00    -0.246 OA
BRANCH  38  40
ATOM     40  C   UNL A   1      43.441  24.652  26.081  1.00  0.00     0.060 A 
ATOM     41  C   UNL A   1      43.188  24.637  27.579  1.00  0.00     0.016 A 
ATOM     42  C   UNL A   1      43.453  26.133  25.814  1.00  0.00     0.016 A 
ATOM     43  C   UNL A   1      42.778  25.600  28.447  1.00  0.00     0.010 A 
ATOM     44  C   UNL A   1      43.271  27.181  26.745  1.00  0.00     0.010 A 
ATOM     45  C   UNL A   1      42.922  26.885  28.048  1.00  0.00    -0.014 A 
BRANCH  45  46
ATOM     46  C   UNL A   1      42.541  27.841  29.059  1.00  0.00     0.031 A 
ATOM     47  C   UNL A   1      43.572  28.138  30.074  1.00  0.00     0.074 A 
ATOM     48  C   UNL A   1      41.412  28.542  28.853  1.00  0.00     0.049 A 
ATOM     49  N   UNL A   1      43.445  28.782  31.189  1.00  0.00    -0.248 NA
ATOM     50  C   UNL A   1      44.930  27.613  29.817  1.00  0.00     0.031 C 
ATOM     51  C   UNL A   1      40.514  28.400  27.689  1.00  0.00     0.029 A 
ATOM     52  N   UNL A   1      40.855  29.552  29.569  1.00  0.00    -0.354 N 
ATOM     53  C   UNL A   1      44.677  28.671  31.807  1.00  0.00     0.074 A 
ATOM     54  C   UNL A   1      45.545  27.901  30.951  1.00  0.00     0.031 C 
ATOM     55  C   UNL A   1      39.532  29.307  27.773  1.00  0.00     0.029 A 
ATOM     56  C   UNL A   1      39.650  29.966  29.058  1.00  0.00     0.049 A 
ATOM     57  H   UNL A   1      41.271  29.946  30.370  1.00  0.00     0.167 HD
ATOM     58  C   UNL A   1      44.997  29.178  33.012  1.00  0.00     0.037 A 
ATOM     59  C   UNL A   1      38.710  30.712  29.653  1.00  0.00     0.037 A 
ATOM     60  C   UNL A   1      44.044  29.949  33.759  1.00  0.00     0.049 A 
ATOM     61  C   UNL A   1      39.046  31.166  31.045  1.00  0.00     0.074 A 
ATOM     62  C   UNL A   1      44.142  30.469  35.030  1.00  0.00     0.029 A 
ATOM     63  N   UNL A   1      42.790  30.315  33.262  1.00  0.00    -0.354 N 
ATOM     64  N   UNL A   1      40.145  30.951  31.736  1.00  0.00    -0.248 NA
ATOM     65  C   UNL A   1      38.027  31.936  31.751  1.00  0.00     0.031 C 
ATOM     66  C   UNL A   1      42.929  31.105  35.318  1.00  0.00     0.029 A 
ATOM     67  C   UNL A   1      42.100  31.048  34.202  1.00  0.00     0.049 A 
ATOM     68  H   UNL A   1      42.450  30.081  32.368  1.00  0.00     0.167 HD
ATOM     69  C   UNL A   1      39.966  31.577  32.954  1.00  0.00     0.074 A 
ATOM     70  C   UNL A   1      38.651  32.198  32.891  1.00  0.00     0.031 C 
ATOM     71  C   UNL A   1      40.791  31.640  34.031  1.00  0.00     0.037 A 
BRANCH  58  72
ATOM     72  C   UNL A   1      46.338  28.817  33.570  1.00  0.00     0.064 A 
ATOM     73  C   UNL A   1      47.503  29.530  33.244  1.00  0.00     0.173 A 
ATOM     74  C   UNL A   1      46.474  27.681  34.380  1.00  0.00     0.173 A 
ATOM     75  F   UNL A   1      47.440  30.591  32.426  1.00  0.00    -0.203 F 
ATOM     76  C   UNL A   1      48.753  29.105  33.690  1.00  0.00     0.198 A 
ATOM     77  C   UNL A   1      47.720  27.279  34.854  1.00  0.00     0.198 A 
ATOM     78  F   UNL A   1      45.400  26.938  34.690  1.00  0.00    -0.203 F 
ATOM     79  F   UNL A   1      49.858  29.757  33.301  1.00  0.00    -0.200 F 
ATOM     80  C   UNL A   1      48.860  27.985  34.502  1.00  0.00     0.200 A 
ATOM     81  F   UNL A   1      47.820  26.192  35.631  1.00  0.00    -0.200 F 
ATOM     82  F   UNL A   1      50.063  27.576  34.926  1.00  0.00    -0.200 F 
ENDBRANCH  58  72
BRANCH  59  83
ATOM     83  C   UNL A   1      37.393  30.942  29.003  1.00  0.00     0.064 A 
ATOM     84  C   UNL A   1      36.469  29.903  28.846  1.00  0.00     0.173 A 
ATOM     85  C   UNL A   1      37.020  32.212  28.525  1.00  0.00     0.173 A 
ATOM     86  F   UNL A   1      36.768  28.671  29.283  1.00  0.00    -0.203 F 
ATOM     87  C   UNL A   1      35.246  30.113  28.209  1.00  0.00     0.198 A 
ATOM     88  C   UNL A   1      35.783  32.431  27.925  1.00  0.00     0.198 A 
ATOM     89  F   UNL A   1      37.855  33.256  28.656  1.00  0.00    -0.203 F 
ATOM     90  F   UNL A   1      34.407  29.085  28.022  1.00  0.00    -0.200 F 
ATOM     91  C   UNL A   1      34.902  31.377  27.753  1.00  0.00     0.200 A 
ATOM     92  F   UNL A   1      35.448  33.660  27.510  1.00  0.00    -0.200 F 
ATOM     93  F   UNL A   1      33.728  31.575  27.138  1.00  0.00    -0.200 F 
ENDBRANCH  59  83
BRANCH  71  94
ATOM     94  C   UNL A   1      40.298  32.467  35.173  1.00  0.00     0.064 A 
ATOM     95  C   UNL A   1      40.586  33.834  35.271  1.00  0.00     0.173 A 
ATOM     96  C   UNL A   1      39.481  31.878  36.149  1.00  0.00     0.173 A 
ATOM     97  F   UNL A   1      41.379  34.426  34.366  1.00  0.00    -0.203 F 
ATOM     98  C   UNL A   1      40.093  34.579  36.333  1.00  0.00     0.198 A 
ATOM     99  C   UNL A   1      38.953  32.638  37.181  1.00  0.00     0.198 A 
ATOM    100  F   UNL A   1      39.177  30.573  36.080  1.00  0.00    -0.203 F 
ATOM    101  F   UNL A   1      40.429  35.872  36.449  1.00  0.00    -0.200 F 
ATOM    102  C   UNL A   1      39.269  33.986  37.278  1.00  0.00     0.200 A 
ATOM    103  F   UNL A   1      38.136  32.070  38.077  1.00  0.00    -0.200 F 
ATOM    104  F   UNL A   1      38.779  34.714  38.290  1.00  0.00    -0.200 F 
ENDBRANCH  71  94
ENDBRANCH  45  46
ENDBRANCH  38  40
ENDBRANCH  37  38
ENDBRANCH  36  37
ENDBRANCH  35  36
ENDBRANCH  34  35
ENDBRANCH  33  34
ENDBRANCH   1  33
TORSDOF 23
ENDMDL
MODEL 3
REMARK VINA RESULT:     -10.5      5.206     10.100
REMARK SMILES CCc1ccc(C[NH+]2CCC(Oc3ccccc3OC)(C(=O)OCCOCCOCCOC(=O)c3ccc(-c4c5nc(c(-c6c(F)c(F)c(F)c(F)c6F)c6ccc([nH]6)c(-c6c(F)c(F)c(F)c(F)c6F)c6nc(c(-c7c(F)c(F)c(F)c(F)c7F)c7ccc4[nH]7)C=C6)C=C5)cc3)CC2)nc1
REMARK SMILES IDX 27 1 26 2 25 3 24 4 23 5 21 6 22 7 11 8 8 9 9 10 99 11 10 13
REMARK SMILES IDX 98 14 7 15 6 16 3 17 4 18 101 19 5 20 100 21 2 22 1 23 12 24
REMARK SMILES IDX 13 25 14 26 18 27 15 28 17 29 16 30 19 31 20 32 28 33 29 34
REMARK SMILES IDX 30 35 31 36 32 37 33 38 34 39 35 40 36 41 97 42 37 43 96 44
REMARK SMILES IDX 38 45 39 46 40 47 90 48 41 49 95 50 89 51 91 52 42 53 94 54
REMARK SMILES IDX 88 55 87 56 43 58 75 59 55 60 74 61 56 62 59 63 73 64 92 65
REMARK SMILES IDX 57 66 58 67 72 69 93 70 60 71 44 72 45 73 53 74 46 75 47 76
REMARK SMILES IDX 51 77 54 78 48 79 49 80 52 81 50 82 76 83 77 84 85 85 78 86
REMARK SMILES IDX 79 87 83 88 86 89 80 90 81 91 84 92 82 93 61 94 62 95 70 96
REMARK SMILES IDX 63 97 64 98 68 99 71 100 65 101 66 102 69 103 67 104
REMARK H PARENT 8 12 91 57 59 68
REMARK Flexibility Score: inf
ROOT
ATOM      1  C   UNL A   1      40.066  22.289  26.468  1.00  0.00     0.188 C 
ENDROOT
BRANCH   1   2
ATOM      2  O   UNL A   1      38.662  22.190  26.509  1.00  0.00    -0.376 OA
BRANCH   2   3
ATOM      3  C   UNL A   1      38.135  21.547  25.358  1.00  0.00     0.202 C 
BRANCH   3   4
ATOM      4  C   UNL A   1      36.579  21.488  25.191  1.00  0.00     0.261 C 
BRANCH   4   5
ATOM      5  O   UNL A   1      35.731  22.546  25.782  1.00  0.00    -0.460 OA
BRANCH   5   6
ATOM      6  C   UNL A   1      34.520  22.201  26.349  1.00  0.00     0.351 C 
ATOM      7  O   UNL A   1      34.398  22.069  27.570  1.00  0.00    -0.247 OA
BRANCH   6   8
ATOM      8  C   UNL A   1      33.319  21.930  25.361  1.00  0.00     0.216 C 
ATOM      9  N   UNL A   1      30.812  23.685  25.016  1.00  0.00    -0.330 N 
ATOM     10  C   UNL A   1      31.937  23.867  24.122  1.00  0.00     0.267 C 
ATOM     11  C   UNL A   1      31.159  23.021  26.277  1.00  0.00     0.267 C 
ATOM     12  H   UNL A   1      30.167  22.984  24.651  1.00  0.00     0.348 HD
ATOM     13  C   UNL A   1      33.004  22.777  24.117  1.00  0.00     0.122 C 
ATOM     14  C   UNL A   1      31.988  21.716  26.130  1.00  0.00     0.122 C 
BRANCH   9  15
ATOM     15  C   UNL A   1      29.995  24.953  25.050  1.00  0.00     0.319 C 
BRANCH  15  16
ATOM     16  C   UNL A   1      30.737  26.294  25.273  1.00  0.00     0.095 A 
ATOM     17  C   UNL A   1      31.919  29.565  26.371  1.00  0.00    -0.030 A 
ATOM     18  C   UNL A   1      31.386  29.293  24.648  1.00  0.00     0.007 A 
ATOM     19  C   UNL A   1      31.783  28.207  27.517  1.00  0.00     0.115 A 
ATOM     20  C   UNL A   1      30.668  27.696  24.128  1.00  0.00     0.030 A 
ATOM     21  N   UNL A   1      31.345  26.584  26.935  1.00  0.00    -0.255 NA
BRANCH  17  22
ATOM     22  C   UNL A   1      32.562  30.817  26.915  1.00  0.00     0.034 C 
ATOM     23  C   UNL A   1      31.649  32.053  26.812  1.00  0.00     0.009 C 
ENDBRANCH  17  22
ENDBRANCH  15  16
ENDBRANCH   9  15
BRANCH   8  24
ATOM     24  O   UNL A   1      34.033  20.708  24.928  1.00  0.00    -0.471 OA
BRANCH  24  25
ATOM     25  C   UNL A   1      33.406  19.849  24.088  1.00  0.00     0.162 A 
ATOM     26  C   UNL A   1      32.691  20.447  23.044  1.00  0.00     0.050 A 
ATOM     27  C   UNL A   1      33.385  18.464  24.268  1.00  0.00     0.160 A 
ATOM     28  C   UNL A   1      32.062  19.658  22.088  1.00  0.00     0.004 A 
ATOM     29  C   UNL A   1      32.812  17.685  23.260  1.00  0.00     0.050 A 
ATOM     30  C   UNL A   1      32.156  18.274  22.177  1.00  0.00     0.004 A 
BRANCH  27  31
ATOM     31  O   UNL A   1      33.929  17.718  25.277  1.00  0.00    -0.493 OA
ATOM     32  C   UNL A   1      33.279  16.541  25.746  1.00  0.00     0.278 C 
ENDBRANCH  27  31
ENDBRANCH  24  25
ENDBRANCH   8  24
ENDBRANCH   6   8
ENDBRANCH   5   6
ENDBRANCH   4   5
ENDBRANCH   3   4
ENDBRANCH   2   3
ENDBRANCH   1   2
BRANCH   1  33
ATOM     33  C   UNL A   1      40.848  21.344  27.400  1.00  0.00     0.188 C 
BRANCH  33  34
ATOM     34  O   UNL A   1      40.845  19.989  27.014  1.00  0.00    -0.376 OA
BRANCH  34  35
ATOM     35  C   UNL A   1      41.642  19.703  25.881  1.00  0.00     0.202 C 
BRANCH  35  36
ATOM     36  C   UNL A   1      42.613  18.512  25.979  1.00  0.00     0.261 C 
BRANCH  36  37
ATOM     37  O   UNL A   1      43.709  18.445  25.027  1.00  0.00    -0.460 OA
BRANCH  37  38
ATOM     38  C   UNL A   1      44.304  19.665  24.390  1.00  0.00     0.338 C 
ATOM     39  O   UNL A   1      44.510  19.243  23.214  1.00  0.00    -0.246 OA
BRANCH  38  40
ATOM     40  C   UNL A   1      44.645  21.570  25.336  1.00  0.00     0.060 A 
ATOM     41  C   UNL A   1      44.587  22.931  24.665  1.00  0.00     0.016 A 
ATOM     42  C   UNL A   1      44.945  21.970  26.756  1.00  0.00     0.016 A 
ATOM     43  C   UNL A   1      44.978  24.169  25.072  1.00  0.00     0.010 A 
ATOM     44  C   UNL A   1      45.118  23.275  27.269  1.00  0.00     0.010 A 
ATOM     45  C   UNL A   1      45.143  24.351  26.404  1.00  0.00    -0.014 A 
BRANCH  45  46
ATOM     46  C   UNL A   1      45.476  25.711  26.754  1.00  0.00     0.031 A 
ATOM     47  C   UNL A   1      44.398  26.480  27.407  1.00  0.00     0.074 A 
ATOM     48  C   UNL A   1      46.771  26.066  26.688  1.00  0.00     0.049 A 
ATOM     49  N   UNL A   1      44.343  27.752  27.641  1.00  0.00    -0.248 NA
ATOM     50  C   UNL A   1      43.201  25.724  27.831  1.00  0.00     0.031 C 
ATOM     51  C   UNL A   1      47.881  25.190  26.263  1.00  0.00     0.029 A 
ATOM     52  N   UNL A   1      47.389  27.225  27.033  1.00  0.00    -0.354 N 
ATOM     53  C   UNL A   1      43.079  27.964  28.160  1.00  0.00     0.074 A 
ATOM     54  C   UNL A   1      42.392  26.698  28.211  1.00  0.00     0.031 C 
ATOM     55  C   UNL A   1      49.041  25.848  26.393  1.00  0.00     0.029 A 
ATOM     56  C   UNL A   1      48.732  27.218  26.750  1.00  0.00     0.049 A 
ATOM     57  H   UNL A   1      46.923  27.989  27.443  1.00  0.00     0.167 HD
ATOM     58  C   UNL A   1      42.574  29.156  28.529  1.00  0.00     0.037 A 
ATOM     59  C   UNL A   1      49.571  28.260  26.685  1.00  0.00     0.037 A 
ATOM     60  C   UNL A   1      43.372  30.347  28.448  1.00  0.00     0.049 A 
ATOM     61  C   UNL A   1      48.951  29.594  26.988  1.00  0.00     0.074 A 
ATOM     62  C   UNL A   1      43.018  31.655  28.686  1.00  0.00     0.029 A 
ATOM     63  N   UNL A   1      44.724  30.345  28.096  1.00  0.00    -0.354 N 
ATOM     64  N   UNL A   1      47.710  29.864  27.334  1.00  0.00    -0.248 NA
ATOM     65  C   UNL A   1      49.816  30.763  26.875  1.00  0.00     0.031 C 
ATOM     66  C   UNL A   1      44.143  32.448  28.430  1.00  0.00     0.029 A 
ATOM     67  C   UNL A   1      45.220  31.630  28.104  1.00  0.00     0.049 A 
ATOM     68  H   UNL A   1      45.246  29.540  27.875  1.00  0.00     0.167 HD
ATOM     69  C   UNL A   1      47.644  31.233  27.504  1.00  0.00     0.074 A 
ATOM     70  C   UNL A   1      48.986  31.730  27.240  1.00  0.00     0.031 C 
ATOM     71  C   UNL A   1      46.589  32.019  27.840  1.00  0.00     0.037 A 
BRANCH  58  72
ATOM     72  C   UNL A   1      41.131  29.193  28.924  1.00  0.00     0.064 A 
ATOM     73  C   UNL A   1      40.717  29.101  30.263  1.00  0.00     0.173 A 
ATOM     74  C   UNL A   1      40.138  29.234  27.936  1.00  0.00     0.173 A 
ATOM     75  F   UNL A   1      41.624  29.000  31.246  1.00  0.00    -0.203 F 
ATOM     76  C   UNL A   1      39.366  29.027  30.593  1.00  0.00     0.198 A 
ATOM     77  C   UNL A   1      38.786  29.196  28.271  1.00  0.00     0.198 A 
ATOM     78  F   UNL A   1      40.475  29.281  26.639  1.00  0.00    -0.203 F 
ATOM     79  F   UNL A   1      38.997  28.861  31.871  1.00  0.00    -0.200 F 
ATOM     80  C   UNL A   1      38.401  29.083  29.598  1.00  0.00     0.200 A 
ATOM     81  F   UNL A   1      37.858  29.242  27.306  1.00  0.00    -0.200 F 
ATOM     82  F   UNL A   1      37.102  29.008  29.916  1.00  0.00    -0.200 F 
ENDBRANCH  58  72
BRANCH  59  83
ATOM     83  C   UNL A   1      50.971  28.085  26.216  1.00  0.00     0.064 A 
ATOM     84  C   UNL A   1      52.027  27.935  27.120  1.00  0.00     0.173 A 
ATOM     85  C   UNL A   1      51.289  28.060  24.845  1.00  0.00     0.173 A 
ATOM     86  F   UNL A   1      51.785  27.951  28.440  1.00  0.00    -0.203 F 
ATOM     87  C   UNL A   1      53.344  27.802  26.679  1.00  0.00     0.198 A 
ATOM     88  C   UNL A   1      52.599  27.886  24.404  1.00  0.00     0.198 A 
ATOM     89  F   UNL A   1      50.321  28.186  23.923  1.00  0.00    -0.203 F 
ATOM     90  F   UNL A   1      54.340  27.718  27.572  1.00  0.00    -0.200 F 
ATOM     91  C   UNL A   1      53.628  27.773  25.322  1.00  0.00     0.200 A 
ATOM     92  F   UNL A   1      52.862  27.835  23.091  1.00  0.00    -0.200 F 
ATOM     93  F   UNL A   1      54.894  27.649  24.901  1.00  0.00    -0.200 F 
ENDBRANCH  59  83
BRANCH  71  94
ATOM     94  C   UNL A   1      46.893  33.472  28.000  1.00  0.00     0.064 A 
ATOM     95  C   UNL A   1      46.734  34.379  26.945  1.00  0.00     0.173 A 
ATOM     96  C   UNL A   1      47.298  33.958  29.252  1.00  0.00     0.173 A 
ATOM     97  F   UNL A   1      46.367  33.946  25.729  1.00  0.00    -0.203 F 
ATOM     98  C   UNL A   1      47.004  35.728  27.133  1.00  0.00     0.198 A 
ATOM     99  C   UNL A   1      47.519  35.313  29.446  1.00  0.00     0.198 A 
ATOM    100  F   UNL A   1      47.450  33.119  30.288  1.00  0.00    -0.203 F 
ATOM    101  F   UNL A   1      46.909  36.574  26.098  1.00  0.00    -0.200 F 
ATOM    102  C   UNL A   1      47.382  36.195  28.383  1.00  0.00     0.200 A 
ATOM    103  F   UNL A   1      47.858  35.766  30.660  1.00  0.00    -0.200 F 
ATOM    104  F   UNL A   1      47.621  37.500  28.565  1.00  0.00    -0.200 F 
ENDBRANCH  71  94
ENDBRANCH  45  46
ENDBRANCH  38  40
ENDBRANCH  37  38
ENDBRANCH  36  37
ENDBRANCH  35  36
ENDBRANCH  34  35
ENDBRANCH  33  34
ENDBRANCH   1  33
TORSDOF 23
ENDMDL
