MODEL 1
REMARK VINA RESULT:     -10.1      0.000      0.000
REMARK SMILES O=C(C[NH2+]C[C@@H]1CCCO1)OCCOCCOCCOC(=O)c1ccc(-c2c3nc(c(-c4c(F)c(F)c(F)c(F)c4F)c4ccc([nH]4)c(-c4c(F)c(F)c(F)c(F)c4F)c4nc(c(-c5c(F)c(F)c(F)c(F)c5F)c5ccc2[nH]5)C=C4)C=C3)cc1
REMARK SMILES IDX 15 1 14 2 13 3 12 4 11 5 2 6 1 7 3 8 4 9 5 12 6 13 7 14
REMARK SMILES IDX 10 15 8 16 9 17 16 18 17 19 18 20 19 21 20 22 21 23 22 24
REMARK SMILES IDX 23 25 24 26 85 27 25 28 84 29 26 30 27 31 28 32 78 33 29 34
REMARK SMILES IDX 83 35 77 36 79 37 30 38 82 39 76 40 75 41 31 43 63 44 43 45
REMARK SMILES IDX 62 46 44 47 47 48 61 49 80 50 45 51 46 52 60 54 81 55 48 56
REMARK SMILES IDX 32 57 33 58 41 59 34 60 35 61 39 62 42 63 36 64 37 65 40 66
REMARK SMILES IDX 38 67 64 68 65 69 73 70 66 71 67 72 71 73 74 74 68 75 69 76
REMARK SMILES IDX 72 77 70 78 49 79 50 80 58 81 51 82 52 83 56 84 59 85 53 86
REMARK SMILES IDX 54 87 57 88 55 89
REMARK H PARENT 4 10 4 11 79 42 47 53
REMARK Flexibility Score: inf
ROOT
ATOM      1  C   UNL A   1      40.215  21.808  26.846  1.00  0.00     0.188 C 
ENDROOT
BRANCH   1   2
ATOM      2  O   UNL A   1      39.146  21.650  25.927  1.00  0.00    -0.376 OA
BRANCH   2   3
ATOM      3  C   UNL A   1      38.030  22.506  26.127  1.00  0.00     0.202 C 
BRANCH   3   4
ATOM      4  C   UNL A   1      36.817  22.142  25.269  1.00  0.00     0.261 C 
BRANCH   4   5
ATOM      5  O   UNL A   1      35.837  21.276  25.880  1.00  0.00    -0.459 OA
BRANCH   5   6
ATOM      6  C   UNL A   1      34.607  21.652  26.295  1.00  0.00     0.361 C 
ATOM      7  O   UNL A   1      34.236  21.399  27.441  1.00  0.00    -0.245 OA
BRANCH   6   8
ATOM      8  C   UNL A   1      33.647  22.258  25.285  1.00  0.00     0.384 C 
BRANCH   8   9
ATOM      9  N   UNL A   1      33.406  21.379  24.130  1.00  0.00    -0.335 N 
ATOM     10  H   UNL A   1      34.307  21.103  23.738  1.00  0.00     0.346 HD
ATOM     11  H   UNL A   1      32.844  21.902  23.459  1.00  0.00     0.346 HD
BRANCH   9  12
ATOM     12  C   UNL A   1      32.654  20.161  24.484  1.00  0.00     0.293 C 
BRANCH  12  13
ATOM     13  C   UNL A   1      33.360  18.792  24.444  1.00  0.00     0.173 C 
ATOM     14  C   UNL A   1      32.970  17.893  23.285  1.00  0.00     0.040 C 
ATOM     15  O   UNL A   1      33.143  18.031  25.650  1.00  0.00    -0.372 OA
ATOM     16  C   UNL A   1      33.326  16.532  23.831  1.00  0.00     0.031 C 
ATOM     17  C   UNL A   1      32.919  16.660  25.282  1.00  0.00     0.161 C 
ENDBRANCH  12  13
ENDBRANCH   9  12
ENDBRANCH   8   9
ENDBRANCH   6   8
ENDBRANCH   5   6
ENDBRANCH   4   5
ENDBRANCH   3   4
ENDBRANCH   2   3
ENDBRANCH   1   2
BRANCH   1  18
ATOM     18  C   UNL A   1      41.308  20.738  26.696  1.00  0.00     0.188 C 
BRANCH  18  19
ATOM     19  O   UNL A   1      42.121  20.764  25.530  1.00  0.00    -0.376 OA
BRANCH  19  20
ATOM     20  C   UNL A   1      43.522  20.987  25.699  1.00  0.00     0.202 C 
BRANCH  20  21
ATOM     21  C   UNL A   1      44.001  22.439  25.836  1.00  0.00     0.261 C 
BRANCH  21  22
ATOM     22  O   UNL A   1      43.268  23.388  25.031  1.00  0.00    -0.460 OA
BRANCH  22  23
ATOM     23  C   UNL A   1      43.786  24.640  25.036  1.00  0.00     0.338 C 
ATOM     24  O   UNL A   1      44.825  25.016  24.518  1.00  0.00    -0.246 OA
BRANCH  23  25
ATOM     25  C   UNL A   1      42.891  25.602  25.702  1.00  0.00     0.060 A 
ATOM     26  C   UNL A   1      43.374  26.894  25.944  1.00  0.00     0.016 A 
ATOM     27  C   UNL A   1      41.726  25.152  26.327  1.00  0.00     0.016 A 
ATOM     28  C   UNL A   1      42.730  27.715  26.874  1.00  0.00     0.010 A 
ATOM     29  C   UNL A   1      41.084  25.976  27.260  1.00  0.00     0.010 A 
ATOM     30  C   UNL A   1      41.619  27.236  27.582  1.00  0.00    -0.014 A 
BRANCH  30  31
ATOM     31  C   UNL A   1      41.164  27.962  28.797  1.00  0.00     0.031 A 
ATOM     32  C   UNL A   1      41.938  27.791  30.080  1.00  0.00     0.074 A 
ATOM     33  C   UNL A   1      40.110  28.795  28.763  1.00  0.00     0.049 A 
ATOM     34  N   UNL A   1      41.741  28.341  31.252  1.00  0.00    -0.248 NA
ATOM     35  C   UNL A   1      43.090  26.877  30.033  1.00  0.00     0.031 C 
ATOM     36  C   UNL A   1      39.292  29.077  27.586  1.00  0.00     0.029 A 
ATOM     37  N   UNL A   1      39.550  29.558  29.758  1.00  0.00    -0.354 N 
ATOM     38  C   UNL A   1      42.739  27.839  32.079  1.00  0.00     0.074 A 
ATOM     39  C   UNL A   1      43.524  26.918  31.284  1.00  0.00     0.031 C 
ATOM     40  C   UNL A   1      38.331  29.953  27.927  1.00  0.00     0.029 A 
ATOM     41  C   UNL A   1      38.456  30.278  29.348  1.00  0.00     0.049 A 
ATOM     42  H   UNL A   1      39.900  29.586  30.678  1.00  0.00     0.167 HD
ATOM     43  C   UNL A   1      42.990  28.124  33.380  1.00  0.00     0.037 A 
ATOM     44  C   UNL A   1      37.647  31.101  30.044  1.00  0.00     0.037 A 
ATOM     45  C   UNL A   1      42.225  29.044  34.178  1.00  0.00     0.049 A 
ATOM     46  C   UNL A   1      37.916  31.364  31.503  1.00  0.00     0.074 A 
ATOM     47  C   UNL A   1      42.425  29.418  35.497  1.00  0.00     0.029 A 
ATOM     48  N   UNL A   1      41.108  29.732  33.733  1.00  0.00    -0.354 N 
ATOM     49  N   UNL A   1      38.887  30.917  32.262  1.00  0.00    -0.248 NA
ATOM     50  C   UNL A   1      36.973  32.253  32.201  1.00  0.00     0.031 C 
ATOM     51  C   UNL A   1      41.403  30.303  35.861  1.00  0.00     0.029 A 
ATOM     52  C   UNL A   1      40.593  30.511  34.757  1.00  0.00     0.049 A 
ATOM     53  H   UNL A   1      40.735  29.677  32.823  1.00  0.00     0.167 HD
ATOM     54  C   UNL A   1      38.694  31.497  33.510  1.00  0.00     0.074 A 
ATOM     55  C   UNL A   1      37.516  32.332  33.408  1.00  0.00     0.031 C 
ATOM     56  C   UNL A   1      39.431  31.353  34.640  1.00  0.00     0.037 A 
BRANCH  43  57
ATOM     57  C   UNL A   1      44.139  27.413  34.032  1.00  0.00     0.064 A 
ATOM     58  C   UNL A   1      43.975  26.161  34.643  1.00  0.00     0.173 A 
ATOM     59  C   UNL A   1      45.422  27.978  34.019  1.00  0.00     0.173 A 
ATOM     60  F   UNL A   1      42.764  25.586  34.691  1.00  0.00    -0.203 F 
ATOM     61  C   UNL A   1      45.053  25.510  35.237  1.00  0.00     0.198 A 
ATOM     62  C   UNL A   1      46.502  27.313  34.593  1.00  0.00     0.198 A 
ATOM     63  F   UNL A   1      45.630  29.171  33.442  1.00  0.00    -0.203 F 
ATOM     64  F   UNL A   1      44.868  24.333  35.849  1.00  0.00    -0.200 F 
ATOM     65  C   UNL A   1      46.316  26.083  35.206  1.00  0.00     0.200 A 
ATOM     66  F   UNL A   1      47.723  27.864  34.554  1.00  0.00    -0.200 F 
ATOM     67  F   UNL A   1      47.353  25.454  35.775  1.00  0.00    -0.200 F 
ENDBRANCH  43  57
BRANCH  44  68
ATOM     68  C   UNL A   1      36.502  31.760  29.366  1.00  0.00     0.064 A 
ATOM     69  C   UNL A   1      35.392  31.018  28.941  1.00  0.00     0.173 A 
ATOM     70  C   UNL A   1      36.506  33.138  29.107  1.00  0.00     0.173 A 
ATOM     71  F   UNL A   1      35.357  29.692  29.145  1.00  0.00    -0.203 F 
ATOM     72  C   UNL A   1      34.336  31.625  28.265  1.00  0.00     0.198 A 
ATOM     73  C   UNL A   1      35.438  33.749  28.453  1.00  0.00     0.198 A 
ATOM     74  F   UNL A   1      37.546  33.892  29.493  1.00  0.00    -0.203 F 
ATOM     75  F   UNL A   1      33.307  30.885  27.832  1.00  0.00    -0.200 F 
ATOM     76  C   UNL A   1      34.358  32.991  28.026  1.00  0.00     0.200 A 
ATOM     77  F   UNL A   1      35.457  35.071  28.234  1.00  0.00    -0.200 F 
ATOM     78  F   UNL A   1      33.342  33.576  27.378  1.00  0.00    -0.200 F 
ENDBRANCH  44  68
BRANCH  56  79
ATOM     79  C   UNL A   1      39.017  32.148  35.843  1.00  0.00     0.064 A 
ATOM     80  C   UNL A   1      38.226  31.591  36.858  1.00  0.00     0.173 A 
ATOM     81  C   UNL A   1      39.450  33.474  35.999  1.00  0.00     0.173 A 
ATOM     82  F   UNL A   1      37.775  30.333  36.748  1.00  0.00    -0.203 F 
ATOM     83  C   UNL A   1      37.863  32.341  37.974  1.00  0.00     0.198 A 
ATOM     84  C   UNL A   1      39.106  34.212  37.129  1.00  0.00     0.198 A 
ATOM     85  F   UNL A   1      40.214  34.051  35.060  1.00  0.00    -0.203 F 
ATOM     86  F   UNL A   1      37.069  31.802  38.911  1.00  0.00    -0.200 F 
ATOM     87  C   UNL A   1      38.308  33.648  38.111  1.00  0.00     0.200 A 
ATOM     88  F   UNL A   1      39.545  35.470  37.264  1.00  0.00    -0.200 F 
ATOM     89  F   UNL A   1      37.960  34.365  39.188  1.00  0.00    -0.200 F 
ENDBRANCH  56  79
ENDBRANCH  30  31
ENDBRANCH  23  25
ENDBRANCH  22  23
ENDBRANCH  21  22
ENDBRANCH  20  21
ENDBRANCH  19  20
ENDBRANCH  18  19
ENDBRANCH   1  18
TORSDOF 20
ENDMDL
MODEL 2
REMARK VINA RESULT:     -10.0      4.268      9.547
REMARK SMILES O=C(C[NH2+]C[C@@H]1CCCO1)OCCOCCOCCOC(=O)c1ccc(-c2c3nc(c(-c4c(F)c(F)c(F)c(F)c4F)c4ccc([nH]4)c(-c4c(F)c(F)c(F)c(F)c4F)c4nc(c(-c5c(F)c(F)c(F)c(F)c5F)c5ccc2[nH]5)C=C4)C=C3)cc1
REMARK SMILES IDX 15 1 14 2 13 3 12 4 11 5 2 6 1 7 3 8 4 9 5 12 6 13 7 14
REMARK SMILES IDX 10 15 8 16 9 17 16 18 17 19 18 20 19 21 20 22 21 23 22 24
REMARK SMILES IDX 23 25 24 26 85 27 25 28 84 29 26 30 27 31 28 32 78 33 29 34
REMARK SMILES IDX 83 35 77 36 79 37 30 38 82 39 76 40 75 41 31 43 63 44 43 45
REMARK SMILES IDX 62 46 44 47 47 48 61 49 80 50 45 51 46 52 60 54 81 55 48 56
REMARK SMILES IDX 32 57 33 58 41 59 34 60 35 61 39 62 42 63 36 64 37 65 40 66
REMARK SMILES IDX 38 67 64 68 65 69 73 70 66 71 67 72 71 73 74 74 68 75 69 76
REMARK SMILES IDX 72 77 70 78 49 79 50 80 58 81 51 82 52 83 56 84 59 85 53 86
REMARK SMILES IDX 54 87 57 88 55 89
REMARK H PARENT 4 10 4 11 79 42 47 53
REMARK Flexibility Score: inf
ROOT
ATOM      1  C   UNL A   1      32.566  28.507  26.095  1.00  0.00     0.188 C 
ENDROOT
BRANCH   1   2
ATOM      2  O   UNL A   1      33.690  27.907  25.470  1.00  0.00    -0.376 OA
BRANCH   2   3
ATOM      3  C   UNL A   1      33.769  26.493  25.571  1.00  0.00     0.202 C 
BRANCH   3   4
ATOM      4  C   UNL A   1      32.450  25.781  25.263  1.00  0.00     0.261 C 
BRANCH   4   5
ATOM      5  O   UNL A   1      32.357  25.133  23.978  1.00  0.00    -0.459 OA
BRANCH   5   6
ATOM      6  C   UNL A   1      31.385  25.342  23.061  1.00  0.00     0.361 C 
ATOM      7  O   UNL A   1      30.325  24.720  23.131  1.00  0.00    -0.245 OA
BRANCH   6   8
ATOM      8  C   UNL A   1      31.679  26.245  21.875  1.00  0.00     0.384 C 
BRANCH   8   9
ATOM      9  N   UNL A   1      31.682  27.672  22.232  1.00  0.00    -0.335 N 
ATOM     10  H   UNL A   1      31.979  28.209  21.417  1.00  0.00     0.346 HD
ATOM     11  H   UNL A   1      32.322  27.790  23.017  1.00  0.00     0.346 HD
BRANCH   9  12
ATOM     12  C   UNL A   1      30.359  28.158  22.661  1.00  0.00     0.293 C 
BRANCH  12  13
ATOM     13  C   UNL A   1      29.948  29.612  22.362  1.00  0.00     0.173 C 
ATOM     14  C   UNL A   1      29.307  30.359  23.518  1.00  0.00     0.040 C 
ATOM     15  O   UNL A   1      29.032  29.704  21.251  1.00  0.00    -0.372 OA
ATOM     16  C   UNL A   1      28.532  31.429  22.789  1.00  0.00     0.031 C 
ATOM     17  C   UNL A   1      28.028  30.679  21.577  1.00  0.00     0.161 C 
ENDBRANCH  12  13
ENDBRANCH   9  12
ENDBRANCH   8   9
ENDBRANCH   6   8
ENDBRANCH   5   6
ENDBRANCH   4   5
ENDBRANCH   3   4
ENDBRANCH   2   3
ENDBRANCH   1   2
BRANCH   1  18
ATOM     18  C   UNL A   1      32.460  30.018  25.835  1.00  0.00     0.188 C 
BRANCH  18  19
ATOM     19  O   UNL A   1      31.958  30.847  26.875  1.00  0.00    -0.376 OA
BRANCH  19  20
ATOM     20  C   UNL A   1      31.382  32.102  26.507  1.00  0.00     0.202 C 
BRANCH  20  21
ATOM     21  C   UNL A   1      32.153  33.376  26.882  1.00  0.00     0.261 C 
BRANCH  21  22
ATOM     22  O   UNL A   1      32.624  33.409  28.247  1.00  0.00    -0.460 OA
BRANCH  22  23
ATOM     23  C   UNL A   1      33.775  34.102  28.422  1.00  0.00     0.338 C 
ATOM     24  O   UNL A   1      33.899  35.301  28.614  1.00  0.00    -0.246 OA
BRANCH  23  25
ATOM     25  C   UNL A   1      34.952  33.217  28.438  1.00  0.00     0.060 A 
ATOM     26  C   UNL A   1      34.769  31.882  28.819  1.00  0.00     0.016 A 
ATOM     27  C   UNL A   1      36.235  33.764  28.363  1.00  0.00     0.016 A 
ATOM     28  C   UNL A   1      35.869  31.110  29.201  1.00  0.00     0.010 A 
ATOM     29  C   UNL A   1      37.336  32.988  28.749  1.00  0.00     0.010 A 
ATOM     30  C   UNL A   1      37.150  31.679  29.227  1.00  0.00    -0.014 A 
BRANCH  30  31
ATOM     31  C   UNL A   1      38.240  30.979  29.957  1.00  0.00     0.031 A 
ATOM     32  C   UNL A   1      38.449  31.282  31.419  1.00  0.00     0.074 A 
ATOM     33  C   UNL A   1      39.009  30.057  29.352  1.00  0.00     0.049 A 
ATOM     34  N   UNL A   1      39.319  30.778  32.259  1.00  0.00    -0.248 NA
ATOM     35  C   UNL A   1      37.557  32.290  32.013  1.00  0.00     0.031 C 
ATOM     36  C   UNL A   1      38.897  29.645  27.956  1.00  0.00     0.029 A 
ATOM     37  N   UNL A   1      40.042  29.300  29.849  1.00  0.00    -0.354 N 
ATOM     38  C   UNL A   1      39.079  31.406  33.475  1.00  0.00     0.074 A 
ATOM     39  C   UNL A   1      38.003  32.350  33.259  1.00  0.00     0.031 C 
ATOM     40  C   UNL A   1      39.827  28.707  27.705  1.00  0.00     0.029 A 
ATOM     41  C   UNL A   1      40.610  28.467  28.918  1.00  0.00     0.049 A 
ATOM     42  H   UNL A   1      40.346  29.350  30.784  1.00  0.00     0.167 HD
ATOM     43  C   UNL A   1      39.690  31.211  34.669  1.00  0.00     0.037 A 
ATOM     44  C   UNL A   1      41.645  27.613  29.032  1.00  0.00     0.037 A 
ATOM     45  C   UNL A   1      40.753  30.269  34.900  1.00  0.00     0.049 A 
ATOM     46  C   UNL A   1      42.343  27.450  30.358  1.00  0.00     0.074 A 
ATOM     47  C   UNL A   1      41.411  29.983  36.084  1.00  0.00     0.029 A 
ATOM     48  N   UNL A   1      41.318  29.465  33.923  1.00  0.00    -0.354 N 
ATOM     49  N   UNL A   1      42.080  28.018  31.510  1.00  0.00    -0.248 NA
ATOM     50  C   UNL A   1      43.482  26.519  30.397  1.00  0.00     0.031 C 
ATOM     51  C   UNL A   1      42.403  29.032  35.814  1.00  0.00     0.029 A 
ATOM     52  C   UNL A   1      42.333  28.698  34.472  1.00  0.00     0.049 A 
ATOM     53  H   UNL A   1      41.039  29.441  32.979  1.00  0.00     0.167 HD
ATOM     54  C   UNL A   1      42.992  27.488  32.415  1.00  0.00     0.074 A 
ATOM     55  C   UNL A   1      43.815  26.550  31.681  1.00  0.00     0.031 C 
ATOM     56  C   UNL A   1      43.133  27.753  33.737  1.00  0.00     0.037 A 
BRANCH  43  57
ATOM     57  C   UNL A   1      39.231  32.052  35.824  1.00  0.00     0.064 A 
ATOM     58  C   UNL A   1      39.713  33.354  36.019  1.00  0.00     0.173 A 
ATOM     59  C   UNL A   1      38.278  31.558  36.725  1.00  0.00     0.173 A 
ATOM     60  F   UNL A   1      40.635  33.865  35.190  1.00  0.00    -0.203 F 
ATOM     61  C   UNL A   1      39.271  34.125  37.092  1.00  0.00     0.198 A 
ATOM     62  C   UNL A   1      37.821  32.341  37.782  1.00  0.00     0.198 A 
ATOM     63  F   UNL A   1      37.783  30.320  36.577  1.00  0.00    -0.203 F 
ATOM     64  F   UNL A   1      39.772  35.353  37.284  1.00  0.00    -0.200 F 
ATOM     65  C   UNL A   1      38.321  33.620  37.968  1.00  0.00     0.200 A 
ATOM     66  F   UNL A   1      36.897  31.854  38.622  1.00  0.00    -0.200 F 
ATOM     67  F   UNL A   1      37.895  34.365  38.997  1.00  0.00    -0.200 F 
ENDBRANCH  43  57
BRANCH  44  68
ATOM     68  C   UNL A   1      42.088  26.823  27.855  1.00  0.00     0.064 A 
ATOM     69  C   UNL A   1      43.059  27.322  26.976  1.00  0.00     0.173 A 
ATOM     70  C   UNL A   1      41.531  25.569  27.572  1.00  0.00     0.173 A 
ATOM     71  F   UNL A   1      43.600  28.530  27.194  1.00  0.00    -0.203 F 
ATOM     72  C   UNL A   1      43.443  26.605  25.846  1.00  0.00     0.198 A 
ATOM     73  C   UNL A   1      41.934  24.840  26.455  1.00  0.00     0.198 A 
ATOM     74  F   UNL A   1      40.597  25.049  28.382  1.00  0.00    -0.203 F 
ATOM     75  F   UNL A   1      44.342  27.123  24.999  1.00  0.00    -0.200 F 
ATOM     76  C   UNL A   1      42.883  25.361  25.589  1.00  0.00     0.200 A 
ATOM     77  F   UNL A   1      41.400  23.634  26.215  1.00  0.00    -0.200 F 
ATOM     78  F   UNL A   1      43.255  24.669  24.504  1.00  0.00    -0.200 F 
ENDBRANCH  44  68
BRANCH  56  79
ATOM     79  C   UNL A   1      44.181  26.988  34.489  1.00  0.00     0.064 A 
ATOM     80  C   UNL A   1      45.474  27.499  34.678  1.00  0.00     0.173 A 
ATOM     81  C   UNL A   1      43.876  25.743  35.061  1.00  0.00     0.173 A 
ATOM     82  F   UNL A   1      45.818  28.677  34.140  1.00  0.00    -0.203 F 
ATOM     83  C   UNL A   1      46.430  26.779  35.391  1.00  0.00     0.198 A 
ATOM     84  C   UNL A   1      44.828  25.038  35.794  1.00  0.00     0.198 A 
ATOM     85  F   UNL A   1      42.653  25.213  34.915  1.00  0.00    -0.203 F 
ATOM     86  F   UNL A   1      47.672  27.266  35.522  1.00  0.00    -0.200 F 
ATOM     87  C   UNL A   1      46.104  25.553  35.953  1.00  0.00     0.200 A 
ATOM     88  F   UNL A   1      44.508  23.859  36.345  1.00  0.00    -0.200 F 
ATOM     89  F   UNL A   1      47.025  24.865  36.642  1.00  0.00    -0.200 F 
ENDBRANCH  56  79
ENDBRANCH  30  31
ENDBRANCH  23  25
ENDBRANCH  22  23
ENDBRANCH  21  22
ENDBRANCH  20  21
ENDBRANCH  19  20
ENDBRANCH  18  19
ENDBRANCH   1  18
TORSDOF 20
ENDMDL
MODEL 3
REMARK VINA RESULT:      -9.9      1.571      2.429
REMARK SMILES O=C(C[NH2+]C[C@@H]1CCCO1)OCCOCCOCCOC(=O)c1ccc(-c2c3nc(c(-c4c(F)c(F)c(F)c(F)c4F)c4ccc([nH]4)c(-c4c(F)c(F)c(F)c(F)c4F)c4nc(c(-c5c(F)c(F)c(F)c(F)c5F)c5ccc2[nH]5)C=C4)C=C3)cc1
REMARK SMILES IDX 15 1 14 2 13 3 12 4 11 5 2 6 1 7 3 8 4 9 5 12 6 13 7 14
REMARK SMILES IDX 10 15 8 16 9 17 16 18 17 19 18 20 19 21 20 22 21 23 22 24
REMARK SMILES IDX 23 25 24 26 85 27 25 28 84 29 26 30 27 31 28 32 78 33 29 34
REMARK SMILES IDX 83 35 77 36 79 37 30 38 82 39 76 40 75 41 31 43 63 44 43 45
REMARK SMILES IDX 62 46 44 47 47 48 61 49 80 50 45 51 46 52 60 54 81 55 48 56
REMARK SMILES IDX 32 57 33 58 41 59 34 60 35 61 39 62 42 63 36 64 37 65 40 66
REMARK SMILES IDX 38 67 64 68 65 69 73 70 66 71 67 72 71 73 74 74 68 75 69 76
REMARK SMILES IDX 72 77 70 78 49 79 50 80 58 81 51 82 52 83 56 84 59 85 53 86
REMARK SMILES IDX 54 87 57 88 55 89
REMARK H PARENT 4 10 4 11 79 42 47 53
REMARK Flexibility Score: inf
ROOT
ATOM      1  C   UNL A   1      40.365  21.659  26.991  1.00  0.00     0.188 C 
ENDROOT
BRANCH   1   2
ATOM      2  O   UNL A   1      39.305  21.878  26.073  1.00  0.00    -0.376 OA
BRANCH   2   3
ATOM      3  C   UNL A   1      38.590  23.095  26.237  1.00  0.00     0.202 C 
BRANCH   3   4
ATOM      4  C   UNL A   1      37.105  22.985  25.884  1.00  0.00     0.261 C 
BRANCH   4   5
ATOM      5  O   UNL A   1      36.690  23.621  24.657  1.00  0.00    -0.459 OA
BRANCH   5   6
ATOM      6  C   UNL A   1      36.032  23.016  23.642  1.00  0.00     0.361 C 
ATOM      7  O   UNL A   1      36.481  23.067  22.498  1.00  0.00    -0.245 OA
BRANCH   6   8
ATOM      8  C   UNL A   1      34.670  22.401  23.916  1.00  0.00     0.384 C 
BRANCH   8   9
ATOM      9  N   UNL A   1      33.852  23.214  24.830  1.00  0.00    -0.335 N 
ATOM     10  H   UNL A   1      34.475  23.723  25.458  1.00  0.00     0.346 HD
ATOM     11  H   UNL A   1      33.238  22.579  25.338  1.00  0.00     0.346 HD
BRANCH   9  12
ATOM     12  C   UNL A   1      32.999  24.186  24.124  1.00  0.00     0.293 C 
BRANCH  12  13
ATOM     13  C   UNL A   1      33.109  25.685  24.464  1.00  0.00     0.173 C 
ATOM     14  C   UNL A   1      34.071  26.028  25.587  1.00  0.00     0.040 C 
ATOM     15  O   UNL A   1      31.835  26.260  24.818  1.00  0.00    -0.372 OA
ATOM     16  C   UNL A   1      33.531  27.361  26.045  1.00  0.00     0.031 C 
ATOM     17  C   UNL A   1      32.038  27.150  25.928  1.00  0.00     0.161 C 
ENDBRANCH  12  13
ENDBRANCH   9  12
ENDBRANCH   8   9
ENDBRANCH   6   8
ENDBRANCH   5   6
ENDBRANCH   4   5
ENDBRANCH   3   4
ENDBRANCH   2   3
ENDBRANCH   1   2
BRANCH   1  18
ATOM     18  C   UNL A   1      41.253  20.461  26.618  1.00  0.00     0.188 C 
BRANCH  18  19
ATOM     19  O   UNL A   1      42.093  20.575  25.477  1.00  0.00    -0.376 OA
BRANCH  19  20
ATOM     20  C   UNL A   1      43.481  20.832  25.696  1.00  0.00     0.202 C 
BRANCH  20  21
ATOM     21  C   UNL A   1      43.913  22.293  25.892  1.00  0.00     0.261 C 
BRANCH  21  22
ATOM     22  O   UNL A   1      43.205  23.241  25.064  1.00  0.00    -0.460 OA
BRANCH  22  23
ATOM     23  C   UNL A   1      43.736  24.488  25.067  1.00  0.00     0.338 C 
ATOM     24  O   UNL A   1      44.780  24.853  24.552  1.00  0.00    -0.246 OA
BRANCH  23  25
ATOM     25  C   UNL A   1      42.848  25.461  25.728  1.00  0.00     0.060 A 
ATOM     26  C   UNL A   1      43.327  26.761  25.929  1.00  0.00     0.016 A 
ATOM     27  C   UNL A   1      41.698  25.020  26.385  1.00  0.00     0.016 A 
ATOM     28  C   UNL A   1      42.697  27.601  26.851  1.00  0.00     0.010 A 
ATOM     29  C   UNL A   1      41.069  25.862  27.311  1.00  0.00     0.010 A 
ATOM     30  C   UNL A   1      41.603  27.133  27.592  1.00  0.00    -0.014 A 
BRANCH  30  31
ATOM     31  C   UNL A   1      41.167  27.885  28.798  1.00  0.00     0.031 A 
ATOM     32  C   UNL A   1      41.962  27.741  30.072  1.00  0.00     0.074 A 
ATOM     33  C   UNL A   1      40.113  28.718  28.762  1.00  0.00     0.049 A 
ATOM     34  N   UNL A   1      41.783  28.317  31.236  1.00  0.00    -0.248 NA
ATOM     35  C   UNL A   1      43.112  26.825  30.027  1.00  0.00     0.031 C 
ATOM     36  C   UNL A   1      39.278  28.975  27.593  1.00  0.00     0.029 A 
ATOM     37  N   UNL A   1      39.569  29.503  29.749  1.00  0.00    -0.354 N 
ATOM     38  C   UNL A   1      42.793  27.832  32.057  1.00  0.00     0.074 A 
ATOM     39  C   UNL A   1      43.565  26.892  31.271  1.00  0.00     0.031 C 
ATOM     40  C   UNL A   1      38.323  29.860  27.930  1.00  0.00     0.029 A 
ATOM     41  C   UNL A   1      38.470  30.216  29.341  1.00  0.00     0.049 A 
ATOM     42  H   UNL A   1      39.934  29.551  30.663  1.00  0.00     0.167 HD
ATOM     43  C   UNL A   1      43.065  28.144  33.347  1.00  0.00     0.037 A 
ATOM     44  C   UNL A   1      37.673  31.055  30.031  1.00  0.00     0.037 A 
ATOM     45  C   UNL A   1      42.313  29.083  34.137  1.00  0.00     0.049 A 
ATOM     46  C   UNL A   1      37.964  31.348  31.480  1.00  0.00     0.074 A 
ATOM     47  C   UNL A   1      42.533  29.484  35.444  1.00  0.00     0.029 A 
ATOM     48  N   UNL A   1      41.189  29.762  33.694  1.00  0.00    -0.354 N 
ATOM     49  N   UNL A   1      38.946  30.917  32.233  1.00  0.00    -0.248 NA
ATOM     50  C   UNL A   1      37.033  32.253  32.173  1.00  0.00     0.031 C 
ATOM     51  C   UNL A   1      41.518  30.378  35.805  1.00  0.00     0.029 A 
ATOM     52  C   UNL A   1      40.690  30.563  34.709  1.00  0.00     0.049 A 
ATOM     53  H   UNL A   1      40.802  29.687  32.792  1.00  0.00     0.167 HD
ATOM     54  C   UNL A   1      38.774  31.524  33.472  1.00  0.00     0.074 A 
ATOM     55  C   UNL A   1      37.594  32.357  33.369  1.00  0.00     0.031 C 
ATOM     56  C   UNL A   1      39.528  31.403  34.592  1.00  0.00     0.037 A 
BRANCH  43  57
ATOM     57  C   UNL A   1      44.222  27.446  33.997  1.00  0.00     0.064 A 
ATOM     58  C   UNL A   1      44.068  26.207  34.635  1.00  0.00     0.173 A 
ATOM     59  C   UNL A   1      45.505  28.010  33.954  1.00  0.00     0.173 A 
ATOM     60  F   UNL A   1      42.858  25.633  34.712  1.00  0.00    -0.203 F 
ATOM     61  C   UNL A   1      45.155  25.568  35.226  1.00  0.00     0.198 A 
ATOM     62  C   UNL A   1      46.594  27.357  34.525  1.00  0.00     0.198 A 
ATOM     63  F   UNL A   1      45.705  29.192  33.350  1.00  0.00    -0.203 F 
ATOM     64  F   UNL A   1      44.979  24.403  35.864  1.00  0.00    -0.200 F 
ATOM     65  C   UNL A   1      46.417  26.140  35.165  1.00  0.00     0.200 A 
ATOM     66  F   UNL A   1      47.814  27.908  34.458  1.00  0.00    -0.200 F 
ATOM     67  F   UNL A   1      47.462  25.522  35.732  1.00  0.00    -0.200 F 
ENDBRANCH  43  57
BRANCH  44  68
ATOM     68  C   UNL A   1      36.517  31.700  29.357  1.00  0.00     0.064 A 
ATOM     69  C   UNL A   1      35.411  30.945  28.944  1.00  0.00     0.173 A 
ATOM     70  C   UNL A   1      36.508  33.076  29.090  1.00  0.00     0.173 A 
ATOM     71  F   UNL A   1      35.388  29.621  29.155  1.00  0.00    -0.203 F 
ATOM     72  C   UNL A   1      34.346  31.540  28.272  1.00  0.00     0.198 A 
ATOM     73  C   UNL A   1      35.431  33.674  28.440  1.00  0.00     0.198 A 
ATOM     74  F   UNL A   1      37.544  33.840  29.464  1.00  0.00    -0.203 F 
ATOM     75  F   UNL A   1      33.319  30.789  27.849  1.00  0.00    -0.200 F 
ATOM     76  C   UNL A   1      34.355  32.905  28.024  1.00  0.00     0.200 A 
ATOM     77  F   UNL A   1      35.438  34.995  28.212  1.00  0.00    -0.200 F 
ATOM     78  F   UNL A   1      33.329  33.477  27.379  1.00  0.00    -0.200 F 
ENDBRANCH  44  68
BRANCH  56  79
ATOM     79  C   UNL A   1      39.133  32.224  35.784  1.00  0.00     0.064 A 
ATOM     80  C   UNL A   1      38.319  31.704  36.801  1.00  0.00     0.173 A 
ATOM     81  C   UNL A   1      39.607  33.538  35.928  1.00  0.00     0.173 A 
ATOM     82  F   UNL A   1      37.829  30.460  36.702  1.00  0.00    -0.203 F 
ATOM     83  C   UNL A   1      37.974  32.478  37.907  1.00  0.00     0.198 A 
ATOM     84  C   UNL A   1      39.281  34.299  37.048  1.00  0.00     0.198 A 
ATOM     85  F   UNL A   1      40.394  34.080  34.987  1.00  0.00    -0.203 F 
ATOM     86  F   UNL A   1      37.159  31.976  38.845  1.00  0.00    -0.200 F 
ATOM     87  C   UNL A   1      38.460  33.771  38.032  1.00  0.00     0.200 A 
ATOM     88  F   UNL A   1      39.759  35.544  37.171  1.00  0.00    -0.200 F 
ATOM     89  F   UNL A   1      38.130  34.512  39.099  1.00  0.00    -0.200 F 
ENDBRANCH  56  79
ENDBRANCH  30  31
ENDBRANCH  23  25
ENDBRANCH  22  23
ENDBRANCH  21  22
ENDBRANCH  20  21
ENDBRANCH  19  20
ENDBRANCH  18  19
ENDBRANCH   1  18
TORSDOF 20
ENDMDL
